! wB97X-D3 SP def2-SVP
%pal
nprocs 24
end

* xyz 0 1
S 	 -98.1789 	 -22.9361 	 -67.1807 	 
C 	 -98.3341 	 -21.2139 	 -66.8323 	 
C 	 -97.6605 	 -20.8287 	 -65.71 	 
C 	 -96.9991 	 -21.9326 	 -65.0624 	 
C 	 -97.1874 	 -23.1337 	 -65.747 	 
H 	 -96.478 	 -21.8885 	 -64.1564 	 
C 	 -97.6103 	 -19.4492 	 -65.2219 	 
H 	 -97.423 	 -18.7244 	 -66.037 	 
H 	 -96.7248 	 -19.32 	 -64.6706 	 
C 	 -98.7062 	 -18.9343 	 -64.2804 	 
H 	 -98.6339 	 -17.8669 	 -64.2539 	 
H 	 -99.6887 	 -19.2019 	 -64.7018 	 
C 	 -98.6597 	 -19.4521 	 -62.8065 	 
H 	 -97.8531 	 -19.0017 	 -62.2707 	 
H 	 -99.5976 	 -19.1272 	 -62.1907 	 
H 	 -98.4732 	 -20.5098 	 -62.7451 	 
S 	 -95.9537 	 -25.4669 	 -66.49 	 
C 	 -95.626 	 -26.7785 	 -65.3042 	 
C 	 -95.8766 	 -26.3066 	 -64.0371 	 
C 	 -96.5153 	 -25.011 	 -64.019 	 
C 	 -96.6638 	 -24.4437 	 -65.2936 	 
H 	 -95.5912 	 -26.8331 	 -63.1068 	 
C 	 -96.981 	 -24.5026 	 -62.7118 	 
H 	 -97.5842 	 -25.1879 	 -62.1192 	 
H 	 -97.6055 	 -23.6917 	 -62.8511 	 
C 	 -95.8277 	 -23.894 	 -61.8377 	 
H 	 -95.136 	 -23.3391 	 -62.3874 	 
H 	 -95.3575 	 -24.815 	 -61.5702 	 
C 	 -96.2672 	 -23.1435 	 -60.5572 	 
H 	 -96.9553 	 -23.6804 	 -59.936 	 
H 	 -96.7016 	 -22.1406 	 -60.7824 	 
H 	 -95.4539 	 -22.7556 	 -59.8869 	 
H 	 -98.9305 	 -20.565 	 -67.4601 	 
H 	 -95.0971 	 -27.7096 	 -65.5597 	 
*
