! wB97X-D3 SP def2-SVP
%pal
nprocs 24
end

* xyz 0 1
S 	 -45.1075 	 12.8964 	 21.804 	 
C 	 -44.4131 	 14.4999 	 21.6362 	 
C 	 -44.0512 	 15.0562 	 22.8374 	 
C 	 -44.297 	 14.2009 	 23.8993 	 
C 	 -45.0014 	 13.0592 	 23.5569 	 
H 	 -44.0458 	 14.4121 	 24.9299 	 
C 	 -43.1287 	 16.3103 	 22.9999 	 
H 	 -42.8624 	 16.4551 	 24.0853 	 
H 	 -43.767 	 17.0635 	 22.5678 	 
C 	 -41.8912 	 16.2589 	 22.1073 	 
H 	 -42.1458 	 16.1318 	 21.0289 	 
H 	 -41.3629 	 17.2068 	 22.1126 	 
C 	 -40.8818 	 15.285 	 22.5346 	 
H 	 -39.9544 	 15.2488 	 22.0053 	 
H 	 -40.63 	 15.4846 	 23.5663 	 
H 	 -41.3259 	 14.3059 	 22.4442 	 
S 	 -44.5303 	 10.3631 	 23.979 	 
C 	 -45.1579 	 9.60533 	 25.3676 	 
C 	 -46.0862 	 10.3872 	 25.9742 	 
C 	 -46.1197 	 11.7551 	 25.5361 	 
C 	 -45.2789 	 11.916 	 24.4326 	 
H 	 -46.6271 	 9.93042 	 26.8047 	 
C 	 -46.9302 	 12.948 	 26.1279 	 
H 	 -46.8761 	 13.8227 	 25.4847 	 
H 	 -46.5667 	 13.269 	 27.1625 	 
C 	 -48.3718 	 12.6584 	 26.2896 	 
H 	 -48.3996 	 11.8505 	 27.0274 	 
H 	 -48.7855 	 12.3138 	 25.3372 	 
C 	 -49.2936 	 13.7907 	 26.7532 	 
H 	 -49.5535 	 14.4828 	 25.9406 	 
H 	 -48.852 	 14.3613 	 27.554 	 
H 	 -50.2638 	 13.3327 	 27.0774 	 
H 	 -44.4184 	 14.983 	 20.6284 	 
H 	 -44.8573 	 8.65856 	 25.7081 	 
*
