! wB97X-D3 SP def2-SVP
%pal
nprocs 24
end

* xyz 0 1
S 	 -129.915 	 30.5138 	 -13.5559 	 
C 	 -129.681 	 30.4108 	 -15.2966 	 
C 	 -130.719 	 29.7478 	 -15.8185 	 
C 	 -131.674 	 29.348 	 -14.8525 	 
C 	 -131.347 	 29.5863 	 -13.5697 	 
H 	 -132.611 	 28.8669 	 -15.0487 	 
C 	 -130.893 	 29.5711 	 -17.246 	 
H 	 -130.063 	 29.8967 	 -17.8583 	 
H 	 -131.74 	 30.1217 	 -17.6289 	 
C 	 -131.191 	 28.1771 	 -17.79 	 
H 	 -132.235 	 27.9102 	 -17.5213 	 
H 	 -131.075 	 28.258 	 -18.8372 	 
C 	 -130.232 	 27.0448 	 -17.2421 	 
H 	 -129.133 	 27.3076 	 -17.4218 	 
H 	 -130.256 	 26.8481 	 -16.176 	 
H 	 -130.409 	 26.0319 	 -17.6633 	 
S 	 -132.684 	 30.4165 	 -11.3152 	 
C 	 -133.859 	 29.4135 	 -10.6869 	 
C 	 -133.776 	 28.126 	 -11.1852 	 
C 	 -132.786 	 27.9757 	 -12.1807 	 
C 	 -132.197 	 29.1716 	 -12.4353 	 
H 	 -134.396 	 27.3534 	 -10.8127 	 
C 	 -132.626 	 26.6535 	 -12.8929 	 
H 	 -132.317 	 25.8624 	 -12.2393 	 
H 	 -131.805 	 26.7123 	 -13.6104 	 
C 	 -133.815 	 26.0982 	 -13.6667 	 
H 	 -134.294 	 26.8291 	 -14.3811 	 
H 	 -134.531 	 25.8619 	 -12.926 	 
C 	 -133.554 	 24.8423 	 -14.4536 	 
H 	 -134.471 	 24.2613 	 -14.5413 	 
H 	 -132.795 	 24.1122 	 -14.0792 	 
H 	 -133.156 	 25.1591 	 -15.4209 	 
H 	 -128.694 	 30.614 	 -15.7813 	 
H 	 -134.493 	 29.7062 	 -9.89019 	 
*
