! wB97X-D3 SP def2-SVP
%pal
nprocs 24
end

* xyz 0 1
S 	 -91.806 	 52.2465 	 -93.7345 	 
C 	 -92.5245 	 51.0457 	 -92.734 	 
C 	 -92.9924 	 49.932 	 -93.4485 	 
C 	 -92.8589 	 50.19 	 -94.8234 	 
C 	 -92.1356 	 51.3005 	 -95.1834 	 
H 	 -93.2519 	 49.597 	 -95.6039 	 
C 	 -93.6796 	 48.7326 	 -92.9458 	 
H 	 -93.3726 	 47.8454 	 -93.558 	 
H 	 -94.7122 	 48.7962 	 -93.1429 	 
C 	 -93.4485 	 48.411 	 -91.4422 	 
H 	 -92.3971 	 48.4313 	 -91.3371 	 
H 	 -93.8506 	 49.2721 	 -90.9013 	 
C 	 -94.081 	 47.1029 	 -90.9375 	 
H 	 -95.1268 	 47.1348 	 -90.8561 	 
H 	 -93.7802 	 46.3049 	 -91.6315 	 
H 	 -93.6829 	 46.7587 	 -89.9444 	 
S 	 -90.0369 	 51.2938 	 -96.8466 	 
C 	 -90.2476 	 51.8789 	 -98.5184 	 
C 	 -91.5428 	 52.2535 	 -98.7678 	 
C 	 -92.3942 	 52.1203 	 -97.6467 	 
C 	 -91.7089 	 51.6144 	 -96.5027 	 
H 	 -91.7248 	 52.6255 	 -99.7487 	 
C 	 -93.87 	 52.5799 	 -97.7817 	 
H 	 -94.3707 	 52.5004 	 -96.8132 	 
H 	 -94.3285 	 51.8837 	 -98.4505 	 
C 	 -93.9858 	 53.9961 	 -98.0711 	 
H 	 -93.5878 	 54.1187 	 -99.0883 	 
H 	 -93.4002 	 54.5252 	 -97.3655 	 
C 	 -95.3812 	 54.5708 	 -98.1058 	 
H 	 -95.9704 	 54.3024 	 -97.106 	 
H 	 -95.9898 	 54.1472 	 -98.953 	 
H 	 -95.3588 	 55.6094 	 -98.176 	 
H 	 -92.5106 	 51.188 	 -91.6483 	 
H 	 -89.4498 	 51.9725 	 -99.2244 	 
*
