! wB97X-D3 SP def2-SVP
%pal
nprocs 24
end

* xyz 0 1
S 	 -116.736 	 30.142 	 -19.4361 	 
C 	 -118.235 	 29.1636 	 -19.2479 	 
C 	 -118.964 	 29.6017 	 -18.1315 	 
C 	 -118.384 	 30.681 	 -17.4813 	 
C 	 -117.265 	 31.1638 	 -18.0764 	 
H 	 -118.711 	 31.2333 	 -16.5961 	 
C 	 -120.157 	 28.8133 	 -17.4141 	 
H 	 -119.831 	 28.5902 	 -16.3593 	 
H 	 -120.354 	 27.7798 	 -17.8222 	 
C 	 -121.461 	 29.66 	 -17.3549 	 
H 	 -121.221 	 30.6242 	 -17.0536 	 
H 	 -122.017 	 29.7417 	 -18.2591 	 
C 	 -122.393 	 29.1845 	 -16.2511 	 
H 	 -123.261 	 29.8284 	 -16.3053 	 
H 	 -122.531 	 28.1497 	 -16.4353 	 
H 	 -122.015 	 29.3039 	 -15.2873 	 
S 	 -114.76 	 32.0951 	 -17.4276 	 
C 	 -114.553 	 33.8191 	 -17.1533 	 
C 	 -115.769 	 34.4494 	 -17.1649 	 
C 	 -116.898 	 33.6232 	 -17.4416 	 
C 	 -116.529 	 32.3068 	 -17.676 	 
H 	 -115.799 	 35.5381 	 -17.065 	 
C 	 -118.258 	 34.228 	 -17.4448 	 
H 	 -118.1 	 35.285 	 -17.1936 	 
H 	 -118.876 	 33.8502 	 -16.6277 	 
C 	 -119.1 	 34.2281 	 -18.8013 	 
H 	 -119.93 	 34.9879 	 -18.7781 	 
H 	 -119.655 	 33.2769 	 -18.8446 	 
C 	 -118.324 	 34.4666 	 -20.1294 	 
H 	 -117.644 	 33.6871 	 -20.4696 	 
H 	 -117.772 	 35.3911 	 -20.017 	 
H 	 -119.046 	 34.6283 	 -20.8795 	 
H 	 -118.454 	 28.2701 	 -19.7921 	 
H 	 -113.559 	 34.3416 	 -16.9836 	 
*
