! wB97X-D3 SP def2-SVP
%pal
nprocs 24
end

* xyz 0 1
S 	 -61.8524 	 1.01207 	 -19.5651 	 
C 	 -63.4556 	 1.12219 	 -20.3246 	 
C 	 -63.5087 	 0.435742 	 -21.5484 	 
C 	 -62.2915 	 -0.291167 	 -21.8358 	 
C 	 -61.3235 	 0.0247249 	 -20.9 	 
H 	 -62.0955 	 -0.937017 	 -22.6559 	 
C 	 -64.7078 	 0.328526 	 -22.437 	 
H 	 -65.3767 	 0.989789 	 -21.9727 	 
H 	 -65.1797 	 -0.647663 	 -22.4215 	 
C 	 -64.5017 	 0.787335 	 -23.8837 	 
H 	 -64.0497 	 1.7159 	 -23.8676 	 
H 	 -63.7976 	 0.147743 	 -24.4039 	 
C 	 -65.8041 	 1.12563 	 -24.6902 	 
H 	 -66.2965 	 0.224603 	 -24.995 	 
H 	 -66.5765 	 1.73599 	 -24.1999 	 
H 	 -65.5185 	 1.63455 	 -25.6467 	 
S 	 -59.3079 	 -1.28523 	 -19.5827 	 
C 	 -57.7843 	 -1.46939 	 -20.2702 	 
C 	 -57.8543 	 -1.0753 	 -21.5543 	 
C 	 -59.0766 	 -0.537871 	 -22.0488 	 
C 	 -59.9588 	 -0.550367 	 -20.9744 	 
H 	 -57.0646 	 -1.20067 	 -22.1676 	 
C 	 -59.2851 	 0.000661561 	 -23.4683 	 
H 	 -58.38 	 0.527443 	 -23.7698 	 
H 	 -60.1184 	 0.669503 	 -23.3784 	 
C 	 -59.6488 	 -0.987703 	 -24.5533 	 
H 	 -60.2944 	 -1.80036 	 -24.2651 	 
H 	 -58.7769 	 -1.55443 	 -24.6923 	 
C 	 -60.2711 	 -0.257085 	 -25.8142 	 
H 	 -61.2606 	 0.0275778 	 -25.5066 	 
H 	 -60.3846 	 -0.87393 	 -26.6356 	 
H 	 -59.7078 	 0.585143 	 -26.0785 	 
H 	 -64.3309 	 1.57499 	 -19.9826 	 
H 	 -57.0407 	 -2.04333 	 -19.7605 	 
*
