! wB97X-D3 SP def2-SVP
%pal
nprocs 24
end

* xyz 0 1
S 	 -132.815 	 27.0559 	 -18.775 	 
C 	 -133.151 	 25.6206 	 -17.8255 	 
C 	 -133.056 	 24.4782 	 -18.6202 	 
C 	 -132.825 	 24.8056 	 -19.9674 	 
C 	 -132.97 	 26.1723 	 -20.2528 	 
H 	 -132.639 	 24.0115 	 -20.6964 	 
C 	 -133.038 	 23.0006 	 -18.0704 	 
H 	 -133.758 	 22.4383 	 -18.6642 	 
H 	 -133.591 	 22.9905 	 -17.1053 	 
C 	 -131.657 	 22.3523 	 -17.9385 	 
H 	 -131.698 	 21.3197 	 -17.5756 	 
H 	 -131.264 	 22.4773 	 -18.9127 	 
C 	 -130.738 	 23.0156 	 -17.0116 	 
H 	 -131.08 	 22.9847 	 -15.9731 	 
H 	 -129.741 	 22.5336 	 -16.9699 	 
H 	 -130.517 	 24.0883 	 -17.1767 	 
S 	 -134.302 	 26.9454 	 -22.4565 	 
C 	 -133.403 	 27.6384 	 -23.7864 	 
C 	 -132.113 	 27.8665 	 -23.3979 	 
C 	 -131.782 	 27.3355 	 -22.1954 	 
C 	 -132.832 	 26.7645 	 -21.5602 	 
H 	 -131.319 	 28.2782 	 -24.0384 	 
C 	 -130.377 	 27.1755 	 -21.7208 	 
H 	 -130.411 	 26.5628 	 -20.7832 	 
H 	 -129.915 	 28.0613 	 -21.2556 	 
C 	 -129.424 	 26.5566 	 -22.7733 	 
H 	 -128.421 	 26.6613 	 -22.3606 	 
H 	 -129.532 	 27.0496 	 -23.774 	 
C 	 -129.733 	 25.1204 	 -22.9407 	 
H 	 -129.461 	 24.5051 	 -22.1143 	 
H 	 -129.26 	 24.6653 	 -23.8238 	 
H 	 -130.782 	 24.9801 	 -23.1298 	 
H 	 -133.318 	 25.6571 	 -16.7002 	 
H 	 -133.756 	 27.9195 	 -24.7961 	 
*
