! wB97X-D3 SP def2-SVP
%pal
nprocs 24
end

* xyz 0 1
S 	 -101.006 	 -0.410961 	 -109.698 	 
C 	 -102.539 	 -0.575444 	 -110.547 	 
C 	 -103.143 	 -1.78367 	 -110.258 	 
C 	 -102.437 	 -2.54626 	 -109.279 	 
C 	 -101.309 	 -1.93217 	 -108.772 	 
H 	 -102.66 	 -3.47002 	 -108.884 	 
C 	 -104.326 	 -2.35634 	 -111.095 	 
H 	 -105.096 	 -1.58523 	 -111.241 	 
H 	 -104.663 	 -3.22721 	 -110.548 	 
C 	 -103.846 	 -2.73445 	 -112.517 	 
H 	 -103.497 	 -1.84942 	 -113.107 	 
H 	 -103.021 	 -3.47223 	 -112.404 	 
C 	 -104.897 	 -3.49385 	 -113.167 	 
H 	 -105.819 	 -2.95727 	 -113.224 	 
H 	 -104.648 	 -3.74631 	 -114.197 	 
H 	 -105.098 	 -4.44521 	 -112.632 	 
S 	 -99.6682 	 -3.94782 	 -107.616 	 
C 	 -99.0428 	 -3.58518 	 -106.037 	 
C 	 -99.5424 	 -2.38106 	 -105.57 	 
C 	 -100.386 	 -1.73133 	 -106.487 	 
C 	 -100.539 	 -2.40145 	 -107.658 	 
H 	 -99.3788 	 -2.07662 	 -104.563 	 
C 	 -101.232 	 -0.516827 	 -106.041 	 
H 	 -102.058 	 -0.925343 	 -105.513 	 
H 	 -101.794 	 -0.0147334 	 -106.883 	 
C 	 -100.561 	 0.587004 	 -105.247 	 
H 	 -99.841 	 0.217132 	 -104.491 	 
H 	 -101.31 	 1.04994 	 -104.73 	 
C 	 -99.788 	 1.4785 	 -106.199 	 
H 	 -100.531 	 2.11782 	 -106.75 	 
H 	 -99.2418 	 0.935487 	 -106.932 	 
H 	 -99.2404 	 2.16297 	 -105.551 	 
H 	 -102.867 	 0.0304376 	 -111.417 	 
H 	 -98.573 	 -4.40073 	 -105.505 	 
*
