! wB97X-D3 SP def2-SVP
%pal
nprocs 24
end

* xyz 0 1
S 	 -55.3737 	 5.45821 	 -32.9641 	 
C 	 -56.3226 	 4.06363 	 -33.2662 	 
C 	 -55.5321 	 2.98191 	 -33.6903 	 
C 	 -54.1656 	 3.34667 	 -34.0005 	 
C 	 -53.9312 	 4.65247 	 -33.6155 	 
H 	 -53.4001 	 2.69421 	 -34.4844 	 
C 	 -56.0391 	 1.60724 	 -33.983 	 
H 	 -55.4999 	 1.16033 	 -34.8926 	 
H 	 -57.0775 	 1.66791 	 -34.2642 	 
C 	 -56.0841 	 0.767323 	 -32.7152 	 
H 	 -55.0843 	 0.57605 	 -32.2981 	 
H 	 -56.6994 	 1.27366 	 -31.9282 	 
C 	 -56.6171 	 -0.596158 	 -32.9556 	 
H 	 -56.1503 	 -1.05783 	 -33.8889 	 
H 	 -56.4103 	 -1.20667 	 -32.083 	 
H 	 -57.7037 	 -0.560496 	 -33.0569 	 
S 	 -52.8169 	 7.00778 	 -34.3691 	 
C 	 -51.0332 	 7.0943 	 -34.6331 	 
C 	 -50.3908 	 6.01227 	 -34.0652 	 
C 	 -51.298 	 5.03478 	 -33.6175 	 
C 	 -52.6484 	 5.4074 	 -33.6749 	 
H 	 -49.3646 	 5.98155 	 -34.104 	 
C 	 -50.7813 	 3.6908 	 -33.0726 	 
H 	 -51.619 	 3.19084 	 -32.5139 	 
H 	 -50.0169 	 3.94048 	 -32.3409 	 
C 	 -50.0921 	 2.86105 	 -34.2671 	 
H 	 -49.224 	 3.4069 	 -34.6595 	 
H 	 -50.8708 	 2.69539 	 -35.0204 	 
C 	 -49.6663 	 1.37488 	 -33.815 	 
H 	 -50.2519 	 0.954242 	 -33.0446 	 
H 	 -48.6773 	 1.51826 	 -33.3664 	 
H 	 -49.4931 	 0.632447 	 -34.6005 	 
H 	 -57.3551 	 3.87986 	 -33.1299 	 
H 	 -50.5732 	 7.98966 	 -35.0585 	 
*
