! wB97X-D3 SP def2-SVP
%pal
nprocs 24
end

* xyz 0 1
S 	 -98.7989 	 -26.9953 	 -66.1434 	 
C 	 -99.5458 	 -25.7576 	 -65.2052 	 
C 	 -98.5985 	 -25.0694 	 -64.4255 	 
C 	 -97.2864 	 -25.6664 	 -64.5066 	 
C 	 -97.2375 	 -26.697 	 -65.4524 	 
H 	 -96.4322 	 -25.3632 	 -63.9917 	 
C 	 -98.8905 	 -23.9716 	 -63.4528 	 
H 	 -98.5462 	 -24.4142 	 -62.4294 	 
H 	 -99.9483 	 -23.8667 	 -63.3042 	 
C 	 -98.3317 	 -22.5386 	 -63.7743 	 
H 	 -98.8682 	 -22.1502 	 -64.5306 	 
H 	 -98.6301 	 -21.907 	 -62.9783 	 
C 	 -96.8058 	 -22.4003 	 -64.0958 	 
H 	 -96.3549 	 -21.4679 	 -64.3509 	 
H 	 -96.1485 	 -22.8841 	 -63.3133 	 
H 	 -96.6733 	 -23.0875 	 -64.9153 	 
S 	 -96.5189 	 -29.1208 	 -66.5216 	 
C 	 -94.8874 	 -29.6199 	 -66.4921 	 
C 	 -94.0773 	 -28.6426 	 -65.9367 	 
C 	 -94.7132 	 -27.4727 	 -65.5294 	 
C 	 -96.1299 	 -27.5753 	 -65.8231 	 
H 	 -92.9957 	 -28.8055 	 -65.6013 	 
C 	 -94.0086 	 -26.3751 	 -64.8066 	 
H 	 -94.2439 	 -25.4047 	 -65.1582 	 
H 	 -93.0635 	 -26.4098 	 -65.3835 	 
C 	 -93.8761 	 -26.567 	 -63.278 	 
H 	 -93.0265 	 -27.2572 	 -63.0468 	 
H 	 -94.7639 	 -26.9741 	 -62.868 	 
C 	 -93.5191 	 -25.2609 	 -62.4841 	 
H 	 -93.3057 	 -25.519 	 -61.3996 	 
H 	 -94.2473 	 -24.4201 	 -62.6524 	 
H 	 -92.5619 	 -24.8752 	 -62.873 	 
H 	 -100.6 	 -25.5923 	 -65.1348 	 
H 	 -94.6194 	 -30.6063 	 -66.8175 	 
*
