! wB97X-D3 SP def2-SVP
%pal
nprocs 24
end

* xyz 0 1
S 	 45.6615 	 -33.344 	 -119.126 	 
C 	 46.5097 	 -32.2757 	 -120.231 	 
C 	 45.6997 	 -31.4317 	 -120.94 	 
C 	 44.3302 	 -31.7276 	 -120.692 	 
C 	 44.1191 	 -32.6202 	 -119.674 	 
H 	 43.5506 	 -31.1754 	 -121.231 	 
C 	 46.2732 	 -30.3723 	 -121.929 	 
H 	 47.1864 	 -29.9471 	 -121.572 	 
H 	 45.5834 	 -29.4889 	 -121.912 	 
C 	 46.547 	 -30.9375 	 -123.312 	 
H 	 47.0518 	 -30.0802 	 -123.79 	 
H 	 47.2638 	 -31.7579 	 -123.423 	 
C 	 45.2773 	 -31.3887 	 -123.96 	 
H 	 45.5562 	 -31.5254 	 -124.958 	 
H 	 44.9882 	 -32.3248 	 -123.564 	 
H 	 44.4532 	 -30.6453 	 -123.868 	 
S 	 42.4744 	 -33.1544 	 -117.642 	 
C 	 40.9476 	 -33.8928 	 -117.896 	 
C 	 40.6267 	 -33.9508 	 -119.227 	 
C 	 41.7714 	 -33.6761 	 -120.071 	 
C 	 42.8276 	 -33.1707 	 -119.331 	 
H 	 39.6631 	 -34.3402 	 -119.494 	 
C 	 41.6316 	 -33.5516 	 -121.541 	 
H 	 41.3908 	 -34.5156 	 -122.008 	 
H 	 42.6005 	 -33.3519 	 -121.895 	 
C 	 40.5562 	 -32.5197 	 -122.024 	 
H 	 40.7309 	 -31.5757 	 -121.405 	 
H 	 39.5843 	 -32.826 	 -121.674 	 
C 	 40.4631 	 -32.32 	 -123.545 	 
H 	 39.5101 	 -31.9857 	 -123.938 	 
H 	 40.6719 	 -33.1994 	 -124.036 	 
H 	 41.1921 	 -31.5027 	 -123.84 	 
H 	 47.6475 	 -32.2558 	 -120.296 	 
H 	 40.0863 	 -33.9328 	 -117.147 	 
*
