! wB97X-D3 SP def2-SVP
%pal
nprocs 24
end

* xyz 0 1
S 	 -126.713 	 63.1615 	 -57.9299 	 
C 	 -125.465 	 64.2779 	 -57.5161 	 
C 	 -124.673 	 63.8914 	 -56.4393 	 
C 	 -125.173 	 62.6932 	 -55.8891 	 
C 	 -126.326 	 62.2172 	 -56.5255 	 
H 	 -124.766 	 62.1776 	 -55.0308 	 
C 	 -123.433 	 64.689 	 -56.047 	 
H 	 -123.215 	 65.3401 	 -56.8332 	 
H 	 -122.577 	 63.9868 	 -56.0895 	 
C 	 -123.425 	 65.2871 	 -54.589 	 
H 	 -123.358 	 64.5785 	 -53.7588 	 
H 	 -122.497 	 65.8364 	 -54.4656 	 
C 	 -124.561 	 66.2022 	 -54.0652 	 
H 	 -125.527 	 65.7143 	 -54.0621 	 
H 	 -124.173 	 66.4564 	 -53.0826 	 
H 	 -124.711 	 67.035 	 -54.6672 	 
S 	 -127.751 	 60.0792 	 -57.5718 	 
C 	 -128.557 	 58.981 	 -56.5026 	 
C 	 -128.469 	 59.3937 	 -55.2068 	 
C 	 -127.474 	 60.4347 	 -55.0465 	 
C 	 -127.098 	 61.0227 	 -56.274 	 
H 	 -129.118 	 58.9062 	 -54.5261 	 
C 	 -126.985 	 60.8618 	 -53.6978 	 
H 	 -127.69 	 60.6935 	 -52.8866 	 
H 	 -126.741 	 61.9852 	 -53.6332 	 
C 	 -125.733 	 60.1244 	 -53.173 	 
H 	 -124.882 	 60.2354 	 -53.8343 	 
H 	 -126.015 	 59.0801 	 -53.055 	 
C 	 -125.427 	 60.6078 	 -51.7429 	 
H 	 -126.198 	 60.6003 	 -50.9721 	 
H 	 -125.158 	 61.66 	 -51.6024 	 
H 	 -124.582 	 60.0729 	 -51.2561 	 
H 	 -125.17 	 65.2228 	 -57.9632 	 
H 	 -129.067 	 58.1003 	 -56.8913 	 
*
