! wB97X-D3 SP def2-SVP
%pal
nprocs 24
end

* xyz 0 1
S 	 -109.382 	 60.0504 	 -16.5131 	 
C 	 -109.642 	 60.649 	 -14.9036 	 
C 	 -109.013 	 59.8394 	 -13.9696 	 
C 	 -108.192 	 58.8364 	 -14.609 	 
C 	 -108.227 	 58.808 	 -15.9751 	 
H 	 -107.785 	 58.0563 	 -14.0306 	 
C 	 -108.962 	 60.0913 	 -12.5155 	 
H 	 -108.799 	 59.2604 	 -11.8979 	 
H 	 -109.921 	 60.5236 	 -12.2467 	 
C 	 -107.821 	 60.9846 	 -12.0994 	 
H 	 -106.82 	 60.4477 	 -12.0256 	 
H 	 -107.711 	 61.7855 	 -12.8474 	 
C 	 -108.031 	 61.615 	 -10.6824 	 
H 	 -107.098 	 61.8369 	 -10.1545 	 
H 	 -108.602 	 62.5737 	 -10.7162 	 
H 	 -108.539 	 60.8768 	 -10.1036 	 
S 	 -108.44 	 57.3928 	 -18.4021 	 
C 	 -107.036 	 56.6765 	 -19.045 	 
C 	 -106.064 	 56.5431 	 -18.0989 	 
C 	 -106.323 	 57.2488 	 -16.8669 	 
C 	 -107.555 	 57.8993 	 -16.9111 	 
H 	 -105.196 	 55.8756 	 -18.2686 	 
C 	 -105.385 	 57.2221 	 -15.6696 	 
H 	 -104.601 	 56.4586 	 -15.8677 	 
H 	 -105.934 	 56.7738 	 -14.8572 	 
C 	 -104.698 	 58.583 	 -15.5382 	 
H 	 -105.38 	 59.4104 	 -15.7207 	 
H 	 -104.012 	 58.7089 	 -16.3178 	 
C 	 -103.96 	 58.9012 	 -14.2008 	 
H 	 -103.427 	 59.8762 	 -14.1837 	 
H 	 -103.281 	 58.1425 	 -13.8583 	 
H 	 -104.758 	 58.8119 	 -13.4719 	 
H 	 -110.143 	 61.5576 	 -14.6619 	 
H 	 -107.141 	 56.1811 	 -19.9924 	 
*
