! wB97X-D3 SP def2-SVP
%pal
nprocs 24
end

* xyz 0 1
S 	 -136.425 	 21.3847 	 -19.0392 	 
C 	 -137.975 	 20.5763 	 -18.8307 	 
C 	 -138.855 	 21.3303 	 -18.1078 	 
C 	 -138.183 	 22.4509 	 -17.5694 	 
C 	 -136.865 	 22.5513 	 -17.87 	 
H 	 -138.661 	 23.1398 	 -16.8377 	 
C 	 -140.287 	 20.9165 	 -17.8735 	 
H 	 -140.333 	 20.5017 	 -16.9155 	 
H 	 -140.466 	 20.0638 	 -18.5268 	 
C 	 -141.322 	 22.0612 	 -18.0849 	 
H 	 -141.004 	 22.8925 	 -17.3726 	 
H 	 -141.205 	 22.5338 	 -19.0739 	 
C 	 -142.774 	 21.6342 	 -17.7823 	 
H 	 -143.584 	 22.1293 	 -18.3958 	 
H 	 -143.002 	 20.5707 	 -18.0411 	 
H 	 -143.125 	 21.7289 	 -16.7371 	 
S 	 -135.135 	 24.642 	 -18.3005 	 
C 	 -134.137 	 25.2226 	 -16.9965 	 
C 	 -134.052 	 24.2917 	 -16.005 	 
C 	 -135.05 	 23.2616 	 -16.1304 	 
C 	 -135.817 	 23.4088 	 -17.2596 	 
H 	 -133.397 	 24.4251 	 -15.1733 	 
C 	 -135.296 	 22.2301 	 -15.0397 	 
H 	 -134.388 	 21.7352 	 -14.6901 	 
H 	 -135.753 	 21.414 	 -15.5125 	 
C 	 -136.026 	 22.6961 	 -13.6932 	 
H 	 -135.417 	 23.127 	 -12.9591 	 
H 	 -136.464 	 21.7865 	 -13.2079 	 
C 	 -137.203 	 23.6178 	 -14.0087 	 
H 	 -137.65 	 23.807 	 -12.9934 	 
H 	 -138.038 	 23.1326 	 -14.522 	 
H 	 -136.864 	 24.5241 	 -14.4912 	 
H 	 -138.121 	 19.6563 	 -19.3464 	 
H 	 -133.368 	 26.0019 	 -17.0568 	 
*
