! wB97X-D3 SP def2-SVP
%pal
nprocs 24
end

* xyz 0 1
S 	 -106.77 	 52.2186 	 -110.959 	 
C 	 -106.475 	 53.8608 	 -111.302 	 
C 	 -106.882 	 54.6345 	 -110.23 	 
C 	 -107.658 	 53.8998 	 -109.257 	 
C 	 -107.76 	 52.5542 	 -109.618 	 
H 	 -108.079 	 54.2853 	 -108.358 	 
C 	 -106.528 	 56.1072 	 -110.068 	 
H 	 -107.299 	 56.7161 	 -109.546 	 
H 	 -106.536 	 56.4605 	 -111.138 	 
C 	 -105.168 	 56.3683 	 -109.404 	 
H 	 -104.398 	 55.8374 	 -109.908 	 
H 	 -104.938 	 57.4168 	 -109.393 	 
C 	 -105.248 	 55.8943 	 -107.958 	 
H 	 -104.365 	 56.2552 	 -107.453 	 
H 	 -106.045 	 56.3636 	 -107.358 	 
H 	 -105.376 	 54.8076 	 -107.896 	 
S 	 -107.826 	 50.1721 	 -108.323 	 
C 	 -109.373 	 49.527 	 -107.806 	 
C 	 -110.431 	 50.4176 	 -108.058 	 
C 	 -110.003 	 51.5409 	 -108.782 	 
C 	 -108.628 	 51.5336 	 -109.031 	 
H 	 -111.467 	 50.2396 	 -107.835 	 
C 	 -110.991 	 52.7119 	 -109.086 	 
H 	 -110.524 	 53.6364 	 -108.847 	 
H 	 -111.841 	 52.6881 	 -108.43 	 
C 	 -111.511 	 52.8914 	 -110.48 	 
H 	 -111.865 	 51.92 	 -110.799 	 
H 	 -110.821 	 53.2246 	 -111.244 	 
C 	 -112.831 	 53.8088 	 -110.544 	 
H 	 -112.485 	 54.744 	 -110.55 	 
H 	 -113.548 	 53.6479 	 -109.67 	 
H 	 -113.377 	 53.4172 	 -111.381 	 
H 	 -105.627 	 54.2158 	 -111.875 	 
H 	 -109.493 	 48.6889 	 -107.149 	 
*
