! wB97X-D3 SP def2-SVP
%pal
nprocs 24
end

* xyz 0 1
S 	 -99.0072 	 0.822966 	 -103.338 	 
C 	 -98.9224 	 2.289 	 -104.348 	 
C 	 -99.9685 	 2.24786 	 -105.291 	 
C 	 -100.849 	 1.14545 	 -104.988 	 
C 	 -100.504 	 0.339029 	 -103.906 	 
H 	 -101.83 	 0.981519 	 -105.433 	 
C 	 -100.299 	 3.3655 	 -106.306 	 
H 	 -99.5034 	 4.13522 	 -106.302 	 
H 	 -101.194 	 3.72299 	 -105.765 	 
C 	 -100.563 	 3.00694 	 -107.78 	 
H 	 -99.8295 	 2.49937 	 -108.295 	 
H 	 -101.426 	 2.29537 	 -107.761 	 
C 	 -101.159 	 4.17844 	 -108.643 	 
H 	 -101.448 	 3.81789 	 -109.591 	 
H 	 -102.089 	 4.63322 	 -108.118 	 
H 	 -100.404 	 5.02285 	 -108.832 	 
S 	 -100.701 	 -2.06583 	 -102.441 	 
C 	 -102.347 	 -2.67164 	 -102.17 	 
C 	 -103.346 	 -1.72691 	 -102.387 	 
C 	 -102.816 	 -0.49778 	 -102.921 	 
C 	 -101.399 	 -0.608776 	 -103.199 	 
H 	 -104.314 	 -2.09249 	 -102.175 	 
C 	 -103.737 	 0.709628 	 -103.037 	 
H 	 -103.234 	 1.65299 	 -103.22 	 
H 	 -104.168 	 0.868092 	 -102.045 	 
C 	 -104.778 	 0.466649 	 -104.101 	 
H 	 -105.402 	 -0.33434 	 -103.727 	 
H 	 -104.354 	 0.0157912 	 -104.981 	 
C 	 -105.669 	 1.5885 	 -104.51 	 
H 	 -106.41 	 1.07834 	 -105.116 	 
H 	 -105.043 	 2.23758 	 -105.129 	 
H 	 -106.103 	 2.17331 	 -103.667 	 
H 	 -98.2271 	 3.11979 	 -104.259 	 
H 	 -102.639 	 -3.60577 	 -101.69 	 
*
