! wB97X-D3 SP def2-SVP
%pal
nprocs 24
end

* xyz 0 1
S 	 -44.8548 	 -51.1172 	 -74.1448 	 
C 	 -44.0842 	 -49.5767 	 -74.5031 	 
C 	 -42.8606 	 -49.4679 	 -73.8345 	 
C 	 -42.7729 	 -50.5234 	 -72.9185 	 
C 	 -43.8048 	 -51.4891 	 -72.8941 	 
H 	 -42.0137 	 -50.5656 	 -72.1594 	 
C 	 -41.7637 	 -48.3769 	 -74.0846 	 
H 	 -42.0953 	 -47.5648 	 -74.6928 	 
H 	 -41.0154 	 -48.8182 	 -74.7796 	 
C 	 -41.0584 	 -47.7978 	 -72.8356 	 
H 	 -40.3573 	 -48.4557 	 -72.276 	 
H 	 -40.4522 	 -47.0006 	 -73.2103 	 
C 	 -42.0232 	 -47.1755 	 -71.8907 	 
H 	 -42.7393 	 -46.5697 	 -72.4795 	 
H 	 -42.5564 	 -47.8723 	 -71.2041 	 
H 	 -41.6017 	 -46.4877 	 -71.0716 	 
S 	 -44.7872 	 -54.0543 	 -72.7121 	 
C 	 -44.8079 	 -54.8183 	 -71.1454 	 
C 	 -44.4035 	 -53.9634 	 -70.144 	 
C 	 -43.7647 	 -52.7928 	 -70.6741 	 
C 	 -44.0464 	 -52.6091 	 -72.0228 	 
H 	 -44.4426 	 -54.1917 	 -69.0815 	 
C 	 -43.1414 	 -51.7907 	 -69.7158 	 
H 	 -43.7924 	 -51.8537 	 -68.8294 	 
H 	 -43.262 	 -50.743 	 -70.1671 	 
C 	 -41.6737 	 -52.1089 	 -69.4335 	 
H 	 -41.1389 	 -52.2198 	 -70.4296 	 
H 	 -41.5476 	 -53.0821 	 -68.8735 	 
C 	 -41.0006 	 -51.0467 	 -68.5694 	 
H 	 -41.5471 	 -50.9926 	 -67.6267 	 
H 	 -40.9548 	 -50.0609 	 -69.0979 	 
H 	 -39.9351 	 -51.2506 	 -68.3293 	 
H 	 -44.4222 	 -48.8719 	 -75.219 	 
H 	 -45.3181 	 -55.7628 	 -70.8903 	 
*
