! wB97X-D3 SP def2-SVP
%pal
nprocs 24
end

* xyz 0 1
S 	 -63.9698 	 11.2033 	 -93.8727 	 
C 	 -64.4109 	 12.3939 	 -95.0689 	 
C 	 -63.7113 	 13.5711 	 -94.964 	 
C 	 -62.8221 	 13.5044 	 -93.848 	 
C 	 -62.7456 	 12.2806 	 -93.1696 	 
H 	 -62.0959 	 14.2565 	 -93.5211 	 
C 	 -63.887 	 14.7517 	 -95.8711 	 
H 	 -63.3147 	 15.6201 	 -95.4861 	 
H 	 -64.9451 	 15.0522 	 -95.693 	 
C 	 -63.4463 	 14.6742 	 -97.3305 	 
H 	 -64.1179 	 13.943 	 -97.9089 	 
H 	 -63.5974 	 15.6242 	 -97.822 	 
C 	 -61.9345 	 14.1698 	 -97.3873 	 
H 	 -61.5703 	 13.9382 	 -98.4814 	 
H 	 -61.3068 	 14.8726 	 -96.9548 	 
H 	 -61.8121 	 13.251 	 -96.9013 	 
S 	 -63.3098 	 11.135 	 -90.7747 	 
C 	 -62.0625 	 11.2692 	 -89.5164 	 
C 	 -60.8638 	 11.8234 	 -89.9032 	 
C 	 -60.9588 	 12.2653 	 -91.2595 	 
C 	 -62.1762 	 12.003 	 -91.8268 	 
H 	 -60.1036 	 11.9227 	 -89.2017 	 
C 	 -59.8231 	 12.9811 	 -91.9681 	 
H 	 -59.9945 	 12.893 	 -93.0743 	 
H 	 -58.8684 	 12.4433 	 -91.7453 	 
C 	 -59.7462 	 14.4517 	 -91.4677 	 
H 	 -59.6545 	 14.4454 	 -90.4001 	 
H 	 -60.7817 	 14.9229 	 -91.5563 	 
C 	 -58.583 	 15.3044 	 -91.9991 	 
H 	 -57.5958 	 14.7371 	 -91.8412 	 
H 	 -58.5761 	 16.2633 	 -91.3759 	 
H 	 -58.6058 	 15.6608 	 -93.0348 	 
H 	 -65.0626 	 12.0995 	 -95.8302 	 
H 	 -62.3074 	 10.9954 	 -88.5282 	 
*
