! wB97X-D3 SP def2-SVP
%pal
nprocs 24
end

* xyz 0 1
S 	 -124.553 	 59.8203 	 -54.2046 	 
C 	 -125.512 	 58.4135 	 -54.1088 	 
C 	 -126.273 	 58.1884 	 -55.2827 	 
C 	 -126.23 	 59.3163 	 -56.1349 	 
C 	 -125.517 	 60.3768 	 -55.5895 	 
H 	 -126.916 	 59.4632 	 -56.9521 	 
C 	 -127.226 	 57.0284 	 -55.5899 	 
H 	 -127.622 	 56.7087 	 -54.6769 	 
H 	 -126.607 	 56.143 	 -55.976 	 
C 	 -128.398 	 57.3181 	 -56.5929 	 
H 	 -128.971 	 58.178 	 -56.201 	 
H 	 -128.082 	 57.6399 	 -57.6023 	 
C 	 -129.336 	 56.1174 	 -56.7138 	 
H 	 -130.283 	 56.382 	 -57.2106 	 
H 	 -128.925 	 55.4373 	 -57.4029 	 
H 	 -129.636 	 55.6217 	 -55.7935 	 
S 	 -125.748 	 61.8785 	 -57.8528 	 
C 	 -125.185 	 63.5517 	 -57.8363 	 
C 	 -124.651 	 63.9375 	 -56.6305 	 
C 	 -124.814 	 62.9251 	 -55.5566 	 
C 	 -125.384 	 61.7714 	 -56.0706 	 
H 	 -124.344 	 64.9471 	 -56.472 	 
C 	 -124.472 	 63.2429 	 -54.1324 	 
H 	 -125.08 	 62.7711 	 -53.4069 	 
H 	 -124.678 	 64.3145 	 -53.9413 	 
C 	 -123.013 	 62.7661 	 -53.8174 	 
H 	 -122.34 	 63.4043 	 -54.3627 	 
H 	 -122.669 	 61.8116 	 -54.1703 	 
C 	 -122.733 	 62.7591 	 -52.3161 	 
H 	 -123.197 	 63.6239 	 -51.8313 	 
H 	 -121.668 	 62.7142 	 -51.9584 	 
H 	 -123.231 	 61.9351 	 -51.877 	 
H 	 -125.402 	 57.5554 	 -53.394 	 
H 	 -125.17 	 64.1783 	 -58.7149 	 
*
