! wB97X-D3 SP def2-SVP
%pal
nprocs 24
end

* xyz 0 1
S 	 -73.0664 	 17.2159 	 -77.0291 	 
C 	 -73.3499 	 18.7882 	 -76.3112 	 
C 	 -72.1191 	 19.4207 	 -76.206 	 
C 	 -70.9946 	 18.5763 	 -76.5186 	 
C 	 -71.3111 	 17.3732 	 -77.0365 	 
H 	 -69.9972 	 19.0129 	 -76.6437 	 
C 	 -71.9931 	 20.8234 	 -75.7291 	 
H 	 -72.7856 	 21.3412 	 -76.3192 	 
H 	 -71.0829 	 21.2527 	 -76.0469 	 
C 	 -72.1515 	 20.9879 	 -74.2043 	 
H 	 -72.6549 	 20.1361 	 -73.7328 	 
H 	 -71.1927 	 20.887 	 -73.7876 	 
C 	 -72.8031 	 22.2811 	 -73.7723 	 
H 	 -72.5073 	 23.1632 	 -74.2666 	 
H 	 -73.8492 	 22.0764 	 -74.0171 	 
H 	 -72.626 	 22.5058 	 -72.7279 	 
S 	 -70.0277 	 14.88 	 -76.8671 	 
C 	 -69.1388 	 14.3725 	 -78.305 	 
C 	 -69.142 	 15.3674 	 -79.2564 	 
C 	 -69.83 	 16.5332 	 -78.8747 	 
C 	 -70.5043 	 16.4063 	 -77.6946 	 
H 	 -68.5731 	 15.1283 	 -80.1608 	 
C 	 -69.88 	 17.812 	 -79.7483 	 
H 	 -70.4194 	 18.5998 	 -79.2323 	 
H 	 -70.3655 	 17.6108 	 -80.6978 	 
C 	 -68.5043 	 18.3258 	 -80.1154 	 
H 	 -68.6179 	 19.1825 	 -80.7232 	 
H 	 -68.0397 	 17.5462 	 -80.8356 	 
C 	 -67.5148 	 18.5947 	 -78.9185 	 
H 	 -66.4776 	 18.8061 	 -79.2311 	 
H 	 -67.4129 	 17.7168 	 -78.3145 	 
H 	 -67.765 	 19.3152 	 -78.1895 	 
H 	 -74.3571 	 19.1712 	 -76.2355 	 
H 	 -68.5825 	 13.429 	 -78.432 	 
*
