! wB97X-D3 SP def2-SVP
%pal
nprocs 24
end

* xyz 0 1
S 	 -120.133 	 66.5194 	 -64.3308 	 
C 	 -120.335 	 65.1206 	 -65.2943 	 
C 	 -119.877 	 63.9996 	 -64.6115 	 
C 	 -119.729 	 64.2278 	 -63.2051 	 
C 	 -119.944 	 65.5762 	 -62.8752 	 
H 	 -119.548 	 63.5172 	 -62.4897 	 
C 	 -119.698 	 62.6283 	 -65.2086 	 
H 	 -120.155 	 62.7338 	 -66.2134 	 
H 	 -120.275 	 61.9416 	 -64.6237 	 
C 	 -118.269 	 62.0635 	 -65.2969 	 
H 	 -117.623 	 62.5598 	 -65.967 	 
H 	 -117.861 	 62.1702 	 -64.2946 	 
C 	 -118.165 	 60.6151 	 -65.7241 	 
H 	 -118.67 	 59.911 	 -65.0992 	 
H 	 -118.536 	 60.5826 	 -66.7547 	 
H 	 -117.07 	 60.3994 	 -65.8365 	 
S 	 -119.36 	 67.9616 	 -61.6435 	 
C 	 -119.764 	 68.1347 	 -59.9023 	 
C 	 -119.978 	 66.8956 	 -59.3395 	 
C 	 -120.245 	 65.8924 	 -60.2892 	 
C 	 -119.901 	 66.3103 	 -61.5958 	 
H 	 -120.268 	 66.9094 	 -58.2269 	 
C 	 -120.749 	 64.5259 	 -59.9522 	 
H 	 -121.643 	 64.3124 	 -60.5111 	 
H 	 -121.295 	 64.5299 	 -58.9522 	 
C 	 -119.58 	 63.4753 	 -59.8942 	 
H 	 -118.913 	 63.6844 	 -60.6778 	 
H 	 -120.008 	 62.4653 	 -59.9924 	 
C 	 -118.67 	 63.4506 	 -58.698 	 
H 	 -118.414 	 64.4703 	 -58.4092 	 
H 	 -117.748 	 63.0056 	 -58.9256 	 
H 	 -119.108 	 62.949 	 -57.8752 	 
H 	 -120.679 	 65.1271 	 -66.3106 	 
H 	 -119.765 	 69.0525 	 -59.2703 	 
*
