! wB97X-D3 SP def2-SVP
%pal
nprocs 24
end

* xyz 0 1
S 	 -122.833 	 54.685 	 -33.4549 	 
C 	 -121.303 	 54.1266 	 -32.9039 	 
C 	 -120.394 	 53.9873 	 -33.9692 	 
C 	 -120.945 	 54.3582 	 -35.2405 	 
C 	 -122.313 	 54.6458 	 -35.1364 	 
H 	 -120.535 	 54.2548 	 -36.2044 	 
C 	 -118.955 	 53.4058 	 -33.8043 	 
H 	 -118.754 	 53.0872 	 -32.7553 	 
H 	 -118.321 	 54.3274 	 -33.964 	 
C 	 -118.722 	 52.2767 	 -34.8988 	 
H 	 -118.851 	 52.5375 	 -35.949 	 
H 	 -117.63 	 52.1806 	 -34.9798 	 
C 	 -119.609 	 51.0284 	 -34.7119 	 
H 	 -119.678 	 50.5824 	 -33.6975 	 
H 	 -120.659 	 51.2489 	 -34.9899 	 
H 	 -119.153 	 50.2974 	 -35.3495 	 
S 	 -123.605 	 56.7929 	 -36.0781 	 
C 	 -124.252 	 56.8088 	 -37.8292 	 
C 	 -123.894 	 55.589 	 -38.3833 	 
C 	 -123.231 	 54.6674 	 -37.524 	 
C 	 -123.036 	 55.1571 	 -36.2632 	 
H 	 -124.051 	 55.5207 	 -39.4213 	 
C 	 -122.91 	 53.271 	 -38.1213 	 
H 	 -121.804 	 53.283 	 -38.0963 	 
H 	 -123.179 	 53.1812 	 -39.1658 	 
C 	 -123.436 	 52.0485 	 -37.3901 	 
H 	 -124.498 	 52.0536 	 -37.4306 	 
H 	 -123.24 	 52.1231 	 -36.2808 	 
C 	 -122.958 	 50.7088 	 -37.9247 	 
H 	 -123.394 	 49.9102 	 -37.2655 	 
H 	 -121.843 	 50.5829 	 -37.9367 	 
H 	 -123.253 	 50.5598 	 -38.9566 	 
H 	 -121.029 	 53.9717 	 -31.8564 	 
H 	 -124.469 	 57.6309 	 -38.4626 	 
*
