! wB97X-D3 SP def2-SVP
%pal
nprocs 24
end

* xyz 0 1
S 	 -81.3883 	 -42.1359 	 -74.7945 	 
C 	 -81.6606 	 -43.1937 	 -76.0928 	 
C 	 -82.9112 	 -43.1404 	 -76.641 	 
C 	 -83.7452 	 -42.1863 	 -75.9039 	 
C 	 -83.0422 	 -41.4526 	 -74.9305 	 
H 	 -84.786 	 -41.9766 	 -76.1183 	 
C 	 -83.3734 	 -44.0213 	 -77.7991 	 
H 	 -83.2055 	 -45.0561 	 -77.6337 	 
H 	 -82.6645 	 -43.7752 	 -78.5805 	 
C 	 -84.8228 	 -43.7503 	 -78.3988 	 
H 	 -84.9588 	 -44.5871 	 -79.0944 	 
H 	 -85.5238 	 -43.848 	 -77.5771 	 
C 	 -84.8184 	 -42.4349 	 -79.2239 	 
H 	 -85.7843 	 -42.0105 	 -79.3166 	 
H 	 -84.2385 	 -41.6625 	 -78.7275 	 
H 	 -84.3241 	 -42.5535 	 -80.1785 	 
S 	 -84.5833 	 -39.2038 	 -75.0717 	 
C 	 -84.9875 	 -38.4012 	 -73.6196 	 
C 	 -84.2948 	 -38.8365 	 -72.5269 	 
C 	 -83.4668 	 -39.9648 	 -72.8404 	 
C 	 -83.5271 	 -40.3069 	 -74.1713 	 
H 	 -84.297 	 -38.1515 	 -71.62 	 
C 	 -82.4377 	 -40.5254 	 -71.9143 	 
H 	 -82.1674 	 -41.5184 	 -72.2472 	 
H 	 -83.0326 	 -40.7543 	 -71.0357 	 
C 	 -81.3139 	 -39.6223 	 -71.4208 	 
H 	 -80.8528 	 -40.1212 	 -70.5578 	 
H 	 -81.6528 	 -38.697 	 -70.9492 	 
C 	 -80.3643 	 -39.195 	 -72.5081 	 
H 	 -80.9099 	 -38.7102 	 -73.3375 	 
H 	 -79.7922 	 -40.0743 	 -72.813 	 
H 	 -79.5936 	 -38.4387 	 -72.2538 	 
H 	 -80.9382 	 -43.8759 	 -76.4175 	 
H 	 -85.6518 	 -37.5511 	 -73.5151 	 
*
