! wB97X-D3 SP def2-SVP
%pal
nprocs 24
end

* xyz 0 1
S 	 44.849 	 -21.2079 	 -114.046 	 
C 	 46.4576 	 -21.705 	 -113.762 	 
C 	 47.0531 	 -21.0834 	 -112.707 	 
C 	 46.119 	 -20.2514 	 -112.064 	 
C 	 44.8424 	 -20.2349 	 -112.67 	 
H 	 46.37 	 -19.6964 	 -111.192 	 
C 	 48.4739 	 -21.3402 	 -112.251 	 
H 	 48.7624 	 -20.5961 	 -111.469 	 
H 	 49.0829 	 -21.151 	 -113.111 	 
C 	 48.7748 	 -22.6747 	 -111.652 	 
H 	 48.555 	 -23.4299 	 -112.341 	 
H 	 49.8463 	 -22.8055 	 -111.44 	 
C 	 47.9013 	 -22.9974 	 -110.445 	 
H 	 48.2543 	 -22.4056 	 -109.529 	 
H 	 46.9194 	 -22.7398 	 -110.653 	 
H 	 48.0127 	 -24.0421 	 -110.112 	 
S 	 43.1758 	 -18.1097 	 -113.315 	 
C 	 42.0491 	 -17.518 	 -112.098 	 
C 	 42.1064 	 -18.185 	 -110.913 	 
C 	 43.1306 	 -19.1784 	 -110.908 	 
C 	 43.6928 	 -19.4062 	 -112.203 	 
H 	 41.534 	 -17.8642 	 -110.041 	 
C 	 43.6244 	 -19.7637 	 -109.61 	 
H 	 44.1855 	 -18.9991 	 -109.112 	 
H 	 44.1552 	 -20.6518 	 -109.977 	 
C 	 42.444 	 -20.1962 	 -108.643 	 
H 	 41.6476 	 -19.4959 	 -108.526 	 
H 	 42.6621 	 -20.1883 	 -107.568 	 
C 	 41.9621 	 -21.619 	 -108.977 	 
H 	 42.6021 	 -22.4411 	 -108.585 	 
H 	 41.8653 	 -21.6227 	 -110.086 	 
H 	 40.9063 	 -21.7936 	 -108.666 	 
H 	 47.0436 	 -22.1923 	 -114.556 	 
H 	 41.3735 	 -16.7654 	 -112.377 	 
*
