! wB97X-D3 SP def2-SVP
%pal
nprocs 24
end

* xyz 0 1
S 	 -29.5811 	 -34.0586 	 -90.8179 	 
C 	 -30.9578 	 -35.1693 	 -90.929 	 
C 	 -30.4839 	 -36.449 	 -91.3082 	 
C 	 -29.0886 	 -36.5377 	 -91.5877 	 
C 	 -28.4257 	 -35.3128 	 -91.3786 	 
H 	 -28.562 	 -37.3099 	 -91.9924 	 
C 	 -31.4035 	 -37.6338 	 -91.4219 	 
H 	 -32.292 	 -37.3686 	 -90.8943 	 
H 	 -31.1378 	 -38.4906 	 -90.8528 	 
C 	 -31.6085 	 -37.9906 	 -92.937 	 
H 	 -32.2407 	 -37.2355 	 -93.368 	 
H 	 -30.6014 	 -38.0638 	 -93.3986 	 
C 	 -32.3703 	 -39.2925 	 -93.0525 	 
H 	 -33.1494 	 -39.4371 	 -92.3206 	 
H 	 -32.8933 	 -39.3306 	 -93.9641 	 
H 	 -31.5819 	 -40.0784 	 -93.0548 	 
S 	 -26.3958 	 -35.9309 	 -93.0172 	 
C 	 -24.9041 	 -35.0564 	 -92.9189 	 
C 	 -24.7983 	 -34.4565 	 -91.6881 	 
C 	 -26.0062 	 -34.3356 	 -90.9547 	 
C 	 -27.0209 	 -35.0389 	 -91.6274 	 
H 	 -23.9594 	 -33.9425 	 -91.4775 	 
C 	 -26.1261 	 -33.4915 	 -89.6311 	 
H 	 -25.2423 	 -33.6006 	 -88.963 	 
H 	 -26.9473 	 -33.9118 	 -89.0826 	 
C 	 -26.4571 	 -32.0292 	 -90.0051 	 
H 	 -27.37 	 -31.9045 	 -90.566 	 
H 	 -25.6663 	 -31.5674 	 -90.6017 	 
C 	 -26.7884 	 -31.1746 	 -88.7033 	 
H 	 -26.5635 	 -30.1656 	 -88.9405 	 
H 	 -26.0802 	 -31.5474 	 -87.9994 	 
H 	 -27.8569 	 -31.047 	 -88.4964 	 
H 	 -31.9512 	 -34.8956 	 -90.7252 	 
H 	 -24.1349 	 -35.0915 	 -93.6575 	 
*
