! wB97X-D3 SP def2-SVP
%pal
nprocs 24
end

* xyz 0 1
S 	 -122.633 	 58.4999 	 -38.2664 	 
C 	 -121.766 	 57.0055 	 -38.0821 	 
C 	 -121.305 	 56.7832 	 -36.79 	 
C 	 -121.757 	 57.8153 	 -35.8683 	 
C 	 -122.487 	 58.7805 	 -36.568 	 
H 	 -121.428 	 57.9535 	 -34.8236 	 
C 	 -120.601 	 55.5337 	 -36.2376 	 
H 	 -119.983 	 55.7819 	 -35.3875 	 
H 	 -120.013 	 55.169 	 -37.0353 	 
C 	 -121.483 	 54.366 	 -35.807 	 
H 	 -122.069 	 53.9699 	 -36.6963 	 
H 	 -120.819 	 53.5855 	 -35.4167 	 
C 	 -122.441 	 54.7028 	 -34.6507 	 
H 	 -123.017 	 53.8127 	 -34.5374 	 
H 	 -121.861 	 54.9523 	 -33.7144 	 
H 	 -123.032 	 55.6221 	 -34.8127 	 
S 	 -123.513 	 61.2714 	 -36.9812 	 
C 	 -124.475 	 61.9486 	 -35.7167 	 
C 	 -124.466 	 61.2708 	 -34.4983 	 
C 	 -123.741 	 60.0737 	 -34.6621 	 
C 	 -123.186 	 59.9261 	 -35.9366 	 
H 	 -124.906 	 61.7048 	 -33.666 	 
C 	 -123.653 	 59.0485 	 -33.5169 	 
H 	 -123.617 	 58.0842 	 -33.9799 	 
H 	 -124.578 	 59.0813 	 -32.9697 	 
C 	 -122.567 	 59.3264 	 -32.4524 	 
H 	 -122.8 	 60.2127 	 -31.9814 	 
H 	 -121.626 	 59.4449 	 -33.078 	 
C 	 -122.539 	 58.2137 	 -31.3505 	 
H 	 -121.724 	 58.4122 	 -30.7021 	 
H 	 -122.339 	 57.2875 	 -31.8646 	 
H 	 -123.457 	 58.2648 	 -30.7784 	 
H 	 -121.568 	 56.3912 	 -38.9653 	 
H 	 -124.912 	 62.9372 	 -35.7007 	 
*
