! wB97X-D3 SP def2-SVP
%pal
nprocs 24
end

* xyz 0 1
S 	 -50.784 	 19.2922 	 -100.856 	 
C 	 -52.481 	 18.9165 	 -100.926 	 
C 	 -53.1518 	 19.8467 	 -101.701 	 
C 	 -52.2669 	 20.7729 	 -102.37 	 
C 	 -50.9557 	 20.4633 	 -102.124 	 
H 	 -52.4408 	 21.6189 	 -103.036 	 
C 	 -54.6409 	 19.9355 	 -101.827 	 
H 	 -55.0036 	 18.9389 	 -102.037 	 
H 	 -54.8914 	 20.5491 	 -102.689 	 
C 	 -55.3649 	 20.5554 	 -100.627 	 
H 	 -54.8326 	 21.359 	 -100.261 	 
H 	 -56.3874 	 20.9825 	 -100.879 	 
C 	 -55.5439 	 19.5831 	 -99.4146 	 
H 	 -56.0971 	 20.1564 	 -98.6413 	 
H 	 -56.2415 	 18.7737 	 -99.6877 	 
H 	 -54.634 	 19.1253 	 -98.9537 	 
S 	 -48.9236 	 22.0715 	 -101.224 	 
C 	 -47.717 	 22.6771 	 -102.296 	 
C 	 -48.0707 	 22.4382 	 -103.599 	 
C 	 -49.1437 	 21.5432 	 -103.708 	 
C 	 -49.7657 	 21.2779 	 -102.486 	 
H 	 -47.4581 	 22.9311 	 -104.332 	 
C 	 -49.5071 	 20.9412 	 -105.038 	 
H 	 -50.5471 	 20.6026 	 -105.017 	 
H 	 -48.9489 	 20.0544 	 -105.176 	 
C 	 -49.3807 	 21.8376 	 -106.3 	 
H 	 -49.5978 	 21.2618 	 -107.229 	 
H 	 -48.3658 	 22.1211 	 -106.44 	 
C 	 -50.2768 	 23.0661 	 -106.268 	 
H 	 -50.1665 	 23.6482 	 -105.397 	 
H 	 -51.3754 	 22.7989 	 -106.327 	 
H 	 -50.0111 	 23.7257 	 -107.137 	 
H 	 -52.9492 	 18.0992 	 -100.396 	 
H 	 -46.893 	 23.2743 	 -101.946 	 
*
