! wB97X-D3 SP def2-SVP
%pal
nprocs 24
end

* xyz 0 1
S 	 -32.1005 	 -10.4065 	 14.4485 	 
C 	 -33.1685 	 -10.0924 	 15.7735 	 
C 	 -34.4831 	 -9.99095 	 15.3889 	 
C 	 -34.6093 	 -10.1177 	 13.9556 	 
C 	 -33.3821 	 -10.184 	 13.3199 	 
H 	 -35.5167 	 -9.92827 	 13.4762 	 
C 	 -35.7309 	 -9.70404 	 16.2028 	 
H 	 -35.576 	 -10.216 	 17.1449 	 
H 	 -36.5496 	 -10.3103 	 15.7198 	 
C 	 -36.1324 	 -8.22002 	 16.3902 	 
H 	 -36.9739 	 -8.19086 	 17.0168 	 
H 	 -35.2904 	 -7.62469 	 16.7532 	 
C 	 -36.6592 	 -7.61697 	 15.0029 	 
H 	 -35.8905 	 -7.38682 	 14.2218 	 
H 	 -37.2286 	 -8.32827 	 14.4672 	 
H 	 -37.2653 	 -6.7646 	 15.2167 	 
S 	 -32.4906 	 -11.9509 	 11.3512 	 
C 	 -32.9559 	 -11.7685 	 9.65359 	 
C 	 -33.732 	 -10.6229 	 9.58693 	 
C 	 -33.8564 	 -9.82952 	 10.7902 	 
C 	 -33.2122 	 -10.445 	 11.8821 	 
H 	 -34.1419 	 -10.3175 	 8.62556 	 
C 	 -34.5911 	 -8.49184 	 10.8654 	 
H 	 -35.1309 	 -8.44411 	 11.7597 	 
H 	 -35.4248 	 -8.47829 	 10.1452 	 
C 	 -33.7174 	 -7.2318 	 10.6287 	 
H 	 -33.5465 	 -7.20436 	 9.51345 	 
H 	 -32.6718 	 -7.30611 	 11.0517 	 
C 	 -34.3287 	 -5.93467 	 11.1389 	 
H 	 -33.6732 	 -5.0818 	 10.9557 	 
H 	 -34.6512 	 -5.93889 	 12.2159 	 
H 	 -35.2348 	 -5.6959 	 10.5365 	 
H 	 -32.8485 	 -10.037 	 16.7944 	 
H 	 -32.6965 	 -12.3528 	 8.77609 	 
*
