! wB97X-D3 SP def2-SVP
%pal
nprocs 24
end

* xyz 0 1
S 	 -100.298 	 49.1269 	 -99.5231 	 
C 	 -100.636 	 50.8108 	 -99.1076 	 
C 	 -99.5198 	 51.5775 	 -99.383 	 
C 	 -98.3316 	 50.826 	 -99.8032 	 
C 	 -98.596 	 49.5089 	 -100.043 	 
H 	 -97.4042 	 51.1693 	 -100.015 	 
C 	 -99.2713 	 53.081 	 -99.2901 	 
H 	 -98.7024 	 53.5422 	 -100.146 	 
H 	 -98.6495 	 53.2345 	 -98.4024 	 
C 	 -100.54 	 53.9207 	 -99.021 	 
H 	 -100.984 	 53.5386 	 -98.0822 	 
H 	 -100.34 	 54.9469 	 -98.8033 	 
C 	 -101.594 	 53.9113 	 -100.156 	 
H 	 -101.198 	 54.0863 	 -101.2 	 
H 	 -102.15 	 52.9468 	 -100.242 	 
H 	 -102.261 	 54.7135 	 -99.9994 	 
S 	 -97.8226 	 46.8553 	 -100.113 	 
C 	 -96.594 	 46.3411 	 -101.274 	 
C 	 -96.3576 	 47.3409 	 -102.195 	 
C 	 -96.9976 	 48.5818 	 -101.903 	 
C 	 -97.8088 	 48.4996 	 -100.724 	 
H 	 -95.7818 	 47.1508 	 -103.068 	 
C 	 -96.8299 	 49.7408 	 -102.859 	 
H 	 -96.068 	 49.4124 	 -103.513 	 
H 	 -96.4391 	 50.5915 	 -102.399 	 
C 	 -98.1244 	 50.2265 	 -103.615 	 
H 	 -97.8417 	 50.9481 	 -104.422 	 
H 	 -98.7411 	 50.7579 	 -102.851 	 
C 	 -98.9005 	 49.0992 	 -104.25 	 
H 	 -99.7039 	 49.4773 	 -104.885 	 
H 	 -99.2564 	 48.4659 	 -103.436 	 
H 	 -98.3603 	 48.3562 	 -104.802 	 
H 	 -101.573 	 51.1344 	 -98.6964 	 
H 	 -96.2382 	 45.3728 	 -101.419 	 
*
