! wB97X-D3 SP def2-SVP
%pal
nprocs 24
end

* xyz 0 1
S 	 -68.9544 	 17.1927 	 -70.0084 	 
C 	 -69.2188 	 16.0996 	 -68.6545 	 
C 	 -68.6486 	 16.5507 	 -67.5241 	 
C 	 -68.22 	 17.9063 	 -67.7226 	 
C 	 -68.3894 	 18.4613 	 -69.0187 	 
H 	 -67.7751 	 18.6173 	 -67.0058 	 
C 	 -68.8089 	 15.8998 	 -66.1712 	 
H 	 -69.8007 	 15.4856 	 -66.1012 	 
H 	 -68.7159 	 16.5579 	 -65.2969 	 
C 	 -67.7938 	 14.8267 	 -65.8115 	 
H 	 -68.0388 	 14.4957 	 -64.8428 	 
H 	 -67.8352 	 13.9406 	 -66.4827 	 
C 	 -66.4349 	 15.3888 	 -65.6043 	 
H 	 -66.4882 	 16.1113 	 -64.7686 	 
H 	 -65.7076 	 14.6915 	 -65.2899 	 
H 	 -66.049 	 15.8172 	 -66.521 	 
S 	 -67.6053 	 20.1521 	 -70.9907 	 
C 	 -67.4264 	 21.8226 	 -70.7831 	 
C 	 -67.7481 	 22.1202 	 -69.4939 	 
C 	 -68.4477 	 21.122 	 -68.7684 	 
C 	 -68.2757 	 19.9068 	 -69.4018 	 
H 	 -67.7454 	 23.1207 	 -69.2339 	 
C 	 -68.9709 	 21.3813 	 -67.3843 	 
H 	 -68.9435 	 22.4636 	 -67.1824 	 
H 	 -68.1636 	 20.9076 	 -66.776 	 
C 	 -70.2539 	 20.6232 	 -66.8673 	 
H 	 -70.3865 	 21.0412 	 -65.8906 	 
H 	 -70.1105 	 19.5585 	 -66.6631 	 
C 	 -71.5206 	 20.8244 	 -67.7229 	 
H 	 -71.2878 	 20.6712 	 -68.7593 	 
H 	 -71.8749 	 21.8548 	 -67.5003 	 
H 	 -72.2226 	 20.0874 	 -67.5362 	 
H 	 -69.7649 	 15.1607 	 -68.6309 	 
H 	 -66.8809 	 22.3962 	 -71.4804 	 
*
