! wB97X-D3 SP def2-SVP
%pal
nprocs 24
end

* xyz 0 1
S 	 -98.4339 	 39.603 	 -83.2238 	 
C 	 -97.9223 	 37.9566 	 -83.3929 	 
C 	 -98.7007 	 37.2651 	 -84.3332 	 
C 	 -99.6301 	 38.16 	 -84.921 	 
C 	 -99.7139 	 39.3984 	 -84.3728 	 
H 	 -100.375 	 37.8489 	 -85.6241 	 
C 	 -98.7499 	 35.7343 	 -84.5341 	 
H 	 -99.7755 	 35.5397 	 -84.7001 	 
H 	 -98.4742 	 35.2372 	 -83.5998 	 
C 	 -98.0473 	 35.1423 	 -85.7864 	 
H 	 -98.575 	 35.5559 	 -86.7497 	 
H 	 -96.9883 	 35.2126 	 -85.6883 	 
C 	 -98.3775 	 33.6461 	 -85.9516 	 
H 	 -97.8854 	 32.9978 	 -85.2432 	 
H 	 -99.4762 	 33.4987 	 -85.9899 	 
H 	 -97.9624 	 33.3805 	 -86.8879 	 
S 	 -100.947 	 41.7765 	 -83.3276 	 
C 	 -102.067 	 42.6031 	 -84.2969 	 
C 	 -102.374 	 41.9079 	 -85.4738 	 
C 	 -101.532 	 40.7416 	 -85.7386 	 
C 	 -100.703 	 40.5025 	 -84.6011 	 
H 	 -102.995 	 42.3774 	 -86.2101 	 
C 	 -101.586 	 40.0667 	 -87.1077 	 
H 	 -102.439 	 40.3253 	 -87.6643 	 
H 	 -101.727 	 39.0067 	 -86.978 	 
C 	 -100.222 	 40.2454 	 -87.8394 	 
H 	 -99.4235 	 39.813 	 -87.2626 	 
H 	 -100.065 	 41.2989 	 -87.9729 	 
C 	 -100.214 	 39.5204 	 -89.2757 	 
H 	 -99.3294 	 39.737 	 -89.8665 	 
H 	 -101.153 	 39.7464 	 -89.854 	 
H 	 -100.216 	 38.3736 	 -89.2226 	 
H 	 -97.364 	 37.4959 	 -82.5971 	 
H 	 -102.474 	 43.4877 	 -83.9625 	 
*
