! wB97X-D3 SP def2-SVP
%pal
nprocs 24
end

* xyz 0 1
S 	 -48.2491 	 20.048 	 27.5637 	 
C 	 -48.3087 	 19.8914 	 25.8409 	 
C 	 -48.1011 	 18.5633 	 25.4574 	 
C 	 -47.8703 	 17.7468 	 26.6201 	 
C 	 -48.044 	 18.3404 	 27.8274 	 
H 	 -47.6733 	 16.6523 	 26.5504 	 
C 	 -48.0695 	 18.0835 	 24.0535 	 
H 	 -47.6942 	 17.1036 	 24.0646 	 
H 	 -47.4376 	 18.7786 	 23.4912 	 
C 	 -49.4207 	 18.1964 	 23.3748 	 
H 	 -49.8891 	 19.1487 	 23.5146 	 
H 	 -49.2774 	 18.1009 	 22.2654 	 
C 	 -50.5217 	 17.3213 	 23.9622 	 
H 	 -50.8901 	 17.662 	 24.9457 	 
H 	 -51.4813 	 17.3204 	 23.4131 	 
H 	 -50.1875 	 16.2656 	 24.0724 	 
S 	 -46.5342 	 18.1212 	 30.0041 	 
C 	 -47.0078 	 17.0829 	 31.2515 	 
C 	 -48.2194 	 16.4984 	 31.0171 	 
C 	 -48.7442 	 16.7921 	 29.7704 	 
C 	 -47.9254 	 17.7114 	 29.1286 	 
H 	 -48.6412 	 15.8101 	 31.7632 	 
C 	 -50.0663 	 16.2657 	 29.2601 	 
H 	 -50.2591 	 15.4169 	 29.8454 	 
H 	 -49.8436 	 15.8697 	 28.25 	 
C 	 -51.2566 	 17.2465 	 29.285 	 
H 	 -51.8964 	 16.9033 	 28.4605 	 
H 	 -50.974 	 18.339 	 29.1139 	 
C 	 -52.1946 	 17.2492 	 30.5706 	 
H 	 -52.6874 	 16.279 	 30.6684 	 
H 	 -52.9049 	 18.1758 	 30.5796 	 
H 	 -51.6241 	 17.2273 	 31.4737 	 
H 	 -48.3232 	 20.7738 	 25.1806 	 
H 	 -46.4883 	 16.9334 	 32.2214 	 
*
