! wB97X-D3 SP def2-SVP
%pal
nprocs 24
end

* xyz 0 1
S 	 -113.012 	 16.4853 	 -11.9733 	 
C 	 -112.661 	 17.2365 	 -10.458 	 
C 	 -112.831 	 16.3864 	 -9.39827 	 
C 	 -113.101 	 15.0791 	 -9.82929 	 
C 	 -113.107 	 14.9827 	 -11.1556 	 
H 	 -113.255 	 14.2872 	 -9.21059 	 
C 	 -112.959 	 16.78 	 -7.94597 	 
H 	 -113.949 	 16.3462 	 -7.78057 	 
H 	 -113.215 	 17.8544 	 -8.0331 	 
C 	 -111.951 	 16.4815 	 -6.91136 	 
H 	 -110.987 	 16.2836 	 -7.37952 	 
H 	 -111.739 	 17.4291 	 -6.34766 	 
C 	 -112.261 	 15.202 	 -6.05514 	 
H 	 -111.419 	 14.8617 	 -5.5228 	 
H 	 -113.106 	 15.2348 	 -5.35489 	 
H 	 -112.454 	 14.379 	 -6.794 	 
S 	 -111.953 	 13.0546 	 -12.7118 	 
C 	 -113.006 	 11.735 	 -13.2827 	 
C 	 -114.299 	 11.8083 	 -12.8517 	 
C 	 -114.493 	 12.97 	 -12.0172 	 
C 	 -113.367 	 13.7882 	 -11.9056 	 
H 	 -115.068 	 11.1465 	 -13.225 	 
C 	 -115.654 	 13.1484 	 -11.0665 	 
H 	 -115.374 	 13.8971 	 -10.3283 	 
H 	 -115.718 	 12.2191 	 -10.5882 	 
C 	 -116.99 	 13.4061 	 -11.7136 	 
H 	 -117.737 	 13.719 	 -10.9694 	 
H 	 -117.268 	 12.4317 	 -12.1096 	 
C 	 -116.941 	 14.5039 	 -12.7281 	 
H 	 -117.925 	 14.5515 	 -13.1169 	 
H 	 -116.236 	 14.4048 	 -13.4494 	 
H 	 -116.818 	 15.4174 	 -12.1833 	 
H 	 -112.472 	 18.2827 	 -10.3438 	 
H 	 -112.763 	 10.9965 	 -13.9809 	 
*
