! wB97X-D3 SP def2-SVP
%pal
nprocs 24
end

* xyz 0 1
S 	 -73.5623 	 5.6431 	 -111.327 	 
C 	 -73.9531 	 5.85685 	 -109.678 	 
C 	 -72.8042 	 5.90544 	 -108.958 	 
C 	 -71.5951 	 5.94373 	 -109.763 	 
C 	 -71.8441 	 5.95117 	 -111.117 	 
H 	 -70.5132 	 6.03869 	 -109.461 	 
C 	 -72.761 	 5.9405 	 -107.435 	 
H 	 -72.9027 	 4.94395 	 -106.995 	 
H 	 -73.6749 	 6.48644 	 -107.137 	 
C 	 -71.5897 	 6.63886 	 -106.818 	 
H 	 -71.5111 	 6.51192 	 -105.744 	 
H 	 -70.6203 	 6.22347 	 -107.048 	 
C 	 -71.4097 	 8.11224 	 -107.184 	 
H 	 -71.2131 	 8.1046 	 -108.254 	 
H 	 -72.2997 	 8.74975 	 -107.077 	 
H 	 -70.4568 	 8.43186 	 -106.719 	 
S 	 -71.3561 	 4.82771 	 -113.572 	 
C 	 -69.8756 	 5.13022 	 -114.348 	 
C 	 -69.1777 	 6.1576 	 -113.745 	 
C 	 -69.6835 	 6.52818 	 -112.456 	 
C 	 -70.9021 	 5.89746 	 -112.207 	 
H 	 -68.3529 	 6.57325 	 -114.235 	 
C 	 -69.0195 	 7.6311 	 -111.644 	 
H 	 -67.961 	 7.75857 	 -111.988 	 
H 	 -69.0249 	 7.19805 	 -110.637 	 
C 	 -69.7512 	 9.00915 	 -111.648 	 
H 	 -69.3655 	 9.71221 	 -110.88 	 
H 	 -70.8185 	 8.72759 	 -111.487 	 
C 	 -69.7394 	 9.78228 	 -112.972 	 
H 	 -68.8352 	 10.2608 	 -113.165 	 
H 	 -70.4111 	 10.6443 	 -113.008 	 
H 	 -69.9972 	 9.18288 	 -113.88 	 
H 	 -74.9238 	 5.77399 	 -109.214 	 
H 	 -69.5143 	 4.72161 	 -115.319 	 
*
