! wB97X-D3 SP def2-SVP
%pal
nprocs 24
end

* xyz 0 1
S 	 -114.214 	 57.2674 	 -36.7225 	 
C 	 -114.321 	 55.8785 	 -37.7622 	 
C 	 -115.154 	 56.1513 	 -38.8073 	 
C 	 -115.615 	 57.4975 	 -38.8262 	 
C 	 -115.259 	 58.3292 	 -37.7472 	 
H 	 -116.182 	 57.9545 	 -39.5756 	 
C 	 -115.457 	 55.2237 	 -39.9912 	 
H 	 -116.512 	 55.3578 	 -40.2621 	 
H 	 -115.518 	 54.2578 	 -39.5479 	 
C 	 -114.607 	 55.3848 	 -41.2454 	 
H 	 -114.836 	 54.6813 	 -42.0317 	 
H 	 -114.563 	 56.3875 	 -41.6961 	 
C 	 -113.167 	 54.9675 	 -40.9915 	 
H 	 -112.594 	 55.1292 	 -41.8728 	 
H 	 -112.714 	 55.468 	 -40.1478 	 
H 	 -113.105 	 53.9548 	 -40.5515 	 
S 	 -116.536 	 59.9393 	 -35.8766 	 
C 	 -116.817 	 61.6393 	 -36.2961 	 
C 	 -116.275 	 61.9795 	 -37.5382 	 
C 	 -115.724 	 60.8519 	 -38.1038 	 
C 	 -115.72 	 59.6578 	 -37.3757 	 
H 	 -116.314 	 62.9698 	 -37.8316 	 
C 	 -115.306 	 60.8916 	 -39.5522 	 
H 	 -114.732 	 60.0009 	 -39.7098 	 
H 	 -114.595 	 61.6867 	 -39.6632 	 
C 	 -116.462 	 61.0859 	 -40.6014 	 
H 	 -116.677 	 62.0756 	 -40.5546 	 
H 	 -117.34 	 60.5283 	 -40.2366 	 
C 	 -115.957 	 60.4883 	 -41.9172 	 
H 	 -115.018 	 60.8937 	 -42.2733 	 
H 	 -116.679 	 60.7884 	 -42.5829 	 
H 	 -115.828 	 59.3522 	 -42.0844 	 
H 	 -113.92 	 54.8466 	 -37.478 	 
H 	 -117.274 	 62.3323 	 -35.6094 	 
*
