! wB97X-D3 SP def2-SVP
%pal
nprocs 24
end

* xyz 0 1
S 	 18.1101 	 -11.9313 	 -127.625 	 
C 	 16.9202 	 -11.0286 	 -128.61 	 
C 	 15.8952 	 -11.8732 	 -129.04 	 
C 	 16.1891 	 -13.2543 	 -128.722 	 
C 	 17.3411 	 -13.4103 	 -128.021 	 
H 	 15.6786 	 -14.1763 	 -128.944 	 
C 	 14.6371 	 -11.3755 	 -129.705 	 
H 	 14.587 	 -11.6772 	 -130.731 	 
H 	 14.5624 	 -10.2962 	 -129.818 	 
C 	 13.3382 	 -11.865 	 -129.024 	 
H 	 13.4745 	 -12.9806 	 -129.085 	 
H 	 13.2173 	 -11.4756 	 -128.012 	 
C 	 12.1679 	 -11.4076 	 -129.829 	 
H 	 11.1453 	 -11.5154 	 -129.423 	 
H 	 12.2749 	 -10.3346 	 -129.972 	 
H 	 12.1311 	 -11.8748 	 -130.839 	 
S 	 18.8078 	 -15.7881 	 -128.21 	 
C 	 19.2386 	 -16.5918 	 -126.723 	 
C 	 18.4478 	 -16.1249 	 -125.69 	 
C 	 17.6419 	 -14.9832 	 -126.044 	 
C 	 17.7489 	 -14.6661 	 -127.361 	 
H 	 18.6374 	 -16.6528 	 -124.82 	 
C 	 16.8133 	 -14.163 	 -125.072 	 
H 	 15.9856 	 -13.7513 	 -125.665 	 
H 	 17.2662 	 -13.1458 	 -124.741 	 
C 	 16.0573 	 -14.862 	 -123.961 	 
H 	 15.8034 	 -14.124 	 -123.16 	 
H 	 16.7389 	 -15.5074 	 -123.36 	 
C 	 14.9731 	 -15.8108 	 -124.322 	 
H 	 15.3224 	 -16.6836 	 -124.896 	 
H 	 14.2501 	 -15.2718 	 -124.8 	 
H 	 14.5727 	 -16.2902 	 -123.406 	 
H 	 17.0304 	 -10.0012 	 -128.756 	 
H 	 19.9328 	 -17.4415 	 -126.662 	 
*
