! wB97X-D3 SP def2-SVP
%pal
nprocs 24
end

* xyz 0 1
S 	 40.0703 	 -10.5428 	 -124.911 	 
C 	 41.0067 	 -10.5416 	 -123.453 	 
C 	 42.0221 	 -11.4914 	 -123.47 	 
C 	 42.0929 	 -12.2075 	 -124.62 	 
C 	 41.1226 	 -11.8969 	 -125.52 	 
H 	 42.807 	 -12.9807 	 -124.766 	 
C 	 42.977 	 -11.8049 	 -122.351 	 
H 	 43.4207 	 -12.7861 	 -122.68 	 
H 	 42.4872 	 -12.1496 	 -121.503 	 
C 	 43.9576 	 -10.6588 	 -122.035 	 
H 	 43.5145 	 -9.64353 	 -121.781 	 
H 	 44.5608 	 -11.0155 	 -121.175 	 
C 	 44.8663 	 -10.2674 	 -123.192 	 
H 	 45.4741 	 -11.1674 	 -123.445 	 
H 	 44.3523 	 -9.96057 	 -124.143 	 
H 	 45.4744 	 -9.44399 	 -122.805 	 
S 	 39.2342 	 -13.069 	 -127.1 	 
C 	 39.7781 	 -13.8771 	 -128.528 	 
C 	 41.1366 	 -13.7715 	 -128.742 	 
C 	 41.7853 	 -12.9522 	 -127.774 	 
C 	 40.8836 	 -12.55 	 -126.807 	 
H 	 41.5432 	 -14.2874 	 -129.564 	 
C 	 43.2188 	 -12.6563 	 -127.914 	 
H 	 43.3887 	 -11.9345 	 -127.172 	 
H 	 43.4367 	 -12.0348 	 -128.794 	 
C 	 44.1189 	 -13.9134 	 -127.835 	 
H 	 43.7743 	 -14.578 	 -128.627 	 
H 	 43.877 	 -14.3156 	 -126.875 	 
C 	 45.5761 	 -13.5193 	 -127.729 	 
H 	 46.2722 	 -14.376 	 -127.623 	 
H 	 45.6325 	 -12.8585 	 -126.831 	 
H 	 45.9246 	 -12.9512 	 -128.581 	 
H 	 40.7212 	 -9.91862 	 -122.623 	 
H 	 39.23 	 -14.6266 	 -128.999 	 
*
