! wB97X-D3 SP def2-SVP
%pal
nprocs 24
end

* xyz 0 1
S 	 -49.9956 	 17.2556 	 23.8526 	 
C 	 -51.3786 	 16.2321 	 23.4851 	 
C 	 -51.0228 	 14.8891 	 23.6983 	 
C 	 -49.7978 	 14.7748 	 24.4525 	 
C 	 -49.0951 	 15.9613 	 24.5882 	 
H 	 -49.4216 	 13.8757 	 24.863 	 
C 	 -51.9212 	 13.6978 	 23.4747 	 
H 	 -52.9156 	 14.0035 	 22.9971 	 
H 	 -52.2843 	 13.4863 	 24.4873 	 
C 	 -51.1627 	 12.5619 	 22.8136 	 
H 	 -50.9915 	 12.8526 	 21.8362 	 
H 	 -50.1459 	 12.3593 	 23.2483 	 
C 	 -51.9556 	 11.1907 	 22.7541 	 
H 	 -51.382 	 10.3358 	 22.3647 	 
H 	 -52.4203 	 11.1028 	 23.7639 	 
H 	 -52.8162 	 11.3107 	 22.101 	 
S 	 -46.7166 	 17.1836 	 24.5727 	 
C 	 -45.6071 	 17.0658 	 25.8425 	 
C 	 -46.0349 	 16.0597 	 26.7235 	 
C 	 -47.2801 	 15.4519 	 26.4241 	 
C 	 -47.8565 	 16.1323 	 25.3204 	 
H 	 -45.3839 	 15.869 	 27.555 	 
C 	 -47.8976 	 14.2838 	 27.1865 	 
H 	 -47.2339 	 14.0709 	 27.9876 	 
H 	 -48.1899 	 13.4341 	 26.5524 	 
C 	 -49.2399 	 14.5104 	 27.8605 	 
H 	 -49.6899 	 13.5504 	 28.216 	 
H 	 -50.0573 	 14.9245 	 27.2234 	 
C 	 -48.9506 	 15.4822 	 28.9828 	 
H 	 -48.3041 	 16.3177 	 28.7741 	 
H 	 -48.626 	 14.9551 	 29.8394 	 
H 	 -49.919 	 15.8086 	 29.3427 	 
H 	 -52.3087 	 16.5612 	 23.1125 	 
H 	 -44.6598 	 17.5805 	 25.9959 	 
*
