! wB97X-D3 SP def2-SVP
%pal
nprocs 24
end

* xyz 0 1
S 	 -94.9898 	 13.1974 	 -113.677 	 
C 	 -93.753 	 14.4464 	 -113.758 	 
C 	 -92.5725 	 14.0534 	 -114.417 	 
C 	 -92.8006 	 12.7394 	 -115.06 	 
C 	 -94.1094 	 12.2913 	 -114.909 	 
H 	 -92.1481 	 12.2586 	 -115.744 	 
C 	 -91.4004 	 14.8228 	 -114.779 	 
H 	 -90.8067 	 14.068 	 -115.372 	 
H 	 -90.8832 	 15.154 	 -113.926 	 
C 	 -91.4299 	 15.9795 	 -115.76 	 
H 	 -90.4321 	 16.2864 	 -116.019 	 
H 	 -91.767 	 15.6853 	 -116.769 	 
C 	 -92.1908 	 17.1457 	 -115.199 	 
H 	 -93.2677 	 17.0147 	 -115.25 	 
H 	 -91.9317 	 17.3808 	 -114.141 	 
H 	 -91.9091 	 18.0524 	 -115.721 	 
S 	 -95.3429 	 9.88206 	 -114.255 	 
C 	 -95.5511 	 8.7143 	 -115.523 	 
C 	 -95.1278 	 9.1562 	 -116.752 	 
C 	 -94.65 	 10.5024 	 -116.749 	 
C 	 -94.6161 	 11.0131 	 -115.408 	 
H 	 -95.0771 	 8.48389 	 -117.566 	 
C 	 -94.1872 	 11.1957 	 -118.032 	 
H 	 -93.9449 	 10.3986 	 -118.727 	 
H 	 -93.3708 	 11.8339 	 -117.702 	 
C 	 -95.2491 	 12.0194 	 -118.769 	 
H 	 -95.5388 	 12.873 	 -118.051 	 
H 	 -96.1648 	 11.3774 	 -118.852 	 
C 	 -94.7257 	 12.4472 	 -120.134 	 
H 	 -95.474 	 13.1519 	 -120.554 	 
H 	 -94.6645 	 11.5484 	 -120.813 	 
H 	 -93.8039 	 12.8876 	 -120.068 	 
H 	 -93.8509 	 15.4115 	 -113.333 	 
H 	 -95.9203 	 7.76104 	 -115.32 	 
*
