! wB97X-D3 SP def2-SVP
%pal
nprocs 24
end

* xyz 0 1
S 	 -99.0112 	 1.79261 	 -119.361 	 
C 	 -100.19 	 2.00553 	 -120.608 	 
C 	 -101.443 	 2.35384 	 -120.103 	 
C 	 -101.41 	 2.48727 	 -118.674 	 
C 	 -100.221 	 2.23822 	 -118.101 	 
H 	 -102.088 	 2.7682 	 -117.976 	 
C 	 -102.725 	 2.75695 	 -120.857 	 
H 	 -102.655 	 2.22832 	 -121.826 	 
H 	 -102.639 	 3.86247 	 -121.031 	 
C 	 -104.071 	 2.47657 	 -120.196 	 
H 	 -103.988 	 3.07031 	 -119.306 	 
H 	 -104.876 	 2.95074 	 -120.766 	 
C 	 -104.397 	 1.01363 	 -119.983 	 
H 	 -104.767 	 0.506899 	 -120.828 	 
H 	 -103.473 	 0.476784 	 -119.775 	 
H 	 -105.092 	 0.994444 	 -119.172 	 
S 	 -98.5189 	 3.30927 	 -116.275 	 
C 	 -98.7736 	 3.03637 	 -114.63 	 
C 	 -99.815 	 2.1405 	 -114.343 	 
C 	 -100.517 	 1.84425 	 -115.554 	 
C 	 -99.8492 	 2.32313 	 -116.689 	 
H 	 -99.9113 	 1.73366 	 -113.378 	 
C 	 -101.768 	 1.04436 	 -115.585 	 
H 	 -101.601 	 0.212887 	 -114.932 	 
H 	 -101.82 	 0.530881 	 -116.555 	 
C 	 -103.123 	 1.79969 	 -115.302 	 
H 	 -103.176 	 2.73389 	 -115.881 	 
H 	 -103.139 	 2.01109 	 -114.257 	 
C 	 -104.371 	 0.947079 	 -115.759 	 
H 	 -104.344 	 0.930807 	 -116.802 	 
H 	 -105.341 	 1.30392 	 -115.314 	 
H 	 -104.315 	 -0.0620398 	 -115.402 	 
H 	 -99.8634 	 2.05703 	 -121.611 	 
H 	 -98.0203 	 3.17665 	 -113.936 	 
*
