! wB97X-D3 SP def2-SVP
%pal
nprocs 24
end

* xyz 0 1
S 	 -88.0986 	 -34.5233 	 -63.957 	 
C 	 -88.8176 	 -35.3497 	 -65.3153 	 
C 	 -89.1891 	 -36.661 	 -65.0439 	 
C 	 -88.8393 	 -36.9663 	 -63.6995 	 
C 	 -88.1959 	 -35.9733 	 -62.975 	 
H 	 -89.1115 	 -37.9211 	 -63.1589 	 
C 	 -89.9653 	 -37.6155 	 -65.9947 	 
H 	 -90.8375 	 -37.1336 	 -66.3906 	 
H 	 -90.6109 	 -38.3375 	 -65.4421 	 
C 	 -89.1685 	 -38.3178 	 -67.1671 	 
H 	 -88.7899 	 -37.4593 	 -67.7994 	 
H 	 -88.2121 	 -38.7524 	 -66.8084 	 
C 	 -90.0922 	 -39.2873 	 -67.9298 	 
H 	 -91.0886 	 -38.8917 	 -68.1049 	 
H 	 -89.6556 	 -39.4831 	 -68.8768 	 
H 	 -90.2045 	 -40.2696 	 -67.4246 	 
S 	 -86.7049 	 -37.3837 	 -61.0172 	 
C 	 -86.6741 	 -36.6888 	 -59.3777 	 
C 	 -87.3794 	 -35.5726 	 -59.2949 	 
C 	 -88.0466 	 -35.1376 	 -60.5139 	 
C 	 -87.7756 	 -36.0368 	 -61.5922 	 
H 	 -87.4431 	 -35.1003 	 -58.3154 	 
C 	 -89.0452 	 -33.9708 	 -60.5576 	 
H 	 -89.359 	 -33.7784 	 -61.5705 	 
H 	 -88.5322 	 -33.0885 	 -60.2731 	 
C 	 -90.1937 	 -33.9799 	 -59.5113 	 
H 	 -90.5155 	 -32.9134 	 -59.2966 	 
H 	 -89.8009 	 -34.4602 	 -58.5871 	 
C 	 -91.2225 	 -35.0166 	 -59.9787 	 
H 	 -91.5132 	 -34.7322 	 -61.0376 	 
H 	 -92.0804 	 -35.1108 	 -59.3299 	 
H 	 -90.7322 	 -35.9736 	 -59.9687 	 
H 	 -89.3207 	 -34.8487 	 -66.2163 	 
H 	 -86.1732 	 -37.1028 	 -58.5305 	 
*
