! wB97X-D3 SP def2-SVP
%pal
nprocs 24
end

* xyz 0 1
S 	 -67.0705 	 8.52781 	 -77.8671 	 
C 	 -66.5375 	 8.8025 	 -76.29 	 
C 	 -67.568 	 8.77873 	 -75.3634 	 
C 	 -68.8095 	 8.43019 	 -76.0102 	 
C 	 -68.7172 	 8.42911 	 -77.3364 	 
H 	 -69.7859 	 8.37566 	 -75.4759 	 
C 	 -67.457 	 9.14466 	 -73.8641 	 
H 	 -68.0934 	 9.97937 	 -73.666 	 
H 	 -66.4235 	 9.40937 	 -73.559 	 
C 	 -67.9198 	 7.9987 	 -72.91 	 
H 	 -67.9125 	 8.41883 	 -71.8842 	 
H 	 -68.9064 	 7.67534 	 -73.0554 	 
C 	 -67.0774 	 6.6961 	 -72.8913 	 
H 	 -66.8513 	 6.24412 	 -73.9253 	 
H 	 -66.1339 	 6.87884 	 -72.3275 	 
H 	 -67.5692 	 5.92639 	 -72.2642 	 
S 	 -69.3715 	 9.34663 	 -79.8932 	 
C 	 -70.9569 	 9.16539 	 -80.5424 	 
C 	 -71.7841 	 8.56908 	 -79.6169 	 
C 	 -71.1189 	 8.23704 	 -78.363 	 
C 	 -69.781 	 8.54923 	 -78.3578 	 
H 	 -72.8264 	 8.43755 	 -79.8146 	 
C 	 -71.9076 	 7.4972 	 -77.2745 	 
H 	 -71.2617 	 6.73092 	 -76.7143 	 
H 	 -72.6574 	 6.81794 	 -77.7358 	 
C 	 -72.7009 	 8.36654 	 -76.2596 	 
H 	 -73.4225 	 8.91411 	 -76.8768 	 
H 	 -72.0452 	 9.07676 	 -75.8347 	 
C 	 -73.4112 	 7.53623 	 -75.2123 	 
H 	 -74.0133 	 6.73075 	 -75.6354 	 
H 	 -74.0629 	 8.28835 	 -74.7287 	 
H 	 -72.7024 	 7.22205 	 -74.4696 	 
H 	 -65.5463 	 9.10885 	 -76.0362 	 
H 	 -71.2868 	 9.42279 	 -81.531 	 
*
