! wB97X-D3 SP def2-SVP
%pal
nprocs 24
end

* xyz 0 1
S 	 -56.546 	 1.00247 	 -19.3176 	 
C 	 -57.8249 	 1.36181 	 -20.3787 	 
C 	 -58.1391 	 2.71914 	 -20.4441 	 
C 	 -57.4021 	 3.42622 	 -19.4193 	 
C 	 -56.411 	 2.62246 	 -18.7734 	 
H 	 -57.5091 	 4.47658 	 -19.0996 	 
C 	 -59.4029 	 3.36443 	 -21.0281 	 
H 	 -59.4981 	 3.08365 	 -22.0967 	 
H 	 -59.2103 	 4.45603 	 -20.9641 	 
C 	 -60.6963 	 2.90123 	 -20.4118 	 
H 	 -60.9005 	 1.77043 	 -20.6297 	 
H 	 -60.7489 	 3.10357 	 -19.2673 	 
C 	 -61.841 	 3.73028 	 -20.9198 	 
H 	 -62.7549 	 3.29847 	 -20.4939 	 
H 	 -61.8308 	 4.82555 	 -20.78 	 
H 	 -61.9486 	 3.5844 	 -21.9463 	 
S 	 -55.6227 	 2.2002 	 -16.1893 	 
C 	 -54.0993 	 2.8235 	 -15.6978 	 
C 	 -53.6885 	 3.86004 	 -16.5073 	 
C 	 -54.5478 	 3.97698 	 -17.6267 	 
C 	 -55.4604 	 2.95244 	 -17.7403 	 
H 	 -52.8316 	 4.40099 	 -16.1929 	 
C 	 -54.2662 	 4.99574 	 -18.7208 	 
H 	 -54.3951 	 4.59932 	 -19.7134 	 
H 	 -53.1557 	 5.12087 	 -18.65 	 
C 	 -55.0155 	 6.35027 	 -18.5886 	 
H 	 -54.6472 	 6.81826 	 -17.6847 	 
H 	 -56.1273 	 6.17545 	 -18.4835 	 
C 	 -54.8153 	 7.29583 	 -19.7674 	 
H 	 -54.2158 	 6.75553 	 -20.4992 	 
H 	 -54.1145 	 8.10911 	 -19.5584 	 
H 	 -55.7813 	 7.59559 	 -20.2486 	 
H 	 -58.2895 	 0.606303 	 -20.8644 	 
H 	 -53.5623 	 2.52338 	 -14.8286 	 
*
