! wB97X-D3 SP def2-SVP
%pal
nprocs 24
end

* xyz 0 1
S 	 -107.12 	 13.9048 	 -123.926 	 
C 	 -107.515 	 12.8 	 -122.61 	 
C 	 -108.837 	 12.9576 	 -122.252 	 
C 	 -109.452 	 14.0664 	 -122.928 	 
C 	 -108.697 	 14.5528 	 -123.945 	 
H 	 -110.43 	 14.523 	 -122.764 	 
C 	 -109.559 	 12.2205 	 -121.18 	 
H 	 -110.377 	 12.7643 	 -120.725 	 
H 	 -108.977 	 12.129 	 -120.308 	 
C 	 -110.01 	 10.8166 	 -121.523 	 
H 	 -109.189 	 10.3019 	 -121.995 	 
H 	 -110.125 	 10.1975 	 -120.601 	 
C 	 -111.117 	 10.7916 	 -122.571 	 
H 	 -111.879 	 11.3445 	 -122.194 	 
H 	 -110.804 	 11.1139 	 -123.567 	 
H 	 -111.51 	 9.7926 	 -122.734 	 
S 	 -108.057 	 16.8669 	 -125.441 	 
C 	 -109.329 	 17.5463 	 -126.52 	 
C 	 -110.457 	 16.8596 	 -126.342 	 
C 	 -110.291 	 15.6699 	 -125.607 	 
C 	 -109.107 	 15.5834 	 -124.904 	 
H 	 -111.364 	 17.1623 	 -126.938 	 
C 	 -111.494 	 14.7745 	 -125.327 	 
H 	 -111.894 	 15.0011 	 -124.342 	 
H 	 -111.076 	 13.8152 	 -125.171 	 
C 	 -112.557 	 14.513 	 -126.317 	 
H 	 -112.097 	 14.2165 	 -127.298 	 
H 	 -113.054 	 15.4923 	 -126.557 	 
C 	 -113.653 	 13.5192 	 -125.937 	 
H 	 -113.224 	 12.5471 	 -125.692 	 
H 	 -114.28 	 13.2996 	 -126.844 	 
H 	 -114.212 	 13.9509 	 -125.142 	 
H 	 -106.921 	 12.034 	 -122.309 	 
H 	 -109.243 	 18.4692 	 -127.054 	 
*
