! wB97X-D3 SP def2-SVP
%pal
nprocs 24
end

* xyz 0 1
S 	 -56.2147 	 15.0957 	 -88.6539 	 
C 	 -56.4229 	 16.114 	 -90.0671 	 
C 	 -56.4654 	 17.4309 	 -89.7764 	 
C 	 -56.4193 	 17.6201 	 -88.3483 	 
C 	 -56.1153 	 16.4919 	 -87.6323 	 
H 	 -56.4586 	 18.5602 	 -87.8954 	 
C 	 -56.6577 	 18.5844 	 -90.6399 	 
H 	 -57.2248 	 19.4175 	 -90.1395 	 
H 	 -57.2809 	 18.3373 	 -91.5096 	 
C 	 -55.3601 	 19.1757 	 -90.9672 	 
H 	 -54.8026 	 19.4354 	 -90.0341 	 
H 	 -54.8105 	 18.3798 	 -91.3671 	 
C 	 -55.4252 	 20.4218 	 -91.8523 	 
H 	 -56.1932 	 21.0795 	 -91.4212 	 
H 	 -54.5269 	 20.9752 	 -91.8262 	 
H 	 -55.7547 	 20.2331 	 -92.9294 	 
S 	 -56.7139 	 15.3845 	 -85.0496 	 
C 	 -55.6096 	 15.7193 	 -83.7588 	 
C 	 -54.6516 	 16.6181 	 -84.1657 	 
C 	 -54.7012 	 16.9991 	 -85.5542 	 
C 	 -55.7853 	 16.3841 	 -86.1738 	 
H 	 -53.9377 	 16.861 	 -83.3869 	 
C 	 -53.5696 	 17.7331 	 -86.2688 	 
H 	 -53.9706 	 18.3865 	 -87.0446 	 
H 	 -52.8733 	 16.9928 	 -86.5731 	 
C 	 -52.7623 	 18.6359 	 -85.3154 	 
H 	 -52.2014 	 17.9467 	 -84.6419 	 
H 	 -53.2759 	 19.5085 	 -84.8022 	 
C 	 -51.5832 	 19.3232 	 -86.0867 	 
H 	 -51.8427 	 20.3185 	 -86.5043 	 
H 	 -51.1563 	 18.6046 	 -86.8106 	 
H 	 -50.6785 	 19.5198 	 -85.3978 	 
H 	 -56.4071 	 15.6015 	 -91.0189 	 
H 	 -55.6676 	 15.2223 	 -82.7501 	 
*
