! wB97X-D3 SP def2-SVP
%pal
nprocs 24
end

* xyz 0 1
S 	 -81.6621 	 -19.025 	 -53.9601 	 
C 	 -83.141 	 -18.5655 	 -53.2151 	 
C 	 -83.2838 	 -19.1359 	 -51.9675 	 
C 	 -82.1481 	 -19.9935 	 -51.6784 	 
C 	 -81.1433 	 -20.0476 	 -52.6093 	 
H 	 -81.9253 	 -20.644 	 -50.8249 	 
C 	 -84.5533 	 -18.9336 	 -51.1729 	 
H 	 -84.657 	 -19.7343 	 -50.4112 	 
H 	 -85.3523 	 -19.0403 	 -51.7876 	 
C 	 -84.5879 	 -17.6442 	 -50.2376 	 
H 	 -84.3729 	 -16.722 	 -50.7738 	 
H 	 -85.625 	 -17.7206 	 -49.8031 	 
C 	 -83.6704 	 -17.7775 	 -49.122 	 
H 	 -84.1325 	 -18.4947 	 -48.4311 	 
H 	 -82.7221 	 -18.2255 	 -49.4577 	 
H 	 -83.5843 	 -16.8735 	 -48.5851 	 
S 	 -79.849 	 -22.2976 	 -51.465 	 
C 	 -78.2723 	 -22.7517 	 -52.0185 	 
C 	 -77.731 	 -21.8473 	 -52.8036 	 
C 	 -78.706 	 -20.8491 	 -53.266 	 
C 	 -79.9563 	 -20.9401 	 -52.6356 	 
H 	 -76.6293 	 -21.9693 	 -52.9239 	 
C 	 -78.2465 	 -19.6515 	 -54.1564 	 
H 	 -77.1926 	 -19.5012 	 -53.885 	 
H 	 -78.751 	 -18.6627 	 -53.8321 	 
C 	 -78.5693 	 -19.7174 	 -55.7272 	 
H 	 -78.0687 	 -18.9158 	 -56.2648 	 
H 	 -79.6637 	 -19.6445 	 -55.8386 	 
C 	 -78.1171 	 -21.0334 	 -56.4328 	 
H 	 -77.0174 	 -21.108 	 -56.4446 	 
H 	 -78.4073 	 -21.0145 	 -57.4845 	 
H 	 -78.565 	 -21.944 	 -56.0859 	 
H 	 -83.8999 	 -17.9771 	 -53.6944 	 
H 	 -77.5901 	 -23.4733 	 -51.5033 	 
*
