! wB97X-D3 SP def2-SVP
%pal
nprocs 24
end

* xyz 0 1
S 	 -47.8885 	 16.7286 	 21.893 	 
C 	 -49.0223 	 16.2871 	 23.1163 	 
C 	 -49.9211 	 15.3855 	 22.7296 	 
C 	 -49.8573 	 15.0843 	 21.3234 	 
C 	 -48.8212 	 15.7878 	 20.6725 	 
H 	 -50.5542 	 14.4514 	 20.7103 	 
C 	 -51.2114 	 15.0417 	 23.4448 	 
H 	 -51.8126 	 14.5445 	 22.6803 	 
H 	 -51.7402 	 15.9367 	 23.8942 	 
C 	 -50.9796 	 14.0359 	 24.5812 	 
H 	 -50.1393 	 14.3411 	 25.1493 	 
H 	 -51.8136 	 14.0844 	 25.2635 	 
C 	 -50.7496 	 12.5886 	 24.0415 	 
H 	 -49.9664 	 12.5809 	 23.2332 	 
H 	 -50.4148 	 11.9362 	 24.8278 	 
H 	 -51.7135 	 12.1486 	 23.7351 	 
S 	 -48.6546 	 14.2111 	 18.4797 	 
C 	 -48.1964 	 14.8204 	 16.9083 	 
C 	 -47.9805 	 16.2128 	 16.913 	 
C 	 -48.1058 	 16.6776 	 18.2984 	 
C 	 -48.4444 	 15.7144 	 19.2553 	 
H 	 -47.8725 	 16.9119 	 16.1238 	 
C 	 -47.9981 	 18.1322 	 18.6059 	 
H 	 -47.2872 	 18.6001 	 17.8812 	 
H 	 -47.5069 	 18.1789 	 19.5864 	 
C 	 -49.2178 	 19.0165 	 18.6942 	 
H 	 -49.9371 	 18.5872 	 19.5152 	 
H 	 -49.7921 	 18.9599 	 17.8335 	 
C 	 -48.8921 	 20.4976 	 19.0104 	 
H 	 -49.7638 	 21.0712 	 19.0498 	 
H 	 -48.3225 	 20.8725 	 18.1977 	 
H 	 -48.3708 	 20.7073 	 19.8977 	 
H 	 -49.1504 	 16.6828 	 24.1086 	 
H 	 -48.2943 	 14.2395 	 15.9858 	 
*
