! wB97X-D3 SP def2-SVP
%pal
nprocs 24
end

* xyz 0 1
S 	 -61.658 	 -57.7947 	 -78.4403 	 
C 	 -63.304 	 -57.8773 	 -77.9074 	 
C 	 -64.1564 	 -58.5562 	 -78.7375 	 
C 	 -63.4854 	 -58.8815 	 -79.9709 	 
C 	 -62.1789 	 -58.4898 	 -80.0156 	 
H 	 -63.9003 	 -59.4039 	 -80.8011 	 
C 	 -65.5879 	 -59.0617 	 -78.4435 	 
H 	 -65.6169 	 -59.3477 	 -77.3692 	 
H 	 -65.6837 	 -60.0061 	 -79.0431 	 
C 	 -66.743 	 -58.0925 	 -78.8296 	 
H 	 -66.5591 	 -57.8209 	 -79.8814 	 
H 	 -67.7041 	 -58.5693 	 -78.9001 	 
C 	 -66.8077 	 -56.8346 	 -77.8562 	 
H 	 -65.9973 	 -56.0616 	 -77.9938 	 
H 	 -67.6912 	 -56.2418 	 -78.1026 	 
H 	 -66.7894 	 -57.0364 	 -76.7902 	 
S 	 -59.8214 	 -59.5628 	 -80.775 	 
C 	 -59.2198 	 -59.2863 	 -82.3583 	 
C 	 -59.9919 	 -58.4423 	 -83.0693 	 
C 	 -61.2191 	 -58.0942 	 -82.3841 	 
C 	 -61.3169 	 -58.6758 	 -81.1213 	 
H 	 -59.6677 	 -58.1814 	 -84.069 	 
C 	 -62.2505 	 -57.1246 	 -82.9674 	 
H 	 -63.2907 	 -57.3729 	 -82.6 	 
H 	 -62.2505 	 -57.2358 	 -84.078 	 
C 	 -61.9194 	 -55.648 	 -82.7361 	 
H 	 -62.8444 	 -55.1838 	 -83.0551 	 
H 	 -61.0721 	 -55.2346 	 -83.305 	 
C 	 -61.4878 	 -55.3637 	 -81.2444 	 
H 	 -62.294 	 -55.6847 	 -80.5311 	 
H 	 -61.4504 	 -54.2418 	 -81.0643 	 
H 	 -60.6297 	 -55.9227 	 -80.9442 	 
H 	 -63.5095 	 -57.5509 	 -76.8949 	 
H 	 -58.3017 	 -59.7264 	 -82.715 	 
*
