! wB97X-D3 SP def2-SVP
%pal
nprocs 24
end

* xyz 0 1
S 	 -50.8361 	 9.36878 	 -21.5123 	 
C 	 -49.8717 	 10.0326 	 -20.2212 	 
C 	 -50.6729 	 10.7127 	 -19.3305 	 
C 	 -52.0328 	 10.7695 	 -19.7207 	 
C 	 -52.2878 	 10.2751 	 -20.9788 	 
H 	 -52.8374 	 11.2197 	 -19.1318 	 
C 	 -50.119 	 11.3554 	 -18.0642 	 
H 	 -49.1211 	 11.0027 	 -17.899 	 
H 	 -50.6772 	 10.8744 	 -17.2372 	 
C 	 -50.0672 	 12.8607 	 -17.9255 	 
H 	 -51.0615 	 13.2621 	 -18.1913 	 
H 	 -49.8353 	 13.0732 	 -16.8881 	 
C 	 -48.881 	 13.3658 	 -18.7427 	 
H 	 -48.8894 	 14.3928 	 -18.8143 	 
H 	 -47.8995 	 13.2103 	 -18.3762 	 
H 	 -48.8215 	 12.9743 	 -19.7397 	 
S 	 -53.7959 	 8.88205 	 -22.7088 	 
C 	 -55.3707 	 9.54339 	 -23.1382 	 
C 	 -55.5593 	 10.8401 	 -22.6868 	 
C 	 -54.54 	 11.2696 	 -21.8329 	 
C 	 -53.5468 	 10.2742 	 -21.6886 	 
H 	 -56.3784 	 11.492 	 -22.9405 	 
C 	 -54.3751 	 12.7888 	 -21.4954 	 
H 	 -53.5322 	 12.8831 	 -20.8894 	 
H 	 -55.226 	 12.9336 	 -20.8614 	 
C 	 -54.3238 	 13.7785 	 -22.6391 	 
H 	 -55.307 	 13.9312 	 -23.1142 	 
H 	 -53.7024 	 13.4556 	 -23.4237 	 
C 	 -53.9307 	 15.1749 	 -22.1487 	 
H 	 -54.2528 	 15.3512 	 -21.1286 	 
H 	 -54.3487 	 16.0457 	 -22.7486 	 
H 	 -52.8525 	 15.3042 	 -22.1751 	 
H 	 -48.8612 	 9.80156 	 -20.0096 	 
H 	 -56.0441 	 9.02939 	 -23.7692 	 
*
