! wB97X-D3 SP def2-SVP
%pal
nprocs 24
end

* xyz 0 1
S 	 -126.249 	 16.5035 	 -23.5442 	 
C 	 -124.827 	 16.4999 	 -22.5615 	 
C 	 -123.846 	 17.3487 	 -23.0758 	 
C 	 -124.222 	 17.8073 	 -24.3655 	 
C 	 -125.514 	 17.5655 	 -24.7426 	 
H 	 -123.63 	 18.3302 	 -25.1023 	 
C 	 -122.433 	 17.4498 	 -22.5455 	 
H 	 -121.676 	 17.2092 	 -23.3386 	 
H 	 -122.402 	 16.649 	 -21.8414 	 
C 	 -122.05 	 18.7796 	 -21.8662 	 
H 	 -122.183 	 19.4964 	 -22.7355 	 
H 	 -122.662 	 19.106 	 -21.058 	 
C 	 -120.642 	 18.8166 	 -21.3263 	 
H 	 -120.391 	 18.0501 	 -20.5735 	 
H 	 -119.939 	 18.8279 	 -22.1233 	 
H 	 -120.413 	 19.7518 	 -20.7938 	 
S 	 -126.951 	 19.2919 	 -26.1843 	 
C 	 -127.618 	 18.7464 	 -27.6662 	 
C 	 -126.986 	 17.5989 	 -28.1963 	 
C 	 -126.235 	 16.9763 	 -27.1297 	 
C 	 -126.138 	 17.7999 	 -25.9994 	 
H 	 -127.337 	 17.1962 	 -29.1411 	 
C 	 -125.397 	 15.6934 	 -27.2482 	 
H 	 -125.794 	 15.0384 	 -28.0352 	 
H 	 -125.51 	 15.1721 	 -26.3114 	 
C 	 -123.914 	 16.0278 	 -27.6142 	 
H 	 -123.385 	 15.1768 	 -27.2696 	 
H 	 -123.439 	 16.8607 	 -27.006 	 
C 	 -123.722 	 16.2181 	 -29.178 	 
H 	 -122.697 	 16.2238 	 -29.6028 	 
H 	 -124.346 	 17.1616 	 -29.3483 	 
H 	 -124.181 	 15.4299 	 -29.7318 	 
H 	 -124.631 	 15.8763 	 -21.6598 	 
H 	 -128.313 	 19.3101 	 -28.2633 	 
*
