! wB97X-D3 SP def2-SVP
%pal
nprocs 24
end

* xyz 0 1
S 	 -104.243 	 61.5748 	 -98.4088 	 
C 	 -105.353 	 60.9113 	 -99.5286 	 
C 	 -106.498 	 60.4142 	 -98.9927 	 
C 	 -106.278 	 60.1177 	 -97.6529 	 
C 	 -105.081 	 60.599 	 -97.2097 	 
H 	 -106.906 	 59.5357 	 -97.0136 	 
C 	 -107.639 	 59.9145 	 -99.8983 	 
H 	 -107.955 	 58.9128 	 -99.8241 	 
H 	 -107.147 	 60.1361 	 -100.871 	 
C 	 -108.917 	 60.8061 	 -99.8926 	 
H 	 -109.6 	 60.4849 	 -100.686 	 
H 	 -109.53 	 60.704 	 -98.9414 	 
C 	 -108.697 	 62.2993 	 -100.049 	 
H 	 -108.342 	 62.7588 	 -99.0896 	 
H 	 -107.94 	 62.5666 	 -100.843 	 
H 	 -109.592 	 62.733 	 -100.414 	 
S 	 -103.383 	 59.0569 	 -95.6728 	 
C 	 -103.097 	 59.3433 	 -94.0005 	 
C 	 -104.144 	 60.1359 	 -93.5541 	 
C 	 -104.965 	 60.6817 	 -94.6463 	 
C 	 -104.538 	 60.3172 	 -95.8729 	 
H 	 -104.21 	 60.3355 	 -92.5182 	 
C 	 -106.026 	 61.6853 	 -94.3575 	 
H 	 -106.37 	 62.1836 	 -95.2694 	 
H 	 -105.719 	 62.584 	 -93.7541 	 
C 	 -107.204 	 61.1757 	 -93.5117 	 
H 	 -107.912 	 61.9691 	 -93.2336 	 
H 	 -106.814 	 60.7043 	 -92.5749 	 
C 	 -107.95 	 60.0052 	 -94.2341 	 
H 	 -108.692 	 59.5705 	 -93.598 	 
H 	 -107.335 	 59.1252 	 -94.4952 	 
H 	 -108.5 	 60.2671 	 -95.1631 	 
H 	 -105.209 	 61.1357 	 -100.572 	 
H 	 -102.411 	 58.8245 	 -93.3326 	 
*
