! wB97X-D3 SP def2-SVP
%pal
nprocs 24
end

* xyz 0 1
S 	 -110.351 	 56.7216 	 -89.9005 	 
C 	 -111.205 	 57.2923 	 -91.3113 	 
C 	 -112.051 	 56.3145 	 -91.8345 	 
C 	 -111.779 	 54.983 	 -91.2882 	 
C 	 -110.824 	 55.0638 	 -90.2892 	 
H 	 -112.227 	 54.0543 	 -91.4984 	 
C 	 -113.172 	 56.3909 	 -92.8848 	 
H 	 -113.181 	 55.3539 	 -93.311 	 
H 	 -112.964 	 57.082 	 -93.696 	 
C 	 -114.567 	 56.6944 	 -92.205 	 
H 	 -114.83 	 55.9076 	 -91.4946 	 
H 	 -114.376 	 57.5683 	 -91.5775 	 
C 	 -115.77 	 56.895 	 -93.0626 	 
H 	 -115.932 	 56.087 	 -93.7663 	 
H 	 -116.698 	 57.0605 	 -92.5041 	 
H 	 -115.512 	 57.8144 	 -93.6088 	 
S 	 -110.484 	 54.2395 	 -87.6252 	 
C 	 -110.159 	 52.5668 	 -87.3664 	 
C 	 -110.052 	 51.7932 	 -88.5629 	 
C 	 -110.228 	 52.6673 	 -89.7289 	 
C 	 -110.413 	 53.9685 	 -89.3728 	 
H 	 -109.898 	 50.722 	 -88.6327 	 
C 	 -109.99 	 52.1086 	 -91.1662 	 
H 	 -109.876 	 52.9093 	 -91.9017 	 
H 	 -110.811 	 51.5568 	 -91.5351 	 
C 	 -108.821 	 51.1063 	 -91.3175 	 
H 	 -108.826 	 50.7147 	 -92.3206 	 
H 	 -108.894 	 50.1679 	 -90.7509 	 
C 	 -107.417 	 51.6977 	 -90.9814 	 
H 	 -106.657 	 50.993 	 -91.3648 	 
H 	 -107.211 	 51.7508 	 -89.8635 	 
H 	 -107.342 	 52.7139 	 -91.442 	 
H 	 -111.278 	 58.326 	 -91.5542 	 
H 	 -110.165 	 52.1971 	 -86.3269 	 
*
