! wB97X-D3 SP def2-SVP
%pal
nprocs 24
end

* xyz 0 1
S 	 -105.586 	 21.7562 	 -120.134 	 
C 	 -107.057 	 20.9654 	 -119.75 	 
C 	 -107.539 	 20.1466 	 -120.663 	 
C 	 -106.563 	 19.9874 	 -121.732 	 
C 	 -105.405 	 20.6747 	 -121.513 	 
H 	 -106.677 	 19.4154 	 -122.565 	 
C 	 -108.979 	 19.5456 	 -120.78 	 
H 	 -109.081 	 19.1147 	 -121.783 	 
H 	 -109.682 	 20.4206 	 -120.679 	 
C 	 -109.304 	 18.3705 	 -119.813 	 
H 	 -109.098 	 18.5287 	 -118.773 	 
H 	 -110.359 	 18.2669 	 -119.915 	 
C 	 -108.579 	 17.0512 	 -120.21 	 
H 	 -109.084 	 16.1884 	 -119.762 	 
H 	 -108.552 	 16.8537 	 -121.341 	 
H 	 -107.596 	 17.0935 	 -119.795 	 
S 	 -102.771 	 19.9098 	 -121.349 	 
C 	 -101.931 	 19.5784 	 -122.811 	 
C 	 -102.513 	 20.1788 	 -123.891 	 
C 	 -103.863 	 20.6755 	 -123.542 	 
C 	 -104.158 	 20.5465 	 -122.21 	 
H 	 -102.137 	 20.0479 	 -124.873 	 
C 	 -104.821 	 21.2043 	 -124.551 	 
H 	 -104.421 	 21.9211 	 -125.259 	 
H 	 -105.608 	 21.7964 	 -124.179 	 
C 	 -105.438 	 20.1498 	 -125.484 	 
H 	 -105.926 	 19.4076 	 -124.887 	 
H 	 -104.611 	 19.7641 	 -126.083 	 
C 	 -106.362 	 20.7118 	 -126.576 	 
H 	 -105.913 	 21.5932 	 -127.078 	 
H 	 -107.364 	 20.9905 	 -126.351 	 
H 	 -106.467 	 19.9699 	 -127.386 	 
H 	 -107.646 	 21.2346 	 -118.824 	 
H 	 -100.952 	 19.109 	 -122.897 	 
*
