! wB97X-D3 SP def2-SVP
%pal
nprocs 24
end

* xyz 0 1
S 	 -27.5969 	 -7.07678 	 -1.58184 	 
C 	 -27.6487 	 -7.36334 	 0.109733 	 
C 	 -28.8291 	 -8.01223 	 0.491385 	 
C 	 -29.7923 	 -7.94466 	 -0.593727 	 
C 	 -29.3002 	 -7.26918 	 -1.68031 	 
H 	 -30.8031 	 -8.38286 	 -0.610652 	 
C 	 -29.2121 	 -8.57354 	 1.85072 	 
H 	 -30.3002 	 -8.37223 	 1.90641 	 
H 	 -28.7493 	 -7.9758 	 2.56495 	 
C 	 -28.9512 	 -10.0362 	 1.92984 	 
H 	 -27.9049 	 -10.2037 	 1.959 	 
H 	 -29.3269 	 -10.2749 	 2.88719 	 
C 	 -29.6337 	 -10.8659 	 0.829117 	 
H 	 -29.1118 	 -10.6286 	 -0.0547776 	 
H 	 -29.5808 	 -11.9615 	 0.9543 	 
H 	 -30.6539 	 -10.6724 	 0.663204 	 
S 	 -28.9861 	 -6.50334 	 -4.29466 	 
C 	 -30.431 	 -6.16412 	 -5.25764 	 
C 	 -31.5286 	 -6.33985 	 -4.49236 	 
C 	 -31.3353 	 -6.64968 	 -3.16212 	 
C 	 -30.0187 	 -6.94315 	 -2.89142 	 
H 	 -32.4914 	 -6.2068 	 -4.95726 	 
C 	 -32.4603 	 -6.6287 	 -2.0774 	 
H 	 -33.131 	 -5.82048 	 -2.31289 	 
H 	 -32.108 	 -6.48918 	 -1.01589 	 
C 	 -33.3431 	 -7.88847 	 -2.14901 	 
H 	 -32.8279 	 -8.77718 	 -1.88382 	 
H 	 -33.7211 	 -8.05867 	 -3.19625 	 
C 	 -34.6779 	 -7.81341 	 -1.30498 	 
H 	 -35.2594 	 -6.85107 	 -1.3504 	 
H 	 -34.525 	 -7.80112 	 -0.219367 	 
H 	 -35.4367 	 -8.48885 	 -1.73159 	 
H 	 -26.8344 	 -7.29781 	 0.776438 	 
H 	 -30.4209 	 -5.6934 	 -6.24941 	 
*
