! wB97X-D3 SP def2-SVP
%pal
nprocs 24
end

* xyz 0 1
S 	 -113.073 	 40.5564 	 -115.15 	 
C 	 -112.074 	 40.7635 	 -116.632 	 
C 	 -111.539 	 39.5632 	 -117.026 	 
C 	 -111.86 	 38.5127 	 -116.148 	 
C 	 -112.767 	 38.8884 	 -115.132 	 
H 	 -111.344 	 37.507 	 -116.065 	 
C 	 -110.604 	 39.3945 	 -118.226 	 
H 	 -110.322 	 40.419 	 -118.453 	 
H 	 -111.09 	 38.8997 	 -119.137 	 
C 	 -109.315 	 38.6792 	 -118.009 	 
H 	 -108.867 	 38.9048 	 -117.022 	 
H 	 -109.614 	 37.6542 	 -118.162 	 
C 	 -108.3 	 38.9647 	 -119.085 	 
H 	 -108.818 	 38.8371 	 -120.037 	 
H 	 -107.894 	 39.8759 	 -118.953 	 
H 	 -107.564 	 38.1653 	 -119.026 	 
S 	 -113.155 	 38.8097 	 -112.418 	 
C 	 -113.802 	 37.4376 	 -111.618 	 
C 	 -113.914 	 36.3826 	 -112.552 	 
C 	 -113.518 	 36.7354 	 -113.869 	 
C 	 -113.288 	 38.0787 	 -114.027 	 
H 	 -114.308 	 35.398 	 -112.272 	 
C 	 -113.444 	 35.6601 	 -114.986 	 
H 	 -113.088 	 34.8082 	 -114.432 	 
H 	 -112.644 	 35.8478 	 -115.762 	 
C 	 -114.825 	 35.4335 	 -115.718 	 
H 	 -114.959 	 36.2195 	 -116.485 	 
H 	 -115.636 	 35.6662 	 -114.982 	 
C 	 -114.842 	 34.0076 	 -116.24 	 
H 	 -115.591 	 33.9198 	 -117.037 	 
H 	 -115.002 	 33.2424 	 -115.418 	 
H 	 -113.933 	 33.9473 	 -116.823 	 
H 	 -111.912 	 41.7078 	 -117.144 	 
H 	 -113.892 	 37.3662 	 -110.537 	 
*
