! wB97X-D3 SP def2-SVP
%pal
nprocs 24
end

* xyz 0 1
S 	 -106.875 	 15.0166 	 -121.396 	 
C 	 -107.685 	 14.1185 	 -120.119 	 
C 	 -107.014 	 12.9598 	 -119.85 	 
C 	 -106.106 	 12.6113 	 -120.884 	 
C 	 -105.834 	 13.6463 	 -121.736 	 
H 	 -105.544 	 11.6735 	 -120.995 	 
C 	 -107.197 	 12.0737 	 -118.611 	 
H 	 -107.708 	 11.1682 	 -118.889 	 
H 	 -107.789 	 12.6229 	 -117.86 	 
C 	 -105.951 	 11.6519 	 -117.829 	 
H 	 -105.163 	 12.3925 	 -117.989 	 
H 	 -106.014 	 11.7527 	 -116.709 	 
C 	 -105.322 	 10.3496 	 -118.217 	 
H 	 -106.051 	 9.48494 	 -118.041 	 
H 	 -104.907 	 10.3154 	 -119.243 	 
H 	 -104.435 	 10.1706 	 -117.59 	 
S 	 -103.634 	 12.4364 	 -122.637 	 
C 	 -102.988 	 12.6856 	 -124.255 	 
C 	 -103.815 	 13.5188 	 -124.929 	 
C 	 -104.86 	 14.1264 	 -124.165 	 
C 	 -104.938 	 13.5208 	 -122.896 	 
H 	 -103.6 	 13.8533 	 -125.909 	 
C 	 -105.637 	 15.2757 	 -124.801 	 
H 	 -104.838 	 15.983 	 -125.159 	 
H 	 -106.282 	 15.713 	 -124.06 	 
C 	 -106.546 	 14.8694 	 -125.957 	 
H 	 -107.02 	 13.935 	 -125.633 	 
H 	 -105.908 	 14.6343 	 -126.844 	 
C 	 -107.671 	 15.9403 	 -126.327 	 
H 	 -108.226 	 15.5813 	 -127.166 	 
H 	 -107.295 	 16.9286 	 -126.602 	 
H 	 -108.527 	 15.9451 	 -125.608 	 
H 	 -108.352 	 14.5618 	 -119.441 	 
H 	 -102.062 	 12.2342 	 -124.591 	 
*
