! wB97X-D3 SP def2-SVP
%pal
nprocs 24
end

* xyz 0 1
S 	 -117.314 	 61.1556 	 -38.6286 	 
C 	 -117.429 	 62.5254 	 -39.6661 	 
C 	 -116.229 	 63.1826 	 -39.713 	 
C 	 -115.246 	 62.5481 	 -38.8915 	 
C 	 -115.722 	 61.5288 	 -38.0883 	 
H 	 -114.293 	 62.9807 	 -38.6681 	 
C 	 -115.961 	 64.5271 	 -40.4364 	 
H 	 -115.273 	 65.1164 	 -39.8017 	 
H 	 -116.923 	 65.0242 	 -40.4193 	 
C 	 -115.444 	 64.4757 	 -41.8921 	 
H 	 -115.309 	 65.4966 	 -42.2092 	 
H 	 -114.518 	 63.9542 	 -41.8722 	 
C 	 -116.36 	 63.828 	 -42.8489 	 
H 	 -116.169 	 62.7636 	 -42.7689 	 
H 	 -117.357 	 64.1722 	 -42.5022 	 
H 	 -116.022 	 64.127 	 -43.8257 	 
S 	 -114.296 	 59.2252 	 -37.4839 	 
C 	 -113.397 	 59.1125 	 -36.0701 	 
C 	 -113.648 	 60.2325 	 -35.2709 	 
C 	 -114.552 	 61.1893 	 -35.8402 	 
C 	 -115.048 	 60.7704 	 -37.0766 	 
H 	 -113.013 	 60.2985 	 -34.3851 	 
C 	 -114.857 	 62.5484 	 -35.2591 	 
H 	 -115.021 	 62.376 	 -34.2168 	 
H 	 -115.843 	 62.7599 	 -35.7641 	 
C 	 -113.902 	 63.7582 	 -35.5832 	 
H 	 -114.344 	 64.6517 	 -35.057 	 
H 	 -113.943 	 64.0096 	 -36.6301 	 
C 	 -112.373 	 63.5121 	 -35.275 	 
H 	 -111.886 	 64.5383 	 -35.2687 	 
H 	 -111.806 	 63.1082 	 -36.1439 	 
H 	 -112.286 	 63.0215 	 -34.2625 	 
H 	 -118.333 	 62.7716 	 -40.2302 	 
H 	 -112.751 	 58.3097 	 -35.7647 	 
*
