! wB97X-D3 SP def2-SVP
%pal
nprocs 24
end

* xyz 0 1
S 	 -69.5933 	 19.4712 	 -114.405 	 
C 	 -69.0531 	 20.3915 	 -112.998 	 
C 	 -67.7139 	 20.7015 	 -113.018 	 
C 	 -67.0761 	 20.0059 	 -114.157 	 
C 	 -67.9589 	 19.3619 	 -115.006 	 
H 	 -66.0369 	 19.8189 	 -114.324 	 
C 	 -66.9582 	 21.3782 	 -111.941 	 
H 	 -66.2511 	 20.6501 	 -111.626 	 
H 	 -67.6153 	 21.584 	 -111.051 	 
C 	 -66.346 	 22.6881 	 -112.382 	 
H 	 -65.926 	 22.4844 	 -113.367 	 
H 	 -67.1941 	 23.3714 	 -112.514 	 
C 	 -65.3145 	 23.3161 	 -111.484 	 
H 	 -64.3522 	 22.81 	 -111.537 	 
H 	 -65.2456 	 24.3599 	 -111.847 	 
H 	 -65.599 	 23.4666 	 -110.425 	 
S 	 -69.1445 	 17.6878 	 -116.812 	 
C 	 -68.3612 	 17.3544 	 -118.324 	 
C 	 -67.049 	 17.7986 	 -118.298 	 
C 	 -66.6399 	 18.4915 	 -117.095 	 
C 	 -67.7261 	 18.6063 	 -116.209 	 
H 	 -66.5232 	 17.7302 	 -119.224 	 
C 	 -65.2756 	 19.2182 	 -116.958 	 
H 	 -65.4014 	 20.2212 	 -116.446 	 
H 	 -64.8183 	 19.3891 	 -117.951 	 
C 	 -64.219 	 18.3926 	 -116.26 	 
H 	 -64.0469 	 17.3894 	 -116.579 	 
H 	 -64.5921 	 18.2934 	 -115.206 	 
C 	 -62.8957 	 19.1064 	 -116.203 	 
H 	 -62.5272 	 19.0021 	 -117.227 	 
H 	 -62.1904 	 18.5715 	 -115.569 	 
H 	 -62.994 	 20.084 	 -115.818 	 
H 	 -69.735 	 20.8946 	 -112.317 	 
H 	 -68.7555 	 16.7544 	 -119.137 	 
*
