! wB97X-D3 SP def2-SVP
%pal
nprocs 24
end

* xyz 0 1
S 	 -34.5346 	 -9.82446 	 18.566 	 
C 	 -32.9266 	 -10.3709 	 18.6013 	 
C 	 -32.1622 	 -10.1234 	 17.4948 	 
C 	 -32.8843 	 -9.35049 	 16.4868 	 
C 	 -34.2306 	 -9.30551 	 16.8612 	 
H 	 -32.569 	 -8.97177 	 15.5395 	 
C 	 -30.6806 	 -10.3047 	 17.2697 	 
H 	 -30.5634 	 -10.376 	 16.167 	 
H 	 -30.4078 	 -11.2422 	 17.8172 	 
C 	 -29.7231 	 -9.12949 	 17.833 	 
H 	 -28.7543 	 -9.28567 	 17.4001 	 
H 	 -30.1071 	 -8.22473 	 17.3574 	 
C 	 -29.7713 	 -8.92062 	 19.4314 	 
H 	 -28.7337 	 -8.53625 	 19.5932 	 
H 	 -30.5162 	 -8.12336 	 19.7042 	 
H 	 -29.9171 	 -9.88037 	 20.0016 	 
S 	 -36.8409 	 -9.73025 	 15.9689 	 
C 	 -37.5789 	 -8.52716 	 14.9482 	 
C 	 -36.7054 	 -7.51936 	 14.5829 	 
C 	 -35.3734 	 -7.70609 	 15.1287 	 
C 	 -35.3325 	 -8.78386 	 16.0235 	 
H 	 -36.931 	 -6.68869 	 13.9721 	 
C 	 -34.3564 	 -6.63716 	 14.7426 	 
H 	 -33.5123 	 -6.77428 	 15.3755 	 
H 	 -34.6993 	 -5.65009 	 14.9383 	 
C 	 -33.8514 	 -6.56338 	 13.2984 	 
H 	 -33.7026 	 -5.49852 	 13.1341 	 
H 	 -34.644 	 -6.80797 	 12.6501 	 
C 	 -32.6551 	 -7.42812 	 12.8951 	 
H 	 -32.9607 	 -8.45616 	 12.7315 	 
H 	 -31.9154 	 -7.2666 	 13.6649 	 
H 	 -32.2574 	 -7.05227 	 11.93 	 
H 	 -32.5281 	 -11.0439 	 19.3776 	 
H 	 -38.6271 	 -8.43144 	 14.7282 	 
*
