! wB97X-D3 SP def2-SVP
%pal
nprocs 24
end

* xyz 0 1
S 	 -35.9028 	 -11.8416 	 17.4547 	 
C 	 -36.5571 	 -10.3 	 17.7578 	 
C 	 -36.9013 	 -9.68142 	 16.5877 	 
C 	 -36.65 	 -10.5158 	 15.4401 	 
C 	 -36.1528 	 -11.7752 	 15.6952 	 
H 	 -36.8676 	 -10.2222 	 14.4747 	 
C 	 -37.3899 	 -8.27415 	 16.5017 	 
H 	 -36.6818 	 -7.55018 	 17.0014 	 
H 	 -38.2381 	 -8.26978 	 17.0975 	 
C 	 -37.8558 	 -7.76404 	 15.0507 	 
H 	 -38.0933 	 -6.61007 	 15.1621 	 
H 	 -37.0252 	 -7.80551 	 14.2433 	 
C 	 -39.1252 	 -8.45197 	 14.4689 	 
H 	 -38.9064 	 -9.6036 	 14.3567 	 
H 	 -40.0292 	 -8.3149 	 15.0595 	 
H 	 -39.4165 	 -7.93082 	 13.5531 	 
S 	 -36.0601 	 -14.53 	 15.3812 	 
C 	 -35.9843 	 -15.2506 	 13.8604 	 
C 	 -35.6355 	 -14.3209 	 12.8912 	 
C 	 -35.5957 	 -12.9504 	 13.403 	 
C 	 -35.8205 	 -12.8694 	 14.7648 	 
H 	 -35.5666 	 -14.6371 	 11.8627 	 
C 	 -35.401 	 -11.8238 	 12.4971 	 
H 	 -35.6585 	 -10.9361 	 12.9565 	 
H 	 -36.1584 	 -12.0113 	 11.747 	 
C 	 -33.9799 	 -11.8027 	 11.8221 	 
H 	 -33.7462 	 -12.8555 	 11.523 	 
H 	 -33.2063 	 -11.6752 	 12.5158 	 
C 	 -34.0835 	 -10.758 	 10.6233 	 
H 	 -33.2016 	 -10.7739 	 9.97648 	 
H 	 -34.1855 	 -9.76792 	 11.0133 	 
H 	 -34.9976 	 -10.9853 	 9.99359 	 
H 	 -36.703 	 -10.0244 	 18.7703 	 
H 	 -36.183 	 -16.3327 	 13.7012 	 
*
