! wB97X-D3 SP def2-SVP
%pal
nprocs 24
end

* xyz 0 1
S 	 -80.0333 	 -6.91707 	 -57.94 	 
C 	 -80.6556 	 -7.64215 	 -56.471 	 
C 	 -81.8254 	 -7.00614 	 -56.0982 	 
C 	 -82.351 	 -6.21694 	 -57.1897 	 
C 	 -81.6193 	 -6.29358 	 -58.3991 	 
H 	 -83.3177 	 -5.66238 	 -57.279 	 
C 	 -82.6063 	 -7.28396 	 -54.8199 	 
H 	 -82.02 	 -6.95651 	 -53.9695 	 
H 	 -82.5542 	 -8.33718 	 -54.7208 	 
C 	 -84.1178 	 -6.8768 	 -54.8096 	 
H 	 -84.2498 	 -5.86214 	 -54.6046 	 
H 	 -84.606 	 -7.0702 	 -55.7738 	 
C 	 -85.0044 	 -7.62994 	 -53.778 	 
H 	 -84.8787 	 -8.73248 	 -53.8409 	 
H 	 -84.7837 	 -7.27179 	 -52.7701 	 
H 	 -86.0817 	 -7.34137 	 -54.0073 	 
S 	 -80.4473 	 -4.68115 	 -60.3455 	 
C 	 -81.3695 	 -4.14076 	 -61.7303 	 
C 	 -82.713 	 -4.50871 	 -61.6452 	 
C 	 -82.9608 	 -5.3536 	 -60.5184 	 
C 	 -81.8348 	 -5.49569 	 -59.6599 	 
H 	 -83.4248 	 -4.27028 	 -62.4495 	 
C 	 -84.2801 	 -6.06284 	 -60.3316 	 
H 	 -84.2071 	 -6.39718 	 -59.3071 	 
H 	 -84.2212 	 -6.96757 	 -60.9614 	 
C 	 -85.5831 	 -5.24892 	 -60.5859 	 
H 	 -85.6221 	 -4.8269 	 -61.5832 	 
H 	 -85.6965 	 -4.48342 	 -59.7436 	 
C 	 -86.8495 	 -6.06335 	 -60.561 	 
H 	 -86.8924 	 -6.75033 	 -59.6988 	 
H 	 -86.9781 	 -6.65277 	 -61.431 	 
H 	 -87.7847 	 -5.48378 	 -60.4765 	 
H 	 -80.1636 	 -8.46799 	 -55.8411 	 
H 	 -80.8862 	 -3.66475 	 -62.549 	 
*
