! wB97X-D3 SP def2-SVP
%pal
nprocs 24
end

* xyz 0 1
S 	 -35.4837 	 10.681 	 0.39793 	 
C 	 -35.9753 	 9.48317 	 -0.795087 	 
C 	 -35.046 	 8.44569 	 -1.0356 	 
C 	 -33.9466 	 8.68288 	 -0.192948 	 
C 	 -34.0075 	 9.7725 	 0.671121 	 
H 	 -33.0477 	 8.06004 	 -0.234457 	 
C 	 -35.1547 	 7.2784 	 -1.97317 	 
H 	 -35.5336 	 6.40904 	 -1.33166 	 
H 	 -34.1058 	 6.96727 	 -2.1022 	 
C 	 -35.8114 	 7.56764 	 -3.29544 	 
H 	 -36.7699 	 8.07317 	 -3.16448 	 
H 	 -35.1756 	 8.37151 	 -3.74437 	 
C 	 -35.8616 	 6.34035 	 -4.22321 	 
H 	 -36.3619 	 5.44855 	 -3.84461 	 
H 	 -36.2864 	 6.56247 	 -5.21758 	 
H 	 -34.899 	 5.90814 	 -4.34678 	 
S 	 -32.4067 	 9.02046 	 2.69284 	 
C 	 -31.1923 	 10.1237 	 3.20901 	 
C 	 -31.3439 	 11.3711 	 2.73135 	 
C 	 -32.411 	 11.4263 	 1.75351 	 
C 	 -33.0105 	 10.1951 	 1.57055 	 
H 	 -30.6276 	 12.0654 	 3.00582 	 
C 	 -32.6386 	 12.6715 	 0.907968 	 
H 	 -33.5267 	 13.0963 	 1.42705 	 
H 	 -32.8742 	 12.3876 	 -0.13373 	 
C 	 -31.4377 	 13.6382 	 1.06482 	 
H 	 -30.4742 	 13.2779 	 0.725432 	 
H 	 -31.292 	 13.8727 	 2.09204 	 
C 	 -31.7341 	 14.973 	 0.347151 	 
H 	 -32.5734 	 15.4457 	 0.823411 	 
H 	 -31.9412 	 14.7586 	 -0.750984 	 
H 	 -30.9341 	 15.6141 	 0.433182 	 
H 	 -36.9568 	 9.50288 	 -1.26948 	 
H 	 -30.4028 	 9.88522 	 3.89445 	 
*
