! wB97X-D3 SP def2-SVP
%pal
nprocs 24
end

* xyz 0 1
S 	 -62.5483 	 13.7665 	 -73.551 	 
C 	 -64.1644 	 13.0769 	 -73.3407 	 
C 	 -64.8726 	 13.0314 	 -74.5022 	 
C 	 -64.0528 	 13.2379 	 -75.6053 	 
C 	 -62.7191 	 13.599 	 -75.2508 	 
H 	 -64.3265 	 13.0957 	 -76.6483 	 
C 	 -66.3508 	 12.6983 	 -74.4462 	 
H 	 -66.5401 	 11.9638 	 -73.5637 	 
H 	 -66.6667 	 12.1765 	 -75.322 	 
C 	 -67.1294 	 14.0041 	 -74.2131 	 
H 	 -68.2544 	 13.8487 	 -74.0173 	 
H 	 -66.8559 	 14.3467 	 -73.1842 	 
C 	 -67.0261 	 15.0664 	 -75.3689 	 
H 	 -66.011 	 15.2922 	 -75.5857 	 
H 	 -67.5391 	 14.6832 	 -76.3183 	 
H 	 -67.5819 	 15.9252 	 -75.1272 	 
S 	 -60.0735 	 13.0323 	 -75.7959 	 
C 	 -59.4315 	 13.5568 	 -77.355 	 
C 	 -60.3915 	 14.3366 	 -78.0778 	 
C 	 -61.6055 	 14.4302 	 -77.4055 	 
C 	 -61.586 	 13.8609 	 -76.1737 	 
H 	 -60.2267 	 14.81 	 -79.0367 	 
C 	 -62.8147 	 15.1368 	 -78.1417 	 
H 	 -62.4428 	 16.146 	 -78.3636 	 
H 	 -63.544 	 15.3466 	 -77.3168 	 
C 	 -63.4463 	 14.3902 	 -79.3115 	 
H 	 -63.8214 	 13.44 	 -78.9171 	 
H 	 -62.6105 	 14.1121 	 -80.0066 	 
C 	 -64.4616 	 15.2494 	 -80.0706 	 
H 	 -64.8993 	 15.8467 	 -79.2762 	 
H 	 -65.3039 	 14.6595 	 -80.4125 	 
H 	 -64.0185 	 15.9463 	 -80.8173 	 
H 	 -64.6585 	 12.911 	 -72.366 	 
H 	 -58.4007 	 13.395 	 -77.5992 	 
*
