! wB97X-D3 SP def2-SVP
%pal
nprocs 24
end

* xyz 0 1
S 	 14.7308 	 -13.6742 	 -123.949 	 
C 	 14.3433 	 -12.0822 	 -124.447 	 
C 	 14.7569 	 -11.1322 	 -123.505 	 
C 	 15.4139 	 -11.6885 	 -122.413 	 
C 	 15.5486 	 -13.0992 	 -122.471 	 
H 	 15.7421 	 -11.1761 	 -121.557 	 
C 	 14.6189 	 -9.64862 	 -123.817 	 
H 	 15.1181 	 -9.59037 	 -124.788 	 
H 	 15.2856 	 -9.03398 	 -123.15 	 
C 	 13.2114 	 -9.17517 	 -124.139 	 
H 	 12.8824 	 -9.55184 	 -125.074 	 
H 	 12.5217 	 -9.4781 	 -123.31 	 
C 	 13.2105 	 -7.6798 	 -124.138 	 
H 	 12.2214 	 -7.27939 	 -124.368 	 
H 	 13.515 	 -7.15176 	 -123.217 	 
H 	 13.7628 	 -7.4321 	 -125.016 	 
S 	 15.4406 	 -15.1058 	 -120.628 	 
C 	 16.8152 	 -15.4162 	 -119.54 	 
C 	 17.9417 	 -14.7923 	 -120.035 	 
C 	 17.6369 	 -13.8395 	 -121.043 	 
C 	 16.373 	 -13.9336 	 -121.562 	 
H 	 18.898 	 -14.9189 	 -119.542 	 
C 	 18.5718 	 -12.6975 	 -121.373 	 
H 	 19.4298 	 -12.7279 	 -120.674 	 
H 	 18.1317 	 -11.7691 	 -121.098 	 
C 	 18.9825 	 -12.5851 	 -122.885 	 
H 	 19.791 	 -11.8792 	 -122.859 	 
H 	 18.0946 	 -12.2808 	 -123.42 	 
C 	 19.5182 	 -13.8496 	 -123.568 	 
H 	 20.1751 	 -14.4612 	 -122.916 	 
H 	 19.9409 	 -13.5904 	 -124.526 	 
H 	 18.6721 	 -14.5482 	 -123.796 	 
H 	 13.9471 	 -11.7244 	 -125.358 	 
H 	 16.8443 	 -16.1707 	 -118.763 	 
*
