! wB97X-D3 SP def2-SVP
%pal
nprocs 24
end

* xyz 0 1
S 	 -34.522 	 -12.3973 	 15.7573 	 
C 	 -34.939 	 -10.8131 	 16.3638 	 
C 	 -35.3804 	 -10.0068 	 15.3681 	 
C 	 -35.247 	 -10.6654 	 14.0659 	 
C 	 -34.9003 	 -12.0056 	 14.1136 	 
H 	 -35.4436 	 -10.2195 	 13.1138 	 
C 	 -35.6877 	 -8.52179 	 15.5263 	 
H 	 -35.352 	 -8.2826 	 14.5244 	 
H 	 -35.0298 	 -8.06659 	 16.304 	 
C 	 -37.1402 	 -8.27203 	 15.8578 	 
H 	 -37.434 	 -7.23221 	 15.8672 	 
H 	 -37.6628 	 -8.73977 	 15.0098 	 
C 	 -37.5228 	 -8.92031 	 17.1996 	 
H 	 -37.3277 	 -10.0044 	 17.3206 	 
H 	 -36.9965 	 -8.45851 	 18.0161 	 
H 	 -38.5834 	 -8.8511 	 17.4364 	 
S 	 -34.6126 	 -14.6451 	 13.3451 	 
C 	 -34.1496 	 -15.0569 	 11.6864 	 
C 	 -34.2943 	 -13.9096 	 10.9306 	 
C 	 -34.5522 	 -12.717 	 11.652 	 
C 	 -34.7577 	 -12.9378 	 12.9734 	 
H 	 -34.2362 	 -13.9606 	 9.83125 	 
C 	 -34.5642 	 -11.3605 	 10.939 	 
H 	 -35.4897 	 -10.8875 	 11.1694 	 
H 	 -34.6691 	 -11.6668 	 9.85417 	 
C 	 -33.2853 	 -10.4923 	 11.1942 	 
H 	 -32.4177 	 -11.1258 	 11.2271 	 
H 	 -33.1389 	 -10.0761 	 12.2318 	 
C 	 -33.3734 	 -9.32532 	 10.2852 	 
H 	 -32.6806 	 -8.48044 	 10.5653 	 
H 	 -34.403 	 -8.97305 	 10.199 	 
H 	 -33.1768 	 -9.53355 	 9.20606 	 
H 	 -34.8081 	 -10.6404 	 17.4814 	 
H 	 -33.8245 	 -16.0703 	 11.2456 	 
*
