! wB97X-D3 SP def2-SVP
%pal
nprocs 24
end

* xyz 0 1
S 	 -49.2148 	 16.4139 	 20.0712 	 
C 	 -50.9177 	 16.3333 	 20.3845 	 
C 	 -51.5203 	 15.6028 	 19.375 	 
C 	 -50.6371 	 15.1569 	 18.3471 	 
C 	 -49.3157 	 15.4949 	 18.5684 	 
H 	 -50.7959 	 14.5944 	 17.5129 	 
C 	 -52.9917 	 15.322 	 19.3323 	 
H 	 -53.3274 	 15.1999 	 18.2828 	 
H 	 -53.5275 	 16.2021 	 19.7124 	 
C 	 -53.5425 	 14.122 	 20.1814 	 
H 	 -53.1289 	 14.184 	 21.1751 	 
H 	 -54.6583 	 14.168 	 20.2283 	 
C 	 -52.9619 	 12.8018 	 19.6155 	 
H 	 -53.06 	 12.6953 	 18.5293 	 
H 	 -51.8889 	 12.6867 	 19.8867 	 
H 	 -53.5963 	 11.9325 	 19.8481 	 
S 	 -47.0053 	 14.0053 	 18.8234 	 
C 	 -45.8605 	 14.0179 	 17.4767 	 
C 	 -46.3955 	 14.6971 	 16.3555 	 
C 	 -47.7169 	 15.2375 	 16.5679 	 
C 	 -48.1071 	 15.0462 	 17.8718 	 
H 	 -45.9127 	 14.6627 	 15.3846 	 
C 	 -48.5294 	 15.8461 	 15.4634 	 
H 	 -49.396 	 15.1981 	 15.5279 	 
H 	 -47.9106 	 15.6192 	 14.6096 	 
C 	 -48.8853 	 17.3496 	 15.6962 	 
H 	 -48.0036 	 17.9571 	 15.571 	 
H 	 -49.2185 	 17.6043 	 16.6975 	 
C 	 -49.8984 	 17.8253 	 14.6595 	 
H 	 -50.1254 	 18.8522 	 14.9612 	 
H 	 -50.7188 	 17.1868 	 14.5755 	 
H 	 -49.5648 	 17.9106 	 13.6345 	 
H 	 -51.3302 	 16.7492 	 21.2402 	 
H 	 -44.963 	 13.4546 	 17.4559 	 
*
