! wB97X-D3 SP def2-SVP
%pal
nprocs 24
end

* xyz 0 1
S 	 -43.7152 	 16.6392 	 28.2863 	 
C 	 -45.3216 	 16.0405 	 27.9437 	 
C 	 -46.2627 	 17.007 	 28.1346 	 
C 	 -45.7113 	 18.2791 	 28.6165 	 
C 	 -44.3469 	 18.1806 	 28.8256 	 
H 	 -46.3227 	 19.1454 	 28.8758 	 
C 	 -47.7196 	 16.791 	 27.7558 	 
H 	 -47.8399 	 15.6953 	 27.5875 	 
H 	 -48.0165 	 17.3109 	 26.8032 	 
C 	 -48.7077 	 17.1809 	 28.844 	 
H 	 -48.2709 	 16.8264 	 29.7808 	 
H 	 -48.7966 	 18.294 	 28.7807 	 
C 	 -50.1475 	 16.5951 	 28.6448 	 
H 	 -50.1534 	 15.496 	 28.5076 	 
H 	 -50.8239 	 16.8003 	 29.4922 	 
H 	 -50.7209 	 17.035 	 27.8468 	 
S 	 -42.6042 	 18.8113 	 30.8625 	 
C 	 -41.561 	 20.2418 	 30.6956 	 
C 	 -41.8131 	 20.9463 	 29.5504 	 
C 	 -42.9052 	 20.3851 	 28.7729 	 
C 	 -43.3773 	 19.2005 	 29.3046 	 
H 	 -41.3866 	 21.9089 	 29.3717 	 
C 	 -43.3482 	 20.9961 	 27.4706 	 
H 	 -43.0783 	 22.0268 	 27.4061 	 
H 	 -44.4293 	 20.9178 	 27.4727 	 
C 	 -42.735 	 20.3635 	 26.2413 	 
H 	 -43.1927 	 20.8682 	 25.3744 	 
H 	 -43.0155 	 19.2983 	 26.2984 	 
C 	 -41.204 	 20.6097 	 26.1235 	 
H 	 -40.9268 	 21.5388 	 26.4723 	 
H 	 -40.8466 	 20.4607 	 25.1477 	 
H 	 -40.7658 	 19.8352 	 26.8016 	 
H 	 -45.6421 	 14.9696 	 27.7188 	 
H 	 -40.7746 	 20.535 	 31.4081 	 
*
