! wB97X-D3 SP def2-SVP
%pal
nprocs 24
end

* xyz 0 1
S 	 -48.8633 	 19.896 	 -90.125 	 
C 	 -48.9399 	 21.3947 	 -89.1039 	 
C 	 -50.2425 	 21.8494 	 -89.0093 	 
C 	 -51.07 	 21.2598 	 -89.9951 	 
C 	 -50.4309 	 20.2944 	 -90.7707 	 
H 	 -52.1597 	 21.5077 	 -90.0653 	 
C 	 -50.7156 	 22.9404 	 -88.0388 	 
H 	 -49.8145 	 23.3359 	 -87.613 	 
H 	 -51.1716 	 22.5367 	 -87.1745 	 
C 	 -51.7131 	 24.0692 	 -88.4822 	 
H 	 -52.7584 	 23.7837 	 -88.4527 	 
H 	 -51.7564 	 24.7639 	 -87.6471 	 
C 	 -51.2792 	 24.8452 	 -89.7705 	 
H 	 -51.2384 	 24.2058 	 -90.6836 	 
H 	 -52.0152 	 25.5491 	 -89.9265 	 
H 	 -50.3658 	 25.3706 	 -89.5545 	 
S 	 -50.8636 	 17.7018 	 -91.5978 	 
C 	 -52.0949 	 17.3013 	 -92.7496 	 
C 	 -52.6271 	 18.4514 	 -93.2573 	 
C 	 -52.1394 	 19.6673 	 -92.6787 	 
C 	 -51.1532 	 19.4324 	 -91.7341 	 
H 	 -53.456 	 18.3687 	 -93.9441 	 
C 	 -52.6169 	 21.0787 	 -93.0391 	 
H 	 -52.5704 	 21.2796 	 -94.0894 	 
H 	 -51.8841 	 21.8409 	 -92.7199 	 
C 	 -54.0873 	 21.3377 	 -92.6054 	 
H 	 -54.3095 	 21.1999 	 -91.5924 	 
H 	 -54.7403 	 20.6736 	 -93.2098 	 
C 	 -54.4672 	 22.7733 	 -93.0544 	 
H 	 -53.8263 	 23.5179 	 -92.5536 	 
H 	 -55.5263 	 22.9397 	 -92.7967 	 
H 	 -54.3572 	 22.8859 	 -94.0775 	 
H 	 -48.1226 	 21.7783 	 -88.4657 	 
H 	 -52.3984 	 16.3091 	 -93.0249 	 
*
