! wB97X-D3 SP def2-SVP
%pal
nprocs 24
end

* xyz 0 1
S 	 -108.678 	 15.1925 	 -123.803 	 
C 	 -108.471 	 13.4948 	 -123.517 	 
C 	 -109.368 	 12.7959 	 -124.278 	 
C 	 -110.202 	 13.6157 	 -125.118 	 
C 	 -109.857 	 14.9163 	 -125.091 	 
H 	 -110.938 	 13.2762 	 -125.857 	 
C 	 -109.534 	 11.3264 	 -124.121 	 
H 	 -110.275 	 11.0255 	 -124.925 	 
H 	 -110.044 	 11.1795 	 -123.184 	 
C 	 -108.331 	 10.4541 	 -124.292 	 
H 	 -107.556 	 11.0068 	 -123.777 	 
H 	 -108.513 	 9.54179 	 -123.752 	 
C 	 -107.937 	 10.1209 	 -125.809 	 
H 	 -108.768 	 9.62382 	 -126.291 	 
H 	 -107.556 	 10.9302 	 -126.475 	 
H 	 -107.124 	 9.46549 	 -125.831 	 
S 	 -111.116 	 17.2533 	 -124.672 	 
C 	 -111.956 	 18.1273 	 -125.991 	 
C 	 -111.858 	 17.3932 	 -127.18 	 
C 	 -111.133 	 16.1583 	 -127.041 	 
C 	 -110.529 	 16.0468 	 -125.752 	 
H 	 -112.346 	 17.8285 	 -128.094 	 
C 	 -111.078 	 15.1387 	 -128.131 	 
H 	 -111.996 	 14.5451 	 -128.191 	 
H 	 -110.318 	 14.4245 	 -127.784 	 
C 	 -110.92 	 15.6827 	 -129.589 	 
H 	 -110.278 	 16.5879 	 -129.496 	 
H 	 -111.89 	 15.9415 	 -129.954 	 
C 	 -110.238 	 14.5601 	 -130.478 	 
H 	 -109.281 	 14.1773 	 -130.16 	 
H 	 -110.222 	 14.7383 	 -131.54 	 
H 	 -110.964 	 13.728 	 -130.496 	 
H 	 -107.939 	 13.102 	 -122.641 	 
H 	 -112.577 	 19.0294 	 -125.773 	 
*
