! wB97X-D3 SP def2-SVP
%pal
nprocs 24
end

* xyz 0 1
S 	 -78.5006 	 2.44258 	 -115.679 	 
C 	 -78.6872 	 0.791179 	 -115.03 	 
C 	 -80.0521 	 0.570918 	 -114.679 	 
C 	 -80.8226 	 1.74454 	 -115.036 	 
C 	 -80.1467 	 2.89037 	 -115.487 	 
H 	 -81.9267 	 1.8721 	 -114.868 	 
C 	 -80.5851 	 -0.701831 	 -114.09 	 
H 	 -79.7676 	 -1.34849 	 -114.184 	 
H 	 -81.3993 	 -1.11634 	 -114.73 	 
C 	 -80.9402 	 -0.74372 	 -112.575 	 
H 	 -80.9189 	 -1.73041 	 -112.193 	 
H 	 -80.2275 	 -0.179799 	 -112.018 	 
C 	 -82.2837 	 -0.186794 	 -112.221 	 
H 	 -83.071 	 -0.739414 	 -112.688 	 
H 	 -82.3807 	 -0.461475 	 -111.169 	 
H 	 -82.3809 	 0.920631 	 -112.393 	 
S 	 -79.7944 	 5.13625 	 -117.148 	 
C 	 -80.937 	 6.38735 	 -117.1 	 
C 	 -81.8463 	 6.22855 	 -116.05 	 
C 	 -81.7827 	 4.96926 	 -115.444 	 
C 	 -80.6078 	 4.25855 	 -115.778 	 
H 	 -82.4936 	 7.02951 	 -115.867 	 
C 	 -82.7909 	 4.49569 	 -114.419 	 
H 	 -83.1232 	 3.50908 	 -114.741 	 
H 	 -83.6531 	 5.22923 	 -114.464 	 
C 	 -82.3918 	 4.447 	 -112.995 	 
H 	 -81.6421 	 3.69362 	 -112.815 	 
H 	 -83.2382 	 4.15533 	 -112.435 	 
C 	 -81.9415 	 5.77219 	 -112.321 	 
H 	 -82.7196 	 6.58982 	 -112.338 	 
H 	 -81.105 	 6.26879 	 -112.775 	 
H 	 -81.6344 	 5.64821 	 -111.328 	 
H 	 -77.856 	 0.146803 	 -114.855 	 
H 	 -80.7856 	 7.33139 	 -117.638 	 
*
