! wB97X-D3 SP def2-SVP
%pal
nprocs 24
end

* xyz 0 1
S 	 -120.476 	 60.7221 	 -33.5599 	 
C 	 -120.613 	 59.5471 	 -34.9244 	 
C 	 -121.345 	 60.0631 	 -35.9655 	 
C 	 -121.617 	 61.4633 	 -35.7787 	 
C 	 -121.135 	 61.9551 	 -34.5862 	 
H 	 -122.137 	 62.1365 	 -36.4287 	 
C 	 -121.675 	 59.3258 	 -37.2878 	 
H 	 -122.769 	 59.3779 	 -37.5337 	 
H 	 -121.561 	 58.2527 	 -37.2054 	 
C 	 -120.829 	 59.7968 	 -38.4877 	 
H 	 -121.03 	 60.8739 	 -38.4971 	 
H 	 -119.844 	 59.576 	 -38.2073 	 
C 	 -121.322 	 59.2274 	 -39.7813 	 
H 	 -122.284 	 59.5079 	 -40.1967 	 
H 	 -120.676 	 59.4711 	 -40.6457 	 
H 	 -121.233 	 58.1884 	 -39.6745 	 
S 	 -119.541 	 64.111 	 -33.7254 	 
C 	 -120.263 	 65.6948 	 -33.521 	 
C 	 -121.629 	 65.6282 	 -33.7067 	 
C 	 -122.138 	 64.3168 	 -34.1167 	 
C 	 -121.116 	 63.3478 	 -34.255 	 
H 	 -122.193 	 66.5345 	 -33.6094 	 
C 	 -123.611 	 64.0232 	 -34.4346 	 
H 	 -123.907 	 63.04 	 -34.0241 	 
H 	 -123.831 	 64.0028 	 -35.4859 	 
C 	 -124.597 	 65.0199 	 -33.8656 	 
H 	 -124.394 	 65.9348 	 -34.3503 	 
H 	 -124.361 	 65.2474 	 -32.8063 	 
C 	 -126.106 	 64.6756 	 -33.9936 	 
H 	 -126.472 	 64.235 	 -34.8882 	 
H 	 -126.66 	 65.5797 	 -34.0032 	 
H 	 -126.482 	 64.0279 	 -33.1686 	 
H 	 -120.327 	 58.5213 	 -34.7681 	 
H 	 -119.764 	 66.6332 	 -33.2586 	 
*
