! wB97X-D3 SP def2-SVP
%pal
nprocs 24
end

* xyz 0 1
S 	 -106.112 	 62.3553 	 -97.6125 	 
C 	 -107.115 	 61.4063 	 -98.6612 	 
C 	 -106.727 	 60.0924 	 -98.6308 	 
C 	 -105.595 	 59.8263 	 -97.8278 	 
C 	 -105.07 	 60.9811 	 -97.3766 	 
H 	 -105.181 	 58.8792 	 -97.6144 	 
C 	 -107.774 	 59.0197 	 -99.1413 	 
H 	 -108.592 	 59.5409 	 -99.5495 	 
H 	 -108.238 	 58.4356 	 -98.305 	 
C 	 -107.306 	 58.0679 	 -100.255 	 
H 	 -108.156 	 57.4224 	 -100.434 	 
H 	 -107.159 	 58.7135 	 -101.121 	 
C 	 -106.058 	 57.2032 	 -99.9298 	 
H 	 -105.177 	 57.8932 	 -99.837 	 
H 	 -106.095 	 56.51 	 -98.981 	 
H 	 -105.849 	 56.5745 	 -100.798 	 
S 	 -102.559 	 62.0034 	 -97.5699 	 
C 	 -101.353 	 61.7438 	 -96.2245 	 
C 	 -101.951 	 61.0857 	 -95.1658 	 
C 	 -103.324 	 60.6956 	 -95.5147 	 
C 	 -103.795 	 61.1804 	 -96.7462 	 
H 	 -101.345 	 60.7753 	 -94.2997 	 
C 	 -104.064 	 59.9466 	 -94.4696 	 
H 	 -105.105 	 59.9455 	 -94.7654 	 
H 	 -104.121 	 60.4929 	 -93.5679 	 
C 	 -103.672 	 58.5195 	 -94.2288 	 
H 	 -102.628 	 58.6009 	 -93.8801 	 
H 	 -103.723 	 58.0318 	 -95.1879 	 
C 	 -104.621 	 57.5808 	 -93.3912 	 
H 	 -104.394 	 56.5027 	 -93.6287 	 
H 	 -105.701 	 57.7004 	 -93.6086 	 
H 	 -104.438 	 57.7771 	 -92.2813 	 
H 	 -107.993 	 61.7264 	 -99.1918 	 
H 	 -100.403 	 62.205 	 -96.1653 	 
*
