! wB97X-D3 SP def2-SVP
%pal
nprocs 24
end

* xyz 0 1
S 	 -42.1434 	 20.9381 	 23.2386 	 
C 	 -41.7983 	 19.9702 	 21.8002 	 
C 	 -42.4713 	 18.7922 	 21.8785 	 
C 	 -43.2927 	 18.6922 	 23.0533 	 
C 	 -43.2622 	 19.8316 	 23.8495 	 
H 	 -43.8557 	 17.8304 	 23.3985 	 
C 	 -42.4327 	 17.7257 	 20.879 	 
H 	 -41.8454 	 18.0507 	 20.0012 	 
H 	 -43.4404 	 17.7476 	 20.4288 	 
C 	 -42.1153 	 16.3251 	 21.3744 	 
H 	 -42.9156 	 15.9355 	 21.9617 	 
H 	 -42.1002 	 15.6494 	 20.5463 	 
C 	 -40.78 	 16.2496 	 22.0625 	 
H 	 -40.5002 	 15.2266 	 22.3485 	 
H 	 -39.9792 	 16.5066 	 21.4363 	 
H 	 -40.7235 	 16.8297 	 22.9845 	 
S 	 -45.566 	 20.2297 	 25.2492 	 
C 	 -45.6146 	 19.8387 	 26.9539 	 
C 	 -44.3754 	 19.5271 	 27.493 	 
C 	 -43.3777 	 19.5239 	 26.4385 	 
C 	 -43.8914 	 19.8506 	 25.1635 	 
H 	 -44.4113 	 19.3044 	 28.5468 	 
C 	 -41.9191 	 19.0888 	 26.8187 	 
H 	 -41.5335 	 19.7487 	 27.5498 	 
H 	 -41.2799 	 19.1966 	 25.9774 	 
C 	 -41.8124 	 17.618 	 27.2377 	 
H 	 -42.2532 	 17.4535 	 28.2157 	 
H 	 -40.739 	 17.3625 	 27.3966 	 
C 	 -42.4744 	 16.7641 	 26.1654 	 
H 	 -42.2348 	 15.7053 	 26.3679 	 
H 	 -42.0698 	 17.1358 	 25.2089 	 
H 	 -43.543 	 16.8963 	 26.1711 	 
H 	 -41.1417 	 20.1897 	 20.9671 	 
H 	 -46.3507 	 19.9705 	 27.7177 	 
*
