! wB97X-D3 SP def2-SVP
%pal
nprocs 24
end

* xyz 0 1
S 	 -109.576 	 49.3895 	 -84.9897 	 
C 	 -108.03 	 49.183 	 -85.831 	 
C 	 -108.151 	 49.5353 	 -87.1312 	 
C 	 -109.441 	 50.0761 	 -87.4356 	 
C 	 -110.33 	 50.0893 	 -86.3997 	 
H 	 -109.815 	 50.5446 	 -88.3706 	 
C 	 -106.997 	 49.4649 	 -88.1202 	 
H 	 -106.05 	 49.262 	 -87.5075 	 
H 	 -106.896 	 50.4223 	 -88.6006 	 
C 	 -107.133 	 48.315 	 -89.152 	 
H 	 -107.413 	 47.4622 	 -88.5718 	 
H 	 -107.902 	 48.584 	 -89.855 	 
C 	 -105.859 	 48.0604 	 -90.0262 	 
H 	 -105.483 	 48.8043 	 -90.7425 	 
H 	 -105.037 	 47.8766 	 -89.4028 	 
H 	 -106.021 	 47.1502 	 -90.6627 	 
S 	 -112.962 	 49.441 	 -85.6771 	 
C 	 -114.167 	 50.7255 	 -85.7564 	 
C 	 -113.615 	 51.8711 	 -86.2506 	 
C 	 -112.25 	 51.7351 	 -86.6116 	 
C 	 -111.734 	 50.5185 	 -86.3625 	 
H 	 -114.159 	 52.8054 	 -86.4318 	 
C 	 -111.445 	 52.9011 	 -87.0697 	 
H 	 -112.084 	 53.6559 	 -87.5297 	 
H 	 -110.784 	 52.6934 	 -87.941 	 
C 	 -110.567 	 53.6274 	 -86.0241 	 
H 	 -109.98 	 54.4586 	 -86.4915 	 
H 	 -109.808 	 52.9974 	 -85.6636 	 
C 	 -111.222 	 54.2528 	 -84.8542 	 
H 	 -111.794 	 53.6099 	 -84.2699 	 
H 	 -111.971 	 54.9546 	 -85.183 	 
H 	 -110.538 	 54.8163 	 -84.1411 	 
H 	 -107.11 	 48.7617 	 -85.4191 	 
H 	 -115.183 	 50.6865 	 -85.4151 	 
*
