! wB97X-D3 SP def2-SVP
%pal
nprocs 24
end

* xyz 0 1
S 	 -49.8072 	 -2.35173 	 -17.3675 	 
C 	 -50.7701 	 -2.8005 	 -18.7522 	 
C 	 -51.6857 	 -3.78488 	 -18.3232 	 
C 	 -51.7259 	 -3.94575 	 -16.9102 	 
C 	 -50.8004 	 -3.21251 	 -16.2623 	 
H 	 -52.4994 	 -4.62357 	 -16.4698 	 
C 	 -52.8233 	 -4.32423 	 -19.1874 	 
H 	 -53.0986 	 -5.43029 	 -19.0582 	 
H 	 -52.4524 	 -4.25601 	 -20.1554 	 
C 	 -53.9979 	 -3.37619 	 -19.035 	 
H 	 -54.4997 	 -3.52189 	 -18.0788 	 
H 	 -53.7273 	 -2.32687 	 -19.0981 	 
C 	 -54.9759 	 -3.68916 	 -20.1133 	 
H 	 -55.7265 	 -2.87335 	 -20.1151 	 
H 	 -54.5551 	 -3.58248 	 -21.15 	 
H 	 -55.3865 	 -4.6616 	 -19.925 	 
S 	 -49.917 	 -4.84058 	 -14.2196 	 
C 	 -49.9994 	 -4.26934 	 -12.5462 	 
C 	 -50.6301 	 -3.06324 	 -12.4908 	 
C 	 -50.9537 	 -2.52136 	 -13.7665 	 
C 	 -50.6465 	 -3.35008 	 -14.8207 	 
H 	 -50.7727 	 -2.66988 	 -11.4867 	 
C 	 -51.5498 	 -1.11046 	 -13.8976 	 
H 	 -51.3957 	 -0.922322 	 -14.9385 	 
H 	 -51.0057 	 -0.429502 	 -13.3081 	 
C 	 -53.0652 	 -1.04789 	 -13.6037 	 
H 	 -53.2472 	 -0.072606 	 -13.2862 	 
H 	 -53.4241 	 -1.65736 	 -12.7657 	 
C 	 -53.8805 	 -1.22003 	 -14.8986 	 
H 	 -53.5005 	 -0.45672 	 -15.5884 	 
H 	 -54.9584 	 -1.26322 	 -14.8103 	 
H 	 -53.6443 	 -2.16322 	 -15.3984 	 
H 	 -50.6728 	 -2.47659 	 -19.7334 	 
H 	 -49.5191 	 -4.7716 	 -11.7397 	 
*
