! wB97X-D3 SP def2-SVP
%pal
nprocs 24
end

* xyz 0 1
S 	 -116.012 	 17.0897 	 -117.276 	 
C 	 -116.614 	 18.1473 	 -118.46 	 
C 	 -117.091 	 19.3472 	 -117.954 	 
C 	 -117.041 	 19.3948 	 -116.526 	 
C 	 -116.411 	 18.2529 	 -115.996 	 
H 	 -117.441 	 20.2467 	 -115.91 	 
C 	 -117.566 	 20.5384 	 -118.817 	 
H 	 -118.527 	 21.0349 	 -118.511 	 
H 	 -117.854 	 20.028 	 -119.768 	 
C 	 -116.556 	 21.5572 	 -119.166 	 
H 	 -116.939 	 22.3679 	 -119.732 	 
H 	 -115.987 	 22.0062 	 -118.309 	 
C 	 -115.528 	 21.0735 	 -120.135 	 
H 	 -115.03 	 20.1177 	 -119.842 	 
H 	 -116.087 	 20.8448 	 -121.035 	 
H 	 -114.742 	 21.8559 	 -120.386 	 
S 	 -116.881 	 16.4343 	 -113.963 	 
C 	 -116.148 	 16.7542 	 -112.431 	 
C 	 -115.772 	 18.0739 	 -112.265 	 
C 	 -115.79 	 18.7414 	 -113.494 	 
C 	 -116.276 	 17.9707 	 -114.548 	 
H 	 -115.423 	 18.366 	 -111.282 	 
C 	 -115.133 	 20.1484 	 -113.682 	 
H 	 -115.827 	 20.8213 	 -113.199 	 
H 	 -115.145 	 20.2867 	 -114.72 	 
C 	 -113.711 	 20.2049 	 -113.114 	 
H 	 -113.123 	 19.347 	 -113.539 	 
H 	 -113.755 	 20.1412 	 -112.072 	 
C 	 -113.124 	 21.6325 	 -113.366 	 
H 	 -113.764 	 22.3584 	 -112.796 	 
H 	 -113.037 	 21.8871 	 -114.376 	 
H 	 -112.119 	 21.683 	 -113.082 	 
H 	 -116.552 	 17.8711 	 -119.566 	 
H 	 -116.246 	 16.0273 	 -111.656 	 
*
