! wB97X-D3 SP def2-SVP
%pal
nprocs 24
end

* xyz 0 1
S 	 -67.3685 	 19.1107 	 -115.919 	 
C 	 -67.8318 	 19.3227 	 -117.62 	 
C 	 -66.7415 	 19.1169 	 -118.441 	 
C 	 -65.5979 	 18.6728 	 -117.728 	 
C 	 -65.7824 	 18.5221 	 -116.365 	 
H 	 -64.6521 	 18.4092 	 -118.124 	 
C 	 -66.9038 	 19.1384 	 -119.935 	 
H 	 -66.352 	 19.9673 	 -120.325 	 
H 	 -68.0232 	 19.2371 	 -120.142 	 
C 	 -66.5468 	 17.8549 	 -120.734 	 
H 	 -65.5381 	 17.6173 	 -120.539 	 
H 	 -67.235 	 17.0649 	 -120.362 	 
C 	 -66.7513 	 17.9745 	 -122.285 	 
H 	 -67.6739 	 18.5108 	 -122.428 	 
H 	 -65.9743 	 18.535 	 -122.785 	 
H 	 -66.9401 	 17.0064 	 -122.713 	 
S 	 -65.0172 	 16.4694 	 -114.779 	 
C 	 -63.3681 	 16.4529 	 -114.222 	 
C 	 -62.6791 	 17.6234 	 -114.534 	 
C 	 -63.4603 	 18.5574 	 -115.256 	 
C 	 -64.762 	 18.0185 	 -115.464 	 
H 	 -61.7162 	 17.6975 	 -114.234 	 
C 	 -62.9214 	 19.8249 	 -115.906 	 
H 	 -63.8271 	 20.2171 	 -116.483 	 
H 	 -62.1722 	 19.5924 	 -116.635 	 
C 	 -62.3482 	 20.8527 	 -114.961 	 
H 	 -61.4152 	 20.5496 	 -114.578 	 
H 	 -63.0912 	 21.0031 	 -114.1 	 
C 	 -62.1409 	 22.2237 	 -115.638 	 
H 	 -63.0112 	 22.8888 	 -115.652 	 
H 	 -61.8358 	 22.0265 	 -116.722 	 
H 	 -61.3545 	 22.7468 	 -115.222 	 
H 	 -68.8906 	 19.509 	 -117.96 	 
H 	 -62.9744 	 15.6281 	 -113.553 	 
*
