! wB97X-D3 SP def2-SVP
%pal
nprocs 24
end

* xyz 0 1
S 	 -103.063 	 60.2251 	 -98.4597 	 
C 	 -104.377 	 60.349 	 -99.6256 	 
C 	 -103.929 	 60.8525 	 -100.847 	 
C 	 -102.514 	 61.0779 	 -100.791 	 
C 	 -101.857 	 60.694 	 -99.6769 	 
H 	 -101.825 	 61.2983 	 -101.623 	 
C 	 -104.727 	 61.5155 	 -101.965 	 
H 	 -104.013 	 61.447 	 -102.818 	 
H 	 -104.919 	 62.4938 	 -101.698 	 
C 	 -106.067 	 60.863 	 -102.339 	 
H 	 -105.955 	 59.8355 	 -102.49 	 
H 	 -106.823 	 60.9605 	 -101.583 	 
C 	 -106.598 	 61.4166 	 -103.622 	 
H 	 -106.584 	 62.4895 	 -103.652 	 
H 	 -106.019 	 61.0334 	 -104.465 	 
H 	 -107.612 	 61.1374 	 -103.892 	 
S 	 -99.9646 	 62.3165 	 -98.7297 	 
C 	 -98.3001 	 61.7744 	 -98.6324 	 
C 	 -98.1508 	 60.549 	 -99.1924 	 
C 	 -99.4038 	 59.8952 	 -99.5679 	 
C 	 -100.487 	 60.7666 	 -99.3908 	 
H 	 -97.1872 	 60.0566 	 -99.2467 	 
C 	 -99.507 	 58.5487 	 -100.301 	 
H 	 -98.5511 	 58.1373 	 -100.083 	 
H 	 -99.3681 	 58.7954 	 -101.388 	 
C 	 -100.481 	 57.564 	 -99.7792 	 
H 	 -101.513 	 57.9011 	 -99.9017 	 
H 	 -100.37 	 57.4783 	 -98.6853 	 
C 	 -100.315 	 56.2982 	 -100.527 	 
H 	 -99.3549 	 55.8617 	 -100.317 	 
H 	 -100.502 	 56.4891 	 -101.611 	 
H 	 -100.988 	 55.4915 	 -100.117 	 
H 	 -105.446 	 60.404 	 -99.4103 	 
H 	 -97.4508 	 62.3216 	 -98.2669 	 
*
