! wB97X-D3 SP def2-SVP
%pal
nprocs 24
end

* xyz 0 1
S 	 -99.2955 	 7.70163 	 2.77889 	 
C 	 -99.215 	 6.77212 	 1.25219 	 
C 	 -98.2241 	 5.78963 	 1.27206 	 
C 	 -97.4909 	 5.82317 	 2.53206 	 
C 	 -97.9287 	 6.82721 	 3.42637 	 
H 	 -96.9039 	 5.10705 	 3.03249 	 
C 	 -97.8562 	 4.73282 	 0.294288 	 
H 	 -98.7056 	 4.13292 	 0.108792 	 
H 	 -97.0556 	 4.13756 	 0.717418 	 
C 	 -97.3244 	 5.12406 	 -1.15032 	 
H 	 -98.1462 	 5.54211 	 -1.65752 	 
H 	 -96.5811 	 5.97336 	 -0.962743 	 
C 	 -96.6248 	 4.06196 	 -1.92689 	 
H 	 -95.6786 	 3.79852 	 -1.49367 	 
H 	 -97.2171 	 3.15066 	 -2.09807 	 
H 	 -96.473 	 4.42954 	 -2.95913 	 
S 	 -98.4715 	 7.53037 	 6.13211 	 
C 	 -97.0596 	 7.70406 	 7.17447 	 
C 	 -95.8046 	 7.60431 	 6.4904 	 
C 	 -96.0292 	 7.2939 	 5.11806 	 
C 	 -97.3663 	 7.19325 	 4.73549 	 
H 	 -94.8818 	 7.77251 	 7.00959 	 
C 	 -94.8138 	 7.03866 	 4.23639 	 
H 	 -94.222 	 7.98419 	 4.19421 	 
H 	 -95.2751 	 6.91689 	 3.23097 	 
C 	 -93.9056 	 5.91758 	 4.78802 	 
H 	 -94.4804 	 5.04663 	 4.5327 	 
H 	 -93.8657 	 5.86245 	 5.84472 	 
C 	 -92.5336 	 5.82848 	 4.09782 	 
H 	 -92.453 	 5.8744 	 3.02603 	 
H 	 -91.9657 	 4.96142 	 4.50328 	 
H 	 -91.9337 	 6.57317 	 4.47384 	 
H 	 -99.7356 	 6.95035 	 0.310843 	 
H 	 -97.0671 	 7.82486 	 8.2667 	 
*
