! wB97X-D3 SP def2-SVP
%pal
nprocs 24
end

* xyz 0 1
S 	 5.54352 	 -25.3036 	 -117.281 	 
C 	 6.9067 	 -24.1637 	 -117.195 	 
C 	 6.80188 	 -23.3222 	 -116.114 	 
C 	 5.63405 	 -23.6605 	 -115.306 	 
C 	 4.83047 	 -24.6808 	 -115.815 	 
H 	 5.31704 	 -23.1293 	 -114.45 	 
C 	 7.74632 	 -22.2051 	 -115.821 	 
H 	 7.07884 	 -21.3185 	 -115.647 	 
H 	 8.26679 	 -21.9521 	 -116.743 	 
C 	 8.75822 	 -22.5684 	 -114.837 	 
H 	 8.32365 	 -22.9748 	 -113.879 	 
H 	 9.3733 	 -23.3118 	 -115.28 	 
C 	 9.56209 	 -21.2992 	 -114.498 	 
H 	 10.0343 	 -20.7279 	 -115.333 	 
H 	 8.91233 	 -20.5995 	 -114.091 	 
H 	 10.3295 	 -21.571 	 -113.781 	 
S 	 2.30274 	 -23.6859 	 -115.126 	 
C 	 1.21626 	 -24.8297 	 -114.279 	 
C 	 1.67254 	 -26.1288 	 -114.365 	 
C 	 2.90603 	 -26.2379 	 -115.093 	 
C 	 3.50113 	 -24.9867 	 -115.296 	 
H 	 1.006 	 -26.9301 	 -113.884 	 
C 	 3.56581 	 -27.5981 	 -115.154 	 
H 	 4.58053 	 -27.5248 	 -115.575 	 
H 	 3.02684 	 -28.1987 	 -115.86 	 
C 	 3.70823 	 -28.4829 	 -113.849 	 
H 	 2.75859 	 -28.776 	 -113.52 	 
H 	 4.0418 	 -27.8599 	 -113.053 	 
C 	 4.59062 	 -29.7322 	 -114.076 	 
H 	 5.54717 	 -29.2298 	 -114.111 	 
H 	 4.37667 	 -30.4244 	 -114.868 	 
H 	 4.52948 	 -30.2112 	 -113.105 	 
H 	 7.82086 	 -24.2157 	 -117.762 	 
H 	 0.253938 	 -24.5336 	 -113.829 	 
*
