! wB97X-D3 SP def2-SVP
%pal
nprocs 24
end

* xyz 0 1
S 	 -7.14009 	 -30.1155 	 -109.858 	 
C 	 -7.84098 	 -28.5207 	 -110.161 	 
C 	 -8.86441 	 -28.6067 	 -111.097 	 
C 	 -9.10223 	 -29.928 	 -111.585 	 
C 	 -8.1831 	 -30.8321 	 -111.154 	 
H 	 -9.77567 	 -30.3075 	 -112.405 	 
C 	 -9.79044 	 -27.5228 	 -111.554 	 
H 	 -9.66906 	 -27.3484 	 -112.658 	 
H 	 -9.49639 	 -26.5696 	 -111.062 	 
C 	 -11.3038 	 -27.7807 	 -111.17 	 
H 	 -11.8224 	 -26.8906 	 -111.555 	 
H 	 -11.7924 	 -28.4847 	 -111.797 	 
C 	 -11.6113 	 -27.9867 	 -109.68 	 
H 	 -12.6135 	 -28.0905 	 -109.665 	 
H 	 -11.1991 	 -28.8998 	 -109.232 	 
H 	 -11.307 	 -27.0986 	 -109.081 	 
S 	 -8.19193 	 -32.5928 	 -113.214 	 
C 	 -7.78066 	 -34.2357 	 -112.954 	 
C 	 -7.50314 	 -34.5019 	 -111.622 	 
C 	 -7.73748 	 -33.407 	 -110.759 	 
C 	 -8.07752 	 -32.2199 	 -111.495 	 
H 	 -7.10484 	 -35.5069 	 -111.412 	 
C 	 -7.49577 	 -33.4966 	 -109.292 	 
H 	 -6.56647 	 -33.0578 	 -109.065 	 
H 	 -7.36763 	 -34.5387 	 -108.991 	 
C 	 -8.63782 	 -33.0642 	 -108.291 	 
H 	 -8.87667 	 -31.9695 	 -108.364 	 
H 	 -8.35474 	 -33.2896 	 -107.229 	 
C 	 -9.92529 	 -33.8333 	 -108.532 	 
H 	 -9.73682 	 -34.869 	 -108.509 	 
H 	 -10.2975 	 -33.6884 	 -109.553 	 
H 	 -10.7031 	 -33.7746 	 -107.705 	 
H 	 -7.53384 	 -27.5933 	 -109.711 	 
H 	 -7.56731 	 -34.8607 	 -113.824 	 
*
