! wB97X-D3 SP def2-SVP
%pal
nprocs 24
end

* xyz 0 1
S 	 -114.647 	 63.671 	 -30.0684 	 
C 	 -114.383 	 63.4939 	 -28.3899 	 
C 	 -115.542 	 63.3045 	 -27.7143 	 
C 	 -116.674 	 63.5186 	 -28.5417 	 
C 	 -116.353 	 63.6972 	 -29.8818 	 
H 	 -117.733 	 63.4622 	 -28.3258 	 
C 	 -115.592 	 62.9631 	 -26.2879 	 
H 	 -116.131 	 63.7413 	 -25.6898 	 
H 	 -114.507 	 62.9711 	 -25.9036 	 
C 	 -116.173 	 61.5839 	 -25.9359 	 
H 	 -117.169 	 61.3782 	 -26.2687 	 
H 	 -115.518 	 60.8724 	 -26.4629 	 
C 	 -116.058 	 61.3834 	 -24.4533 	 
H 	 -116.435 	 62.2131 	 -23.8639 	 
H 	 -116.48 	 60.4263 	 -24.107 	 
H 	 -114.975 	 61.3189 	 -24.2512 	 
S 	 -117.513 	 65.4002 	 -31.8002 	 
C 	 -118.613 	 64.6777 	 -32.9233 	 
C 	 -119.018 	 63.4559 	 -32.5257 	 
C 	 -118.268 	 62.9887 	 -31.4206 	 
C 	 -117.329 	 63.8269 	 -30.9441 	 
H 	 -119.691 	 62.8614 	 -33.2093 	 
C 	 -118.561 	 61.6196 	 -30.833 	 
H 	 -119.507 	 61.5842 	 -30.4073 	 
H 	 -117.95 	 61.4426 	 -29.9198 	 
C 	 -118.364 	 60.4848 	 -31.7231 	 
H 	 -117.391 	 60.5126 	 -32.148 	 
H 	 -119.206 	 60.4408 	 -32.4546 	 
C 	 -118.684 	 59.1788 	 -31.0033 	 
H 	 -118.928 	 58.4505 	 -31.7933 	 
H 	 -119.522 	 59.2813 	 -30.3354 	 
H 	 -117.798 	 58.9305 	 -30.3955 	 
H 	 -113.441 	 63.7648 	 -27.8705 	 
H 	 -118.916 	 65.1638 	 -33.9347 	 
*
