! wB97X-D3 SP def2-SVP
%pal
nprocs 24
end

* xyz 0 1
S 	 -104.962 	 50.3104 	 -98.0804 	 
C 	 -104.468 	 51.0268 	 -96.6544 	 
C 	 -104.296 	 50.1069 	 -95.6601 	 
C 	 -104.605 	 48.7402 	 -96.0814 	 
C 	 -105.154 	 48.7388 	 -97.3346 	 
H 	 -104.565 	 47.8769 	 -95.4341 	 
C 	 -103.745 	 50.533 	 -94.2942 	 
H 	 -104.363 	 50.0191 	 -93.4953 	 
H 	 -103.955 	 51.6115 	 -93.9601 	 
C 	 -102.238 	 50.3342 	 -94.0749 	 
H 	 -101.899 	 50.4864 	 -92.9772 	 
H 	 -102.147 	 49.2464 	 -94.2879 	 
C 	 -101.296 	 51.1324 	 -95.016 	 
H 	 -101.504 	 51.0293 	 -96.0141 	 
H 	 -101.401 	 52.1846 	 -94.6385 	 
H 	 -100.233 	 50.8841 	 -94.8258 	 
S 	 -105.035 	 46.7008 	 -99.261 	 
C 	 -106.395 	 45.5405 	 -99.2858 	 
C 	 -107.402 	 45.9662 	 -98.4397 	 
C 	 -107.08 	 47.1648 	 -97.7089 	 
C 	 -105.811 	 47.6579 	 -98.0031 	 
H 	 -108.234 	 45.2807 	 -98.416 	 
C 	 -108.082 	 47.7718 	 -96.7034 	 
H 	 -108.148 	 48.8578 	 -96.9378 	 
H 	 -107.656 	 47.6052 	 -95.7329 	 
C 	 -109.527 	 47.2302 	 -96.8361 	 
H 	 -109.959 	 47.6189 	 -95.8767 	 
H 	 -109.528 	 46.1155 	 -96.7753 	 
C 	 -110.189 	 47.7514 	 -98.0628 	 
H 	 -110.38 	 48.7976 	 -97.9846 	 
H 	 -111.115 	 47.1879 	 -98.1076 	 
H 	 -109.73 	 47.4701 	 -98.9898 	 
H 	 -104.132 	 52.0577 	 -96.4909 	 
H 	 -106.517 	 44.7171 	 -99.9301 	 
*
