! wB97X-D3 SP def2-SVP
%pal
nprocs 24
end

* xyz 0 1
S 	 -94.0433 	 52.9866 	 -100.156 	 
C 	 -93.1924 	 53.7099 	 -98.8318 	 
C 	 -92.37 	 52.732 	 -98.3173 	 
C 	 -92.3892 	 51.4705 	 -98.9933 	 
C 	 -93.3536 	 51.3763 	 -99.9055 	 
H 	 -91.7591 	 50.6268 	 -98.8368 	 
C 	 -91.2992 	 52.969 	 -97.2951 	 
H 	 -91.1698 	 51.9776 	 -96.7808 	 
H 	 -91.6595 	 53.7457 	 -96.6425 	 
C 	 -89.9673 	 53.5687 	 -97.9378 	 
H 	 -89.5451 	 52.8732 	 -98.7167 	 
H 	 -90.2642 	 54.4817 	 -98.4076 	 
C 	 -88.9168 	 53.7598 	 -96.8557 	 
H 	 -89.2983 	 54.3788 	 -96.041 	 
H 	 -88.8503 	 52.8009 	 -96.4231 	 
H 	 -87.8645 	 54.1341 	 -97.1172 	 
S 	 -92.6362 	 50.3561 	 -102.27 	 
C 	 -92.9131 	 48.6708 	 -102.717 	 
C 	 -93.5352 	 48.0662 	 -101.688 	 
C 	 -93.8593 	 48.9124 	 -100.54 	 
C 	 -93.5516 	 50.2362 	 -100.78 	 
H 	 -93.6846 	 47.002 	 -101.766 	 
C 	 -94.449 	 48.4268 	 -99.2701 	 
H 	 -93.9954 	 49.076 	 -98.5418 	 
H 	 -94.0109 	 47.4597 	 -98.9462 	 
C 	 -96.0059 	 48.4089 	 -99.2414 	 
H 	 -96.2923 	 47.8207 	 -100.087 	 
H 	 -96.4163 	 49.4007 	 -99.3922 	 
C 	 -96.4925 	 47.9146 	 -97.8421 	 
H 	 -96.4484 	 46.7775 	 -97.6863 	 
H 	 -97.5239 	 48.2118 	 -97.5851 	 
H 	 -95.9654 	 48.3917 	 -96.9361 	 
H 	 -93.1019 	 54.7901 	 -98.5805 	 
H 	 -92.8043 	 48.2334 	 -103.69 	 
*
