! wB97X-D3 SP def2-SVP
%pal
nprocs 24
end

* xyz 0 1
S 	 -54.6704 	 14.4484 	 22.5376 	 
C 	 -54.7806 	 13.6769 	 20.9675 	 
C 	 -53.8778 	 12.5991 	 20.8526 	 
C 	 -53.1774 	 12.4203 	 22.0651 	 
C 	 -53.3566 	 13.3729 	 23.0313 	 
H 	 -52.4075 	 11.642 	 22.2517 	 
C 	 -53.6868 	 11.6667 	 19.6093 	 
H 	 -54.1139 	 12.0708 	 18.6804 	 
H 	 -54.2774 	 10.7541 	 19.8469 	 
C 	 -52.2042 	 11.3398 	 19.328 	 
H 	 -51.5797 	 12.23 	 19.331 	 
H 	 -51.7758 	 10.7054 	 20.1298 	 
C 	 -51.9791 	 10.446 	 18.1367 	 
H 	 -50.897 	 10.3446 	 18.0276 	 
H 	 -52.378 	 9.44825 	 18.1539 	 
H 	 -52.3728 	 11.0525 	 17.3741 	 
S 	 -53.4502 	 13.2053 	 25.7499 	 
C 	 -51.9051 	 13.3218 	 26.6599 	 
C 	 -50.8428 	 13.3931 	 25.8319 	 
C 	 -51.1767 	 13.5763 	 24.4325 	 
C 	 -52.5718 	 13.4775 	 24.2658 	 
H 	 -49.9313 	 13.5145 	 26.3154 	 
C 	 -50.0743 	 13.6954 	 23.3521 	 
H 	 -50.1343 	 12.9715 	 22.4783 	 
H 	 -49.0355 	 13.519 	 23.7771 	 
C 	 -49.9974 	 15.1322 	 22.7683 	 
H 	 -50.2241 	 15.8226 	 23.5216 	 
H 	 -50.8024 	 15.1894 	 22.0644 	 
C 	 -48.7186 	 15.4852 	 22.0622 	 
H 	 -48.6545 	 14.795 	 21.1875 	 
H 	 -47.8036 	 15.3431 	 22.6027 	 
H 	 -48.756 	 16.4984 	 21.8016 	 
H 	 -55.4047 	 13.9237 	 20.1717 	 
H 	 -51.7939 	 13.1979 	 27.7334 	 
*
