! wB97X-D3 SP def2-SVP
%pal
nprocs 24
end

* xyz 0 1
S 	 -111.624 	 46.3454 	 -75.406 	 
C 	 -111.357 	 46.0429 	 -77.1043 	 
C 	 -110.439 	 46.8904 	 -77.6396 	 
C 	 -109.931 	 47.8138 	 -76.6789 	 
C 	 -110.531 	 47.6851 	 -75.4509 	 
H 	 -109.264 	 48.5863 	 -76.8344 	 
C 	 -110.166 	 47.006 	 -79.1255 	 
H 	 -110.082 	 45.9952 	 -79.5037 	 
H 	 -109.142 	 47.3917 	 -79.354 	 
C 	 -111.236 	 47.7786 	 -79.8901 	 
H 	 -111.117 	 47.6538 	 -80.8769 	 
H 	 -112.16 	 47.1814 	 -79.7565 	 
C 	 -111.455 	 49.195 	 -79.3501 	 
H 	 -110.62 	 49.8605 	 -79.6787 	 
H 	 -112.365 	 49.674 	 -79.7643 	 
H 	 -111.634 	 49.2735 	 -78.2724 	 
S 	 -109.253 	 47.749 	 -72.9855 	 
C 	 -109.329 	 49.2734 	 -72.0903 	 
C 	 -110.002 	 50.2733 	 -72.7646 	 
C 	 -110.497 	 49.8015 	 -73.987 	 
C 	 -110.274 	 48.4805 	 -74.2674 	 
H 	 -110.024 	 51.3242 	 -72.4369 	 
C 	 -111.257 	 50.763 	 -74.9035 	 
H 	 -111.988 	 51.2303 	 -74.2759 	 
H 	 -111.776 	 50.2228 	 -75.7038 	 
C 	 -110.378 	 51.8885 	 -75.48 	 
H 	 -109.448 	 51.4244 	 -75.8782 	 
H 	 -110.195 	 52.4947 	 -74.6526 	 
C 	 -110.986 	 52.8635 	 -76.4618 	 
H 	 -110.361 	 53.7487 	 -76.5119 	 
H 	 -112.028 	 53.0838 	 -76.2396 	 
H 	 -110.883 	 52.3776 	 -77.5013 	 
H 	 -111.96 	 45.2887 	 -77.6573 	 
H 	 -108.886 	 49.4504 	 -71.2096 	 
*
