! wB97X-D3 SP def2-SVP
%pal
nprocs 24
end

* xyz 0 1
S 	 -98.7211 	 18.088 	 -124.109 	 
C 	 -97.6582 	 18.7354 	 -122.782 	 
C 	 -98.3977 	 19.1686 	 -121.718 	 
C 	 -99.7976 	 18.9966 	 -121.979 	 
C 	 -100.109 	 18.2327 	 -123.103 	 
H 	 -100.578 	 19.4556 	 -121.398 	 
C 	 -97.9427 	 19.7576 	 -120.446 	 
H 	 -98.3705 	 20.7581 	 -120.423 	 
H 	 -96.8972 	 19.8762 	 -120.526 	 
C 	 -98.2679 	 18.9557 	 -119.191 	 
H 	 -99.3328 	 19.1129 	 -119.117 	 
H 	 -98.1291 	 17.9573 	 -119.312 	 
C 	 -97.5601 	 19.3659 	 -117.866 	 
H 	 -97.9246 	 20.3087 	 -117.644 	 
H 	 -97.8694 	 18.7012 	 -117.037 	 
H 	 -96.4692 	 19.3093 	 -117.959 	 
S 	 -101.982 	 18.5882 	 -125.142 	 
C 	 -103.582 	 17.9109 	 -124.948 	 
C 	 -103.655 	 17.22 	 -123.755 	 
C 	 -102.512 	 17.3532 	 -122.954 	 
C 	 -101.43 	 17.8709 	 -123.648 	 
H 	 -104.587 	 16.7167 	 -123.527 	 
C 	 -102.539 	 16.7869 	 -121.558 	 
H 	 -101.57 	 17.1255 	 -121.156 	 
H 	 -102.348 	 15.7207 	 -121.632 	 
C 	 -103.524 	 17.2671 	 -120.461 	 
H 	 -104.529 	 16.7975 	 -120.458 	 
H 	 -103.749 	 18.3237 	 -120.59 	 
C 	 -102.884 	 17.1683 	 -119.028 	 
H 	 -102.362 	 16.2083 	 -118.821 	 
H 	 -103.55 	 17.3839 	 -118.244 	 
H 	 -102.187 	 18.0159 	 -118.893 	 
H 	 -96.619 	 18.8639 	 -122.885 	 
H 	 -104.45 	 18.0152 	 -125.553 	 
*
