! wB97X-D3 SP def2-SVP
%pal
nprocs 24
end

* xyz 0 1
S 	 36.5573 	 -24.4628 	 -121.56 	 
C 	 36.1295 	 -23.8006 	 -123.165 	 
C 	 37.1412 	 -23.8168 	 -124.085 	 
C 	 38.3241 	 -24.3899 	 -123.483 	 
C 	 38.1924 	 -24.6149 	 -122.136 	 
H 	 39.2512 	 -24.3417 	 -123.866 	 
C 	 37.0202 	 -23.4469 	 -125.545 	 
H 	 36.161 	 -22.7142 	 -125.553 	 
H 	 36.9597 	 -24.325 	 -126.269 	 
C 	 38.1535 	 -22.4918 	 -126.177 	 
H 	 39.0949 	 -23.0609 	 -126.443 	 
H 	 37.7886 	 -22.1462 	 -127.144 	 
C 	 38.2362 	 -21.1805 	 -125.432 	 
H 	 39.0005 	 -20.5063 	 -125.809 	 
H 	 37.2982 	 -20.6933 	 -125.389 	 
H 	 38.5032 	 -21.3005 	 -124.412 	 
S 	 38.8281 	 -26.2947 	 -120.018 	 
C 	 40.4996 	 -26.4534 	 -119.413 	 
C 	 41.3864 	 -25.5925 	 -120.118 	 
C 	 40.652 	 -24.8153 	 -121.038 	 
C 	 39.2503 	 -25.1021 	 -121.241 	 
H 	 42.4923 	 -25.5761 	 -119.909 	 
C 	 41.3913 	 -23.8272 	 -121.895 	 
H 	 42.0623 	 -23.2866 	 -121.238 	 
H 	 40.7048 	 -23.0848 	 -122.307 	 
C 	 42.2912 	 -24.4696 	 -123.01 	 
H 	 41.8044 	 -25.4126 	 -123.263 	 
H 	 43.2016 	 -24.8431 	 -122.589 	 
C 	 42.3812 	 -23.6022 	 -124.315 	 
H 	 41.4639 	 -23.4162 	 -124.841 	 
H 	 43.1067 	 -23.8944 	 -125.006 	 
H 	 42.7054 	 -22.6041 	 -124.083 	 
H 	 35.1815 	 -23.3537 	 -123.389 	 
H 	 40.6544 	 -27.028 	 -118.533 	 
*
