! wB97X-D3 SP def2-SVP
%pal
nprocs 24
end

* xyz 0 1
S 	 -99.4072 	 -3.77491 	 -109.411 	 
C 	 -100.764 	 -4.9346 	 -109.176 	 
C 	 -101.682 	 -4.58561 	 -108.207 	 
C 	 -101.447 	 -3.27526 	 -107.738 	 
C 	 -100.29 	 -2.70659 	 -108.205 	 
H 	 -102.127 	 -2.73706 	 -107.124 	 
C 	 -102.966 	 -5.22961 	 -107.791 	 
H 	 -103.15 	 -4.96682 	 -106.79 	 
H 	 -102.768 	 -6.25036 	 -107.808 	 
C 	 -104.2 	 -5.03074 	 -108.731 	 
H 	 -103.979 	 -5.2704 	 -109.718 	 
H 	 -105.021 	 -5.7931 	 -108.431 	 
C 	 -104.748 	 -3.54284 	 -108.673 	 
H 	 -104.754 	 -3.23784 	 -107.582 	 
H 	 -104.063 	 -2.9183 	 -109.251 	 
H 	 -105.649 	 -3.50693 	 -109.159 	 
S 	 -100.201 	 -0.136615 	 -109.105 	 
C 	 -100.033 	 1.14318 	 -107.979 	 
C 	 -99.6123 	 0.659046 	 -106.755 	 
C 	 -99.575 	 -0.756576 	 -106.705 	 
C 	 -99.8507 	 -1.34828 	 -107.922 	 
H 	 -99.4938 	 1.39846 	 -105.932 	 
C 	 -99.408 	 -1.39179 	 -105.349 	 
H 	 -98.6884 	 -0.791754 	 -104.821 	 
H 	 -98.8578 	 -2.27186 	 -105.476 	 
C 	 -100.661 	 -1.67986 	 -104.553 	 
H 	 -101.439 	 -2.2983 	 -105.006 	 
H 	 -101.109 	 -0.706766 	 -104.431 	 
C 	 -100.287 	 -2.18467 	 -103.218 	 
H 	 -99.5109 	 -2.9395 	 -103.24 	 
H 	 -101.102 	 -2.58414 	 -102.628 	 
H 	 -99.9157 	 -1.32325 	 -102.677 	 
H 	 -100.899 	 -5.8805 	 -109.716 	 
H 	 -100.163 	 2.2435 	 -108.147 	 
*
