! wB97X-D3 SP def2-SVP
%pal
nprocs 24
end

* xyz 0 1
S 	 -84.6233 	 1.01548 	 -113.52 	 
C 	 -84.1376 	 0.404038 	 -115.06 	 
C 	 -85.0977 	 0.0432723 	 -115.957 	 
C 	 -86.3354 	 0.100334 	 -115.242 	 
C 	 -86.2317 	 0.478759 	 -113.903 	 
H 	 -87.3508 	 -0.280035 	 -115.509 	 
C 	 -84.8779 	 -0.44106 	 -117.409 	 
H 	 -85.3702 	 -1.37551 	 -117.654 	 
H 	 -83.847 	 -0.717082 	 -117.535 	 
C 	 -85.3141 	 0.477646 	 -118.539 	 
H 	 -84.9198 	 0.148066 	 -119.52 	 
H 	 -86.4199 	 0.277912 	 -118.648 	 
C 	 -84.8958 	 1.96177 	 -118.299 	 
H 	 -85.3504 	 2.24923 	 -117.323 	 
H 	 -83.8356 	 2.01444 	 -118.454 	 
H 	 -85.2677 	 2.73123 	 -118.976 	 
S 	 -88.2948 	 -0.704937 	 -112.448 	 
C 	 -89.5021 	 0.330126 	 -111.741 	 
C 	 -89.0297 	 1.6265 	 -111.774 	 
C 	 -87.8544 	 1.82074 	 -112.544 	 
C 	 -87.3685 	 0.623367 	 -113.003 	 
H 	 -89.57 	 2.39395 	 -111.222 	 
C 	 -87.2521 	 3.1887 	 -112.889 	 
H 	 -86.3591 	 3.30243 	 -112.265 	 
H 	 -87.9868 	 3.93321 	 -112.602 	 
C 	 -87.0701 	 3.39288 	 -114.436 	 
H 	 -86.3122 	 2.82759 	 -114.872 	 
H 	 -86.7572 	 4.34177 	 -114.582 	 
C 	 -88.3836 	 3.06226 	 -115.187 	 
H 	 -88.5978 	 2.04572 	 -115.315 	 
H 	 -88.5009 	 3.62445 	 -116.094 	 
H 	 -89.2364 	 3.54347 	 -114.658 	 
H 	 -83.1104 	 0.266755 	 -115.396 	 
H 	 -90.4088 	 -0.0433556 	 -111.26 	 
*
