! wB97X-D3 SP def2-SVP
%pal
nprocs 24
end

* xyz 0 1
S 	 -50.0716 	 18.441 	 -88.069 	 
C 	 -51.029 	 19.5495 	 -87.1182 	 
C 	 -52.3268 	 19.6907 	 -87.5937 	 
C 	 -52.6201 	 18.7103 	 -88.5934 	 
C 	 -51.5219 	 17.9555 	 -88.9622 	 
H 	 -53.571 	 18.5755 	 -89.112 	 
C 	 -53.3913 	 20.6181 	 -86.9753 	 
H 	 -53.1791 	 20.7397 	 -85.8679 	 
H 	 -54.3319 	 19.9681 	 -86.9525 	 
C 	 -53.5559 	 21.9855 	 -87.6743 	 
H 	 -53.4855 	 21.866 	 -88.7467 	 
H 	 -54.5283 	 22.3555 	 -87.3376 	 
C 	 -52.4354 	 22.8914 	 -87.2661 	 
H 	 -52.5364 	 23.2097 	 -86.2242 	 
H 	 -51.5026 	 22.298 	 -87.2764 	 
H 	 -52.1671 	 23.8319 	 -87.8397 	 
S 	 -52.2313 	 15.489 	 -90.0099 	 
C 	 -52.0269 	 15.1853 	 -91.6546 	 
C 	 -51.218 	 16.1161 	 -92.2021 	 
C 	 -50.9132 	 17.2155 	 -91.3263 	 
C 	 -51.4464 	 17.0443 	 -90.095 	 
H 	 -50.905 	 16.0837 	 -93.2858 	 
C 	 -50.1277 	 18.4726 	 -91.7987 	 
H 	 -49.7521 	 18.8594 	 -90.8934 	 
H 	 -50.8454 	 19.1544 	 -92.2484 	 
C 	 -48.9611 	 18.2455 	 -92.7905 	 
H 	 -49.3613 	 18.2992 	 -93.8047 	 
H 	 -48.5467 	 17.302 	 -92.5927 	 
C 	 -47.8383 	 19.3239 	 -92.7289 	 
H 	 -47.3161 	 19.4189 	 -91.7828 	 
H 	 -48.2947 	 20.3376 	 -92.991 	 
H 	 -47.1693 	 19.1263 	 -93.5571 	 
H 	 -50.6109 	 20.3088 	 -86.4775 	 
H 	 -52.3296 	 14.2188 	 -92.0765 	 
*
