! wB97X-D3 SP def2-SVP
%pal
nprocs 24
end

* xyz 0 1
S 	 21.267 	 -7.03877 	 -115.547 	 
C 	 21.8082 	 -6.30027 	 -114.135 	 
C 	 22.2368 	 -5.01345 	 -114.32 	 
C 	 22.1132 	 -4.60289 	 -115.665 	 
C 	 21.4168 	 -5.51393 	 -116.445 	 
H 	 22.4272 	 -3.62123 	 -115.983 	 
C 	 22.7618 	 -4.12483 	 -113.245 	 
H 	 23.8186 	 -4.33304 	 -113.115 	 
H 	 22.3698 	 -4.40125 	 -112.234 	 
C 	 22.5108 	 -2.57932 	 -113.386 	 
H 	 22.8365 	 -2.36969 	 -114.451 	 
H 	 21.4409 	 -2.49317 	 -113.288 	 
C 	 23.2868 	 -1.69537 	 -112.467 	 
H 	 23.0355 	 -0.614781 	 -112.556 	 
H 	 23.165 	 -1.88138 	 -111.423 	 
H 	 24.3699 	 -1.82795 	 -112.806 	 
S 	 20.9198 	 -6.7143 	 -118.827 	 
C 	 20.5093 	 -5.78146 	 -120.261 	 
C 	 20.5756 	 -4.43771 	 -120.011 	 
C 	 20.8491 	 -4.14484 	 -118.644 	 
C 	 21.1619 	 -5.30842 	 -117.851 	 
H 	 20.4726 	 -3.73104 	 -120.779 	 
C 	 20.8761 	 -2.68478 	 -118.185 	 
H 	 20.9197 	 -2.68744 	 -117.064 	 
H 	 19.8917 	 -2.18864 	 -118.428 	 
C 	 22.0602 	 -1.85296 	 -118.708 	 
H 	 22.0046 	 -1.79532 	 -119.863 	 
H 	 23.0317 	 -2.32204 	 -118.47 	 
C 	 22.1206 	 -0.35954 	 -118.279 	 
H 	 22.2571 	 -0.251343 	 -117.227 	 
H 	 21.2855 	 0.271957 	 -118.583 	 
H 	 23.084 	 -0.0627999 	 -118.612 	 
H 	 21.71 	 -6.82802 	 -113.179 	 
H 	 20.2657 	 -6.19885 	 -121.254 	 
*
