! wB97X-D3 SP def2-SVP
%pal
nprocs 24
end

* xyz 0 1
S 	 -98.1639 	 -28.0542 	 -58.8547 	 
C 	 -99.1737 	 -26.8009 	 -58.2062 	 
C 	 -98.5519 	 -25.5366 	 -58.0463 	 
C 	 -97.225 	 -25.7448 	 -58.3982 	 
C 	 -96.8674 	 -26.9972 	 -58.8358 	 
H 	 -96.4443 	 -25.0004 	 -58.1692 	 
C 	 -99.1911 	 -24.2244 	 -57.4496 	 
H 	 -98.3883 	 -23.985 	 -56.7242 	 
H 	 -100.155 	 -24.5265 	 -56.969 	 
C 	 -99.5442 	 -23.1457 	 -58.365 	 
H 	 -99.6035 	 -22.2014 	 -57.8183 	 
H 	 -98.5942 	 -23.0321 	 -58.9369 	 
C 	 -100.667 	 -23.4569 	 -59.3881 	 
H 	 -101.59 	 -23.183 	 -58.9222 	 
H 	 -100.585 	 -22.9411 	 -60.3446 	 
H 	 -100.753 	 -24.5346 	 -59.6097 	 
S 	 -95.6221 	 -28.3964 	 -60.8246 	 
C 	 -93.9058 	 -28.4859 	 -60.9259 	 
C 	 -93.3609 	 -27.8459 	 -59.8585 	 
C 	 -94.3077 	 -27.3087 	 -58.9321 	 
C 	 -95.6313 	 -27.4603 	 -59.3492 	 
H 	 -92.3102 	 -27.9282 	 -59.7305 	 
C 	 -93.9442 	 -26.7297 	 -57.5763 	 
H 	 -94.3559 	 -27.3182 	 -56.7389 	 
H 	 -94.3969 	 -25.6999 	 -57.5423 	 
C 	 -92.4155 	 -26.441 	 -57.3731 	 
H 	 -92.1007 	 -25.5753 	 -57.9599 	 
H 	 -91.7485 	 -27.2602 	 -57.6508 	 
C 	 -92.0108 	 -26.0586 	 -55.946 	 
H 	 -92.6258 	 -25.1637 	 -55.7277 	 
H 	 -90.8693 	 -25.977 	 -55.9826 	 
H 	 -92.2032 	 -26.7363 	 -55.1826 	 
H 	 -100.165 	 -26.9988 	 -57.82 	 
H 	 -93.4351 	 -29.1108 	 -61.6349 	 
*
