! wB97X-D3 SP def2-SVP
%pal
nprocs 24
end

* xyz 0 1
S 	 -127.402 	 64.6902 	 -48.8688 	 
C 	 -127.144 	 66.4195 	 -48.6643 	 
C 	 -127.627 	 67.1736 	 -49.733 	 
C 	 -128.234 	 66.29 	 -50.6817 	 
C 	 -128.266 	 64.9656 	 -50.3559 	 
H 	 -128.685 	 66.7624 	 -51.5557 	 
C 	 -127.652 	 68.704 	 -49.7657 	 
H 	 -128.385 	 69.0606 	 -49.0344 	 
H 	 -128.127 	 68.9484 	 -50.6996 	 
C 	 -126.312 	 69.3116 	 -49.5587 	 
H 	 -125.706 	 68.6535 	 -48.9019 	 
H 	 -125.828 	 69.347 	 -50.5401 	 
C 	 -126.43 	 70.7139 	 -48.9594 	 
H 	 -125.463 	 71.1944 	 -49.0412 	 
H 	 -127.149 	 71.3361 	 -49.5462 	 
H 	 -126.827 	 70.8013 	 -47.9212 	 
S 	 -127.648 	 62.6831 	 -51.6748 	 
C 	 -128.911 	 61.8844 	 -52.6449 	 
C 	 -130.117 	 62.5356 	 -52.4792 	 
C 	 -130.096 	 63.7261 	 -51.6387 	 
C 	 -128.805 	 63.9349 	 -51.1558 	 
H 	 -130.993 	 62.1722 	 -52.9867 	 
C 	 -131.254 	 64.6633 	 -51.4956 	 
H 	 -130.924 	 65.6318 	 -51.8589 	 
H 	 -131.362 	 64.7583 	 -50.4851 	 
C 	 -132.58 	 64.2954 	 -52.0995 	 
H 	 -132.949 	 63.5078 	 -51.4235 	 
H 	 -132.534 	 63.7541 	 -53.024 	 
C 	 -133.66 	 65.4048 	 -52.1151 	 
H 	 -133.874 	 65.8963 	 -53.0647 	 
H 	 -133.537 	 66.2752 	 -51.3526 	 
H 	 -134.615 	 64.9082 	 -51.9235 	 
H 	 -126.521 	 66.7651 	 -47.8228 	 
H 	 -128.822 	 61.2163 	 -53.4961 	 
*
