! wB97X-D3 SP def2-SVP
%pal
nprocs 24
end

* xyz 0 1
S 	 -91.5416 	 -34.3816 	 -64.8425 	 
C 	 -91.948 	 -35.168 	 -66.3729 	 
C 	 -91.8941 	 -36.5478 	 -66.2195 	 
C 	 -91.5995 	 -36.9352 	 -64.8374 	 
C 	 -91.3185 	 -35.9028 	 -63.9946 	 
H 	 -91.5069 	 -37.9896 	 -64.5879 	 
C 	 -92.2478 	 -37.5954 	 -67.1793 	 
H 	 -93.2384 	 -37.3575 	 -67.5547 	 
H 	 -92.5723 	 -38.4456 	 -66.5896 	 
C 	 -91.294 	 -38.0387 	 -68.3558 	 
H 	 -90.9695 	 -37.2293 	 -68.9985 	 
H 	 -90.4517 	 -38.5917 	 -67.889 	 
C 	 -92.1639 	 -38.9332 	 -69.283 	 
H 	 -92.705 	 -39.7387 	 -68.8399 	 
H 	 -92.9106 	 -38.3438 	 -69.7801 	 
H 	 -91.6385 	 -39.2819 	 -70.2088 	 
S 	 -89.797 	 -37.4296 	 -62.224 	 
C 	 -89.3739 	 -36.8743 	 -60.6318 	 
C 	 -89.869 	 -35.611 	 -60.4553 	 
C 	 -90.8291 	 -35.1581 	 -61.477 	 
C 	 -90.8743 	 -36.0638 	 -62.5997 	 
H 	 -89.5703 	 -35.0789 	 -59.6107 	 
C 	 -91.4774 	 -33.7794 	 -61.3803 	 
H 	 -92.1905 	 -33.6429 	 -62.204 	 
H 	 -90.7047 	 -33.0299 	 -61.2544 	 
C 	 -92.2967 	 -33.6325 	 -60.1021 	 
H 	 -92.7706 	 -32.6675 	 -60.2244 	 
H 	 -91.6275 	 -33.6322 	 -59.2307 	 
C 	 -93.2816 	 -34.6995 	 -59.8852 	 
H 	 -93.4621 	 -34.8459 	 -58.8227 	 
H 	 -93.1558 	 -35.7769 	 -60.2272 	 
H 	 -94.2791 	 -34.3407 	 -60.3285 	 
H 	 -92.2547 	 -34.8024 	 -67.3183 	 
H 	 -88.6392 	 -37.2133 	 -59.8902 	 
*
