! wB97X-D3 SP def2-SVP
%pal
nprocs 24
end

* xyz 0 1
S 	 -48.0822 	 8.62617 	 -18.6217 	 
C 	 -47.5875 	 8.33749 	 -20.2867 	 
C 	 -48.6462 	 8.64118 	 -21.1649 	 
C 	 -49.8991 	 8.58125 	 -20.4656 	 
C 	 -49.7268 	 8.78102 	 -19.1005 	 
H 	 -50.9069 	 8.61658 	 -20.8 	 
C 	 -48.6581 	 8.55662 	 -22.7045 	 
H 	 -47.6883 	 8.15949 	 -23.1202 	 
H 	 -48.854 	 9.55588 	 -23.0596 	 
C 	 -49.6251 	 7.55625 	 -23.3163 	 
H 	 -50.5518 	 7.75704 	 -22.7868 	 
H 	 -49.768 	 7.82582 	 -24.3749 	 
C 	 -49.1868 	 6.06605 	 -23.3789 	 
H 	 -49.8833 	 5.43506 	 -23.9214 	 
H 	 -48.2396 	 5.84136 	 -23.7968 	 
H 	 -49.134 	 5.74131 	 -22.3278 	 
S 	 -50.1818 	 10.1027 	 -16.7682 	 
C 	 -51.7229 	 9.94243 	 -15.9562 	 
C 	 -52.6449 	 9.2334 	 -16.735 	 
C 	 -52.0753 	 8.62921 	 -17.94 	 
C 	 -50.6992 	 8.95042 	 -18.0092 	 
H 	 -53.7291 	 9.29386 	 -16.5993 	 
C 	 -52.8906 	 7.7913 	 -18.8986 	 
H 	 -53.1566 	 8.44826 	 -19.6548 	 
H 	 -53.7671 	 7.70322 	 -18.3963 	 
C 	 -52.2337 	 6.44172 	 -19.247 	 
H 	 -51.2972 	 6.67653 	 -19.6697 	 
H 	 -52.8373 	 5.97178 	 -19.9519 	 
C 	 -52.2085 	 5.5493 	 -18.0469 	 
H 	 -51.5382 	 5.97226 	 -17.185 	 
H 	 -51.9656 	 4.54619 	 -18.3353 	 
H 	 -53.2486 	 5.46914 	 -17.8204 	 
H 	 -46.5509 	 8.55156 	 -20.6714 	 
H 	 -52.0788 	 10.5378 	 -15.0863 	 
*
