! wB97X-D3 SP def2-SVP
%pal
nprocs 24
end

* xyz 0 1
S 	 -125.884 	 63.4647 	 -58.543 	 
C 	 -125.489 	 63.6124 	 -60.217 	 
C 	 -126.283 	 64.4902 	 -60.9281 	 
C 	 -127.174 	 65.1148 	 -60.0146 	 
C 	 -127.133 	 64.7501 	 -58.6592 	 
H 	 -127.684 	 65.997 	 -60.2944 	 
C 	 -126.092 	 64.8793 	 -62.3989 	 
H 	 -126.978 	 64.6043 	 -62.9333 	 
H 	 -125.371 	 64.1723 	 -62.7223 	 
C 	 -125.573 	 66.2917 	 -62.8284 	 
H 	 -125.955 	 66.4904 	 -63.8501 	 
H 	 -125.991 	 67.0341 	 -62.1488 	 
C 	 -124.062 	 66.3883 	 -62.863 	 
H 	 -123.616 	 65.7485 	 -63.6564 	 
H 	 -123.633 	 67.3404 	 -63.1909 	 
H 	 -123.639 	 66.114 	 -61.913 	 
S 	 -126.715 	 65.7265 	 -56.0718 	 
C 	 -127.939 	 66.631 	 -55.2751 	 
C 	 -129.135 	 66.3672 	 -55.9092 	 
C 	 -129.053 	 65.6651 	 -57.1641 	 
C 	 -127.759 	 65.3109 	 -57.4555 	 
H 	 -130.159 	 66.6653 	 -55.5656 	 
C 	 -130.328 	 65.4834 	 -57.9799 	 
H 	 -129.942 	 65.1941 	 -59.005 	 
H 	 -130.758 	 66.4665 	 -58.2062 	 
C 	 -131.431 	 64.4746 	 -57.473 	 
H 	 -131.61 	 64.6599 	 -56.3669 	 
H 	 -130.993 	 63.4216 	 -57.4853 	 
C 	 -132.684 	 64.5425 	 -58.3468 	 
H 	 -133.015 	 65.5606 	 -58.3419 	 
H 	 -133.557 	 63.9685 	 -57.9161 	 
H 	 -132.553 	 64.2553 	 -59.396 	 
H 	 -124.715 	 63.0863 	 -60.7611 	 
H 	 -127.848 	 66.9522 	 -54.2573 	 
*
