! wB97X-D3 SP def2-SVP
%pal
nprocs 24
end

* xyz 0 1
S 	 -61.1085 	 -0.651838 	 -22.4511 	 
C 	 -61.1067 	 -0.138409 	 -20.7704 	 
C 	 -61.0135 	 -1.22897 	 -19.9174 	 
C 	 -60.9201 	 -2.5077 	 -20.56 	 
C 	 -61.102 	 -2.35655 	 -21.9892 	 
H 	 -60.6969 	 -3.44627 	 -20.1425 	 
C 	 -60.7911 	 -1.11481 	 -18.4436 	 
H 	 -60.5226 	 -0.0896524 	 -18.2453 	 
H 	 -60.0422 	 -1.79229 	 -18.1079 	 
C 	 -61.9782 	 -1.44788 	 -17.5286 	 
H 	 -62.2279 	 -2.50771 	 -17.7019 	 
H 	 -61.5959 	 -1.28914 	 -16.4809 	 
C 	 -63.1472 	 -0.550912 	 -17.8415 	 
H 	 -63.4981 	 -0.703446 	 -18.8959 	 
H 	 -63.9116 	 -0.799645 	 -17.0411 	 
H 	 -62.852 	 0.539893 	 -17.6922 	 
S 	 -60.6336 	 -2.92424 	 -24.552 	 
C 	 -61.2236 	 -4.44385 	 -25.1778 	 
C 	 -61.7325 	 -5.25286 	 -24.1921 	 
C 	 -61.8079 	 -4.68462 	 -22.9094 	 
C 	 -61.2056 	 -3.41185 	 -22.9468 	 
H 	 -62.0595 	 -6.24749 	 -24.4914 	 
C 	 -62.368 	 -5.44719 	 -21.7367 	 
H 	 -62.5065 	 -4.69936 	 -20.969 	 
H 	 -61.5991 	 -6.12606 	 -21.3066 	 
C 	 -63.6583 	 -6.10062 	 -22.1224 	 
H 	 -64.0975 	 -6.63206 	 -21.2974 	 
H 	 -63.3567 	 -6.84761 	 -22.898 	 
C 	 -64.7262 	 -5.22778 	 -22.774 	 
H 	 -64.8894 	 -4.40411 	 -22.1758 	 
H 	 -65.6196 	 -5.83884 	 -22.8292 	 
H 	 -64.4628 	 -4.79212 	 -23.7284 	 
H 	 -61.0856 	 0.941968 	 -20.6101 	 
H 	 -61.0891 	 -4.81319 	 -26.1906 	 
*
