! wB97X-D3 SP def2-SVP
%pal
nprocs 24
end

* xyz 0 1
S 	 -143.098 	 30.5744 	 -12.5319 	 
C 	 -141.75 	 30.0818 	 -13.5763 	 
C 	 -142.097 	 29.0612 	 -14.4617 	 
C 	 -143.469 	 28.7905 	 -14.3939 	 
C 	 -144.137 	 29.6088 	 -13.5518 	 
H 	 -144.086 	 28.1011 	 -15.0226 	 
C 	 -141.271 	 28.2348 	 -15.3546 	 
H 	 -141.018 	 27.3081 	 -14.9362 	 
H 	 -140.264 	 28.7486 	 -15.2303 	 
C 	 -141.59 	 28.1915 	 -16.8121 	 
H 	 -142.385 	 27.4926 	 -16.8576 	 
H 	 -141.923 	 29.1474 	 -17.1937 	 
C 	 -140.372 	 27.5618 	 -17.5837 	 
H 	 -139.414 	 28.0698 	 -17.545 	 
H 	 -140.265 	 26.4855 	 -17.3349 	 
H 	 -140.543 	 27.4868 	 -18.6718 	 
S 	 -146.509 	 31.0544 	 -13.6459 	 
C 	 -147.978 	 30.2531 	 -13.3481 	 
C 	 -147.782 	 28.9113 	 -13.0122 	 
C 	 -146.364 	 28.5164 	 -12.9034 	 
C 	 -145.593 	 29.6028 	 -13.3284 	 
H 	 -148.712 	 28.3418 	 -12.7735 	 
C 	 -145.837 	 27.2006 	 -12.3238 	 
H 	 -146.086 	 27.2521 	 -11.2798 	 
H 	 -144.737 	 27.4066 	 -12.2421 	 
C 	 -146.34 	 25.9338 	 -12.9845 	 
H 	 -146.132 	 26.0582 	 -14.0439 	 
H 	 -147.473 	 25.9026 	 -12.8457 	 
C 	 -145.6 	 24.6214 	 -12.4227 	 
H 	 -145.625 	 24.4457 	 -11.3369 	 
H 	 -144.551 	 24.7069 	 -12.6853 	 
H 	 -145.999 	 23.7215 	 -12.9829 	 
H 	 -140.688 	 30.3389 	 -13.4821 	 
H 	 -148.923 	 30.8175 	 -13.184 	 
*
