! wB97X-D3 SP def2-SVP
%pal
nprocs 24
end

* xyz 0 1
S 	 -55.9907 	 -1.95584 	 -33.0763 	 
C 	 -55.7957 	 -0.201955 	 -33.2647 	 
C 	 -55.3149 	 0.435057 	 -32.1408 	 
C 	 -55.3071 	 -0.517385 	 -31.0613 	 
C 	 -55.5912 	 -1.83548 	 -31.4077 	 
H 	 -55.1109 	 -0.34955 	 -30.031 	 
C 	 -54.8546 	 1.85666 	 -32.0367 	 
H 	 -55.075 	 2.18872 	 -30.9922 	 
H 	 -55.4214 	 2.43655 	 -32.74 	 
C 	 -53.3602 	 2.11724 	 -32.4376 	 
H 	 -52.8096 	 1.39335 	 -31.8007 	 
H 	 -53.3433 	 1.6967 	 -33.426 	 
C 	 -52.9667 	 3.5395 	 -32.2824 	 
H 	 -53.4584 	 3.95406 	 -31.3863 	 
H 	 -51.884 	 3.60147 	 -32.0869 	 
H 	 -53.1667 	 4.24674 	 -33.0724 	 
S 	 -56.8286 	 -4.18804 	 -30.739 	 
C 	 -56.1799 	 -5.16738 	 -29.4726 	 
C 	 -55.1875 	 -4.48485 	 -28.8336 	 
C 	 -54.8263 	 -3.24455 	 -29.435 	 
C 	 -55.6661 	 -2.93782 	 -30.4749 	 
H 	 -54.8644 	 -4.84045 	 -27.8615 	 
C 	 -53.6789 	 -2.41694 	 -29.028 	 
H 	 -53.3003 	 -1.85324 	 -29.9185 	 
H 	 -52.8607 	 -3.14179 	 -28.7664 	 
C 	 -53.7899 	 -1.53891 	 -27.7903 	 
H 	 -54.2662 	 -2.16652 	 -27.0675 	 
H 	 -54.445 	 -0.733855 	 -28.0176 	 
C 	 -52.514 	 -0.838689 	 -27.3774 	 
H 	 -52.8355 	 0.108242 	 -26.7431 	 
H 	 -52.0186 	 -0.352044 	 -28.1976 	 
H 	 -51.7979 	 -1.47049 	 -26.8034 	 
H 	 -55.8463 	 0.275995 	 -34.2326 	 
H 	 -56.4018 	 -6.14022 	 -29.1333 	 
*
