! wB97X-D3 SP def2-SVP
%pal
nprocs 24
end

* xyz 0 1
S 	 -70.6292 	 9.5571 	 -101.604 	 
C 	 -69.293 	 9.63631 	 -102.773 	 
C 	 -69.8 	 9.68996 	 -104.116 	 
C 	 -71.1994 	 9.4762 	 -104.167 	 
C 	 -71.781 	 9.26996 	 -102.931 	 
H 	 -71.8659 	 9.36989 	 -105.046 	 
C 	 -68.8966 	 10.1219 	 -105.265 	 
H 	 -68.0031 	 10.6534 	 -104.811 	 
H 	 -69.4014 	 10.7706 	 -105.964 	 
C 	 -68.3393 	 8.89338 	 -106.146 	 
H 	 -69.2654 	 8.37254 	 -106.437 	 
H 	 -67.7983 	 9.29396 	 -107.024 	 
C 	 -67.3475 	 7.96625 	 -105.38 	 
H 	 -66.9725 	 7.20776 	 -106.085 	 
H 	 -66.5169 	 8.66134 	 -105.081 	 
H 	 -67.73 	 7.48554 	 -104.547 	 
S 	 -73.8348 	 10.3845 	 -101.409 	 
C 	 -75.4407 	 9.80742 	 -101.701 	 
C 	 -75.4634 	 8.81162 	 -102.637 	 
C 	 -74.1838 	 8.45365 	 -103.227 	 
C 	 -73.2002 	 9.23717 	 -102.652 	 
H 	 -76.3725 	 8.3426 	 -102.772 	 
C 	 -74.0212 	 7.34837 	 -104.235 	 
H 	 -72.981 	 7.01003 	 -104.268 	 
H 	 -74.2258 	 7.7446 	 -105.286 	 
C 	 -74.8175 	 6.08544 	 -103.845 	 
H 	 -75.7922 	 6.40185 	 -103.959 	 
H 	 -74.6537 	 5.90518 	 -102.773 	 
C 	 -74.6232 	 4.89202 	 -104.786 	 
H 	 -75.511 	 4.78158 	 -105.434 	 
H 	 -74.7291 	 3.97475 	 -104.231 	 
H 	 -73.7471 	 4.79984 	 -105.427 	 
H 	 -68.2495 	 9.83751 	 -102.474 	 
H 	 -76.3254 	 10.0714 	 -101.026 	 
*
