! wB97X-D3 SP def2-SVP
%pal
nprocs 24
end

* xyz 0 1
S 	 -82.0469 	 -43.3094 	 -82.4592 	 
C 	 -83.0149 	 -41.9189 	 -82.2569 	 
C 	 -84.3832 	 -42.0935 	 -82.5464 	 
C 	 -84.6375 	 -43.4564 	 -82.7763 	 
C 	 -83.5281 	 -44.3063 	 -82.8244 	 
H 	 -85.5537 	 -43.867 	 -83.123 	 
C 	 -85.4246 	 -40.9638 	 -82.5255 	 
H 	 -86.2328 	 -41.3076 	 -83.2117 	 
H 	 -85.1139 	 -40.0696 	 -83.0425 	 
C 	 -85.918 	 -40.3743 	 -81.1882 	 
H 	 -86.3068 	 -41.0868 	 -80.5129 	 
H 	 -85.0469 	 -40.0363 	 -80.5994 	 
C 	 -86.9482 	 -39.2092 	 -81.4018 	 
H 	 -86.4497 	 -38.4893 	 -82.1327 	 
H 	 -87.9453 	 -39.5614 	 -81.8182 	 
H 	 -86.9499 	 -38.6918 	 -80.4024 	 
S 	 -83.0721 	 -46.0937 	 -84.8149 	 
C 	 -83.3236 	 -47.8187 	 -84.4438 	 
C 	 -83.5273 	 -48.069 	 -83.0768 	 
C 	 -83.6257 	 -46.9016 	 -82.3865 	 
C 	 -83.4106 	 -45.7017 	 -83.1033 	 
H 	 -83.5793 	 -49.0864 	 -82.6506 	 
C 	 -84.0824 	 -46.8883 	 -80.9298 	 
H 	 -84.1151 	 -48.0376 	 -80.7071 	 
H 	 -85.0674 	 -46.5453 	 -80.8982 	 
C 	 -83.1279 	 -46.1486 	 -80.0221 	 
H 	 -83.1405 	 -45.0693 	 -80.1486 	 
H 	 -82.1414 	 -46.5599 	 -80.0921 	 
C 	 -83.5007 	 -46.3896 	 -78.5707 	 
H 	 -83.464 	 -47.4804 	 -78.4518 	 
H 	 -84.5547 	 -46.0598 	 -78.3972 	 
H 	 -82.9054 	 -45.8501 	 -77.8172 	 
H 	 -82.5219 	 -40.9766 	 -82.2291 	 
H 	 -83.2777 	 -48.5941 	 -85.2 	 
*
