! wB97X-D3 SP def2-SVP
%pal
nprocs 24
end

* xyz 0 1
S 	 -51.7295 	 9.50379 	 -21.3419 	 
C 	 -50.6784 	 9.43203 	 -19.9721 	 
C 	 -51.1334 	 10.1487 	 -18.903 	 
C 	 -52.4075 	 10.6583 	 -19.1143 	 
C 	 -52.8707 	 10.4008 	 -20.4353 	 
H 	 -53.1507 	 11.1438 	 -18.4834 	 
C 	 -50.3458 	 10.277 	 -17.631 	 
H 	 -49.9192 	 9.24242 	 -17.326 	 
H 	 -51.0116 	 10.4603 	 -16.782 	 
C 	 -49.1305 	 11.2409 	 -17.7063 	 
H 	 -48.4279 	 11.1203 	 -16.84 	 
H 	 -48.4496 	 10.9825 	 -18.5316 	 
C 	 -49.5889 	 12.7298 	 -17.9041 	 
H 	 -50.1919 	 12.8676 	 -18.7729 	 
H 	 -50.1242 	 13.0692 	 -17.0265 	 
H 	 -48.681 	 13.4092 	 -17.9153 	 
S 	 -55.0532 	 8.9901 	 -20.8034 	 
C 	 -56.6381 	 9.72836 	 -20.8654 	 
C 	 -56.5334 	 11.1082 	 -20.8268 	 
C 	 -55.1904 	 11.5902 	 -20.7446 	 
C 	 -54.2664 	 10.556 	 -20.7228 	 
H 	 -57.4352 	 11.7084 	 -20.8664 	 
C 	 -54.8597 	 13.0677 	 -20.6887 	 
H 	 -55.1735 	 13.4744 	 -21.6188 	 
H 	 -53.8057 	 13.2914 	 -20.6876 	 
C 	 -55.6952 	 13.8481 	 -19.5875 	 
H 	 -55.2764 	 13.5527 	 -18.5775 	 
H 	 -56.6929 	 13.6067 	 -19.6786 	 
C 	 -55.4482 	 15.3588 	 -19.7048 	 
H 	 -56.0228 	 15.9599 	 -18.8871 	 
H 	 -55.7893 	 15.6725 	 -20.7018 	 
H 	 -54.4708 	 15.6094 	 -19.6906 	 
H 	 -49.7408 	 9.04135 	 -20.1256 	 
H 	 -57.6037 	 9.26584 	 -20.8711 	 
*
