! wB97X-D3 SP def2-SVP
%pal
nprocs 24
end

* xyz 0 1
S 	 -100.18 	 14.1129 	 -126.076 	 
C 	 -100.411 	 15.183 	 -124.731 	 
C 	 -100.036 	 14.6445 	 -123.5 	 
C 	 -99.7837 	 13.2649 	 -123.614 	 
C 	 -99.7482 	 12.7696 	 -124.901 	 
H 	 -99.5133 	 12.6041 	 -122.794 	 
C 	 -100.059 	 15.4776 	 -122.196 	 
H 	 -99.9246 	 14.8122 	 -121.299 	 
H 	 -100.905 	 16.1007 	 -122.153 	 
C 	 -98.8757 	 16.5265 	 -122.141 	 
H 	 -98.9237 	 17.2531 	 -122.943 	 
H 	 -98.9458 	 17.0795 	 -121.201 	 
C 	 -97.5525 	 15.7949 	 -121.997 	 
H 	 -96.6782 	 16.4259 	 -121.859 	 
H 	 -97.6678 	 15.1182 	 -121.199 	 
H 	 -97.4176 	 15.1484 	 -122.781 	 
S 	 -98.2003 	 10.9944 	 -126.268 	 
C 	 -98.7882 	 9.34717 	 -126.525 	 
C 	 -100.164 	 9.3223 	 -126.335 	 
C 	 -100.685 	 10.478 	 -125.707 	 
C 	 -99.6662 	 11.4735 	 -125.518 	 
H 	 -100.692 	 8.48566 	 -126.715 	 
C 	 -102.203 	 10.576 	 -125.474 	 
H 	 -102.674 	 10.2065 	 -126.363 	 
H 	 -102.463 	 11.6011 	 -125.282 	 
C 	 -102.787 	 9.8123 	 -124.326 	 
H 	 -102.618 	 8.70815 	 -124.348 	 
H 	 -103.847 	 9.95675 	 -124.398 	 
C 	 -102.47 	 10.2668 	 -122.913 	 
H 	 -102.789 	 11.3305 	 -122.723 	 
H 	 -101.454 	 10.086 	 -122.572 	 
H 	 -103.07 	 9.75233 	 -122.1 	 
H 	 -100.889 	 16.1168 	 -124.844 	 
H 	 -98.3815 	 8.60094 	 -127.181 	 
*
