! wB97X-D3 SP def2-SVP
%pal
nprocs 24
end

* xyz 0 1
S 	 -102.037 	 -3.44339 	 -107.007 	 
C 	 -103.102 	 -4.82092 	 -106.769 	 
C 	 -102.673 	 -5.52513 	 -105.674 	 
C 	 -101.37 	 -5.12615 	 -105.201 	 
C 	 -100.863 	 -3.94862 	 -105.813 	 
H 	 -100.818 	 -5.66233 	 -104.493 	 
C 	 -103.553 	 -6.5914 	 -105.06 	 
H 	 -103.922 	 -7.24613 	 -105.796 	 
H 	 -104.38 	 -6.03032 	 -104.671 	 
C 	 -102.927 	 -7.51353 	 -104.019 	 
H 	 -102.22 	 -8.16592 	 -104.531 	 
H 	 -102.354 	 -6.94882 	 -103.229 	 
C 	 -104.031 	 -8.34589 	 -103.338 	 
H 	 -104.603 	 -7.70353 	 -102.641 	 
H 	 -104.701 	 -8.77221 	 -104.118 	 
H 	 -103.576 	 -9.16539 	 -102.847 	 
S 	 -98.5704 	 -3.02742 	 -106.834 	 
C 	 -97.4017 	 -2.29913 	 -105.847 	 
C 	 -97.7847 	 -2.30856 	 -104.493 	 
C 	 -99.0951 	 -2.84588 	 -104.268 	 
C 	 -99.63 	 -3.17589 	 -105.54 	 
H 	 -97.1105 	 -1.97653 	 -103.721 	 
C 	 -99.8461 	 -2.96063 	 -102.939 	 
H 	 -100.672 	 -3.66194 	 -103.145 	 
H 	 -100.36 	 -2.00336 	 -102.617 	 
C 	 -98.9876 	 -3.55573 	 -101.706 	 
H 	 -99.7048 	 -3.54754 	 -100.863 	 
H 	 -98.2271 	 -2.8151 	 -101.372 	 
C 	 -98.1621 	 -4.91151 	 -101.881 	 
H 	 -98.8631 	 -5.73398 	 -101.955 	 
H 	 -97.4917 	 -5.05055 	 -101.09 	 
H 	 -97.4428 	 -4.92756 	 -102.714 	 
H 	 -104.042 	 -4.88229 	 -107.262 	 
H 	 -96.3986 	 -2.1479 	 -106.14 	 
*
