! wB97X-D3 SP def2-SVP
%pal
nprocs 24
end

* xyz 0 1
S 	 -51.6838 	 18.7257 	 -100.716 	 
C 	 -53.3763 	 18.6055 	 -100.12 	 
C 	 -54.1797 	 19.546 	 -100.781 	 
C 	 -53.4981 	 20.1517 	 -101.875 	 
C 	 -52.1807 	 19.7972 	 -101.97 	 
H 	 -53.9018 	 20.9341 	 -102.527 	 
C 	 -55.6797 	 19.7726 	 -100.472 	 
H 	 -55.7438 	 19.5088 	 -99.4455 	 
H 	 -56.3275 	 19.1287 	 -101.073 	 
C 	 -56.1582 	 21.2751 	 -100.606 	 
H 	 -55.795 	 21.7176 	 -101.604 	 
H 	 -57.245 	 21.3723 	 -100.469 	 
C 	 -55.4895 	 22.3267 	 -99.6727 	 
H 	 -55.8748 	 23.2831 	 -99.9802 	 
H 	 -55.5914 	 22.1872 	 -98.6034 	 
H 	 -54.458 	 22.432 	 -99.6712 	 
S 	 -50.7405 	 22.0481 	 -102.343 	 
C 	 -49.7991 	 22.2085 	 -103.83 	 
C 	 -49.8638 	 21.0939 	 -104.696 	 
C 	 -50.7143 	 20.1395 	 -104.084 	 
C 	 -51.2042 	 20.4861 	 -102.844 	 
H 	 -49.3184 	 21.005 	 -105.616 	 
C 	 -51.1874 	 18.8684 	 -104.839 	 
H 	 -51.6406 	 18.1449 	 -104.118 	 
H 	 -50.3282 	 18.4461 	 -105.282 	 
C 	 -52.2228 	 18.9025 	 -105.979 	 
H 	 -52.6977 	 17.842 	 -106.199 	 
H 	 -51.7201 	 19.2317 	 -106.867 	 
C 	 -53.358 	 19.8496 	 -105.781 	 
H 	 -53.0461 	 20.8473 	 -105.484 	 
H 	 -54.1679 	 19.5212 	 -105.109 	 
H 	 -53.8848 	 20.0436 	 -106.711 	 
H 	 -53.5783 	 17.9358 	 -99.2938 	 
H 	 -49.142 	 23.0764 	 -104.014 	 
*
