! wB97X-D3 SP def2-SVP
%pal
nprocs 24
end

* xyz 0 1
S 	 -96.6391 	 13.8459 	 -119.739 	 
C 	 -94.9707 	 14.0485 	 -119.2 	 
C 	 -94.7369 	 13.3493 	 -118.031 	 
C 	 -95.8225 	 12.5094 	 -117.736 	 
C 	 -96.9496 	 12.6604 	 -118.566 	 
H 	 -95.7434 	 11.7502 	 -116.925 	 
C 	 -93.4361 	 13.3601 	 -117.266 	 
H 	 -92.6943 	 13.0148 	 -118.044 	 
H 	 -93.4459 	 12.738 	 -116.447 	 
C 	 -93.0506 	 14.733 	 -116.636 	 
H 	 -92.0009 	 14.7828 	 -116.568 	 
H 	 -93.2584 	 15.5331 	 -117.303 	 
C 	 -93.6608 	 15.0813 	 -115.22 	 
H 	 -92.9223 	 14.7899 	 -114.47 	 
H 	 -93.9805 	 16.0989 	 -115.059 	 
H 	 -94.6332 	 14.5466 	 -115.195 	 
S 	 -99.6408 	 13.1447 	 -117.94 	 
C 	 -100.614 	 11.7661 	 -117.452 	 
C 	 -99.9987 	 10.5223 	 -117.593 	 
C 	 -98.6529 	 10.7124 	 -118.024 	 
C 	 -98.274 	 12.0645 	 -118.264 	 
H 	 -100.542 	 9.58616 	 -117.331 	 
C 	 -97.6805 	 9.57498 	 -118.074 	 
H 	 -98.1459 	 8.67474 	 -117.621 	 
H 	 -96.8222 	 9.82194 	 -117.484 	 
C 	 -97.1601 	 9.03524 	 -119.351 	 
H 	 -96.6534 	 8.09942 	 -119.043 	 
H 	 -96.3901 	 9.72525 	 -119.859 	 
C 	 -98.301 	 8.70637 	 -120.306 	 
H 	 -98.9196 	 9.54243 	 -120.624 	 
H 	 -99.0036 	 7.88616 	 -120.121 	 
H 	 -97.9376 	 8.37621 	 -121.255 	 
H 	 -94.2488 	 14.6887 	 -119.526 	 
H 	 -101.617 	 11.9008 	 -117.113 	 
*
