! wB97X-D3 SP def2-SVP
%pal
nprocs 24
end

* xyz 0 1
S 	 23.8347 	 -8.91693 	 -114.584 	 
C 	 24.6286 	 -8.53375 	 -113.09 	 
C 	 23.7788 	 -7.87536 	 -112.228 	 
C 	 22.4771 	 -7.69586 	 -112.792 	 
C 	 22.3325 	 -8.16627 	 -114.124 	 
H 	 21.5629 	 -7.19396 	 -112.402 	 
C 	 24.1646 	 -7.33476 	 -110.871 	 
H 	 23.3362 	 -6.68092 	 -110.619 	 
H 	 25.0125 	 -6.63184 	 -111.066 	 
C 	 24.5124 	 -8.31628 	 -109.757 	 
H 	 25.3379 	 -8.96131 	 -110.13 	 
H 	 25.0757 	 -7.84662 	 -108.897 	 
C 	 23.271 	 -9.08753 	 -109.246 	 
H 	 22.489 	 -8.44819 	 -108.949 	 
H 	 23.0219 	 -9.90842 	 -109.874 	 
H 	 23.6531 	 -9.58932 	 -108.296 	 
S 	 20.8079 	 -10.0203 	 -115.374 	 
C 	 19.1779 	 -9.57116 	 -115.842 	 
C 	 18.9397 	 -8.23182 	 -115.697 	 
C 	 19.9817 	 -7.5922 	 -115.011 	 
C 	 21.1105 	 -8.39597 	 -114.861 	 
H 	 17.9726 	 -7.8737 	 -115.943 	 
C 	 19.8876 	 -6.20428 	 -114.517 	 
H 	 19.5197 	 -5.60583 	 -115.388 	 
H 	 20.8958 	 -5.94999 	 -114.3 	 
C 	 18.9402 	 -5.94339 	 -113.324 	 
H 	 19.2144 	 -4.96207 	 -112.764 	 
H 	 19.0884 	 -6.72633 	 -112.56 	 
C 	 17.4731 	 -6.07816 	 -113.611 	 
H 	 17.1227 	 -5.35604 	 -114.311 	 
H 	 17.0979 	 -5.89302 	 -112.574 	 
H 	 17.2291 	 -7.07139 	 -113.84 	 
H 	 25.709 	 -8.46208 	 -112.899 	 
H 	 18.5127 	 -10.3729 	 -116.214 	 
*
