! wB97X-D3 SP def2-SVP
%pal
nprocs 24
end

* xyz 0 1
S 	 -121.079 	 59.5345 	 -35.6729 	 
C 	 -122.332 	 60.1003 	 -36.8401 	 
C 	 -122.054 	 61.3551 	 -37.4141 	 
C 	 -120.849 	 61.9493 	 -36.8452 	 
C 	 -120.248 	 61.123 	 -35.9101 	 
H 	 -120.446 	 62.9179 	 -37.0628 	 
C 	 -122.901 	 62.0774 	 -38.4219 	 
H 	 -123.365 	 62.8441 	 -37.773 	 
H 	 -123.779 	 61.446 	 -38.6329 	 
C 	 -122.183 	 62.7238 	 -39.6504 	 
H 	 -122.949 	 63.2171 	 -40.2737 	 
H 	 -121.489 	 63.5239 	 -39.3921 	 
C 	 -121.455 	 61.6553 	 -40.4684 	 
H 	 -122.175 	 60.9476 	 -40.8897 	 
H 	 -120.828 	 62.1478 	 -41.1819 	 
H 	 -120.69 	 61.1929 	 -39.8453 	 
S 	 -117.726 	 60.3065 	 -35.2527 	 
C 	 -116.881 	 61.3113 	 -34.0276 	 
C 	 -117.277 	 62.579 	 -34.0456 	 
C 	 -118.58 	 62.7357 	 -34.7259 	 
C 	 -119.019 	 61.502 	 -35.1803 	 
H 	 -116.759 	 63.3398 	 -33.4889 	 
C 	 -119.308 	 64.1473 	 -34.7417 	 
H 	 -120.335 	 63.9088 	 -34.928 	 
H 	 -118.932 	 64.7312 	 -35.5559 	 
C 	 -119.15 	 64.9065 	 -33.3999 	 
H 	 -118.11 	 65.092 	 -33.2261 	 
H 	 -119.511 	 64.3069 	 -32.5413 	 
C 	 -119.899 	 66.2255 	 -33.3833 	 
H 	 -119.832 	 66.7993 	 -32.4803 	 
H 	 -120.932 	 66.2279 	 -33.6866 	 
H 	 -119.479 	 66.8721 	 -34.1451 	 
H 	 -123.229 	 59.5272 	 -37.1027 	 
H 	 -116.039 	 61.043 	 -33.4123 	 
*
