! wB97X-D3 SP def2-SVP
%pal
nprocs 24
end

* xyz 0 1
S 	 -36.1429 	 -11.4192 	 4.10146 	 
C 	 -36.1497 	 -11.8667 	 5.79016 	 
C 	 -36.5551 	 -10.7792 	 6.55339 	 
C 	 -37.0899 	 -9.73748 	 5.80675 	 
C 	 -36.9827 	 -9.86707 	 4.43318 	 
H 	 -37.5431 	 -8.88913 	 6.23091 	 
C 	 -36.7759 	 -10.7701 	 8.01175 	 
H 	 -36.4126 	 -11.712 	 8.24882 	 
H 	 -37.8155 	 -10.7167 	 8.23557 	 
C 	 -36.0071 	 -9.76201 	 8.91082 	 
H 	 -36.3931 	 -8.72325 	 8.73754 	 
H 	 -36.1242 	 -9.93968 	 9.99165 	 
C 	 -34.4972 	 -9.68011 	 8.58223 	 
H 	 -33.9467 	 -9.32316 	 9.34039 	 
H 	 -34.1399 	 -10.7154 	 8.36413 	 
H 	 -34.3369 	 -9.12127 	 7.72039 	 
S 	 -36.6967 	 -9.12954 	 1.83423 	 
C 	 -37.3181 	 -7.6246 	 1.24036 	 
C 	 -38.1043 	 -7.09383 	 2.20795 	 
C 	 -38.0948 	 -7.70207 	 3.49662 	 
C 	 -37.4505 	 -8.9378 	 3.45625 	 
H 	 -38.5243 	 -6.12059 	 1.83598 	 
C 	 -38.8223 	 -7.0083 	 4.70801 	 
H 	 -39.2256 	 -7.86634 	 5.24385 	 
H 	 -39.824 	 -6.66275 	 4.49567 	 
C 	 -38.0595 	 -5.86642 	 5.40345 	 
H 	 -37.9417 	 -5.02246 	 4.66585 	 
H 	 -37.1431 	 -6.1412 	 5.80757 	 
C 	 -38.8218 	 -5.26363 	 6.51518 	 
H 	 -38.296 	 -4.54093 	 7.06041 	 
H 	 -38.8631 	 -6.08162 	 7.33422 	 
H 	 -39.8711 	 -4.91529 	 6.27286 	 
H 	 -35.7028 	 -12.7571 	 6.1824 	 
H 	 -37.1249 	 -7.37476 	 0.197615 	 
*
