! wB97X-D3 SP def2-SVP
%pal
nprocs 24
end

* xyz 0 1
S 	 -119.483 	 20.7612 	 -113.579 	 
C 	 -120.467 	 21.9761 	 -114.39 	 
C 	 -120.502 	 21.7472 	 -115.773 	 
C 	 -119.758 	 20.5584 	 -116.125 	 
C 	 -119.038 	 19.9983 	 -115.059 	 
H 	 -119.753 	 20.2077 	 -117.175 	 
C 	 -121.133 	 22.5707 	 -116.94 	 
H 	 -122.095 	 22.7747 	 -116.721 	 
H 	 -121.358 	 21.9025 	 -117.791 	 
C 	 -120.402 	 23.8461 	 -117.243 	 
H 	 -120.963 	 24.3444 	 -118.072 	 
H 	 -120.571 	 24.5212 	 -116.436 	 
C 	 -118.887 	 23.7597 	 -117.395 	 
H 	 -118.395 	 23.1343 	 -116.646 	 
H 	 -118.693 	 23.2828 	 -118.382 	 
H 	 -118.435 	 24.7526 	 -117.371 	 
S 	 -118.84 	 17.5221 	 -113.918 	 
C 	 -117.46 	 16.4677 	 -114.261 	 
C 	 -116.765 	 17.0191 	 -115.292 	 
C 	 -117.211 	 18.3431 	 -115.702 	 
C 	 -118.333 	 18.7216 	 -115.061 	 
H 	 -115.934 	 16.4097 	 -115.659 	 
C 	 -116.431 	 19.234 	 -116.678 	 
H 	 -116.951 	 20.2054 	 -116.534 	 
H 	 -116.52 	 18.9724 	 -117.688 	 
C 	 -114.901 	 19.4061 	 -116.471 	 
H 	 -114.487 	 18.4618 	 -116.381 	 
H 	 -114.678 	 19.9937 	 -115.546 	 
C 	 -114.224 	 20.242 	 -117.555 	 
H 	 -113.258 	 20.6774 	 -117.149 	 
H 	 -114.778 	 21.1111 	 -117.79 	 
H 	 -114.116 	 19.5746 	 -118.398 	 
H 	 -120.914 	 22.8522 	 -113.931 	 
H 	 -117.285 	 15.4511 	 -113.759 	 
*
