! wB97X-D3 SP def2-SVP
%pal
nprocs 24
end

* xyz 0 1
S 	 -42.6949 	 -8.49208 	 8.65466 	 
C 	 -41.1125 	 -8.22031 	 7.92646 	 
C 	 -40.7583 	 -6.87271 	 8.11865 	 
C 	 -41.5973 	 -6.20503 	 9.10383 	 
C 	 -42.8098 	 -6.87566 	 9.31496 	 
H 	 -41.4428 	 -5.18041 	 9.4446 	 
C 	 -39.4876 	 -6.15684 	 7.57237 	 
H 	 -38.6356 	 -6.84441 	 7.6497 	 
H 	 -39.226 	 -5.22687 	 8.04669 	 
C 	 -39.6049 	 -5.78294 	 6.05258 	 
H 	 -38.5995 	 -5.4262 	 5.64343 	 
H 	 -39.9963 	 -6.5907 	 5.44717 	 
C 	 -40.6046 	 -4.61077 	 5.83089 	 
H 	 -40.6495 	 -4.40612 	 4.76187 	 
H 	 -41.563 	 -4.74488 	 6.3021 	 
H 	 -40.2473 	 -3.6854 	 6.33123 	 
S 	 -45.6479 	 -6.68358 	 9.41416 	 
C 	 -46.3565 	 -5.9003 	 10.8261 	 
C 	 -45.4098 	 -5.3461 	 11.6076 	 
C 	 -44.0443 	 -5.63015 	 11.2262 	 
C 	 -43.9884 	 -6.43521 	 10.117 	 
H 	 -45.6692 	 -4.72649 	 12.4504 	 
C 	 -42.9526 	 -4.96157 	 11.9799 	 
H 	 -42.0182 	 -5.51408 	 11.8323 	 
H 	 -43.1516 	 -5.08263 	 13.0299 	 
C 	 -42.8829 	 -3.48195 	 11.6934 	 
H 	 -43.843 	 -3.04974 	 11.8533 	 
H 	 -42.6473 	 -3.43132 	 10.6508 	 
C 	 -41.8217 	 -2.82284 	 12.4713 	 
H 	 -41.761 	 -3.08138 	 13.5128 	 
H 	 -41.8895 	 -1.74531 	 12.3616 	 
H 	 -40.7939 	 -3.05787 	 12.243 	 
H 	 -40.5864 	 -9.00779 	 7.44616 	 
H 	 -47.4353 	 -5.72493 	 10.9929 	 
*
