! wB97X-D3 SP def2-SVP
%pal
nprocs 24
end

* xyz 0 1
S 	 -45.9147 	 9.76323 	 -25.2177 	 
C 	 -46.984 	 8.3553 	 -25.0217 	 
C 	 -48.306 	 8.68787 	 -25.1389 	 
C 	 -48.4469 	 10.023 	 -25.604 	 
C 	 -47.2699 	 10.7671 	 -25.6871 	 
H 	 -49.3876 	 10.5003 	 -25.8066 	 
C 	 -49.4885 	 7.85712 	 -24.6641 	 
H 	 -49.4867 	 7.72942 	 -23.5659 	 
H 	 -49.3311 	 6.77036 	 -24.9297 	 
C 	 -50.8953 	 8.26902 	 -25.1658 	 
H 	 -50.9418 	 9.31586 	 -25.0019 	 
H 	 -50.9854 	 8.19524 	 -26.2611 	 
C 	 -52.1414 	 7.50468 	 -24.5994 	 
H 	 -53.0009 	 7.9463 	 -25.1537 	 
H 	 -51.9997 	 6.44443 	 -24.8291 	 
H 	 -52.2174 	 7.6929 	 -23.5471 	 
S 	 -48.1245 	 12.847 	 -27.1575 	 
C 	 -47.7163 	 14.4432 	 -26.6425 	 
C 	 -46.9524 	 14.4594 	 -25.5246 	 
C 	 -46.5898 	 13.1684 	 -25.0872 	 
C 	 -47.0973 	 12.1925 	 -25.9523 	 
H 	 -46.874 	 15.3135 	 -24.914 	 
C 	 -45.8447 	 13.1017 	 -23.7728 	 
H 	 -45.5212 	 14.0351 	 -23.3929 	 
H 	 -44.9727 	 12.4088 	 -23.9924 	 
C 	 -46.6149 	 12.513 	 -22.6068 	 
H 	 -47.0567 	 11.5815 	 -22.9764 	 
H 	 -47.3966 	 13.1688 	 -22.1871 	 
C 	 -45.5661 	 12.265 	 -21.4309 	 
H 	 -44.529 	 11.8848 	 -21.5938 	 
H 	 -46.0377 	 11.6399 	 -20.6841 	 
H 	 -45.4094 	 13.2654 	 -21.0133 	 
H 	 -46.6965 	 7.49288 	 -24.4415 	 
H 	 -48.2592 	 15.3121 	 -26.9275 	 
*
