! wB97X-D3 SP def2-SVP
%pal
nprocs 24
end

* xyz 0 1
S 	 -41.1876 	 -3.50072 	 -20.378 	 
C 	 -42.5133 	 -4.57821 	 -20.1175 	 
C 	 -42.1051 	 -5.63701 	 -19.2888 	 
C 	 -40.7963 	 -5.48773 	 -18.8012 	 
C 	 -40.1798 	 -4.34013 	 -19.2799 	 
H 	 -40.2441 	 -6.25195 	 -18.2351 	 
C 	 -42.8318 	 -6.89415 	 -19.0872 	 
H 	 -43.8973 	 -6.59241 	 -19.094 	 
H 	 -42.7609 	 -7.36536 	 -18.1466 	 
C 	 -42.5138 	 -7.88245 	 -20.1554 	 
H 	 -43.2742 	 -8.72665 	 -20.053 	 
H 	 -42.6082 	 -7.492 	 -21.2139 	 
C 	 -41.1255 	 -8.49798 	 -20.0424 	 
H 	 -40.38 	 -7.90602 	 -20.5721 	 
H 	 -40.8439 	 -8.665 	 -18.9976 	 
H 	 -41.1791 	 -9.42386 	 -20.5553 	 
S 	 -37.5337 	 -4.24353 	 -20.2996 	 
C 	 -36.2736 	 -3.77834 	 -19.2627 	 
C 	 -36.6581 	 -3.72901 	 -17.997 	 
C 	 -38.0625 	 -3.70639 	 -17.8762 	 
C 	 -38.7626 	 -3.93067 	 -19.0284 	 
H 	 -36.0036 	 -3.76861 	 -17.1956 	 
C 	 -38.7612 	 -3.78233 	 -16.524 	 
H 	 -37.9838 	 -3.84717 	 -15.7686 	 
H 	 -39.2925 	 -4.66898 	 -16.4233 	 
C 	 -39.4923 	 -2.48034 	 -16.093 	 
H 	 -40.2172 	 -2.24063 	 -16.8638 	 
H 	 -38.8406 	 -1.57497 	 -16.1154 	 
C 	 -40.1544 	 -2.7092 	 -14.6874 	 
H 	 -40.3805 	 -3.75379 	 -14.7313 	 
H 	 -41.1439 	 -2.09232 	 -14.5001 	 
H 	 -39.4223 	 -2.54588 	 -13.9403 	 
H 	 -43.4584 	 -4.70149 	 -20.6477 	 
H 	 -35.2509 	 -3.78273 	 -19.5085 	 
*
