! wB97X-D3 SP def2-SVP
%pal
nprocs 24
end

* xyz 0 1
S 	 -98.2771 	 18.0209 	 -122.714 	 
C 	 -97.1435 	 18.5702 	 -121.525 	 
C 	 -97.8028 	 18.7939 	 -120.295 	 
C 	 -99.1928 	 18.7163 	 -120.43 	 
C 	 -99.5837 	 18.4216 	 -121.699 	 
H 	 -99.9129 	 19.015 	 -119.716 	 
C 	 -97.1681 	 19.184 	 -118.978 	 
H 	 -97.7001 	 20.0341 	 -118.537 	 
H 	 -96.121 	 19.6078 	 -119.151 	 
C 	 -97.0853 	 18.0209 	 -117.917 	 
H 	 -97.9228 	 17.3595 	 -118.064 	 
H 	 -96.0944 	 17.4429 	 -117.969 	 
C 	 -97.0772 	 18.5457 	 -116.468 	 
H 	 -97.1064 	 17.7019 	 -115.77 	 
H 	 -96.2048 	 19.1812 	 -116.371 	 
H 	 -97.9678 	 19.1498 	 -116.2 	 
S 	 -101.343 	 18.7522 	 -123.692 	 
C 	 -102.646 	 17.6647 	 -123.865 	 
C 	 -102.846 	 16.8794 	 -122.728 	 
C 	 -101.759 	 17.0159 	 -121.815 	 
C 	 -100.892 	 18.0306 	 -122.174 	 
H 	 -103.697 	 16.2159 	 -122.741 	 
C 	 -101.738 	 16.2897 	 -120.474 	 
H 	 -100.835 	 16.6246 	 -119.965 	 
H 	 -101.564 	 15.2336 	 -120.74 	 
C 	 -102.877 	 16.4009 	 -119.496 	 
H 	 -102.658 	 15.8167 	 -118.699 	 
H 	 -103.772 	 15.9475 	 -119.763 	 
C 	 -103.182 	 17.8822 	 -118.974 	 
H 	 -102.304 	 18.5339 	 -118.963 	 
H 	 -103.608 	 17.8957 	 -117.988 	 
H 	 -103.92 	 18.4193 	 -119.568 	 
H 	 -96.0784 	 18.687 	 -121.658 	 
H 	 -103.359 	 17.778 	 -124.692 	 
*
