! wB97X-D3 SP def2-SVP
%pal
nprocs 24
end

* xyz 0 1
S 	 -70.777 	 6.3474 	 -113.012 	 
C 	 -71.6673 	 6.92421 	 -111.627 	 
C 	 -70.8764 	 7.01235 	 -110.474 	 
C 	 -69.4996 	 6.76916 	 -110.79 	 
C 	 -69.2699 	 6.61408 	 -112.143 	 
H 	 -68.6983 	 6.77766 	 -110.052 	 
C 	 -71.304 	 7.18529 	 -109.007 	 
H 	 -72.2228 	 7.74718 	 -109.037 	 
H 	 -70.6231 	 7.83394 	 -108.48 	 
C 	 -71.5684 	 5.95458 	 -108.312 	 
H 	 -72.1944 	 5.1919 	 -108.927 	 
H 	 -70.5193 	 5.48295 	 -108.238 	 
C 	 -72.1633 	 6.30029 	 -106.969 	 
H 	 -72.3217 	 5.4362 	 -106.365 	 
H 	 -71.5283 	 6.89673 	 -106.461 	 
H 	 -73.1328 	 6.81496 	 -106.983 	 
S 	 -67.7318 	 7.01904 	 -114.435 	 
C 	 -66.2204 	 6.27512 	 -114.517 	 
C 	 -65.9351 	 5.5666 	 -113.389 	 
C 	 -66.9621 	 5.52284 	 -112.39 	 
C 	 -68.0576 	 6.21103 	 -112.877 	 
H 	 -64.9478 	 5.12586 	 -113.353 	 
C 	 -66.6592 	 4.84886 	 -111.032 	 
H 	 -66.5279 	 3.75466 	 -111.232 	 
H 	 -67.4589 	 4.76936 	 -110.435 	 
C 	 -65.4739 	 5.40591 	 -110.166 	 
H 	 -64.5537 	 5.10516 	 -110.634 	 
H 	 -65.334 	 4.89535 	 -109.219 	 
C 	 -65.4459 	 6.9333 	 -109.838 	 
H 	 -66.2936 	 7.28771 	 -109.309 	 
H 	 -65.0528 	 7.49732 	 -110.688 	 
H 	 -64.727 	 6.9268 	 -109.076 	 
H 	 -72.7529 	 7.0026 	 -111.651 	 
H 	 -65.5649 	 6.46635 	 -115.31 	 
*
