! wB97X-D3 SP def2-SVP
%pal
nprocs 24
end

* xyz 0 1
S 	 -104.397 	 37.1804 	 -22.293 	 
C 	 -103.85 	 35.7395 	 -23.08 	 
C 	 -104.559 	 35.4498 	 -24.2178 	 
C 	 -105.659 	 36.3774 	 -24.4112 	 
C 	 -105.705 	 37.3483 	 -23.4436 	 
H 	 -106.383 	 36.3613 	 -25.207 	 
C 	 -104.107 	 34.4603 	 -25.2741 	 
H 	 -103.445 	 34.8922 	 -26.0218 	 
H 	 -104.93 	 34.0633 	 -25.8424 	 
C 	 -103.432 	 33.2003 	 -24.7691 	 
H 	 -102.934 	 32.6576 	 -25.592 	 
H 	 -102.562 	 33.4729 	 -24.1578 	 
C 	 -104.36 	 32.1675 	 -24.0607 	 
H 	 -104.787 	 32.4259 	 -23.1238 	 
H 	 -105.328 	 32.19 	 -24.5557 	 
H 	 -103.971 	 31.1493 	 -23.8966 	 
S 	 -107.229 	 38.8674 	 -21.7859 	 
C 	 -108.188 	 40.2554 	 -22.343 	 
C 	 -108.11 	 40.3287 	 -23.7429 	 
C 	 -107.233 	 39.3632 	 -24.292 	 
C 	 -106.633 	 38.5242 	 -23.3827 	 
H 	 -108.661 	 41.0452 	 -24.2777 	 
C 	 -106.917 	 39.4028 	 -25.8314 	 
H 	 -105.99 	 38.842 	 -25.8926 	 
H 	 -106.552 	 40.3638 	 -26.1086 	 
C 	 -107.927 	 39.0365 	 -26.8984 	 
H 	 -108.835 	 39.6505 	 -26.819 	 
H 	 -108.262 	 37.9983 	 -26.759 	 
C 	 -107.467 	 39.0368 	 -28.3353 	 
H 	 -107.133 	 40.0036 	 -28.6253 	 
H 	 -108.309 	 38.61 	 -28.9263 	 
H 	 -106.62 	 38.474 	 -28.5395 	 
H 	 -102.943 	 35.1446 	 -22.8209 	 
H 	 -108.85 	 40.9315 	 -21.7423 	 
*
