! wB97X-D3 SP def2-SVP
%pal
nprocs 24
end

* xyz 0 1
S 	 -98.4828 	 6.85367 	 1.59266 	 
C 	 -97.2392 	 5.70899 	 1.97478 	 
C 	 -96.7172 	 5.99499 	 3.26258 	 
C 	 -97.4615 	 6.9857 	 3.9572 	 
C 	 -98.2679 	 7.71966 	 3.1251 	 
H 	 -97.3829 	 7.43253 	 4.97622 	 
C 	 -95.6484 	 5.05165 	 3.93274 	 
H 	 -94.7375 	 5.27114 	 3.31956 	 
H 	 -95.9724 	 3.99035 	 3.72103 	 
C 	 -95.3132 	 5.30561 	 5.457 	 
H 	 -95.1588 	 6.35542 	 5.68041 	 
H 	 -96.1705 	 4.88228 	 6.01207 	 
C 	 -94.0659 	 4.64951 	 6.02965 	 
H 	 -94.0978 	 3.57356 	 6.06207 	 
H 	 -93.1805 	 4.98108 	 5.5233 	 
H 	 -94.0258 	 5.12971 	 7.04463 	 
S 	 -100.856 	 8.72654 	 2.97414 	 
C 	 -101.256 	 10.1934 	 3.77872 	 
C 	 -100.169 	 10.7471 	 4.37315 	 
C 	 -98.965 	 10.0363 	 4.16761 	 
C 	 -99.1584 	 8.81748 	 3.47139 	 
H 	 -100.321 	 11.5904 	 5.0293 	 
C 	 -97.5669 	 10.6038 	 4.56878 	 
H 	 -97.6652 	 11.6751 	 4.30581 	 
H 	 -96.7589 	 10.2295 	 3.97439 	 
C 	 -97.1967 	 10.4859 	 6.0543 	 
H 	 -97.2167 	 9.47471 	 6.38297 	 
H 	 -97.9169 	 11.197 	 6.5629 	 
C 	 -95.8902 	 11.1223 	 6.32267 	 
H 	 -95.8331 	 11.2322 	 7.36029 	 
H 	 -95.9144 	 12.2207 	 6.02263 	 
H 	 -94.9775 	 10.6088 	 5.91065 	 
H 	 -96.7502 	 4.90673 	 1.40476 	 
H 	 -102.264 	 10.4963 	 3.71843 	 
*
