! wB97X-D3 SP def2-SVP
%pal
nprocs 24
end

* xyz 0 1
S 	 17.36 	 -13.045 	 -122.576 	 
C 	 15.7616 	 -13.6643 	 -123.032 	 
C 	 14.8492 	 -13.6207 	 -122.027 	 
C 	 15.416 	 -13.1643 	 -120.786 	 
C 	 16.7867 	 -12.8372 	 -120.884 	 
H 	 14.9561 	 -13.1345 	 -119.79 	 
C 	 13.4916 	 -14.2099 	 -122.039 	 
H 	 13.3649 	 -14.8547 	 -121.078 	 
H 	 13.3421 	 -14.821 	 -122.831 	 
C 	 12.4768 	 -13.0603 	 -122.041 	 
H 	 12.5741 	 -12.5548 	 -121.103 	 
H 	 12.7614 	 -12.3071 	 -122.764 	 
C 	 11.0629 	 -13.4769 	 -122.338 	 
H 	 10.6623 	 -14.1114 	 -121.518 	 
H 	 10.4424 	 -12.5954 	 -122.451 	 
H 	 11.0727 	 -14.0649 	 -123.206 	 
S 	 18.0603 	 -10.6592 	 -119.634 	 
C 	 19.0797 	 -10.9436 	 -118.258 	 
C 	 19.0624 	 -12.2497 	 -117.977 	 
C 	 18.2231 	 -13.1111 	 -118.786 	 
C 	 17.6671 	 -12.3745 	 -119.826 	 
H 	 19.5432 	 -12.6275 	 -117.104 	 
C 	 18.1614 	 -14.6038 	 -118.465 	 
H 	 17.156 	 -14.9604 	 -118.535 	 
H 	 18.482 	 -14.7516 	 -117.441 	 
C 	 18.9588 	 -15.4521 	 -119.425 	 
H 	 19.9207 	 -14.999 	 -119.513 	 
H 	 18.7114 	 -15.3243 	 -120.481 	 
C 	 18.9906 	 -16.9406 	 -118.922 	 
H 	 19.8084 	 -17.4988 	 -119.435 	 
H 	 18.0676 	 -17.4783 	 -119.113 	 
H 	 19.3264 	 -16.9504 	 -117.871 	 
H 	 15.564 	 -14.3092 	 -123.927 	 
H 	 19.6477 	 -10.2249 	 -117.711 	 
*
