! wB97X-D3 SP def2-SVP
%pal
nprocs 24
end

* xyz 0 1
S 	 -112.874 	 56.6144 	 -37.7838 	 
C 	 -112.349 	 55.0247 	 -38.539 	 
C 	 -113.146 	 54.6376 	 -39.5736 	 
C 	 -114.353 	 55.4026 	 -39.6348 	 
C 	 -114.34 	 56.5568 	 -38.801 	 
H 	 -115.164 	 55.2705 	 -40.2215 	 
C 	 -112.955 	 53.4037 	 -40.4432 	 
H 	 -112.97 	 52.4794 	 -39.7671 	 
H 	 -111.935 	 53.3109 	 -40.9177 	 
C 	 -113.962 	 53.1887 	 -41.573 	 
H 	 -113.802 	 52.2339 	 -41.9828 	 
H 	 -114.901 	 53.1171 	 -41.105 	 
C 	 -114.004 	 54.3579 	 -42.5761 	 
H 	 -115.028 	 54.5407 	 -42.6118 	 
H 	 -113.475 	 55.2259 	 -42.2693 	 
H 	 -113.723 	 53.9904 	 -43.5319 	 
S 	 -116.214 	 57.4878 	 -37.1697 	 
C 	 -117.397 	 58.6183 	 -37.747 	 
C 	 -117.198 	 58.9666 	 -39.0667 	 
C 	 -116.076 	 58.3312 	 -39.6714 	 
C 	 -115.458 	 57.5045 	 -38.6966 	 
H 	 -117.832 	 59.7187 	 -39.5297 	 
C 	 -115.665 	 58.4499 	 -41.1675 	 
H 	 -114.689 	 57.9463 	 -41.2046 	 
H 	 -115.529 	 59.5667 	 -41.3693 	 
C 	 -116.686 	 57.8644 	 -42.2048 	 
H 	 -117.544 	 58.4915 	 -42.2299 	 
H 	 -116.928 	 56.8781 	 -41.794 	 
C 	 -115.944 	 57.8702 	 -43.5189 	 
H 	 -115.343 	 56.9546 	 -43.5133 	 
H 	 -115.261 	 58.7437 	 -43.5717 	 
H 	 -116.604 	 57.9802 	 -44.3811 	 
H 	 -111.513 	 54.4217 	 -38.1942 	 
H 	 -118.243 	 58.9478 	 -37.1851 	 
*
