! wB97X-D3 SP def2-SVP
%pal
nprocs 24
end

* xyz 0 1
S 	 -102.779 	 20.5876 	 -119.931 	 
C 	 -101.316 	 21.5636 	 -120.156 	 
C 	 -100.453 	 20.8786 	 -121.038 	 
C 	 -101.149 	 19.9392 	 -121.803 	 
C 	 -102.376 	 19.5886 	 -121.295 	 
H 	 -100.732 	 19.3308 	 -122.627 	 
C 	 -98.9919 	 21.1787 	 -121.195 	 
H 	 -98.6368 	 22.0369 	 -120.598 	 
H 	 -98.9009 	 21.5075 	 -122.226 	 
C 	 -98.1855 	 19.9842 	 -120.836 	 
H 	 -98.4008 	 19.2634 	 -121.553 	 
H 	 -97.1087 	 20.1834 	 -120.939 	 
C 	 -98.3949 	 19.6078 	 -119.359 	 
H 	 -97.6169 	 18.8328 	 -119.061 	 
H 	 -98.188 	 20.4561 	 -118.758 	 
H 	 -99.4028 	 19.2004 	 -119.007 	 
S 	 -104.197 	 19.9245 	 -123.301 	 
C 	 -105.118 	 18.5085 	 -123.752 	 
C 	 -104.935 	 17.4328 	 -122.947 	 
C 	 -103.839 	 17.6105 	 -122.052 	 
C 	 -103.44 	 18.9719 	 -122.043 	 
H 	 -105.415 	 16.4692 	 -123.135 	 
C 	 -103.434 	 16.4878 	 -121.1 	 
H 	 -102.403 	 16.6382 	 -120.88 	 
H 	 -103.42 	 15.455 	 -121.526 	 
C 	 -104.191 	 16.512 	 -119.774 	 
H 	 -105.302 	 16.5048 	 -119.933 	 
H 	 -103.9 	 17.4315 	 -119.314 	 
C 	 -103.874 	 15.2986 	 -118.84 	 
H 	 -104.182 	 15.5701 	 -117.835 	 
H 	 -102.816 	 15.2991 	 -118.726 	 
H 	 -104.32 	 14.3173 	 -119.073 	 
H 	 -100.913 	 22.133 	 -119.377 	 
H 	 -105.792 	 18.4226 	 -124.586 	 
*
