! wB97X-D3 SP def2-SVP
%pal
nprocs 24
end

* xyz 0 1
S 	 -44.3071 	 -5.27701 	 -7.85995 	 
C 	 -44.5351 	 -3.83847 	 -6.90635 	 
C 	 -45.4129 	 -2.97732 	 -7.56895 	 
C 	 -45.8339 	 -3.50369 	 -8.83828 	 
C 	 -45.3086 	 -4.75004 	 -9.19094 	 
H 	 -46.6415 	 -2.99893 	 -9.39844 	 
C 	 -45.992 	 -1.70079 	 -6.87272 	 
H 	 -45.6249 	 -1.52402 	 -5.84071 	 
H 	 -47.054 	 -2.07298 	 -6.7693 	 
C 	 -45.8755 	 -0.296844 	 -7.57379 	 
H 	 -44.7918 	 -0.202099 	 -7.79598 	 
H 	 -46.3381 	 -0.285908 	 -8.54501 	 
C 	 -46.4755 	 0.892221 	 -6.77165 	 
H 	 -45.8398 	 1.08208 	 -5.88304 	 
H 	 -46.4448 	 1.89302 	 -7.27549 	 
H 	 -47.5009 	 0.786263 	 -6.46938 	 
S 	 -44.836 	 -4.84126 	 -11.8237 	 
C 	 -45.6076 	 -5.91824 	 -12.8723 	 
C 	 -46.479 	 -6.7375 	 -12.1652 	 
C 	 -46.5328 	 -6.47696 	 -10.7785 	 
C 	 -45.6574 	 -5.44381 	 -10.4554 	 
H 	 -46.9908 	 -7.42522 	 -12.7328 	 
C 	 -47.4143 	 -7.2288 	 -9.81133 	 
H 	 -46.6048 	 -7.68382 	 -9.3215 	 
H 	 -47.8466 	 -8.07785 	 -10.2585 	 
C 	 -48.3704 	 -6.35922 	 -8.96791 	 
H 	 -49.1724 	 -6.10027 	 -9.62008 	 
H 	 -47.9793 	 -5.34085 	 -8.68017 	 
C 	 -49.058 	 -7.06887 	 -7.78518 	 
H 	 -48.3542 	 -7.4138 	 -7.0171 	 
H 	 -49.7449 	 -7.79115 	 -8.13696 	 
H 	 -49.7689 	 -6.3541 	 -7.26499 	 
H 	 -44.3962 	 -3.86678 	 -5.85816 	 
H 	 -45.465 	 -5.93464 	 -13.9821 	 
*
