! wB97X-D3 SP def2-SVP
%pal
nprocs 24
end

* xyz 0 1
S 	 -123.778 	 61.8447 	 -34.8981 	 
C 	 -124.268 	 63.5421 	 -35.1589 	 
C 	 -123.341 	 64.1995 	 -35.9163 	 
C 	 -122.19 	 63.3976 	 -36.2777 	 
C 	 -122.348 	 62.0531 	 -35.868 	 
H 	 -121.213 	 63.5849 	 -36.7973 	 
C 	 -123.454 	 65.6738 	 -36.2088 	 
H 	 -123.192 	 66.3033 	 -35.3906 	 
H 	 -124.495 	 65.8559 	 -36.4834 	 
C 	 -122.704 	 66.1269 	 -37.4612 	 
H 	 -122.869 	 67.1857 	 -37.5504 	 
H 	 -121.607 	 65.9898 	 -37.4091 	 
C 	 -123.184 	 65.4326 	 -38.717 	 
H 	 -122.955 	 64.4128 	 -38.8363 	 
H 	 -124.215 	 65.5009 	 -38.6691 	 
H 	 -122.845 	 65.9019 	 -39.6524 	 
S 	 -121.831 	 59.913 	 -37.6925 	 
C 	 -120.517 	 58.7494 	 -37.2775 	 
C 	 -120.072 	 59.0385 	 -35.9987 	 
C 	 -120.521 	 60.2645 	 -35.4049 	 
C 	 -121.527 	 60.9088 	 -36.1171 	 
H 	 -119.36 	 58.3683 	 -35.4862 	 
C 	 -119.96 	 60.5957 	 -34.0342 	 
H 	 -119.66 	 59.7109 	 -33.4169 	 
H 	 -120.771 	 61.0812 	 -33.4846 	 
C 	 -118.835 	 61.684 	 -34.103 	 
H 	 -119.173 	 62.5225 	 -34.7795 	 
H 	 -117.898 	 61.2515 	 -34.4828 	 
C 	 -118.517 	 62.3757 	 -32.7833 	 
H 	 -119.405 	 62.7603 	 -32.385 	 
H 	 -117.683 	 63.1068 	 -32.8086 	 
H 	 -118.126 	 61.6298 	 -32.0854 	 
H 	 -125.062 	 64.1114 	 -34.7452 	 
H 	 -120.127 	 57.8414 	 -37.7904 	 
*
