! wB97X-D3 SP def2-SVP
%pal
nprocs 24
end

* xyz 0 1
S 	 -137.907 	 8.44762 	 4.24384 	 
C 	 -137.398 	 8.78789 	 2.57302 	 
C 	 -138.473 	 9.25058 	 1.82767 	 
C 	 -139.681 	 9.34092 	 2.62186 	 
C 	 -139.534 	 8.96299 	 3.95861 	 
H 	 -140.642 	 9.59179 	 2.25242 	 
C 	 -138.296 	 9.53647 	 0.293864 	 
H 	 -137.727 	 8.71107 	 -0.179071 	 
H 	 -137.779 	 10.461 	 0.0519708 	 
C 	 -139.637 	 9.59571 	 -0.518998 	 
H 	 -140.073 	 8.64308 	 -0.336412 	 
H 	 -140.337 	 10.3809 	 -0.150831 	 
C 	 -139.603 	 9.81563 	 -1.98878 	 
H 	 -139.314 	 10.8613 	 -2.23189 	 
H 	 -139.118 	 9.01828 	 -2.52192 	 
H 	 -140.655 	 9.84285 	 -2.47624 	 
S 	 -141.074 	 6.98755 	 5.15342 	 
C 	 -142.25 	 7.45262 	 6.28206 	 
C 	 -142.561 	 8.79411 	 6.15514 	 
C 	 -141.612 	 9.50105 	 5.40174 	 
C 	 -140.614 	 8.70688 	 4.87392 	 
H 	 -143.393 	 9.17179 	 6.7599 	 
C 	 -141.612 	 10.9856 	 5.18404 	 
H 	 -142.02 	 11.2054 	 4.20254 	 
H 	 -140.574 	 11.1526 	 5.22849 	 
C 	 -142.37 	 11.8411 	 6.23022 	 
H 	 -142.13 	 11.5493 	 7.20055 	 
H 	 -143.437 	 11.6963 	 6.09554 	 
C 	 -142.211 	 13.3316 	 5.89755 	 
H 	 -142.387 	 13.5769 	 4.85056 	 
H 	 -141.197 	 13.6325 	 6.23443 	 
H 	 -142.915 	 13.8683 	 6.64814 	 
H 	 -136.369 	 8.64967 	 2.09994 	 
H 	 -142.741 	 6.8672 	 7.03435 	 
*
