! wB97X-D3 SP def2-SVP
%pal
nprocs 24
end

* xyz 0 1
S 	 -49.4239 	 22.6572 	 30.0034 	 
C 	 -49.5439 	 21.6934 	 28.5414 	 
C 	 -50.37 	 20.5797 	 28.7397 	 
C 	 -51.059 	 20.539 	 29.9957 	 
C 	 -50.6659 	 21.6028 	 30.8178 	 
H 	 -51.7988 	 19.8844 	 30.3316 	 
C 	 -50.6478 	 19.6225 	 27.6548 	 
H 	 -50.6541 	 18.6469 	 28.2241 	 
H 	 -49.76 	 19.5075 	 27.022 	 
C 	 -51.8695 	 19.8602 	 26.7866 	 
H 	 -51.8888 	 20.8849 	 26.3479 	 
H 	 -51.9568 	 19.17 	 25.8628 	 
C 	 -53.2436 	 19.6549 	 27.4705 	 
H 	 -53.2854 	 18.7496 	 28.1021 	 
H 	 -53.5866 	 20.513 	 28.0592 	 
H 	 -53.895 	 19.6764 	 26.5873 	 
S 	 -49.8097 	 22.0726 	 33.3863 	 
C 	 -50.9675 	 22.3347 	 34.6275 	 
C 	 -52.2379 	 22.1134 	 34.1648 	 
C 	 -52.3586 	 21.8563 	 32.7494 	 
C 	 -51.1171 	 21.847 	 32.1551 	 
H 	 -53.0963 	 22.1358 	 34.8481 	 
C 	 -53.6453 	 21.4819 	 32.0679 	 
H 	 -53.4402 	 20.4377 	 31.7349 	 
H 	 -53.8019 	 22.0943 	 31.228 	 
C 	 -54.9824 	 21.5898 	 32.883 	 
H 	 -55.207 	 22.6415 	 33.3086 	 
H 	 -55.0121 	 20.9705 	 33.7053 	 
C 	 -56.1416 	 21.163 	 31.9531 	 
H 	 -57.094 	 21.4612 	 32.3674 	 
H 	 -56.114 	 20.0613 	 31.7827 	 
H 	 -56.0811 	 21.6236 	 30.965 	 
H 	 -48.8484 	 21.5155 	 27.8016 	 
H 	 -50.8206 	 22.6231 	 35.6472 	 
*
