! wB97X-D3 SP def2-SVP
%pal
nprocs 24
end

* xyz 0 1
S 	 -114.64 	 21.7893 	 -113.769 	 
C 	 -116.233 	 21.52 	 -114.549 	 
C 	 -116.639 	 20.2085 	 -114.345 	 
C 	 -115.682 	 19.4838 	 -113.581 	 
C 	 -114.6 	 20.2169 	 -113.116 	 
H 	 -115.851 	 18.5144 	 -113.128 	 
C 	 -118.039 	 19.6774 	 -114.583 	 
H 	 -118.11 	 18.6067 	 -114.321 	 
H 	 -118.248 	 19.6017 	 -115.655 	 
C 	 -119.132 	 20.4931 	 -113.839 	 
H 	 -119.011 	 20.2992 	 -112.749 	 
H 	 -119.064 	 21.5242 	 -114.184 	 
C 	 -120.544 	 20.0765 	 -114.347 	 
H 	 -120.671 	 20.3106 	 -115.412 	 
H 	 -120.691 	 19.0274 	 -114.139 	 
H 	 -121.333 	 20.5696 	 -113.799 	 
S 	 -112.849 	 21.0147 	 -111.141 	 
C 	 -111.931 	 19.8457 	 -110.2 	 
C 	 -112.413 	 18.5822 	 -110.48 	 
C 	 -113.206 	 18.5201 	 -111.642 	 
C 	 -113.59 	 19.774 	 -112.094 	 
H 	 -112.084 	 17.689 	 -110.086 	 
C 	 -113.635 	 17.1764 	 -112.19 	 
H 	 -113.842 	 17.3363 	 -113.206 	 
H 	 -114.587 	 17.0125 	 -111.73 	 
C 	 -112.8 	 15.9517 	 -111.935 	 
H 	 -113.374 	 15.2262 	 -112.488 	 
H 	 -112.992 	 15.5376 	 -110.945 	 
C 	 -111.414 	 15.8763 	 -112.519 	 
H 	 -111.066 	 14.8208 	 -112.56 	 
H 	 -110.672 	 16.4846 	 -111.941 	 
H 	 -111.537 	 16.324 	 -113.53 	 
H 	 -116.819 	 22.2534 	 -115.138 	 
H 	 -111.326 	 20.1816 	 -109.457 	 
*
