! wB97X-D3 SP def2-SVP
%pal
nprocs 24
end

* xyz 0 1
S 	 -54.8347 	 8.13449 	 24.3773 	 
C 	 -54.6549 	 9.09973 	 22.8834 	 
C 	 -55.6774 	 8.7292 	 22.0114 	 
C 	 -56.4659 	 7.64857 	 22.3998 	 
C 	 -56.1657 	 7.23597 	 23.6766 	 
H 	 -57.246 	 7.23047 	 21.7673 	 
C 	 -55.9601 	 9.6518 	 20.7743 	 
H 	 -54.9795 	 10.0432 	 20.5078 	 
H 	 -56.5236 	 10.5596 	 21.0194 	 
C 	 -56.6483 	 8.97138 	 19.5891 	 
H 	 -56.0597 	 8.02182 	 19.3299 	 
H 	 -57.7248 	 8.79524 	 19.8558 	 
C 	 -56.6341 	 9.87035 	 18.3022 	 
H 	 -57.3887 	 10.6111 	 18.4827 	 
H 	 -55.7159 	 10.4741 	 18.0688 	 
H 	 -56.8756 	 9.3154 	 17.4607 	 
S 	 -57.5969 	 6.43262 	 25.9563 	 
C 	 -57.9294 	 4.79838 	 26.2522 	 
C 	 -57.6169 	 4.10266 	 25.1102 	 
C 	 -56.9871 	 4.81639 	 24.016 	 
C 	 -56.7249 	 6.08559 	 24.3884 	 
H 	 -57.8776 	 3.04696 	 25.0334 	 
C 	 -56.6499 	 4.17523 	 22.7346 	 
H 	 -56.0709 	 3.26725 	 22.9385 	 
H 	 -55.9397 	 4.82817 	 22.127 	 
C 	 -57.8529 	 3.80895 	 21.9017 	 
H 	 -58.5356 	 4.65806 	 21.8872 	 
H 	 -58.444 	 2.98565 	 22.231 	 
C 	 -57.422 	 3.48969 	 20.4441 	 
H 	 -56.6928 	 4.18075 	 19.9953 	 
H 	 -58.3642 	 3.45917 	 19.8593 	 
H 	 -57.0642 	 2.45466 	 20.4435 	 
H 	 -54.1488 	 10.0832 	 22.8679 	 
H 	 -58.4475 	 4.25463 	 27.0641 	 
*
