! wB97X-D3 SP def2-SVP
%pal
nprocs 24
end

* xyz 0 1
S 	 -30.7293 	 15.1397 	 11.4683 	 
C 	 -31.4237 	 13.5408 	 11.7265 	 
C 	 -30.4416 	 12.5432 	 11.8084 	 
C 	 -29.1838 	 13.0819 	 11.4627 	 
C 	 -29.134 	 14.4396 	 11.1465 	 
H 	 -28.2282 	 12.529 	 11.3266 	 
C 	 -30.672 	 11.0091 	 11.9779 	 
H 	 -29.7812 	 10.4417 	 11.6705 	 
H 	 -31.4469 	 10.7947 	 11.2896 	 
C 	 -31.0888 	 10.6023 	 13.4442 	 
H 	 -30.2472 	 10.895 	 14.1256 	 
H 	 -31.9905 	 11.0529 	 13.6719 	 
C 	 -31.3102 	 9.098 	 13.6145 	 
H 	 -31.3323 	 8.83886 	 14.6887 	 
H 	 -32.3182 	 8.76623 	 13.2336 	 
H 	 -30.5692 	 8.55477 	 13.1064 	 
S 	 -27.5006 	 16.0612 	 9.75364 	 
C 	 -25.9328 	 16.5618 	 10.469 	 
C 	 -25.9852 	 16.349 	 11.8234 	 
C 	 -27.0924 	 15.5323 	 12.229 	 
C 	 -27.9563 	 15.2844 	 11.1906 	 
H 	 -25.1932 	 16.751 	 12.4628 	 
C 	 -27.2878 	 15.1903 	 13.689 	 
H 	 -26.4027 	 15.0151 	 14.2617 	 
H 	 -27.6831 	 14.1701 	 13.6766 	 
C 	 -28.2468 	 16.0944 	 14.4671 	 
H 	 -29.1691 	 16.1033 	 13.8444 	 
H 	 -27.8413 	 17.1631 	 14.4445 	 
C 	 -28.5942 	 15.5993 	 15.8316 	 
H 	 -29.347 	 16.2046 	 16.3779 	 
H 	 -27.7178 	 15.7588 	 16.4826 	 
H 	 -28.8161 	 14.4734 	 15.8525 	 
H 	 -32.4888 	 13.2243 	 11.9764 	 
H 	 -25.0603 	 17.0847 	 9.98013 	 
*
