! wB97X-D3 SP def2-SVP
%pal
nprocs 24
end

* xyz 0 1
S 	 -45.1117 	 22.04 	 30.3225 	 
C 	 -44.9806 	 21.8797 	 28.58 	 
C 	 -45.4226 	 23.0535 	 27.9398 	 
C 	 -45.7957 	 24.1053 	 28.8263 	 
C 	 -45.6851 	 23.7182 	 30.1728 	 
H 	 -46.1493 	 25.1237 	 28.5992 	 
C 	 -45.67 	 23.0923 	 26.4402 	 
H 	 -44.7887 	 22.5923 	 26.0289 	 
H 	 -45.5889 	 24.1513 	 26.1324 	 
C 	 -46.8681 	 22.3927 	 25.8532 	 
H 	 -47.1483 	 22.8362 	 24.8853 	 
H 	 -46.6297 	 21.3264 	 25.7005 	 
C 	 -48.1556 	 22.5793 	 26.6524 	 
H 	 -48.2061 	 21.8445 	 27.4896 	 
H 	 -48.1327 	 23.4934 	 27.1985 	 
H 	 -49.1287 	 22.5778 	 26.1429 	 
S 	 -46.8147 	 23.7544 	 32.6847 	 
C 	 -47.2438 	 25.255 	 33.3742 	 
C 	 -46.5536 	 26.2941 	 32.7335 	 
C 	 -45.9337 	 25.8886 	 31.5126 	 
C 	 -46.0533 	 24.5271 	 31.3171 	 
H 	 -46.5898 	 27.3574 	 33.1661 	 
C 	 -45.2201 	 26.893 	 30.6609 	 
H 	 -44.9047 	 26.4823 	 29.696 	 
H 	 -44.3705 	 27.2038 	 31.2182 	 
C 	 -46.0189 	 28.1081 	 30.1819 	 
H 	 -45.3352 	 28.7147 	 29.6445 	 
H 	 -46.1482 	 28.7289 	 31.1017 	 
C 	 -47.3997 	 27.7038 	 29.5845 	 
H 	 -47.8783 	 28.7213 	 29.2555 	 
H 	 -48.0942 	 27.3337 	 30.3514 	 
H 	 -47.2772 	 27.0608 	 28.7392 	 
H 	 -44.7679 	 20.9219 	 28.0757 	 
H 	 -47.7656 	 25.2858 	 34.3262 	 
*
