! wB97X-D3 SP def2-SVP
%pal
nprocs 24
end

* xyz 0 1
S 	 -51.4942 	 19.8571 	 22.3404 	 
C 	 -51.5729 	 21.137 	 23.5066 	 
C 	 -50.346 	 21.6982 	 23.6701 	 
C 	 -49.3646 	 21.2955 	 22.7285 	 
C 	 -49.8273 	 20.2681 	 21.9258 	 
H 	 -48.3157 	 21.4702 	 22.6156 	 
C 	 -50.0895 	 22.7756 	 24.7279 	 
H 	 -50.6737 	 22.43 	 25.606 	 
H 	 -50.4627 	 23.7189 	 24.2821 	 
C 	 -48.6272 	 23.0402 	 25.0902 	 
H 	 -48.0731 	 23.4187 	 24.1872 	 
H 	 -48.7452 	 23.8988 	 25.6914 	 
C 	 -47.9988 	 21.7882 	 25.7609 	 
H 	 -48.5808 	 21.4855 	 26.7081 	 
H 	 -48.1339 	 20.8695 	 25.0772 	 
H 	 -46.963 	 21.9642 	 26.1076 	 
S 	 -48.5194 	 20.3798 	 19.5085 	 
C 	 -47.6887 	 19.0065 	 18.917 	 
C 	 -47.9097 	 17.8977 	 19.7201 	 
C 	 -48.6946 	 18.1337 	 20.8967 	 
C 	 -49.1071 	 19.4869 	 20.9203 	 
H 	 -47.5309 	 16.967 	 19.4185 	 
C 	 -48.997 	 17.1174 	 21.9565 	 
H 	 -49.3594 	 16.1848 	 21.5082 	 
H 	 -49.8812 	 17.4909 	 22.5868 	 
C 	 -47.7594 	 16.8267 	 22.7766 	 
H 	 -46.9158 	 16.5108 	 22.1916 	 
H 	 -47.9138 	 15.8555 	 23.2503 	 
C 	 -47.4732 	 18.0174 	 23.7139 	 
H 	 -48.2743 	 18.0985 	 24.4832 	 
H 	 -47.2944 	 18.895 	 23.2272 	 
H 	 -46.5839 	 17.6796 	 24.2953 	 
H 	 -52.6012 	 21.4121 	 23.9398 	 
H 	 -47.0063 	 19.0467 	 18.0791 	 
*
