! wB97X-D3 SP def2-SVP
%pal
nprocs 24
end

* xyz 0 1
S 	 35.7623 	 -32.5221 	 -129.921 	 
C 	 37.3878 	 -32.4029 	 -129.343 	 
C 	 38.0795 	 -33.6172 	 -129.576 	 
C 	 37.2284 	 -34.5356 	 -130.213 	 
C 	 35.9473 	 -34.1531 	 -130.336 	 
H 	 37.4593 	 -35.489 	 -130.573 	 
C 	 39.5786 	 -33.8697 	 -129.217 	 
H 	 39.7095 	 -34.9603 	 -128.806 	 
H 	 39.7431 	 -33.2125 	 -128.344 	 
C 	 40.5865 	 -33.4605 	 -130.292 	 
H 	 41.5243 	 -33.9433 	 -130.093 	 
H 	 40.3575 	 -33.8044 	 -131.316 	 
C 	 40.8896 	 -31.9353 	 -130.338 	 
H 	 41.6049 	 -31.7405 	 -131.109 	 
H 	 40.007 	 -31.3023 	 -130.55 	 
H 	 41.2689 	 -31.4501 	 -129.416 	 
S 	 33.9271 	 -34.1546 	 -132.21 	 
C 	 32.8686 	 -35.4852 	 -132.298 	 
C 	 33.0985 	 -36.3552 	 -131.244 	 
C 	 34.2071 	 -36.0273 	 -130.423 	 
C 	 34.8398 	 -34.8134 	 -130.872 	 
H 	 32.6623 	 -37.3042 	 -131.166 	 
C 	 34.7561 	 -36.9896 	 -129.337 	 
H 	 35.8806 	 -37.1567 	 -129.468 	 
H 	 34.2943 	 -37.9513 	 -129.527 	 
C 	 34.4533 	 -36.5427 	 -127.866 	 
H 	 33.455 	 -36.4816 	 -127.623 	 
H 	 34.8342 	 -35.5656 	 -127.636 	 
C 	 35.0558 	 -37.5453 	 -126.886 	 
H 	 34.9472 	 -37.0778 	 -125.959 	 
H 	 36.0944 	 -37.7453 	 -126.971 	 
H 	 34.4254 	 -38.4819 	 -127.044 	 
H 	 37.7346 	 -31.5829 	 -128.762 	 
H 	 32.0077 	 -35.481 	 -132.866 	 
*
