! wB97X-D3 SP def2-SVP
%pal
nprocs 24
end

* xyz 0 1
S 	 -109.612 	 54.525 	 -89.7336 	 
C 	 -110.548 	 54.1843 	 -88.3403 	 
C 	 -109.912 	 54.6481 	 -87.1875 	 
C 	 -108.535 	 55.072 	 -87.3746 	 
C 	 -108.268 	 55.0474 	 -88.685 	 
H 	 -107.761 	 55.2673 	 -86.5977 	 
C 	 -110.543 	 54.3478 	 -85.8143 	 
H 	 -111.452 	 53.7449 	 -86.0201 	 
H 	 -110.847 	 55.3376 	 -85.3571 	 
C 	 -109.723 	 53.4763 	 -84.856 	 
H 	 -108.756 	 54.0718 	 -84.8782 	 
H 	 -110.228 	 53.4865 	 -83.8723 	 
C 	 -109.391 	 52.0073 	 -85.1134 	 
H 	 -110.343 	 51.5811 	 -85.4033 	 
H 	 -108.804 	 51.8208 	 -86.017 	 
H 	 -108.883 	 51.3809 	 -84.3719 	 
S 	 -106.179 	 53.6917 	 -89.9197 	 
C 	 -104.843 	 54.6233 	 -90.5706 	 
C 	 -104.92 	 55.9171 	 -90.2051 	 
C 	 -106.07 	 56.2688 	 -89.4568 	 
C 	 -106.939 	 55.2138 	 -89.3586 	 
H 	 -104.097 	 56.6347 	 -90.3366 	 
C 	 -106.286 	 57.5992 	 -88.7877 	 
H 	 -105.325 	 58.0663 	 -88.5963 	 
H 	 -106.864 	 57.4416 	 -87.8475 	 
C 	 -106.999 	 58.6535 	 -89.6135 	 
H 	 -107.735 	 57.9779 	 -90.2213 	 
H 	 -106.336 	 59.169 	 -90.3851 	 
C 	 -107.753 	 59.6352 	 -88.6934 	 
H 	 -108.106 	 60.4925 	 -89.3216 	 
H 	 -107.081 	 60.1578 	 -88.0247 	 
H 	 -108.6 	 59.2255 	 -88.1761 	 
H 	 -111.528 	 53.7675 	 -88.3126 	 
H 	 -104.027 	 54.2821 	 -91.1525 	 
*
