! wB97X-D3 SP def2-SVP
%pal
nprocs 24
end

* xyz 0 1
S 	 -106.462 	 47.6856 	 -95.977 	 
C 	 -106.799 	 49.4132 	 -95.5804 	 
C 	 -107.037 	 50.0679 	 -96.7678 	 
C 	 -107.294 	 49.1752 	 -97.921 	 
C 	 -106.904 	 47.8891 	 -97.6781 	 
H 	 -107.731 	 49.5114 	 -98.8547 	 
C 	 -107.29 	 51.5952 	 -96.7824 	 
H 	 -106.529 	 51.9028 	 -97.4807 	 
H 	 -106.933 	 51.9837 	 -95.832 	 
C 	 -108.657 	 52.1345 	 -97.1874 	 
H 	 -108.838 	 53.2051 	 -96.8879 	 
H 	 -108.759 	 51.9832 	 -98.2614 	 
C 	 -109.876 	 51.3284 	 -96.7297 	 
H 	 -110.15 	 50.3205 	 -97.0736 	 
H 	 -109.804 	 51.3067 	 -95.6479 	 
H 	 -110.759 	 51.8881 	 -97.1815 	 
S 	 -107.738 	 45.332 	 -97.9638 	 
C 	 -107.404 	 44.445 	 -99.3485 	 
C 	 -106.855 	 45.2375 	 -100.326 	 
C 	 -106.602 	 46.5926 	 -99.8762 	 
C 	 -106.937 	 46.7168 	 -98.5429 	 
H 	 -106.554 	 44.8292 	 -101.288 	 
C 	 -106.011 	 47.6973 	 -100.782 	 
H 	 -106.031 	 48.5408 	 -100.151 	 
H 	 -106.779 	 47.8108 	 -101.554 	 
C 	 -104.624 	 47.5059 	 -101.302 	 
H 	 -104.659 	 46.726 	 -102.102 	 
H 	 -103.964 	 47.1648 	 -100.477 	 
C 	 -104.052 	 48.7957 	 -101.929 	 
H 	 -103.08 	 48.6251 	 -102.194 	 
H 	 -104.137 	 49.711 	 -101.335 	 
H 	 -104.529 	 48.9445 	 -102.864 	 
H 	 -106.625 	 49.8883 	 -94.6741 	 
H 	 -107.503 	 43.3841 	 -99.4458 	 
*
