! wB97X-D3 SP def2-SVP
%pal
nprocs 24
end

* xyz 0 1
S 	 -134.333 	 65.8761 	 -61.7511 	 
C 	 -133.384 	 67.3459 	 -62.1349 	 
C 	 -134.092 	 68.1487 	 -62.9384 	 
C 	 -135.429 	 67.689 	 -63.2675 	 
C 	 -135.733 	 66.4671 	 -62.6236 	 
H 	 -136.142 	 68.1392 	 -63.9165 	 
C 	 -133.383 	 69.2522 	 -63.6579 	 
H 	 -132.35 	 69.3111 	 -63.3948 	 
H 	 -133.88 	 70.1652 	 -63.384 	 
C 	 -133.371 	 69.1419 	 -65.1256 	 
H 	 -134.355 	 69.0792 	 -65.5607 	 
H 	 -132.891 	 70.0448 	 -65.5023 	 
C 	 -132.489 	 68.0102 	 -65.5935 	 
H 	 -132.642 	 67.8823 	 -66.6344 	 
H 	 -131.449 	 68.1318 	 -65.2464 	 
H 	 -132.791 	 67.073 	 -65.2048 	 
S 	 -137.334 	 64.966 	 -64.2825 	 
C 	 -138.451 	 63.8769 	 -63.6147 	 
C 	 -138.508 	 63.9754 	 -62.1949 	 
C 	 -137.747 	 65.0458 	 -61.6483 	 
C 	 -136.981 	 65.6452 	 -62.6431 	 
H 	 -139.084 	 63.2949 	 -61.61 	 
C 	 -137.691 	 65.2576 	 -60.1139 	 
H 	 -138.653 	 65.5083 	 -59.7025 	 
H 	 -137.039 	 66.1747 	 -59.9145 	 
C 	 -137.347 	 64.0559 	 -59.2541 	 
H 	 -138.101 	 63.2794 	 -59.4071 	 
H 	 -137.477 	 64.2649 	 -58.1745 	 
C 	 -135.948 	 63.3929 	 -59.5416 	 
H 	 -135.158 	 64.0469 	 -59.1361 	 
H 	 -135.84 	 63.2922 	 -60.6228 	 
H 	 -135.881 	 62.4526 	 -58.9833 	 
H 	 -132.333 	 67.475 	 -61.7929 	 
H 	 -139.066 	 63.1454 	 -64.1507 	 
*
