! wB97X-D3 SP def2-SVP
%pal
nprocs 24
end

* xyz 0 1
S 	 -110.222 	 54.6705 	 -89.6085 	 
C 	 -110.141 	 53.2153 	 -90.6395 	 
C 	 -109.833 	 52.1434 	 -89.7358 	 
C 	 -109.565 	 52.5143 	 -88.3638 	 
C 	 -109.633 	 53.8627 	 -88.1101 	 
H 	 -109.428 	 51.7983 	 -87.6152 	 
C 	 -109.761 	 50.6972 	 -90.325 	 
H 	 -109.176 	 50.9355 	 -91.1973 	 
H 	 -110.751 	 50.3667 	 -90.5707 	 
C 	 -109.132 	 49.6311 	 -89.39 	 
H 	 -108.278 	 49.9832 	 -88.8122 	 
H 	 -109.876 	 49.4226 	 -88.6555 	 
C 	 -108.934 	 48.2981 	 -90.1215 	 
H 	 -108.265 	 47.5619 	 -89.5617 	 
H 	 -109.9 	 47.7591 	 -90.0891 	 
H 	 -108.632 	 48.4127 	 -91.1396 	 
S 	 -110.806 	 55.466 	 -86.3233 	 
C 	 -110.094 	 55.6288 	 -84.7275 	 
C 	 -108.936 	 54.9029 	 -84.6031 	 
C 	 -108.626 	 54.1805 	 -85.8036 	 
C 	 -109.536 	 54.4949 	 -86.8265 	 
H 	 -108.526 	 55.0013 	 -83.677 	 
C 	 -107.452 	 53.1804 	 -85.8918 	 
H 	 -106.584 	 53.7662 	 -85.4783 	 
H 	 -107.193 	 52.9753 	 -86.9649 	 
C 	 -107.739 	 51.9219 	 -85.0734 	 
H 	 -107.069 	 51.1205 	 -85.4659 	 
H 	 -108.653 	 51.516 	 -85.1576 	 
C 	 -107.438 	 52.147 	 -83.5751 	 
H 	 -108.242 	 52.81 	 -83.2325 	 
H 	 -106.524 	 52.6971 	 -83.4354 	 
H 	 -107.189 	 51.2979 	 -82.8773 	 
H 	 -110.257 	 53.2102 	 -91.7025 	 
H 	 -110.467 	 55.9913 	 -83.8127 	 
*
