! wB97X-D3 SP def2-SVP
%pal
nprocs 24
end

* xyz 0 1
S 	 -41.9206 	 -51.691 	 -69.3028 	 
C 	 -40.2101 	 -51.2072 	 -69.1079 	 
C 	 -39.4004 	 -51.7633 	 -70.075 	 
C 	 -40.1737 	 -52.3476 	 -71.1404 	 
C 	 -41.55 	 -52.2916 	 -70.9275 	 
H 	 -39.7189 	 -52.8301 	 -72.0295 	 
C 	 -37.8852 	 -51.6761 	 -70.1618 	 
H 	 -37.5931 	 -51.4094 	 -69.1156 	 
H 	 -37.532 	 -50.8238 	 -70.777 	 
C 	 -37.1517 	 -52.8728 	 -70.5427 	 
H 	 -37.5007 	 -53.2296 	 -71.5388 	 
H 	 -36.0837 	 -52.6114 	 -70.5628 	 
C 	 -37.3228 	 -53.9887 	 -69.5392 	 
H 	 -36.8557 	 -54.909 	 -69.8997 	 
H 	 -36.6976 	 -53.651 	 -68.6555 	 
H 	 -38.3531 	 -54.1063 	 -69.3444 	 
S 	 -43.5882 	 -51.3235 	 -72.4513 	 
C 	 -44.626 	 -52.3996 	 -73.394 	 
C 	 -44.0129 	 -53.6138 	 -73.5484 	 
C 	 -42.816 	 -53.731 	 -72.7404 	 
C 	 -42.5277 	 -52.6255 	 -71.9196 	 
H 	 -44.4715 	 -54.4248 	 -74.0325 	 
C 	 -42.0879 	 -55.0842 	 -72.66 	 
H 	 -41.3405 	 -55.0093 	 -71.8366 	 
H 	 -41.4309 	 -55.3703 	 -73.564 	 
C 	 -42.924 	 -56.3424 	 -72.4253 	 
H 	 -43.5736 	 -56.7018 	 -73.3038 	 
H 	 -43.6873 	 -56.129 	 -71.69 	 
C 	 -42.084 	 -57.6226 	 -72.1678 	 
H 	 -42.7458 	 -58.411 	 -71.6633 	 
H 	 -41.2653 	 -57.3583 	 -71.5582 	 
H 	 -41.7983 	 -57.9739 	 -73.173 	 
H 	 -39.8933 	 -50.5588 	 -68.3369 	 
H 	 -45.5369 	 -52.1439 	 -73.8871 	 
*
