! wB97X-D3 SP def2-SVP
%pal
nprocs 24
end

* xyz 0 1
S 	 21.1542 	 -5.88011 	 -112.611 	 
C 	 22.3108 	 -7.15551 	 -112.426 	 
C 	 23.5847 	 -6.65275 	 -112.353 	 
C 	 23.6158 	 -5.22167 	 -112.527 	 
C 	 22.3772 	 -4.64387 	 -112.689 	 
H 	 24.4779 	 -4.52745 	 -112.574 	 
C 	 24.8412 	 -7.49934 	 -112.199 	 
H 	 25.4786 	 -7.28348 	 -113.093 	 
H 	 24.6297 	 -8.47128 	 -112.569 	 
C 	 25.6257 	 -7.48573 	 -110.878 	 
H 	 25.7796 	 -6.49923 	 -110.45 	 
H 	 24.9398 	 -7.98038 	 -110.195 	 
C 	 26.9901 	 -8.183 	 -110.809 	 
H 	 27.7564 	 -7.44964 	 -111.028 	 
H 	 27.1841 	 -8.62352 	 -109.756 	 
H 	 27.1236 	 -9.07234 	 -111.449 	 
S 	 20.9545 	 -2.82665 	 -114.403 	 
C 	 21.1332 	 -1.11198 	 -114.059 	 
C 	 21.8886 	 -0.953083 	 -112.927 	 
C 	 22.369 	 -2.10052 	 -112.29 	 
C 	 22.0423 	 -3.2629 	 -112.994 	 
H 	 22.1632 	 -0.00949387 	 -112.465 	 
C 	 23.2089 	 -2.04802 	 -111.006 	 
H 	 23.7761 	 -1.14539 	 -111.3 	 
H 	 23.9115 	 -2.92169 	 -110.985 	 
C 	 22.3341 	 -1.87984 	 -109.682 	 
H 	 21.855 	 -2.81876 	 -109.342 	 
H 	 21.5355 	 -1.19294 	 -109.851 	 
C 	 23.0537 	 -1.22731 	 -108.465 	 
H 	 23.759 	 -0.499155 	 -108.762 	 
H 	 23.6085 	 -1.98015 	 -107.981 	 
H 	 22.3331 	 -0.700875 	 -107.755 	 
H 	 21.9703 	 -8.21288 	 -112.209 	 
H 	 20.7265 	 -0.25472 	 -114.69 	 
*
