! wB97X-D3 SP def2-SVP
%pal
nprocs 24
end

* xyz 0 1
S 	 -105.454 	 60.7546 	 -99.6295 	 
C 	 -106.774 	 60.3642 	 -100.69 	 
C 	 -106.362 	 59.6936 	 -101.822 	 
C 	 -104.944 	 59.3595 	 -101.739 	 
C 	 -104.371 	 59.7813 	 -100.534 	 
H 	 -104.257 	 58.9604 	 -102.537 	 
C 	 -107.247 	 59.4867 	 -103.041 	 
H 	 -108.225 	 59.1269 	 -102.7 	 
H 	 -106.758 	 58.6355 	 -103.468 	 
C 	 -107.397 	 60.6962 	 -104.027 	 
H 	 -106.34 	 60.8451 	 -104.288 	 
H 	 -107.972 	 60.2421 	 -104.836 	 
C 	 -107.964 	 62.0808 	 -103.519 	 
H 	 -109.01 	 61.977 	 -103.272 	 
H 	 -107.346 	 62.4781 	 -102.794 	 
H 	 -107.983 	 62.8328 	 -104.292 	 
S 	 -102.667 	 59.0468 	 -98.5661 	 
C 	 -100.931 	 58.8729 	 -98.742 	 
C 	 -100.593 	 59.2958 	 -100.005 	 
C 	 -101.76 	 59.5069 	 -100.841 	 
C 	 -102.995 	 59.458 	 -100.15 	 
H 	 -99.5777 	 59.2117 	 -100.364 	 
C 	 -101.459 	 60.0113 	 -102.298 	 
H 	 -100.581 	 60.6059 	 -102.255 	 
H 	 -102.167 	 60.744 	 -102.64 	 
C 	 -101.131 	 58.917 	 -103.322 	 
H 	 -101.924 	 58.2887 	 -103.591 	 
H 	 -100.486 	 58.3251 	 -102.877 	 
C 	 -100.553 	 59.4927 	 -104.637 	 
H 	 -101.301 	 60.067 	 -105.216 	 
H 	 -99.9929 	 58.7581 	 -105.201 	 
H 	 -99.8362 	 60.2705 	 -104.464 	 
H 	 -107.749 	 60.7547 	 -100.471 	 
H 	 -100.312 	 58.4696 	 -97.9652 	 
*
