! wB97X-D3 SP def2-SVP
%pal
nprocs 24
end

* xyz 0 1
S 	 -56.726 	 18.5173 	 -90.4816 	 
C 	 -55.739 	 19.3189 	 -89.2463 	 
C 	 -55.2471 	 18.4157 	 -88.3235 	 
C 	 -55.8451 	 17.0915 	 -88.5513 	 
C 	 -56.6378 	 17.0007 	 -89.7109 	 
H 	 -55.741 	 16.2638 	 -87.9388 	 
C 	 -54.3786 	 18.644 	 -87.1545 	 
H 	 -54.5948 	 17.7943 	 -86.4228 	 
H 	 -54.6127 	 19.6505 	 -86.829 	 
C 	 -52.8902 	 18.5746 	 -87.4581 	 
H 	 -52.7157 	 18.9803 	 -88.4696 	 
H 	 -52.4076 	 19.3143 	 -86.8502 	 
C 	 -52.3435 	 17.1584 	 -87.2181 	 
H 	 -52.6252 	 16.643 	 -86.2774 	 
H 	 -52.6567 	 16.4057 	 -87.9464 	 
H 	 -51.2583 	 17.1479 	 -87.2316 	 
S 	 -59.1073 	 15.9478 	 -90.3841 	 
C 	 -59.2034 	 14.2809 	 -90.8541 	 
C 	 -58.0266 	 13.611 	 -90.6388 	 
C 	 -56.9643 	 14.4891 	 -90.3208 	 
C 	 -57.3861 	 15.8146 	 -90.1458 	 
H 	 -57.9845 	 12.4888 	 -90.8346 	 
C 	 -55.5255 	 14.0355 	 -90.0643 	 
H 	 -55.5209 	 12.9908 	 -89.9406 	 
H 	 -55.0375 	 14.5418 	 -89.1015 	 
C 	 -54.6196 	 14.4644 	 -91.1889 	 
H 	 -54.5907 	 15.5726 	 -91.3549 	 
H 	 -54.883 	 14.0074 	 -92.1401 	 
C 	 -53.2105 	 13.9725 	 -90.9675 	 
H 	 -53.0636 	 12.8657 	 -90.9895 	 
H 	 -52.908 	 13.99 	 -89.9611 	 
H 	 -52.3468 	 14.4341 	 -91.5147 	 
H 	 -55.4244 	 20.3727 	 -89.198 	 
H 	 -60.1484 	 13.781 	 -91.1967 	 
*
