! wB97X-D3 SP def2-SVP
%pal
nprocs 24
end

* xyz 0 1
S 	 -113.976 	 16.6727 	 -117.181 	 
C 	 -114.023 	 18.0582 	 -118.224 	 
C 	 -114.641 	 19.1099 	 -117.521 	 
C 	 -114.903 	 18.783 	 -116.147 	 
C 	 -114.464 	 17.5466 	 -115.755 	 
H 	 -115.584 	 19.366 	 -115.409 	 
C 	 -114.882 	 20.4303 	 -118.116 	 
H 	 -115.965 	 20.5331 	 -118.077 	 
H 	 -114.585 	 20.4394 	 -119.147 	 
C 	 -114.302 	 21.6674 	 -117.451 	 
H 	 -114.927 	 22.4713 	 -117.829 	 
H 	 -114.554 	 21.5768 	 -116.446 	 
C 	 -112.836 	 21.9001 	 -117.795 	 
H 	 -112.799 	 21.8032 	 -118.9 	 
H 	 -112.512 	 22.8567 	 -117.463 	 
H 	 -112.183 	 21.1411 	 -117.378 	 
S 	 -115.095 	 15.159 	 -114.418 	 
C 	 -115.471 	 15.15 	 -112.778 	 
C 	 -115.29 	 16.3963 	 -112.198 	 
C 	 -114.976 	 17.4534 	 -113.131 	 
C 	 -114.79 	 16.9128 	 -114.445 	 
H 	 -115.354 	 16.4204 	 -111.134 	 
C 	 -114.751 	 18.9143 	 -112.769 	 
H 	 -115.669 	 19.3512 	 -112.419 	 
H 	 -114.57 	 19.5438 	 -113.67 	 
C 	 -113.618 	 19.0715 	 -111.72 	 
H 	 -112.763 	 18.7205 	 -112.198 	 
H 	 -113.605 	 18.457 	 -110.82 	 
C 	 -113.26 	 20.4697 	 -111.366 	 
H 	 -113.94 	 20.8555 	 -110.608 	 
H 	 -113.282 	 21.2543 	 -112.17 	 
H 	 -112.219 	 20.4516 	 -110.979 	 
H 	 -113.823 	 18.1295 	 -119.254 	 
H 	 -116.057 	 14.3227 	 -112.375 	 
*
