! wB97X-D3 SP def2-SVP
%pal
nprocs 24
end

* xyz 0 1
S 	 -115.544 	 59.5547 	 -90.0853 	 
C 	 -114.471 	 59.7692 	 -88.6972 	 
C 	 -113.391 	 58.8714 	 -88.7063 	 
C 	 -113.454 	 58.1258 	 -89.9145 	 
C 	 -114.509 	 58.3693 	 -90.804 	 
H 	 -112.706 	 57.4379 	 -90.2186 	 
C 	 -112.202 	 58.8215 	 -87.7598 	 
H 	 -111.941 	 57.7553 	 -87.6299 	 
H 	 -112.536 	 59.1917 	 -86.751 	 
C 	 -110.953 	 59.5287 	 -88.3643 	 
H 	 -110.166 	 59.3825 	 -87.6756 	 
H 	 -110.726 	 58.9885 	 -89.3219 	 
C 	 -111.087 	 61.005 	 -88.6718 	 
H 	 -111.952 	 61.1442 	 -89.3236 	 
H 	 -111.489 	 61.6519 	 -87.8627 	 
H 	 -110.245 	 61.4429 	 -89.2359 	 
S 	 -115.141 	 59.0457 	 -93.3931 	 
C 	 -115.006 	 57.8379 	 -94.696 	 
C 	 -114.876 	 56.5685 	 -94.1661 	 
C 	 -114.741 	 56.5943 	 -92.6976 	 
C 	 -114.736 	 57.8834 	 -92.1991 	 
H 	 -114.811 	 55.7583 	 -94.8561 	 
C 	 -114.418 	 55.2944 	 -91.9244 	 
H 	 -115.347 	 54.7044 	 -91.9335 	 
H 	 -114.23 	 55.6147 	 -90.9087 	 
C 	 -113.226 	 54.5509 	 -92.4353 	 
H 	 -112.371 	 55.1564 	 -92.5059 	 
H 	 -113.498 	 54.2483 	 -93.4355 	 
C 	 -112.907 	 53.2862 	 -91.6459 	 
H 	 -112.342 	 53.52 	 -90.7081 	 
H 	 -112.192 	 52.6578 	 -92.0963 	 
H 	 -113.794 	 52.7004 	 -91.4397 	 
H 	 -114.562 	 60.563 	 -87.9348 	 
H 	 -115.005 	 58.0068 	 -95.7969 	 
*
