! wB97X-D3 SP def2-SVP
%pal
nprocs 24
end

* xyz 0 1
S 	 -130.971 	 23.5443 	 -18.76 	 
C 	 -132.038 	 22.185 	 -19.1481 	 
C 	 -133.36 	 22.5887 	 -18.9849 	 
C 	 -133.565 	 23.8769 	 -18.5432 	 
C 	 -132.364 	 24.542 	 -18.3034 	 
H 	 -134.529 	 24.3639 	 -18.4098 	 
C 	 -134.514 	 21.5643 	 -19.0305 	 
H 	 -134.034 	 20.5764 	 -19.2663 	 
H 	 -135.156 	 21.8006 	 -19.8215 	 
C 	 -135.385 	 21.414 	 -17.7898 	 
H 	 -135.656 	 22.4239 	 -17.3261 	 
H 	 -136.381 	 21.025 	 -18.0902 	 
C 	 -134.849 	 20.5323 	 -16.6757 	 
H 	 -134.298 	 19.6368 	 -17.0429 	 
H 	 -134.175 	 21.0114 	 -15.8789 	 
H 	 -135.655 	 20.181 	 -16.0617 	 
S 	 -131.293 	 26.9936 	 -18.9542 	 
C 	 -131.152 	 28.1606 	 -17.679 	 
C 	 -131.9 	 27.7863 	 -16.5423 	 
C 	 -132.488 	 26.531 	 -16.6963 	 
C 	 -132.138 	 25.9119 	 -17.8845 	 
H 	 -131.979 	 28.4456 	 -15.6925 	 
C 	 -133.233 	 25.827 	 -15.5427 	 
H 	 -132.964 	 26.3319 	 -14.6338 	 
H 	 -132.793 	 24.8691 	 -15.3686 	 
C 	 -134.741 	 25.598 	 -15.6797 	 
H 	 -135.034 	 25.4183 	 -16.7032 	 
H 	 -135.189 	 26.6081 	 -15.5094 	 
C 	 -135.365 	 24.622 	 -14.6613 	 
H 	 -135.293 	 23.6022 	 -15.05 	 
H 	 -136.447 	 24.8024 	 -14.6049 	 
H 	 -134.872 	 24.5965 	 -13.6568 	 
H 	 -131.733 	 21.2193 	 -19.4429 	 
H 	 -130.788 	 29.1452 	 -17.8645 	 
*
