! wB97X-D3 SP def2-SVP
%pal
nprocs 24
end

* xyz 0 1
S 	 -76.3993 	 6.93895 	 -106.809 	 
C 	 -78.0086 	 7.20359 	 -106.217 	 
C 	 -78.5603 	 8.30558 	 -106.872 	 
C 	 -77.645 	 8.93606 	 -107.765 	 
C 	 -76.3896 	 8.41543 	 -107.773 	 
H 	 -77.917 	 9.83923 	 -108.412 	 
C 	 -79.9462 	 8.80495 	 -106.761 	 
H 	 -79.9329 	 9.85945 	 -107.058 	 
H 	 -80.2547 	 8.75118 	 -105.687 	 
C 	 -81.111 	 8.26847 	 -107.623 	 
H 	 -81.9089 	 9.06183 	 -107.594 	 
H 	 -80.7456 	 8.25333 	 -108.653 	 
C 	 -81.5208 	 6.8423 	 -107.182 	 
H 	 -81.9464 	 6.84031 	 -106.201 	 
H 	 -82.2456 	 6.4544 	 -107.924 	 
H 	 -80.7282 	 6.08231 	 -107.111 	 
S 	 -74.5687 	 7.73547 	 -109.737 	 
C 	 -73.7163 	 9.01865 	 -110.523 	 
C 	 -73.9405 	 10.2519 	 -109.959 	 
C 	 -74.8911 	 10.1841 	 -108.872 	 
C 	 -75.2514 	 8.86219 	 -108.569 	 
H 	 -73.3739 	 11.0505 	 -110.315 	 
C 	 -75.2044 	 11.4583 	 -108.06 	 
H 	 -74.436 	 11.6644 	 -107.302 	 
H 	 -76.1601 	 11.262 	 -107.493 	 
C 	 -75.4959 	 12.6156 	 -109.014 	 
H 	 -76.3766 	 12.3137 	 -109.673 	 
H 	 -74.7171 	 12.5892 	 -109.646 	 
C 	 -75.7222 	 13.9488 	 -108.297 	 
H 	 -75.9139 	 13.7656 	 -107.266 	 
H 	 -76.5144 	 14.462 	 -108.739 	 
H 	 -74.9072 	 14.6719 	 -108.303 	 
H 	 -78.5652 	 6.45144 	 -105.602 	 
H 	 -72.9156 	 8.80879 	 -111.22 	 
*
