! wB97X-D3 SP def2-SVP
%pal
nprocs 24
end

* xyz 0 1
S 	 -126.474 	 57.9701 	 -58.1335 	 
C 	 -126.358 	 57.8506 	 -59.8766 	 
C 	 -127.193 	 56.848 	 -60.3767 	 
C 	 -127.895 	 56.1849 	 -59.3235 	 
C 	 -127.787 	 56.8206 	 -58.0609 	 
H 	 -128.494 	 55.341 	 -59.4927 	 
C 	 -127.309 	 56.4029 	 -61.7986 	 
H 	 -126.841 	 57.101 	 -62.5314 	 
H 	 -128.345 	 56.6089 	 -62.0702 	 
C 	 -126.866 	 55.0012 	 -62.0786 	 
H 	 -127.504 	 54.3674 	 -61.4128 	 
H 	 -127.246 	 54.7147 	 -63.1436 	 
C 	 -125.355 	 54.7314 	 -61.8139 	 
H 	 -125.077 	 53.6326 	 -61.8576 	 
H 	 -124.863 	 55.2473 	 -62.6119 	 
H 	 -125.084 	 55.0874 	 -60.8203 	 
S 	 -127.611 	 56.0142 	 -55.4481 	 
C 	 -129.099 	 55.5544 	 -54.6353 	 
C 	 -130.228 	 55.795 	 -55.4237 	 
C 	 -129.87 	 56.3552 	 -56.6823 	 
C 	 -128.528 	 56.4605 	 -56.8679 	 
H 	 -131.243 	 55.7546 	 -54.9437 	 
C 	 -130.935 	 56.7983 	 -57.7241 	 
H 	 -130.644 	 56.2713 	 -58.6611 	 
H 	 -130.674 	 57.8366 	 -57.9292 	 
C 	 -132.43 	 56.4872 	 -57.3888 	 
H 	 -132.644 	 57.1515 	 -56.5712 	 
H 	 -132.489 	 55.4048 	 -57.0599 	 
C 	 -133.384 	 56.6702 	 -58.4299 	 
H 	 -134.42 	 56.3822 	 -58.1453 	 
H 	 -133.176 	 56.0447 	 -59.3378 	 
H 	 -133.372 	 57.7135 	 -58.7923 	 
H 	 -125.58 	 58.3136 	 -60.4875 	 
H 	 -129.247 	 55.4115 	 -53.5676 	 
*
