! wB97X-D3 SP def2-SVP
%pal
nprocs 24
end

* xyz 0 1
S 	 -108.801 	 -0.173619 	 -115.326 	 
C 	 -109.938 	 1.18165 	 -115.215 	 
C 	 -109.621 	 2.00247 	 -114.177 	 
C 	 -108.481 	 1.52784 	 -113.439 	 
C 	 -108.001 	 0.332434 	 -113.881 	 
H 	 -107.98 	 2.03907 	 -112.676 	 
C 	 -110.245 	 3.29248 	 -113.797 	 
H 	 -111.224 	 3.13089 	 -113.457 	 
H 	 -110.572 	 3.81768 	 -114.708 	 
C 	 -109.49 	 4.31498 	 -112.897 	 
H 	 -109.265 	 3.83759 	 -111.879 	 
H 	 -108.613 	 4.58988 	 -113.469 	 
C 	 -110.401 	 5.51275 	 -112.653 	 
H 	 -109.913 	 6.25487 	 -112.02 	 
H 	 -110.708 	 5.95907 	 -113.561 	 
H 	 -111.398 	 5.29067 	 -112.037 	 
S 	 -107.036 	 -2.11637 	 -113.058 	 
C 	 -105.575 	 -2.21211 	 -112.194 	 
C 	 -104.812 	 -1.08873 	 -112.452 	 
C 	 -105.583 	 0.00724941 	 -112.955 	 
C 	 -106.846 	 -0.358032 	 -113.33 	 
H 	 -103.79 	 -1.05871 	 -112.051 	 
C 	 -104.965 	 1.39048 	 -113.149 	 
H 	 -105.617 	 2.09881 	 -113.646 	 
H 	 -104.031 	 1.14528 	 -113.707 	 
C 	 -104.594 	 2.12185 	 -111.848 	 
H 	 -103.516 	 2.1568 	 -111.701 	 
H 	 -104.863 	 1.4837 	 -110.969 	 
C 	 -105.236 	 3.5504 	 -111.743 	 
H 	 -106.297 	 3.56709 	 -111.559 	 
H 	 -105.073 	 4.19269 	 -112.635 	 
H 	 -104.88 	 3.98479 	 -110.822 	 
H 	 -110.721 	 1.27592 	 -115.936 	 
H 	 -105.134 	 -3.17423 	 -111.841 	 
*
