! wB97X-D3 SP def2-SVP
%pal
nprocs 24
end

* xyz 0 1
S 	 -113.616 	 53.9511 	 -38.5567 	 
C 	 -112.394 	 53.0832 	 -39.3875 	 
C 	 -112.203 	 53.5289 	 -40.6568 	 
C 	 -113.256 	 54.4832 	 -40.9934 	 
C 	 -114.077 	 54.7275 	 -39.9779 	 
H 	 -113.539 	 54.9335 	 -41.9452 	 
C 	 -111.318 	 52.8152 	 -41.6277 	 
H 	 -111.788 	 52.0031 	 -42.0582 	 
H 	 -110.473 	 52.3652 	 -41.115 	 
C 	 -110.671 	 53.769 	 -42.6234 	 
H 	 -110.025 	 53.2282 	 -43.3061 	 
H 	 -111.413 	 54.3049 	 -43.1759 	 
C 	 -109.876 	 54.9159 	 -41.8846 	 
H 	 -109.274 	 55.4276 	 -42.622 	 
H 	 -110.459 	 55.6615 	 -41.2766 	 
H 	 -109.206 	 54.4312 	 -41.1793 	 
S 	 -116.934 	 55.1926 	 -39.7488 	 
C 	 -117.541 	 56.7251 	 -40.2579 	 
C 	 -116.494 	 57.6187 	 -40.4363 	 
C 	 -115.226 	 56.9901 	 -40.3908 	 
C 	 -115.24 	 55.6423 	 -40.1116 	 
H 	 -116.641 	 58.68 	 -40.5884 	 
C 	 -114.033 	 57.8755 	 -40.3687 	 
H 	 -113.196 	 57.3474 	 -39.8942 	 
H 	 -114.301 	 58.7594 	 -39.7736 	 
C 	 -113.607 	 58.1861 	 -41.771 	 
H 	 -114.508 	 58.3901 	 -42.4016 	 
H 	 -113.063 	 57.4539 	 -42.3545 	 
C 	 -112.76 	 59.4464 	 -41.7361 	 
H 	 -112.415 	 59.6806 	 -42.751 	 
H 	 -111.882 	 59.3625 	 -41.0218 	 
H 	 -113.335 	 60.282 	 -41.3432 	 
H 	 -111.774 	 52.4009 	 -38.8494 	 
H 	 -118.588 	 56.8667 	 -40.3237 	 
*
