! wB97X-D3 SP def2-SVP
%pal
nprocs 24
end

* xyz 0 1
S 	 -124.503 	 63.9575 	 -38.5886 	 
C 	 -123.168 	 64.9258 	 -37.9939 	 
C 	 -123.481 	 66.2518 	 -38.0771 	 
C 	 -124.805 	 66.5335 	 -38.563 	 
C 	 -125.475 	 65.3718 	 -38.8776 	 
H 	 -125.285 	 67.5499 	 -38.7275 	 
C 	 -122.621 	 67.4464 	 -37.6204 	 
H 	 -122.842 	 68.3196 	 -38.2318 	 
H 	 -121.56 	 67.2421 	 -37.9075 	 
C 	 -122.823 	 68.0015 	 -36.1803 	 
H 	 -122.206 	 68.8599 	 -36.0954 	 
H 	 -123.903 	 68.2463 	 -36.1443 	 
C 	 -122.509 	 66.8903 	 -35.162 	 
H 	 -121.454 	 66.6932 	 -35.0535 	 
H 	 -122.828 	 67.1661 	 -34.1619 	 
H 	 -122.965 	 65.9464 	 -35.4581 	 
S 	 -126.998 	 65.9 	 -41.0778 	 
C 	 -128.701 	 65.3918 	 -41.041 	 
C 	 -128.996 	 64.744 	 -39.9031 	 
C 	 -127.91 	 64.7051 	 -38.9499 	 
C 	 -126.794 	 65.3188 	 -39.4536 	 
H 	 -129.988 	 64.3441 	 -39.8234 	 
C 	 -128.106 	 64.0661 	 -37.6092 	 
H 	 -127.142 	 64.1501 	 -37.0899 	 
H 	 -128.266 	 63.0051 	 -37.9072 	 
C 	 -129.335 	 64.5335 	 -36.7231 	 
H 	 -130.134 	 64.8012 	 -37.361 	 
H 	 -129.065 	 65.4308 	 -36.157 	 
C 	 -129.755 	 63.4016 	 -35.879 	 
H 	 -128.895 	 63.0571 	 -35.329 	 
H 	 -130.231 	 62.6226 	 -36.5056 	 
H 	 -130.502 	 63.744 	 -35.1838 	 
H 	 -122.264 	 64.4993 	 -37.6458 	 
H 	 -129.318 	 65.4054 	 -41.9611 	 
*
