! wB97X-D3 SP def2-SVP
%pal
nprocs 24
end

* xyz 0 1
S 	 -43.1767 	 -5.42325 	 17.9847 	 
C 	 -44.4355 	 -5.35435 	 16.6926 	 
C 	 -45.5573 	 -4.71362 	 17.2046 	 
C 	 -45.2172 	 -4.00313 	 18.4284 	 
C 	 -43.9174 	 -4.11874 	 18.8454 	 
H 	 -45.8959 	 -3.34366 	 18.967 	 
C 	 -47.0053 	 -4.67058 	 16.7042 	 
H 	 -47.0424 	 -5.71909 	 16.2962 	 
H 	 -47.0177 	 -3.99431 	 15.7854 	 
C 	 -48.1913 	 -4.29401 	 17.6391 	 
H 	 -48.4258 	 -5.17982 	 18.2884 	 
H 	 -47.9604 	 -3.42884 	 18.2281 	 
C 	 -49.4454 	 -4.08614 	 16.7769 	 
H 	 -49.2582 	 -3.48208 	 15.8473 	 
H 	 -49.7261 	 -5.06931 	 16.5762 	 
H 	 -50.1327 	 -3.69466 	 17.4771 	 
S 	 -42.9197 	 -4.63824 	 21.4355 	 
C 	 -42.3155 	 -3.3376 	 22.3819 	 
C 	 -42.6077 	 -2.12889 	 21.7745 	 
C 	 -43.2139 	 -2.23238 	 20.4712 	 
C 	 -43.3695 	 -3.54257 	 20.0653 	 
H 	 -42.3538 	 -1.18844 	 22.2883 	 
C 	 -43.4401 	 -0.945668 	 19.664 	 
H 	 -43.9796 	 -0.260647 	 20.3542 	 
H 	 -44.1827 	 -1.03846 	 18.8943 	 
C 	 -42.1206 	 -0.231912 	 19.296 	 
H 	 -41.3555 	 -0.843177 	 18.8893 	 
H 	 -41.7321 	 0.125132 	 20.1512 	 
C 	 -42.2789 	 0.849528 	 18.2331 	 
H 	 -42.969 	 1.5427 	 18.6054 	 
H 	 -42.6746 	 0.461463 	 17.2483 	 
H 	 -41.3284 	 1.39891 	 18.1443 	 
H 	 -44.3772 	 -6.01644 	 15.8128 	 
H 	 -41.9695 	 -3.37885 	 23.4419 	 
*
