! wB97X-D3 SP def2-SVP
%pal
nprocs 24
end

* xyz 0 1
S 	 -119.2 	 23.7762 	 -17.6233 	 
C 	 -118.726 	 23.3506 	 -19.2022 	 
C 	 -118.289 	 24.3675 	 -20.006 	 
C 	 -118.122 	 25.5104 	 -19.1645 	 
C 	 -118.497 	 25.3449 	 -17.7967 	 
H 	 -117.7 	 26.4776 	 -19.4328 	 
C 	 -117.841 	 24.3016 	 -21.4247 	 
H 	 -118.731 	 24.2527 	 -22.1194 	 
H 	 -117.3 	 23.4086 	 -21.6619 	 
C 	 -116.954 	 25.3872 	 -22.1069 	 
H 	 -117.152 	 25.3862 	 -23.1831 	 
H 	 -117.329 	 26.3484 	 -21.7512 	 
C 	 -115.443 	 25.1747 	 -21.8164 	 
H 	 -115.094 	 25.8848 	 -21.0284 	 
H 	 -115.07 	 24.2038 	 -21.574 	 
H 	 -114.93 	 25.3075 	 -22.7478 	 
S 	 -117.577 	 25.9139 	 -15.3121 	 
C 	 -117.863 	 27.5261 	 -14.6725 	 
C 	 -118.603 	 28.3065 	 -15.4644 	 
C 	 -118.81 	 27.6871 	 -16.7136 	 
C 	 -118.413 	 26.3513 	 -16.7546 	 
H 	 -118.871 	 29.3338 	 -15.1619 	 
C 	 -119.422 	 28.3982 	 -17.9115 	 
H 	 -119.933 	 27.7101 	 -18.6315 	 
H 	 -118.55 	 28.8985 	 -18.4781 	 
C 	 -120.203 	 29.7257 	 -17.6844 	 
H 	 -120.482 	 30.0865 	 -18.623 	 
H 	 -119.555 	 30.4619 	 -17.2688 	 
C 	 -121.483 	 29.4441 	 -16.792 	 
H 	 -122.151 	 30.3172 	 -16.783 	 
H 	 -121.169 	 29.4087 	 -15.7602 	 
H 	 -122.182 	 28.6482 	 -17.1734 	 
H 	 -118.682 	 22.3189 	 -19.5818 	 
H 	 -117.669 	 27.7207 	 -13.5719 	 
*
