! wB97X-D3 SP def2-SVP
%pal
nprocs 24
end

* xyz 0 1
S 	 15.3246 	 -14.0783 	 -121.455 	 
C 	 13.8643 	 -13.1944 	 -121.68 	 
C 	 13.4163 	 -13.2545 	 -122.932 	 
C 	 14.2781 	 -14.0341 	 -123.724 	 
C 	 15.2644 	 -14.6929 	 -123.03 	 
H 	 14.2153 	 -14.2975 	 -124.787 	 
C 	 12.2906 	 -12.3458 	 -123.486 	 
H 	 12.1657 	 -12.6191 	 -124.553 	 
H 	 12.7399 	 -11.3466 	 -123.407 	 
C 	 11.0257 	 -12.5364 	 -122.657 	 
H 	 10.8208 	 -13.6108 	 -122.441 	 
H 	 11.1729 	 -12.0499 	 -121.626 	 
C 	 9.74007 	 -11.9181 	 -123.175 	 
H 	 9.25122 	 -12.4327 	 -123.997 	 
H 	 8.99569 	 -11.9933 	 -122.385 	 
H 	 9.80187 	 -10.8993 	 -123.512 	 
S 	 17.8639 	 -15.9311 	 -122.637 	 
C 	 18.101 	 -17.4961 	 -123.479 	 
C 	 17.0822 	 -17.8244 	 -124.26 	 
C 	 15.9367 	 -16.8773 	 -124.3 	 
C 	 16.2097 	 -15.7778 	 -123.431 	 
H 	 17.2183 	 -18.7494 	 -124.821 	 
C 	 14.6809 	 -17.2371 	 -124.972 	 
H 	 15.0395 	 -17.857 	 -125.876 	 
H 	 14.1224 	 -16.3026 	 -125.417 	 
C 	 13.6021 	 -17.8744 	 -124.192 	 
H 	 12.705 	 -17.848 	 -124.763 	 
H 	 13.3961 	 -17.221 	 -123.309 	 
C 	 13.9417 	 -19.2405 	 -123.673 	 
H 	 14.0411 	 -19.9456 	 -124.528 	 
H 	 13.0998 	 -19.7148 	 -123.101 	 
H 	 14.8762 	 -19.1081 	 -123.069 	 
H 	 13.4035 	 -12.5435 	 -120.991 	 
H 	 18.9428 	 -18.1097 	 -123.263 	 
*
