! wB97X-D3 SP def2-SVP
%pal
nprocs 24
end

* xyz 0 1
S 	 -103.908 	 62.3899 	 -11.0408 	 
C 	 -104.585 	 63.9733 	 -11.5695 	 
C 	 -104.759 	 63.9924 	 -12.9285 	 
C 	 -104.399 	 62.7502 	 -13.5163 	 
C 	 -103.753 	 61.8671 	 -12.695 	 
H 	 -104.386 	 62.393 	 -14.5549 	 
C 	 -105.16 	 65.1469 	 -13.746 	 
H 	 -104.705 	 64.9555 	 -14.7618 	 
H 	 -104.6 	 66.0101 	 -13.3569 	 
C 	 -106.672 	 65.5027 	 -13.9184 	 
H 	 -107.078 	 64.6349 	 -14.3531 	 
H 	 -107.051 	 65.5559 	 -12.9193 	 
C 	 -106.952 	 66.7218 	 -14.8036 	 
H 	 -106.413 	 67.5836 	 -14.4734 	 
H 	 -106.618 	 66.5191 	 -15.7774 	 
H 	 -108.048 	 67.1164 	 -14.8509 	 
S 	 -103.945 	 59.1134 	 -12.8293 	 
C 	 -102.958 	 58.2624 	 -13.9823 	 
C 	 -102.051 	 59.1228 	 -14.5619 	 
C 	 -102.168 	 60.5183 	 -14.1682 	 
C 	 -103.084 	 60.6647 	 -13.124 	 
H 	 -101.39 	 58.6906 	 -15.3636 	 
C 	 -101.262 	 61.4398 	 -14.9803 	 
H 	 -101.069 	 62.3713 	 -14.4689 	 
H 	 -101.859 	 61.7629 	 -15.8505 	 
C 	 -99.912 	 60.9272 	 -15.3435 	 
H 	 -99.4693 	 61.7219 	 -15.9099 	 
H 	 -100.055 	 60.0822 	 -15.9953 	 
C 	 -98.9757 	 60.7509 	 -14.1611 	 
H 	 -99.3356 	 59.7918 	 -13.6397 	 
H 	 -99.0918 	 61.6413 	 -13.414 	 
H 	 -97.8945 	 60.5887 	 -14.3453 	 
H 	 -104.892 	 64.8347 	 -10.9482 	 
H 	 -103.33 	 57.3095 	 -14.4385 	 
*
