! wB97X-D3 SP def2-SVP
%pal
nprocs 24
end

* xyz 0 1
S 	 43.5969 	 -19.5618 	 -114.468 	 
C 	 43.0535 	 -18.0121 	 -114.79 	 
C 	 42.9865 	 -17.2692 	 -113.616 	 
C 	 43.4325 	 -18.0323 	 -112.475 	 
C 	 43.6544 	 -19.3684 	 -112.753 	 
H 	 43.5413 	 -17.7376 	 -111.474 	 
C 	 42.5159 	 -15.8478 	 -113.524 	 
H 	 42.6707 	 -15.4963 	 -114.452 	 
H 	 43.2903 	 -15.3636 	 -112.956 	 
C 	 41.1824 	 -15.5174 	 -112.944 	 
H 	 41.041 	 -16.0331 	 -112.004 	 
H 	 41.0669 	 -14.3778 	 -112.875 	 
C 	 40.0198 	 -16.0545 	 -113.854 	 
H 	 40.1584 	 -17.1487 	 -113.706 	 
H 	 39.0705 	 -15.7242 	 -113.496 	 
H 	 40.0834 	 -15.8498 	 -114.894 	 
S 	 45.512 	 -21.4135 	 -112.528 	 
C 	 45.6943 	 -22.2098 	 -111.04 	 
C 	 44.6932 	 -21.8776 	 -110.125 	 
C 	 43.8972 	 -20.7675 	 -110.538 	 
C 	 44.176 	 -20.4245 	 -111.891 	 
H 	 44.7377 	 -22.3913 	 -109.151 	 
C 	 43.0166 	 -19.9645 	 -109.589 	 
H 	 42.3286 	 -19.352 	 -110.181 	 
H 	 43.6183 	 -19.1771 	 -109.19 	 
C 	 42.3248 	 -20.7915 	 -108.534 	 
H 	 43.0611 	 -21.4248 	 -107.957 	 
H 	 41.7568 	 -21.5387 	 -109.026 	 
C 	 41.4858 	 -20.0339 	 -107.5 	 
H 	 42.1831 	 -19.3352 	 -106.995 	 
H 	 41.0815 	 -20.7758 	 -106.789 	 
H 	 40.6636 	 -19.4041 	 -107.959 	 
H 	 42.9525 	 -17.6876 	 -115.832 	 
H 	 46.477 	 -22.9654 	 -110.751 	 
*
