! wB97X-D3 SP def2-SVP
%pal
nprocs 24
end

* xyz 0 1
S 	 -89.4857 	 -12.6506 	 -112.573 	 
C 	 -89.4344 	 -13.0648 	 -114.205 	 
C 	 -88.5293 	 -12.2239 	 -114.845 	 
C 	 -88.3994 	 -10.9601 	 -114.124 	 
C 	 -88.8277 	 -11.0687 	 -112.832 	 
H 	 -87.8864 	 -10.0654 	 -114.466 	 
C 	 -88.1788 	 -12.3674 	 -116.32 	 
H 	 -88.4951 	 -13.3679 	 -116.709 	 
H 	 -87.0617 	 -12.3044 	 -116.486 	 
C 	 -88.7055 	 -11.3293 	 -117.311 	 
H 	 -88.3664 	 -10.3648 	 -116.894 	 
H 	 -88.1431 	 -11.4125 	 -118.212 	 
C 	 -90.2027 	 -11.41 	 -117.643 	 
H 	 -90.4279 	 -12.3543 	 -118.154 	 
H 	 -90.7976 	 -11.3177 	 -116.708 	 
H 	 -90.4988 	 -10.6603 	 -118.287 	 
S 	 -88.0505 	 -10.4455 	 -110.194 	 
C 	 -88.1695 	 -8.74418 	 -109.737 	 
C 	 -88.7419 	 -8.00893 	 -110.692 	 
C 	 -89.0713 	 -8.6738 	 -111.917 	 
C 	 -88.7474 	 -10.0481 	 -111.788 	 
H 	 -88.8032 	 -6.90233 	 -110.511 	 
C 	 -89.7771 	 -7.96923 	 -113.086 	 
H 	 -90.6893 	 -7.4659 	 -112.724 	 
H 	 -90.0223 	 -8.6722 	 -113.836 	 
C 	 -89.096 	 -6.68471 	 -113.677 	 
H 	 -89.1665 	 -5.92718 	 -112.9 	 
H 	 -89.7331 	 -6.26246 	 -114.509 	 
C 	 -87.6391 	 -6.88716 	 -114.036 	 
H 	 -87.0336 	 -7.12301 	 -113.133 	 
H 	 -87.2268 	 -5.97602 	 -114.477 	 
H 	 -87.52 	 -7.64668 	 -114.736 	 
H 	 -89.7758 	 -14.0262 	 -114.598 	 
H 	 -87.5458 	 -8.41114 	 -108.958 	 
*
