! wB97X-D3 SP def2-SVP
%pal
nprocs 24
end

* xyz 0 1
S 	 -41.1654 	 -6.83473 	 3.78893 	 
C 	 -42.2094 	 -8.11232 	 4.23945 	 
C 	 -42.8688 	 -7.86734 	 5.41949 	 
C 	 -42.5638 	 -6.57921 	 5.96037 	 
C 	 -41.7273 	 -5.86162 	 5.18602 	 
H 	 -43.0668 	 -6.1625 	 6.89038 	 
C 	 -43.7915 	 -8.83061 	 6.12749 	 
H 	 -44.4234 	 -9.24511 	 5.31747 	 
H 	 -44.4416 	 -8.26733 	 6.75299 	 
C 	 -43.1513 	 -9.96268 	 6.85766 	 
H 	 -43.897 	 -10.7492 	 7.05297 	 
H 	 -42.4565 	 -10.4216 	 6.18949 	 
C 	 -42.471 	 -9.54905 	 8.1505 	 
H 	 -43.2523 	 -9.36967 	 8.91213 	 
H 	 -41.875 	 -10.3654 	 8.6042 	 
H 	 -42.0549 	 -8.57798 	 8.04244 	 
S 	 -41.3441 	 -3.37481 	 4.06909 	 
C 	 -41.0252 	 -2.0259 	 5.17385 	 
C 	 -40.598 	 -2.53038 	 6.3918 	 
C 	 -40.7328 	 -3.93817 	 6.54826 	 
C 	 -41.2581 	 -4.52229 	 5.41938 	 
H 	 -40.2607 	 -1.78281 	 7.10242 	 
C 	 -40.6089 	 -4.60943 	 7.88515 	 
H 	 -39.5408 	 -4.44387 	 8.21122 	 
H 	 -40.6382 	 -5.6584 	 7.77663 	 
C 	 -41.6678 	 -4.10479 	 8.90534 	 
H 	 -42.6359 	 -4.21898 	 8.4486 	 
H 	 -41.7079 	 -3.05132 	 9.07778 	 
C 	 -41.6317 	 -4.80341 	 10.2666 	 
H 	 -40.7786 	 -4.61173 	 10.7456 	 
H 	 -41.7338 	 -5.91237 	 10.1671 	 
H 	 -42.4344 	 -4.4276 	 10.8927 	 
H 	 -42.2982 	 -8.95344 	 3.56209 	 
H 	 -41.0449 	 -0.951289 	 4.86625 	 
*
