! wB97X-D3 SP def2-SVP
%pal
nprocs 24
end

* xyz 0 1
S 	 -123.78 	 59.3337 	 -47.94 	 
C 	 -125.235 	 58.4632 	 -48.1921 	 
C 	 -126.308 	 59.2387 	 -48.6265 	 
C 	 -125.99 	 60.6071 	 -48.557 	 
C 	 -124.681 	 60.8303 	 -48.1384 	 
H 	 -126.664 	 61.4123 	 -48.7634 	 
C 	 -127.583 	 58.6387 	 -49.2423 	 
H 	 -127.421 	 58.229 	 -50.3117 	 
H 	 -128.235 	 59.461 	 -49.5415 	 
C 	 -128.331 	 57.6131 	 -48.3877 	 
H 	 -129.074 	 57.0187 	 -48.9209 	 
H 	 -127.538 	 56.9585 	 -48.0778 	 
C 	 -128.917 	 58.2624 	 -47.1714 	 
H 	 -128.19 	 58.8646 	 -46.6957 	 
H 	 -129.76 	 58.9199 	 -47.3399 	 
H 	 -129.446 	 57.4873 	 -46.4601 	 
S 	 -122.67 	 62.3139 	 -49.2363 	 
C 	 -122.528 	 63.9876 	 -48.9577 	 
C 	 -123.42 	 64.3788 	 -47.9306 	 
C 	 -124.299 	 63.3605 	 -47.6595 	 
C 	 -123.953 	 62.1288 	 -48.136 	 
H 	 -123.484 	 65.4312 	 -47.6076 	 
C 	 -125.515 	 63.532 	 -46.7793 	 
H 	 -125.185 	 63.8057 	 -45.7956 	 
H 	 -125.929 	 62.5264 	 -46.6269 	 
C 	 -126.599 	 64.5103 	 -47.312 	 
H 	 -127.11 	 64.2852 	 -48.2289 	 
H 	 -126.061 	 65.4302 	 -47.5513 	 
C 	 -127.793 	 64.7183 	 -46.3046 	 
H 	 -127.525 	 64.8798 	 -45.2214 	 
H 	 -128.378 	 63.8239 	 -46.2058 	 
H 	 -128.471 	 65.4998 	 -46.5511 	 
H 	 -125.295 	 57.3889 	 -48.1504 	 
H 	 -121.871 	 64.7009 	 -49.3986 	 
*
