! wB97X-D3 SP def2-SVP
%pal
nprocs 24
end

* xyz 0 1
S 	 -111.94 	 35.0554 	 -115.455 	 
C 	 -112.189 	 33.3741 	 -116.141 	 
C 	 -113.173 	 32.6565 	 -115.417 	 
C 	 -113.673 	 33.4393 	 -114.322 	 
C 	 -113.166 	 34.7172 	 -114.233 	 
H 	 -114.548 	 33.2286 	 -113.619 	 
C 	 -113.69 	 31.3038 	 -115.688 	 
H 	 -113.687 	 31.1555 	 -116.679 	 
H 	 -114.763 	 31.1536 	 -115.399 	 
C 	 -112.883 	 30.1495 	 -115.171 	 
H 	 -111.858 	 30.2438 	 -115.48 	 
H 	 -112.809 	 30.1176 	 -114.125 	 
C 	 -113.326 	 28.7802 	 -115.742 	 
H 	 -114.337 	 28.5797 	 -115.549 	 
H 	 -113.305 	 28.763 	 -116.83 	 
H 	 -112.714 	 27.9973 	 -115.237 	 
S 	 -112.368 	 35.9615 	 -111.935 	 
C 	 -113.386 	 37.1876 	 -111.259 	 
C 	 -114.602 	 37.2254 	 -111.844 	 
C 	 -114.72 	 36.3073 	 -112.937 	 
C 	 -113.547 	 35.6531 	 -113.172 	 
H 	 -115.368 	 37.859 	 -111.432 	 
C 	 -115.915 	 36.2397 	 -113.74 	 
H 	 -115.695 	 35.3417 	 -114.337 	 
H 	 -115.805 	 36.9848 	 -114.521 	 
C 	 -117.349 	 36.0972 	 -113.059 	 
H 	 -117.409 	 36.5958 	 -112.171 	 
H 	 -117.455 	 35.1228 	 -112.63 	 
C 	 -118.452 	 36.4609 	 -114.137 	 
H 	 -119.437 	 36.6597 	 -113.813 	 
H 	 -118.485 	 35.6604 	 -114.836 	 
H 	 -118.105 	 37.3383 	 -114.735 	 
H 	 -111.639 	 32.9244 	 -116.985 	 
H 	 -113.056 	 37.7667 	 -110.423 	 
*
