! wB97X-D3 SP def2-SVP
%pal
nprocs 24
end

* xyz 0 1
S 	 -116.034 	 45.5771 	 -112.619 	 
C 	 -116.919 	 45.141 	 -114.065 	 
C 	 -116.187 	 44.38 	 -114.888 	 
C 	 -114.789 	 44.4516 	 -114.524 	 
C 	 -114.55 	 45.1461 	 -113.367 	 
H 	 -114.001 	 43.9296 	 -115.08 	 
C 	 -116.624 	 43.6345 	 -116.1 	 
H 	 -115.796 	 43.471 	 -116.762 	 
H 	 -117.373 	 44.2622 	 -116.601 	 
C 	 -117.348 	 42.3024 	 -115.657 	 
H 	 -116.712 	 41.6555 	 -115.048 	 
H 	 -118.192 	 42.5612 	 -115.048 	 
C 	 -117.787 	 41.4791 	 -116.826 	 
H 	 -118.689 	 41.861 	 -117.276 	 
H 	 -116.978 	 41.2504 	 -117.525 	 
H 	 -118.224 	 40.5568 	 -116.419 	 
S 	 -113.023 	 45.4852 	 -111.16 	 
C 	 -111.326 	 45.9977 	 -111.365 	 
C 	 -111.002 	 46.2439 	 -112.743 	 
C 	 -112.14 	 45.992 	 -113.613 	 
C 	 -113.25 	 45.5847 	 -112.871 	 
H 	 -110.065 	 46.6028 	 -113.08 	 
C 	 -112.021 	 46.0737 	 -115.1 	 
H 	 -112.426 	 45.1462 	 -115.585 	 
H 	 -110.966 	 46.0129 	 -115.291 	 
C 	 -112.518 	 47.3692 	 -115.753 	 
H 	 -112.263 	 47.2178 	 -116.825 	 
H 	 -111.965 	 48.2249 	 -115.389 	 
C 	 -114.062 	 47.685 	 -115.721 	 
H 	 -114.459 	 48.1723 	 -114.854 	 
H 	 -114.693 	 46.8035 	 -116.02 	 
H 	 -114.24 	 48.4635 	 -116.467 	 
H 	 -117.994 	 45.1486 	 -114.081 	 
H 	 -110.665 	 45.9915 	 -110.517 	 
*
