! wB97X-D3 SP def2-SVP
%pal
nprocs 24
end

* xyz 0 1
S 	 -86.666 	 3.00281 	 -113.345 	 
C 	 -87.7587 	 2.2064 	 -112.177 	 
C 	 -88.9341 	 1.70806 	 -112.683 	 
C 	 -89.0674 	 2.10817 	 -114.055 	 
C 	 -87.9444 	 2.76937 	 -114.526 	 
H 	 -89.9159 	 1.97508 	 -114.75 	 
C 	 -90.0996 	 1.13467 	 -111.866 	 
H 	 -91.0179 	 1.72889 	 -112.09 	 
H 	 -89.8641 	 1.32958 	 -110.804 	 
C 	 -90.2196 	 -0.392683 	 -112.131 	 
H 	 -91.1464 	 -0.700708 	 -111.656 	 
H 	 -90.4238 	 -0.440528 	 -113.166 	 
C 	 -89.0151 	 -1.231 	 -111.606 	 
H 	 -88.7304 	 -1.10689 	 -110.611 	 
H 	 -89.3719 	 -2.31295 	 -111.567 	 
H 	 -88.0995 	 -1.00322 	 -112.233 	 
S 	 -88.2627 	 2.02201 	 -117.16 	 
C 	 -87.5043 	 2.98977 	 -118.4 	 
C 	 -86.8002 	 4.05454 	 -117.889 	 
C 	 -87.0324 	 4.27339 	 -116.504 	 
C 	 -87.7603 	 3.18506 	 -115.904 	 
H 	 -86.2434 	 4.58549 	 -118.607 	 
C 	 -86.2587 	 5.40784 	 -115.739 	 
H 	 -85.7668 	 5.98513 	 -116.511 	 
H 	 -85.5851 	 4.90022 	 -115.038 	 
C 	 -87.0476 	 6.35175 	 -114.853 	 
H 	 -86.4696 	 7.18843 	 -114.423 	 
H 	 -87.3652 	 5.81264 	 -114.009 	 
C 	 -88.2858 	 6.90738 	 -115.587 	 
H 	 -89.0639 	 7.41021 	 -114.889 	 
H 	 -88.6942 	 6.08942 	 -116.207 	 
H 	 -87.944 	 7.72193 	 -116.239 	 
H 	 -87.4919 	 2.17956 	 -111.17 	 
H 	 -87.2948 	 2.5774 	 -119.331 	 
*
