! wB97X-D3 SP def2-SVP
%pal
nprocs 24
end

* xyz 0 1
S 	 -101.001 	 -2.87684 	 -105.683 	 
C 	 -99.7924 	 -3.62223 	 -106.594 	 
C 	 -100.187 	 -4.67699 	 -107.471 	 
C 	 -101.617 	 -4.78474 	 -107.367 	 
C 	 -102.149 	 -4.0633 	 -106.334 	 
H 	 -102.205 	 -5.33395 	 -108.088 	 
C 	 -99.3689 	 -5.43796 	 -108.462 	 
H 	 -98.4766 	 -4.8674 	 -108.578 	 
H 	 -99.9425 	 -5.53789 	 -109.409 	 
C 	 -99.0387 	 -6.86389 	 -107.882 	 
H 	 -99.894 	 -7.26253 	 -107.374 	 
H 	 -98.9407 	 -7.50288 	 -108.738 	 
C 	 -97.6673 	 -6.99809 	 -107.193 	 
H 	 -96.844 	 -6.78514 	 -107.85 	 
H 	 -97.5541 	 -6.43463 	 -106.2 	 
H 	 -97.5837 	 -7.99097 	 -106.831 	 
S 	 -104.212 	 -2.41911 	 -105.412 	 
C 	 -105.778 	 -3.14289 	 -105.009 	 
C 	 -105.763 	 -4.46437 	 -105.348 	 
C 	 -104.496 	 -4.97443 	 -105.807 	 
C 	 -103.567 	 -3.96446 	 -105.912 	 
H 	 -106.542 	 -5.1082 	 -105.08 	 
C 	 -104.212 	 -6.52837 	 -105.883 	 
H 	 -103.352 	 -6.60159 	 -106.616 	 
H 	 -104.971 	 -7.22769 	 -106.244 	 
C 	 -103.87 	 -7.28419 	 -104.583 	 
H 	 -104.696 	 -7.02795 	 -103.941 	 
H 	 -103.051 	 -6.85948 	 -104.145 	 
C 	 -103.747 	 -8.83636 	 -104.713 	 
H 	 -104.805 	 -9.37545 	 -104.626 	 
H 	 -103.155 	 -9.13259 	 -103.883 	 
H 	 -103.205 	 -9.05377 	 -105.594 	 
H 	 -98.7954 	 -3.41084 	 -106.395 	 
H 	 -106.543 	 -2.53527 	 -104.601 	 
*
