! wB97X-D3 SP def2-SVP
%pal
nprocs 24
end

* xyz 0 1
S 	 -35.1556 	 -11.6116 	 16.4045 	 
C 	 -33.4879 	 -12.0227 	 16.822 	 
C 	 -32.6643 	 -10.9476 	 16.4546 	 
C 	 -33.4091 	 -9.81711 	 16.045 	 
C 	 -34.8018 	 -10.0072 	 16.0233 	 
H 	 -32.9976 	 -8.84797 	 15.7573 	 
C 	 -31.1847 	 -11.0121 	 16.7019 	 
H 	 -30.6175 	 -10.4423 	 15.8977 	 
H 	 -30.8848 	 -12.044 	 16.6353 	 
C 	 -30.7168 	 -10.3749 	 18.0679 	 
H 	 -31.426 	 -9.68269 	 18.3804 	 
H 	 -30.608 	 -11.2036 	 18.8468 	 
C 	 -29.3756 	 -9.71009 	 17.8698 	 
H 	 -28.8758 	 -9.43438 	 18.7892 	 
H 	 -28.7971 	 -10.4455 	 17.4331 	 
H 	 -29.3441 	 -8.76738 	 17.2211 	 
S 	 -37.012 	 -9.47995 	 14.3867 	 
C 	 -37.8132 	 -7.97003 	 14.5289 	 
C 	 -37.253 	 -7.16879 	 15.5072 	 
C 	 -36.0821 	 -7.73068 	 16.1371 	 
C 	 -35.8683 	 -9.02923 	 15.6647 	 
H 	 -37.7068 	 -6.22298 	 15.639 	 
C 	 -35.2764 	 -6.94028 	 17.2327 	 
H 	 -34.6955 	 -7.63291 	 17.8477 	 
H 	 -36.0445 	 -6.5333 	 17.9646 	 
C 	 -34.59 	 -5.6349 	 16.7685 	 
H 	 -34.0155 	 -5.2903 	 17.663 	 
H 	 -35.386 	 -4.82681 	 16.5308 	 
C 	 -33.652 	 -5.89943 	 15.6417 	 
H 	 -34.0738 	 -6.39791 	 14.785 	 
H 	 -32.759 	 -6.42297 	 15.9141 	 
H 	 -33.1876 	 -4.99894 	 15.1907 	 
H 	 -33.0676 	 -12.9294 	 17.2069 	 
H 	 -38.7246 	 -7.71513 	 13.9896 	 
*
