! wB97X-D3 SP def2-SVP
%pal
nprocs 24
end

* xyz 0 1
S 	 -107 	 38.1553 	 -12.3727 	 
C 	 -107.741 	 37.8296 	 -13.9415 	 
C 	 -106.693 	 37.5553 	 -14.8859 	 
C 	 -105.381 	 37.5987 	 -14.3055 	 
C 	 -105.393 	 37.7344 	 -12.9187 	 
H 	 -104.463 	 37.5175 	 -14.8169 	 
C 	 -106.924 	 37.3844 	 -16.3631 	 
H 	 -106.143 	 38.0455 	 -16.8056 	 
H 	 -107.932 	 37.8492 	 -16.5736 	 
C 	 -107.073 	 35.9282 	 -16.7597 	 
H 	 -106.328 	 35.3227 	 -16.2402 	 
H 	 -108.053 	 35.5314 	 -16.3598 	 
C 	 -106.863 	 35.7659 	 -18.2571 	 
H 	 -106.108 	 36.427 	 -18.7279 	 
H 	 -106.718 	 34.7301 	 -18.5648 	 
H 	 -107.777 	 36.0819 	 -18.75 	 
S 	 -103.601 	 39.046 	 -11.1748 	 
C 	 -102.144 	 38.2251 	 -10.6918 	 
C 	 -102.034 	 36.9608 	 -11.2234 	 
C 	 -103.183 	 36.6232 	 -12.0347 	 
C 	 -104.134 	 37.6563 	 -12.1392 	 
H 	 -101.103 	 36.3713 	 -10.992 	 
C 	 -103.299 	 35.2262 	 -12.5788 	 
H 	 -104.343 	 34.9912 	 -12.8018 	 
H 	 -102.845 	 34.6224 	 -11.7505 	 
C 	 -102.425 	 34.9925 	 -13.8419 	 
H 	 -101.415 	 35.3493 	 -13.5133 	 
H 	 -102.836 	 35.6839 	 -14.5557 	 
C 	 -102.289 	 33.5706 	 -14.4181 	 
H 	 -103.305 	 33.2113 	 -14.4881 	 
H 	 -101.813 	 32.9026 	 -13.6217 	 
H 	 -101.699 	 33.5671 	 -15.3011 	 
H 	 -108.78 	 37.8405 	 -14.0684 	 
H 	 -101.479 	 38.7403 	 -10.093 	 
*
