! wB97X-D3 SP def2-SVP
%pal
nprocs 24
end

* xyz 0 1
S 	 17.32 	 -7.88972 	 -117.658 	 
C 	 17.6671 	 -7.97047 	 -115.969 	 
C 	 16.7735 	 -7.16511 	 -115.236 	 
C 	 15.6929 	 -6.64491 	 -116.051 	 
C 	 15.8525 	 -6.95897 	 -117.387 	 
H 	 14.7643 	 -6.16219 	 -115.725 	 
C 	 16.8027 	 -6.8474 	 -113.78 	 
H 	 17.5473 	 -7.41503 	 -113.314 	 
H 	 15.8452 	 -7.2256 	 -113.402 	 
C 	 17.0729 	 -5.34286 	 -113.398 	 
H 	 16.2218 	 -4.70996 	 -113.67 	 
H 	 17.0983 	 -5.38156 	 -112.304 	 
C 	 18.4034 	 -4.66116 	 -113.868 	 
H 	 18.5259 	 -4.73336 	 -114.97 	 
H 	 18.326 	 -3.63071 	 -113.614 	 
H 	 19.229 	 -5.22293 	 -113.395 	 
S 	 15.781 	 -6.12391 	 -120.068 	 
C 	 14.3061 	 -5.81894 	 -120.861 	 
C 	 13.2522 	 -6.05938 	 -120.024 	 
C 	 13.5891 	 -6.45887 	 -118.7 	 
C 	 14.9761 	 -6.55176 	 -118.499 	 
H 	 12.2446 	 -5.89827 	 -120.365 	 
C 	 12.4111 	 -6.71059 	 -117.769 	 
H 	 12.688 	 -7.52485 	 -117.06 	 
H 	 11.5702 	 -7.04314 	 -118.367 	 
C 	 11.933 	 -5.47733 	 -116.957 	 
H 	 11.4457 	 -4.7511 	 -117.577 	 
H 	 12.6685 	 -5.03275 	 -116.324 	 
C 	 10.8918 	 -6.00746 	 -115.978 	 
H 	 11.2694 	 -6.73144 	 -115.303 	 
H 	 10.0817 	 -6.39775 	 -116.626 	 
H 	 10.4706 	 -5.13585 	 -115.412 	 
H 	 18.5274 	 -8.45274 	 -115.563 	 
H 	 14.3346 	 -5.32435 	 -121.85 	 
*
