! wB97X-D3 SP def2-SVP
%pal
nprocs 24
end

* xyz 0 1
S 	 -132.681 	 61.9333 	 -59.4442 	 
C 	 -133.414 	 63.5045 	 -59.7106 	 
C 	 -133.23 	 64.3781 	 -58.6251 	 
C 	 -132.415 	 63.7446 	 -57.6193 	 
C 	 -131.983 	 62.4812 	 -57.9537 	 
H 	 -132.135 	 64.1696 	 -56.6963 	 
C 	 -133.76 	 65.8009 	 -58.5164 	 
H 	 -132.812 	 66.3553 	 -58.0374 	 
H 	 -134.597 	 65.9239 	 -57.8948 	 
C 	 -134.046 	 66.5097 	 -59.8655 	 
H 	 -133.069 	 66.5725 	 -60.3361 	 
H 	 -134.63 	 65.8351 	 -60.4697 	 
C 	 -134.662 	 67.8555 	 -59.6881 	 
H 	 -134.575 	 68.474 	 -60.5716 	 
H 	 -135.724 	 67.769 	 -59.5017 	 
H 	 -134.213 	 68.4178 	 -58.8469 	 
S 	 -131.753 	 59.9845 	 -56.8565 	 
C 	 -130.277 	 59.4581 	 -56.2029 	 
C 	 -129.412 	 60.5417 	 -56.0069 	 
C 	 -129.982 	 61.7893 	 -56.4538 	 
C 	 -131.179 	 61.6091 	 -57.1184 	 
H 	 -128.363 	 60.4245 	 -55.6746 	 
C 	 -129.188 	 63.0647 	 -56.3262 	 
H 	 -129.021 	 63.158 	 -55.2837 	 
H 	 -129.843 	 63.8952 	 -56.6702 	 
C 	 -127.825 	 63.0543 	 -57.1753 	 
H 	 -127.925 	 62.5787 	 -58.1485 	 
H 	 -127.241 	 62.4047 	 -56.5727 	 
C 	 -127.013 	 64.2758 	 -57.1526 	 
H 	 -126.685 	 64.4523 	 -56.1192 	 
H 	 -127.485 	 65.1888 	 -57.6092 	 
H 	 -126.032 	 64.2267 	 -57.7039 	 
H 	 -134.019 	 63.8378 	 -60.5352 	 
H 	 -130.174 	 58.515 	 -55.7432 	 
*
