! wB97X-D3 SP def2-SVP
%pal
nprocs 24
end

* xyz 0 1
S 	 -49.6173 	 6.53099 	 -15.5474 	 
C 	 -48.2592 	 6.47419 	 -16.7462 	 
C 	 -48.6938 	 6.4932 	 -18.0593 	 
C 	 -50.1427 	 6.61385 	 -18.1258 	 
C 	 -50.7639 	 6.54647 	 -16.8937 	 
H 	 -50.7453 	 6.63645 	 -18.9935 	 
C 	 -47.8672 	 6.46998 	 -19.342 	 
H 	 -48.5794 	 6.29002 	 -20.1541 	 
H 	 -47.2253 	 5.55039 	 -19.2791 	 
C 	 -47.0222 	 7.66626 	 -19.722 	 
H 	 -46.4778 	 7.87024 	 -18.7953 	 
H 	 -46.4379 	 7.32993 	 -20.5599 	 
C 	 -47.8163 	 8.87136 	 -20.0366 	 
H 	 -47.2819 	 9.76744 	 -20.3463 	 
H 	 -48.5351 	 8.64244 	 -20.7813 	 
H 	 -48.2993 	 9.137 	 -19.039 	 
S 	 -53.0098 	 7.7435 	 -15.7665 	 
C 	 -54.4654 	 6.79109 	 -15.7125 	 
C 	 -54.3732 	 5.69564 	 -16.6286 	 
C 	 -53.0496 	 5.43997 	 -17.0779 	 
C 	 -52.217 	 6.4132 	 -16.6179 	 
H 	 -55.3284 	 5.13614 	 -16.8098 	 
C 	 -52.7084 	 4.20776 	 -17.9389 	 
H 	 -52.0638 	 4.54735 	 -18.6828 	 
H 	 -53.5944 	 3.92035 	 -18.3798 	 
C 	 -52.0351 	 3.05809 	 -17.2179 	 
H 	 -50.9688 	 3.24099 	 -17.2889 	 
H 	 -52.0338 	 2.18478 	 -17.8949 	 
C 	 -52.4287 	 2.69548 	 -15.7705 	 
H 	 -52.3468 	 3.52676 	 -15.0715 	 
H 	 -51.8745 	 1.88882 	 -15.2315 	 
H 	 -53.5444 	 2.4227 	 -15.7409 	 
H 	 -47.1799 	 6.50049 	 -16.4251 	 
H 	 -55.382 	 6.97606 	 -15.208 	 
*
