! wB97X-D3 SP def2-SVP
%pal
nprocs 24
end

* xyz 0 1
S 	 44.2863 	 -20.7094 	 -115.726 	 
C 	 45.9818 	 -20.5442 	 -116.109 	 
C 	 46.7919 	 -20.7393 	 -115.026 	 
C 	 46.0369 	 -21.1295 	 -113.897 	 
C 	 44.673 	 -21.196 	 -114.135 	 
H 	 46.4288 	 -21.2134 	 -112.873 	 
C 	 48.2784 	 -20.4545 	 -115.011 	 
H 	 48.481 	 -19.7354 	 -114.284 	 
H 	 48.5455 	 -19.9308 	 -115.917 	 
C 	 49.2091 	 -21.6305 	 -115.109 	 
H 	 48.7866 	 -22.4259 	 -115.678 	 
H 	 50.1705 	 -21.2801 	 -115.489 	 
C 	 49.4531 	 -22.3044 	 -113.827 	 
H 	 49.9131 	 -21.6559 	 -113.011 	 
H 	 48.6074 	 -22.7912 	 -113.311 	 
H 	 49.9829 	 -23.1698 	 -113.986 	 
S 	 42.5655 	 -19.9747 	 -113.067 	 
C 	 41.9374 	 -20.4664 	 -111.467 	 
C 	 42.5292 	 -21.658 	 -111.082 	 
C 	 43.5558 	 -22.031 	 -111.977 	 
C 	 43.6711 	 -21.2623 	 -113.115 	 
H 	 42.063 	 -22.2119 	 -110.219 	 
C 	 44.4062 	 -23.289 	 -111.791 	 
H 	 44.5345 	 -23.5346 	 -110.748 	 
H 	 45.3963 	 -23.1003 	 -112.178 	 
C 	 43.7124 	 -24.5113 	 -112.401 	 
H 	 42.6294 	 -24.4734 	 -112.107 	 
H 	 44.0223 	 -25.4343 	 -111.85 	 
C 	 43.8197 	 -24.688 	 -113.937 	 
H 	 44.7368 	 -24.9677 	 -114.333 	 
H 	 43.3684 	 -23.9037 	 -114.503 	 
H 	 43.1128 	 -25.4521 	 -114.236 	 
H 	 46.2607 	 -20.254 	 -117.106 	 
H 	 41.0695 	 -19.9815 	 -111.03 	 
*
