! wB97X-D3 SP def2-SVP
%pal
nprocs 24
end

* xyz 0 1
S 	 -108.814 	 57.6232 	 -95.9957 	 
C 	 -107.078 	 57.7144 	 -95.7266 	 
C 	 -106.359 	 56.7207 	 -96.324 	 
C 	 -107.233 	 55.8198 	 -97.0556 	 
C 	 -108.57 	 56.1287 	 -96.9148 	 
H 	 -106.905 	 54.9571 	 -97.6213 	 
C 	 -104.815 	 56.6004 	 -96.1824 	 
H 	 -104.604 	 55.6588 	 -95.6885 	 
H 	 -104.437 	 57.2092 	 -95.3673 	 
C 	 -103.994 	 56.5381 	 -97.4738 	 
H 	 -102.957 	 56.3875 	 -97.3067 	 
H 	 -104.293 	 55.7616 	 -98.1375 	 
C 	 -104.195 	 57.8523 	 -98.3409 	 
H 	 -103.834 	 58.7512 	 -97.7934 	 
H 	 -103.692 	 57.8032 	 -99.2845 	 
H 	 -105.241 	 58.0649 	 -98.5032 	 
S 	 -110.933 	 55.9246 	 -98.4439 	 
C 	 -111.68 	 54.3381 	 -98.5714 	 
C 	 -110.937 	 53.4095 	 -97.9301 	 
C 	 -109.771 	 53.8894 	 -97.3044 	 
C 	 -109.628 	 55.2572 	 -97.4152 	 
H 	 -111.052 	 52.3051 	 -97.977 	 
C 	 -108.764 	 52.9779 	 -96.629 	 
H 	 -108.108 	 53.5779 	 -95.9764 	 
H 	 -108.16 	 52.4933 	 -97.3589 	 
C 	 -109.267 	 51.9605 	 -95.5641 	 
H 	 -109.91 	 51.2306 	 -96.0045 	 
H 	 -109.816 	 52.3617 	 -94.6157 	 
C 	 -108.162 	 51.1433 	 -94.916 	 
H 	 -107.755 	 50.4587 	 -95.6399 	 
H 	 -108.598 	 50.5258 	 -94.1327 	 
H 	 -107.286 	 51.756 	 -94.5624 	 
H 	 -106.591 	 58.6047 	 -95.3449 	 
H 	 -112.591 	 54.2243 	 -99.1675 	 
*
