! wB97X-D3 SP def2-SVP
%pal
nprocs 24
end

* xyz 0 1
S 	 -53.5651 	 -50.5598 	 -80.2447 	 
C 	 -54.6874 	 -50.6929 	 -81.6329 	 
C 	 -55.0155 	 -49.4496 	 -82.0617 	 
C 	 -54.2745 	 -48.391 	 -81.5089 	 
C 	 -53.4879 	 -48.8429 	 -80.4239 	 
H 	 -54.4924 	 -47.3793 	 -81.8022 	 
C 	 -55.9686 	 -49.2778 	 -83.2821 	 
H 	 -55.7332 	 -50.0588 	 -83.9802 	 
H 	 -55.5935 	 -48.4245 	 -83.7848 	 
C 	 -57.4783 	 -49.2367 	 -82.9455 	 
H 	 -57.9504 	 -48.9592 	 -83.9213 	 
H 	 -58.0132 	 -50.1581 	 -82.7925 	 
C 	 -57.8369 	 -48.184 	 -81.9801 	 
H 	 -57.3606 	 -47.2235 	 -82.2172 	 
H 	 -58.9518 	 -48.2184 	 -82.0531 	 
H 	 -57.6369 	 -48.5228 	 -80.9121 	 
S 	 -51.62 	 -48.2655 	 -78.5746 	 
C 	 -51.8905 	 -46.9154 	 -77.4685 	 
C 	 -52.9873 	 -46.1892 	 -77.7952 	 
C 	 -53.7671 	 -46.7817 	 -78.8329 	 
C 	 -53.0963 	 -47.9262 	 -79.3682 	 
H 	 -53.1979 	 -45.194 	 -77.4518 	 
C 	 -55.0671 	 -46.2184 	 -79.2753 	 
H 	 -55.743 	 -46.1988 	 -78.3624 	 
H 	 -55.6301 	 -46.8485 	 -80.0252 	 
C 	 -54.9664 	 -44.7935 	 -79.9156 	 
H 	 -54.6111 	 -44.9015 	 -80.9271 	 
H 	 -54.1968 	 -44.2172 	 -79.4137 	 
C 	 -56.2034 	 -43.8876 	 -79.799 	 
H 	 -56.9689 	 -44.3201 	 -80.4249 	 
H 	 -56.0326 	 -42.856 	 -80.0634 	 
H 	 -56.6917 	 -44.0192 	 -78.7902 	 
H 	 -54.9683 	 -51.6625 	 -82.0466 	 
H 	 -51.2158 	 -46.4347 	 -76.956 	 
*
