! wB97X-D3 SP def2-SVP
%pal
nprocs 24
end

* xyz 0 1
S 	 3.29054 	 -20.1116 	 -115.906 	 
C 	 3.28891 	 -18.3694 	 -115.887 	 
C 	 2.09907 	 -17.8709 	 -115.365 	 
C 	 1.29133 	 -18.9083 	 -114.909 	 
C 	 1.78534 	 -20.1767 	 -115.03 	 
H 	 0.261635 	 -18.7872 	 -114.468 	 
C 	 1.69848 	 -16.4042 	 -115.35 	 
H 	 2.23792 	 -16.1241 	 -116.282 	 
H 	 2.16258 	 -15.9184 	 -114.541 	 
C 	 0.230231 	 -16.0766 	 -115.678 	 
H 	 -0.579454 	 -16.5977 	 -115.095 	 
H 	 0.189105 	 -15.007 	 -115.387 	 
C 	 -0.137891 	 -16.3874 	 -117.196 	 
H 	 -0.0559474 	 -17.5249 	 -117.302 	 
H 	 -1.18897 	 -16.1665 	 -117.395 	 
H 	 0.534409 	 -15.8874 	 -117.934 	 
S 	 2.09279 	 -21.9316 	 -112.957 	 
C 	 0.924793 	 -23.148 	 -112.526 	 
C 	 -0.0291215 	 -23.1474 	 -113.497 	 
C 	 0.12069 	 -22.1103 	 -114.51 	 
C 	 1.34456 	 -21.4202 	 -114.423 	 
H 	 -0.775536 	 -23.8393 	 -113.484 	 
C 	 -1.04125 	 -21.8781 	 -115.507 	 
H 	 -0.922915 	 -20.9375 	 -115.971 	 
H 	 -1.95494 	 -21.7737 	 -114.927 	 
C 	 -1.24613 	 -22.8812 	 -116.512 	 
H 	 -2.16611 	 -22.6991 	 -117.073 	 
H 	 -1.45305 	 -23.837 	 -115.931 	 
C 	 -0.103464 	 -22.9167 	 -117.574 	 
H 	 0.824632 	 -23.4077 	 -117.196 	 
H 	 0.16217 	 -21.9219 	 -117.915 	 
H 	 -0.392733 	 -23.5461 	 -118.373 	 
H 	 3.95879 	 -17.7112 	 -116.459 	 
H 	 0.842197 	 -23.853 	 -111.709 	 
*
