! wB97X-D3 SP def2-SVP
%pal
nprocs 24
end

* xyz 0 1
S 	 -83.1425 	 -42.9916 	 -89.7206 	 
C 	 -81.5419 	 -42.3694 	 -89.1375 	 
C 	 -81.0584 	 -43.2937 	 -88.2006 	 
C 	 -81.8766 	 -44.4847 	 -88.0794 	 
C 	 -83.0426 	 -44.5724 	 -88.8964 	 
H 	 -81.5499 	 -45.1749 	 -87.3379 	 
C 	 -79.7514 	 -43.0554 	 -87.4355 	 
H 	 -79.9092 	 -42.0735 	 -86.8978 	 
H 	 -78.9865 	 -42.7595 	 -88.2383 	 
C 	 -79.226 	 -44.2163 	 -86.5207 	 
H 	 -79.9692 	 -44.3229 	 -85.765 	 
H 	 -79.0947 	 -45.1431 	 -87.1343 	 
C 	 -77.8121 	 -44.0678 	 -85.952 	 
H 	 -77.6266 	 -43.1121 	 -85.4215 	 
H 	 -77.7497 	 -44.8527 	 -85.129 	 
H 	 -77.1233 	 -44.1563 	 -86.7829 	 
S 	 -85.6766 	 -45.0184 	 -88.4776 	 
C 	 -86.1722 	 -46.6888 	 -88.6679 	 
C 	 -85.2131 	 -47.579 	 -89.0218 	 
C 	 -83.9297 	 -46.9431 	 -89.0119 	 
C 	 -84.0314 	 -45.5279 	 -88.8969 	 
H 	 -85.4329 	 -48.5686 	 -89.2945 	 
C 	 -82.723 	 -47.7508 	 -89.2938 	 
H 	 -83.1426 	 -48.7908 	 -89.3474 	 
H 	 -82.0008 	 -47.8152 	 -88.4718 	 
C 	 -81.9881 	 -47.2707 	 -90.5576 	 
H 	 -80.9892 	 -47.7153 	 -90.7255 	 
H 	 -81.83 	 -46.1912 	 -90.4523 	 
C 	 -82.803 	 -47.3799 	 -91.7714 	 
H 	 -82.221 	 -47.0328 	 -92.6899 	 
H 	 -83.6793 	 -46.8079 	 -91.7464 	 
H 	 -83.1534 	 -48.3962 	 -91.869 	 
H 	 -81.1951 	 -41.4148 	 -89.3349 	 
H 	 -87.1686 	 -47.0257 	 -88.7854 	 
*
