! wB97X-D3 SP def2-SVP
%pal
nprocs 24
end

* xyz 0 1
S 	 -99.596 	 3.31532 	 -105.314 	 
C 	 -99.2026 	 4.69486 	 -106.306 	 
C 	 -97.8704 	 4.79214 	 -106.717 	 
C 	 -97.1016 	 3.72674 	 -106.058 	 
C 	 -97.9214 	 2.8333 	 -105.338 	 
H 	 -96.0643 	 3.56693 	 -106.05 	 
C 	 -97.326 	 5.78347 	 -107.777 	 
H 	 -97.6315 	 6.83613 	 -107.562 	 
H 	 -97.9125 	 5.40422 	 -108.604 	 
C 	 -95.869 	 5.6372 	 -108.179 	 
H 	 -95.3728 	 6.07669 	 -107.332 	 
H 	 -95.5438 	 4.58018 	 -108.359 	 
C 	 -95.5617 	 6.34752 	 -109.415 	 
H 	 -96.2398 	 6.12162 	 -110.205 	 
H 	 -95.5279 	 7.40915 	 -109.193 	 
H 	 -94.5561 	 6.02156 	 -109.679 	 
S 	 -98.0718 	 0.0971751 	 -105.873 	 
C 	 -97.4953 	 -0.984059 	 -104.608 	 
C 	 -96.5839 	 -0.371315 	 -103.793 	 
C 	 -96.6847 	 1.04409 	 -103.897 	 
C 	 -97.5184 	 1.49671 	 -104.898 	 
H 	 -95.914 	 -0.904627 	 -103.127 	 
C 	 -95.9528 	 1.95728 	 -103.053 	 
H 	 -96.7075 	 2.28318 	 -102.425 	 
H 	 -95.8617 	 2.86774 	 -103.71 	 
C 	 -94.6968 	 1.61957 	 -102.32 	 
H 	 -94.0068 	 1.12827 	 -103.01 	 
H 	 -95.0101 	 0.824276 	 -101.622 	 
C 	 -94.0019 	 2.85051 	 -101.672 	 
H 	 -93.4939 	 3.36399 	 -102.431 	 
H 	 -93.2462 	 2.36272 	 -100.997 	 
H 	 -94.6605 	 3.5147 	 -101.232 	 
H 	 -99.8611 	 5.36331 	 -106.848 	 
H 	 -97.5162 	 -2.07449 	 -104.708 	 
*
