! wB97X-D3 SP def2-SVP
%pal
nprocs 24
end

* xyz 0 1
S 	 -49.3748 	 16.8415 	 22.7935 	 
C 	 -49.4442 	 17.9307 	 24.1538 	 
C 	 -49.327 	 19.3072 	 23.771 	 
C 	 -48.9562 	 19.4291 	 22.3751 	 
C 	 -48.8629 	 18.1824 	 21.7503 	 
H 	 -48.7551 	 20.3088 	 21.8238 	 
C 	 -49.4577 	 20.4726 	 24.7232 	 
H 	 -49.947 	 20.0946 	 25.6218 	 
H 	 -50.0811 	 21.2502 	 24.2784 	 
C 	 -48.0882 	 20.9303 	 24.9725 	 
H 	 -47.4637 	 21.0022 	 24.0828 	 
H 	 -48.1495 	 21.8201 	 25.4881 	 
C 	 -47.337 	 19.9574 	 25.9208 	 
H 	 -47.8164 	 19.6812 	 26.824 	 
H 	 -47.2017 	 19.0187 	 25.4221 	 
H 	 -46.4005 	 20.3378 	 26.2518 	 
S 	 -50.0375 	 18.0203 	 19.2373 	 
C 	 -49.0635 	 17.4213 	 17.8914 	 
C 	 -47.7255 	 17.3205 	 18.2818 	 
C 	 -47.4181 	 17.7748 	 19.5995 	 
C 	 -48.5703 	 18.0476 	 20.3196 	 
H 	 -46.9605 	 16.7322 	 17.7325 	 
C 	 -46.1113 	 17.395 	 20.1796 	 
H 	 -45.8768 	 18.2405 	 20.8452 	 
H 	 -45.3339 	 17.485 	 19.4343 	 
C 	 -45.928 	 16.0665 	 20.8867 	 
H 	 -46.6334 	 15.9754 	 21.708 	 
H 	 -44.9393 	 16.0879 	 21.3839 	 
C 	 -45.9426 	 14.9063 	 19.9431 	 
H 	 -45.3534 	 15.0216 	 19.0185 	 
H 	 -46.859 	 14.7076 	 19.5707 	 
H 	 -45.6092 	 14.1193 	 20.5161 	 
H 	 -49.7127 	 17.5833 	 25.1574 	 
H 	 -49.3819 	 17.0281 	 16.979 	 
*
