! wB97X-D3 SP def2-SVP
%pal
nprocs 24
end

* xyz 0 1
S 	 -96.1758 	 46.5035 	 -90.1825 	 
C 	 -95.8093 	 44.765 	 -90.4586 	 
C 	 -96.359 	 44.3879 	 -91.6194 	 
C 	 -97.0207 	 45.4436 	 -92.3571 	 
C 	 -96.9741 	 46.6555 	 -91.7134 	 
H 	 -97.5841 	 45.323 	 -93.2965 	 
C 	 -96.4542 	 42.9601 	 -92.0993 	 
H 	 -97.4256 	 42.8477 	 -92.5922 	 
H 	 -96.6052 	 42.4325 	 -91.1664 	 
C 	 -95.2755 	 42.4241 	 -92.892 	 
H 	 -94.4378 	 42.4132 	 -92.1504 	 
H 	 -95.4691 	 41.4118 	 -93.1711 	 
C 	 -94.8637 	 43.139 	 -94.2046 	 
H 	 -94.128 	 42.4781 	 -94.7012 	 
H 	 -95.7035 	 43.3364 	 -94.8071 	 
H 	 -94.3689 	 44.0985 	 -93.9816 	 
S 	 -96.7262 	 49.271 	 -92.6905 	 
C 	 -98.1188 	 50.1354 	 -93.0318 	 
C 	 -99.2728 	 49.4314 	 -92.7597 	 
C 	 -99.0142 	 48.1877 	 -92.1039 	 
C 	 -97.6601 	 47.8757 	 -92.0135 	 
H 	 -100.244 	 49.8924 	 -92.9202 	 
C 	 -100.131 	 47.3805 	 -91.5498 	 
H 	 -100.475 	 47.828 	 -90.6439 	 
H 	 -99.6897 	 46.4802 	 -91.1839 	 
C 	 -101.343 	 47.0686 	 -92.5241 	 
H 	 -100.839 	 46.6037 	 -93.3242 	 
H 	 -101.815 	 48.028 	 -92.8978 	 
C 	 -102.362 	 46.0673 	 -92.0129 	 
H 	 -103.318 	 46.1426 	 -92.4308 	 
H 	 -102.492 	 46.329 	 -90.9631 	 
H 	 -102.075 	 45.0114 	 -92.0535 	 
H 	 -95.3436 	 44.0562 	 -89.841 	 
H 	 -98.108 	 51.1627 	 -93.4241 	 
*
