! wB97X-D3 SP def2-SVP
%pal
nprocs 24
end

* xyz 0 1
S 	 34.7222 	 -24.6737 	 -113.024 	 
C 	 36.4613 	 -24.9313 	 -113 	 
C 	 37.0933 	 -23.8396 	 -113.562 	 
C 	 36.2127 	 -22.9388 	 -114.191 	 
C 	 34.8774 	 -23.2548 	 -113.993 	 
H 	 36.4117 	 -22.0123 	 -114.706 	 
C 	 38.6408 	 -23.8022 	 -113.777 	 
H 	 38.836 	 -24.225 	 -114.719 	 
H 	 38.9859 	 -24.5459 	 -113.074 	 
C 	 39.3887 	 -22.4679 	 -113.517 	 
H 	 40.4017 	 -22.7603 	 -113.78 	 
H 	 39.1492 	 -21.6701 	 -114.251 	 
C 	 39.4974 	 -21.9868 	 -112.034 	 
H 	 40.1211 	 -22.4881 	 -111.32 	 
H 	 39.7635 	 -20.9446 	 -111.971 	 
H 	 38.4077 	 -21.9831 	 -111.697 	 
S 	 33.4732 	 -22.2331 	 -116.262 	 
C 	 32.1193 	 -21.1638 	 -115.967 	 
C 	 31.786 	 -21.1363 	 -114.628 	 
C 	 32.7139 	 -21.8743 	 -113.796 	 
C 	 33.7673 	 -22.4287 	 -114.508 	 
H 	 30.9653 	 -20.5839 	 -114.252 	 
C 	 32.5191 	 -22.0497 	 -112.324 	 
H 	 32.4864 	 -23.108 	 -112.074 	 
H 	 31.5553 	 -21.6383 	 -111.983 	 
C 	 33.5322 	 -21.3341 	 -111.408 	 
H 	 34.5817 	 -21.6543 	 -111.702 	 
H 	 33.3643 	 -21.7432 	 -110.351 	 
C 	 33.3572 	 -19.8026 	 -111.518 	 
H 	 33.5774 	 -19.3434 	 -112.475 	 
H 	 34.0351 	 -19.4667 	 -110.785 	 
H 	 32.3291 	 -19.445 	 -111.191 	 
H 	 36.9548 	 -25.8041 	 -112.549 	 
H 	 31.8325 	 -20.514 	 -116.702 	 
*
