! wB97X-D3 SP def2-SVP
%pal
nprocs 24
end

* xyz 0 1
S 	 -117.06 	 42.1911 	 -112.155 	 
C 	 -117.278 	 41.2642 	 -113.631 	 
C 	 -116.168 	 40.4156 	 -113.784 	 
C 	 -115.294 	 40.3778 	 -112.65 	 
C 	 -115.533 	 41.3978 	 -111.813 	 
H 	 -114.318 	 39.8759 	 -112.571 	 
C 	 -115.987 	 39.5182 	 -114.999 	 
H 	 -115.428 	 40.0405 	 -115.768 	 
H 	 -117.003 	 39.3388 	 -115.34 	 
C 	 -115.401 	 38.1198 	 -114.66 	 
H 	 -114.473 	 38.3473 	 -114.158 	 
H 	 -115.949 	 37.6062 	 -113.936 	 
C 	 -115.224 	 37.263 	 -115.902 	 
H 	 -114.324 	 37.6317 	 -116.31 	 
H 	 -115.175 	 36.2369 	 -115.634 	 
H 	 -116.035 	 37.4657 	 -116.624 	 
S 	 -114.17 	 43.5464 	 -110.528 	 
C 	 -112.836 	 43.0193 	 -109.419 	 
C 	 -112.929 	 41.6818 	 -109.112 	 
C 	 -113.946 	 40.9766 	 -109.795 	 
C 	 -114.637 	 41.8231 	 -110.703 	 
H 	 -112.301 	 41.2049 	 -108.32 	 
C 	 -114.115 	 39.5021 	 -109.643 	 
H 	 -113.353 	 39.1984 	 -108.988 	 
H 	 -113.8 	 38.9591 	 -110.561 	 
C 	 -115.5 	 38.999 	 -109.088 	 
H 	 -116.255 	 39.2027 	 -109.834 	 
H 	 -115.815 	 39.5655 	 -108.153 	 
C 	 -115.598 	 37.4715 	 -108.973 	 
H 	 -114.92 	 37.0643 	 -108.226 	 
H 	 -115.371 	 37.0242 	 -109.916 	 
H 	 -116.654 	 37.1626 	 -108.818 	 
H 	 -118.121 	 41.3682 	 -114.34 	 
H 	 -112.094 	 43.5904 	 -108.926 	 
*
