! wB97X-D3 SP def2-SVP
%pal
nprocs 24
end

* xyz 0 1
S 	 30.2705 	 -23.6036 	 -131.553 	 
C 	 28.7595 	 -22.7801 	 -131.266 	 
C 	 27.7047 	 -23.7134 	 -131.082 	 
C 	 28.1399 	 -25.0808 	 -131.253 	 
C 	 29.4983 	 -25.1989 	 -131.519 	 
H 	 27.5556 	 -25.9246 	 -131.152 	 
C 	 26.1758 	 -23.4362 	 -130.775 	 
H 	 25.6399 	 -24.2309 	 -131.394 	 
H 	 25.8971 	 -22.4647 	 -131.143 	 
C 	 25.6976 	 -23.7156 	 -129.298 	 
H 	 26.0446 	 -24.6799 	 -129.083 	 
H 	 26.1591 	 -23.0063 	 -128.568 	 
C 	 24.2082 	 -23.4921 	 -129.309 	 
H 	 23.8899 	 -22.6414 	 -129.865 	 
H 	 23.7143 	 -24.3985 	 -129.74 	 
H 	 23.8742 	 -23.3092 	 -128.293 	 
S 	 30.9112 	 -26.3168 	 -133.453 	 
C 	 31.6251 	 -27.937 	 -133.319 	 
C 	 31.2218 	 -28.5232 	 -132.079 	 
C 	 30.4003 	 -27.6939 	 -131.284 	 
C 	 30.3296 	 -26.4141 	 -131.775 	 
H 	 31.5292 	 -29.5874 	 -131.926 	 
C 	 29.7754 	 -28.2304 	 -130.018 	 
H 	 29.4808 	 -27.493 	 -129.326 	 
H 	 30.3532 	 -28.7657 	 -129.325 	 
C 	 28.6083 	 -29.1002 	 -130.286 	 
H 	 28.8366 	 -29.9309 	 -130.956 	 
H 	 27.9725 	 -28.5603 	 -130.908 	 
C 	 27.823 	 -29.6093 	 -129.025 	 
H 	 27.0731 	 -30.2321 	 -129.353 	 
H 	 27.4168 	 -28.7753 	 -128.498 	 
H 	 28.5034 	 -30.1573 	 -128.358 	 
H 	 28.7943 	 -21.6997 	 -131.073 	 
H 	 32.1959 	 -28.4736 	 -134.078 	 
*
