! wB97X-D3 SP def2-SVP
%pal
nprocs 24
end

* xyz 0 1
S 	 -94.2525 	 6.09677 	 -0.921952 	 
C 	 -92.8883 	 5.43327 	 -0.0498595 	 
C 	 -92.9285 	 5.64303 	 1.33306 	 
C 	 -94.0717 	 6.41921 	 1.59334 	 
C 	 -94.8576 	 6.80566 	 0.560876 	 
H 	 -94.4024 	 6.74347 	 2.58205 	 
C 	 -91.9548 	 5.03539 	 2.3073 	 
H 	 -91.4549 	 4.23339 	 1.76891 	 
H 	 -92.4647 	 4.5928 	 3.15247 	 
C 	 -90.8934 	 5.99765 	 2.8009 	 
H 	 -90.2589 	 6.38401 	 1.97892 	 
H 	 -91.3241 	 6.9701 	 3.09974 	 
C 	 -90.1032 	 5.53422 	 3.96564 	 
H 	 -89.0789 	 5.13809 	 3.70203 	 
H 	 -89.9694 	 6.36174 	 4.67226 	 
H 	 -90.6424 	 4.82078 	 4.60906 	 
S 	 -97.5313 	 6.8825 	 0.969109 	 
C 	 -98.3648 	 8.4599 	 1.05051 	 
C 	 -97.4664 	 9.46894 	 1.24961 	 
C 	 -96.1431 	 9.03062 	 0.980056 	 
C 	 -96.0275 	 7.67574 	 0.647141 	 
H 	 -97.8007 	 10.4778 	 1.50941 	 
C 	 -94.9973 	 10.0097 	 1.16341 	 
H 	 -95.1807 	 10.9628 	 0.624882 	 
H 	 -94.127 	 9.52947 	 0.618015 	 
C 	 -94.7433 	 10.4469 	 2.61506 	 
H 	 -95.7163 	 10.5571 	 3.10151 	 
H 	 -94.1299 	 11.3315 	 2.69452 	 
C 	 -94.0701 	 9.31591 	 3.40958 	 
H 	 -93.3473 	 8.7896 	 2.79103 	 
H 	 -94.8297 	 8.63825 	 3.75971 	 
H 	 -93.6517 	 9.80564 	 4.33816 	 
H 	 -92.0754 	 4.80125 	 -0.511708 	 
H 	 -99.4124 	 8.74793 	 1.12941 	 
*
