! wB97X-D3 SP def2-SVP
%pal
nprocs 24
end

* xyz 0 1
S 	 -111.116 	 15.4389 	 -116.211 	 
C 	 -111.096 	 16.7158 	 -117.377 	 
C 	 -112.294 	 16.8609 	 -117.961 	 
C 	 -113.35 	 16.2357 	 -117.31 	 
C 	 -112.842 	 15.5563 	 -116.206 	 
H 	 -114.397 	 16.2737 	 -117.541 	 
C 	 -112.517 	 17.808 	 -119.125 	 
H 	 -111.598 	 17.9171 	 -119.633 	 
H 	 -112.799 	 18.8542 	 -118.851 	 
C 	 -113.532 	 17.1953 	 -120.144 	 
H 	 -113.419 	 16.0437 	 -120.207 	 
H 	 -114.521 	 17.4448 	 -119.791 	 
C 	 -113.35 	 17.6318 	 -121.542 	 
H 	 -113.645 	 18.7037 	 -121.644 	 
H 	 -112.448 	 17.2508 	 -122.002 	 
H 	 -114.137 	 17.2693 	 -122.159 	 
S 	 -112.77 	 13.5913 	 -114.286 	 
C 	 -114.163 	 13.2721 	 -113.336 	 
C 	 -115.163 	 14.1395 	 -113.669 	 
C 	 -114.853 	 15.1265 	 -114.668 	 
C 	 -113.605 	 14.9103 	 -115.176 	 
H 	 -116.057 	 14.0592 	 -113.113 	 
C 	 -115.934 	 16.1391 	 -115.059 	 
H 	 -115.505 	 16.8393 	 -115.718 	 
H 	 -116.103 	 16.8338 	 -114.23 	 
C 	 -117.276 	 15.4979 	 -115.605 	 
H 	 -118.09 	 16.2653 	 -115.582 	 
H 	 -117.606 	 14.7591 	 -114.858 	 
C 	 -117.203 	 14.9124 	 -116.991 	 
H 	 -118.081 	 14.3847 	 -117.239 	 
H 	 -116.313 	 14.3129 	 -117.24 	 
H 	 -117.328 	 15.7036 	 -117.693 	 
H 	 -110.237 	 17.0726 	 -117.906 	 
H 	 -114.33 	 12.5144 	 -112.6 	 
*
