! wB97X-D3 SP def2-SVP
%pal
nprocs 24
end

* xyz 0 1
S 	 40.8423 	 -23.6089 	 -123.115 	 
C 	 39.1241 	 -23.6292 	 -123.418 	 
C 	 38.4707 	 -24.3744 	 -122.452 	 
C 	 39.3708 	 -24.9222 	 -121.512 	 
C 	 40.7109 	 -24.6577 	 -121.744 	 
H 	 38.999 	 -25.4018 	 -120.659 	 
C 	 36.992 	 -24.552 	 -122.387 	 
H 	 36.5845 	 -25.1773 	 -121.626 	 
H 	 36.743 	 -24.8286 	 -123.404 	 
C 	 36.2719 	 -23.1924 	 -122.207 	 
H 	 36.5914 	 -22.5878 	 -123.083 	 
H 	 35.2499 	 -23.3796 	 -122.186 	 
C 	 36.6004 	 -22.4863 	 -120.886 	 
H 	 36.0356 	 -22.7327 	 -120.034 	 
H 	 37.6599 	 -22.453 	 -120.674 	 
H 	 36.2428 	 -21.4377 	 -121.095 	 
S 	 42.803 	 -23.6214 	 -120.278 	 
C 	 43.9567 	 -24.6319 	 -119.534 	 
C 	 43.6177 	 -25.9691 	 -119.657 	 
C 	 42.4195 	 -26.1574 	 -120.415 	 
C 	 41.8784 	 -24.9271 	 -120.96 	 
H 	 44.2398 	 -26.7659 	 -119.182 	 
C 	 41.8461 	 -27.5084 	 -120.711 	 
H 	 40.8253 	 -27.4836 	 -121.035 	 
H 	 41.9011 	 -27.9516 	 -119.679 	 
C 	 42.6863 	 -28.4696 	 -121.553 	 
H 	 43.678 	 -28.3639 	 -121.189 	 
H 	 42.8775 	 -28.1315 	 -122.562 	 
C 	 42.2895 	 -29.9126 	 -121.549 	 
H 	 42.5606 	 -30.4615 	 -120.678 	 
H 	 42.7742 	 -30.4346 	 -122.352 	 
H 	 41.1694 	 -30.0809 	 -121.666 	 
H 	 38.643 	 -23.1333 	 -124.269 	 
H 	 44.8768 	 -24.2618 	 -118.981 	 
*
