! wB97X-D3 SP def2-SVP
%pal
nprocs 24
end

* xyz 0 1
S 	 -44.3914 	 17.2643 	 28.0669 	 
C 	 -44.8071 	 18.9317 	 27.6893 	 
C 	 -45.5291 	 19.5601 	 28.7022 	 
C 	 -45.8051 	 18.6122 	 29.7866 	 
C 	 -45.2153 	 17.3549 	 29.6066 	 
H 	 -46.296 	 18.8129 	 30.6971 	 
C 	 -45.988 	 20.9617 	 28.649 	 
H 	 -46.6181 	 21.0877 	 29.5364 	 
H 	 -46.509 	 21.1494 	 27.7476 	 
C 	 -44.8715 	 22.0479 	 28.6949 	 
H 	 -44.2706 	 22.0645 	 27.7791 	 
H 	 -45.3671 	 23.0515 	 28.5526 	 
C 	 -44.0071 	 21.8329 	 29.9069 	 
H 	 -43.3139 	 20.9578 	 29.7963 	 
H 	 -43.1402 	 22.52 	 29.964 	 
H 	 -44.5809 	 21.9836 	 30.8082 	 
S 	 -46.7094 	 15.6803 	 31.1527 	 
C 	 -46.0184 	 14.5787 	 32.2866 	 
C 	 -44.6301 	 14.7128 	 32.2882 	 
C 	 -44.2036 	 15.6999 	 31.3483 	 
C 	 -45.1446 	 16.233 	 30.5877 	 
H 	 -44.0935 	 13.9771 	 32.8793 	 
C 	 -42.7128 	 15.9437 	 31.1681 	 
H 	 -42.5258 	 16.7835 	 30.4111 	 
H 	 -42.3634 	 15.0723 	 30.7011 	 
C 	 -41.9235 	 16.3275 	 32.4172 	 
H 	 -41.9538 	 15.3737 	 33.0404 	 
H 	 -42.3341 	 17.0726 	 33.0317 	 
C 	 -40.437 	 16.6923 	 32.1674 	 
H 	 -39.9415 	 15.9343 	 31.6462 	 
H 	 -39.8514 	 16.7993 	 33.0822 	 
H 	 -40.2948 	 17.5923 	 31.5056 	 
H 	 -44.4955 	 19.4475 	 26.7676 	 
H 	 -46.5238 	 13.8095 	 32.8734 	 
*
