! wB97X-D3 SP def2-SVP
%pal
nprocs 24
end

* xyz 0 1
S 	 -39.6433 	 18.7368 	 24.901 	 
C 	 -39.9516 	 17.3374 	 25.8856 	 
C 	 -40.0873 	 17.672 	 27.2396 	 
C 	 -40.0425 	 19.1147 	 27.408 	 
C 	 -40.0064 	 19.8249 	 26.2317 	 
H 	 -40.202 	 19.7199 	 28.3178 	 
C 	 -40.2746 	 16.6888 	 28.4183 	 
H 	 -41.1532 	 16.097 	 28.0927 	 
H 	 -40.6014 	 17.2171 	 29.2646 	 
C 	 -39.1142 	 15.793 	 28.7937 	 
H 	 -38.9336 	 14.9991 	 28.0541 	 
H 	 -38.1993 	 16.3861 	 28.8533 	 
C 	 -39.3418 	 14.9364 	 30.0931 	 
H 	 -38.4313 	 14.2503 	 30.3065 	 
H 	 -39.4772 	 15.5965 	 30.9562 	 
H 	 -40.2993 	 14.4016 	 30.0927 	 
S 	 -41.4959 	 22.1064 	 26.6974 	 
C 	 -40.8635 	 23.6707 	 26.3352 	 
C 	 -39.6047 	 23.5606 	 25.7556 	 
C 	 -39.1292 	 22.2338 	 25.745 	 
C 	 -40.0553 	 21.3229 	 26.1699 	 
H 	 -39.105 	 24.4765 	 25.5566 	 
C 	 -37.7313 	 21.7747 	 25.2586 	 
H 	 -37.5782 	 22.233 	 24.2282 	 
H 	 -37.8131 	 20.7366 	 24.9684 	 
C 	 -36.6024 	 22.073 	 26.2946 	 
H 	 -36.5928 	 23.1307 	 26.5107 	 
H 	 -35.6371 	 21.8111 	 25.9022 	 
C 	 -36.8386 	 21.2921 	 27.5505 	 
H 	 -37.7818 	 21.5072 	 28.0704 	 
H 	 -35.9879 	 21.4042 	 28.2737 	 
H 	 -36.906 	 20.2169 	 27.3325 	 
H 	 -39.8095 	 16.3178 	 25.5667 	 
H 	 -41.468 	 24.5868 	 26.3708 	 
*
