! wB97X-D3 SP def2-SVP
%pal
nprocs 24
end

* xyz 0 1
S 	 -87.602 	 -6.6778 	 -61.7018 	 
C 	 -88.5662 	 -5.26296 	 -62.1092 	 
C 	 -88.0141 	 -4.1424 	 -61.5339 	 
C 	 -87.0154 	 -4.50245 	 -60.5316 	 
C 	 -86.7479 	 -5.81738 	 -60.4028 	 
H 	 -86.4735 	 -3.83944 	 -59.8373 	 
C 	 -88.5151 	 -2.7545 	 -61.7512 	 
H 	 -88.7414 	 -2.34726 	 -60.8309 	 
H 	 -89.3869 	 -2.51651 	 -62.3223 	 
C 	 -87.4004 	 -1.84072 	 -62.3352 	 
H 	 -87.7885 	 -0.883525 	 -62.621 	 
H 	 -86.7217 	 -1.6204 	 -61.5558 	 
C 	 -86.744 	 -2.35082 	 -63.6007 	 
H 	 -85.9008 	 -1.66977 	 -63.995 	 
H 	 -86.3002 	 -3.28896 	 -63.4672 	 
H 	 -87.5595 	 -2.43379 	 -64.3914 	 
S 	 -85.0984 	 -7.92085 	 -60.0966 	 
C 	 -84.1299 	 -8.04273 	 -58.6345 	 
C 	 -84.3217 	 -6.95037 	 -57.7891 	 
C 	 -85.4951 	 -6.17216 	 -58.1489 	 
C 	 -85.8519 	 -6.4876 	 -59.4515 	 
H 	 -83.7822 	 -6.80196 	 -56.8295 	 
C 	 -85.9209 	 -4.90257 	 -57.4429 	 
H 	 -86.8591 	 -4.5123 	 -57.9033 	 
H 	 -85.2564 	 -4.05021 	 -57.5654 	 
C 	 -86.148 	 -4.94476 	 -55.8865 	 
H 	 -86.6815 	 -4.0761 	 -55.611 	 
H 	 -85.1697 	 -4.94267 	 -55.4372 	 
C 	 -86.9587 	 -6.06367 	 -55.2969 	 
H 	 -86.3749 	 -7.00725 	 -55.3828 	 
H 	 -87.9587 	 -6.30693 	 -55.73 	 
H 	 -87.1505 	 -5.81822 	 -54.239 	 
H 	 -89.3705 	 -5.35499 	 -62.8818 	 
H 	 -83.4012 	 -8.76285 	 -58.3771 	 
*
