! wB97X-D3 SP def2-SVP
%pal
nprocs 24
end

* xyz 0 1
S 	 -35.9052 	 -10.4143 	 4.0193 	 
C 	 -35.6642 	 -10.1104 	 5.66363 	 
C 	 -36.3581 	 -9.00381 	 6.0823 	 
C 	 -37.1028 	 -8.38266 	 5.02302 	 
C 	 -36.9108 	 -8.96904 	 3.78842 	 
H 	 -37.7855 	 -7.61716 	 5.12957 	 
C 	 -36.4672 	 -8.49175 	 7.48554 	 
H 	 -36.2427 	 -9.38995 	 8.05665 	 
H 	 -37.5591 	 -8.29035 	 7.68305 	 
C 	 -35.4486 	 -7.40373 	 7.98275 	 
H 	 -35.6756 	 -6.43163 	 7.47722 	 
H 	 -35.5342 	 -7.27369 	 9.07074 	 
C 	 -34.0166 	 -7.88984 	 7.69198 	 
H 	 -33.7354 	 -8.16154 	 6.6047 	 
H 	 -33.3664 	 -7.08686 	 8.03901 	 
H 	 -33.8009 	 -8.90473 	 8.07468 	 
S 	 -38.2109 	 -9.68665 	 1.43717 	 
C 	 -38.7395 	 -8.41748 	 0.397213 	 
C 	 -38.2245 	 -7.18263 	 0.755118 	 
C 	 -37.5283 	 -7.19873 	 1.9872 	 
C 	 -37.3861 	 -8.51649 	 2.52017 	 
H 	 -38.4444 	 -6.26621 	 0.213763 	 
C 	 -37.0664 	 -5.89073 	 2.6913 	 
H 	 -37.6603 	 -5.88766 	 3.65513 	 
H 	 -37.5806 	 -5.0456 	 2.19219 	 
C 	 -35.5933 	 -5.69503 	 2.97319 	 
H 	 -35.1106 	 -5.70163 	 1.99529 	 
H 	 -35.1752 	 -6.53791 	 3.54206 	 
C 	 -35.3812 	 -4.36665 	 3.74232 	 
H 	 -35.3939 	 -3.41343 	 3.14834 	 
H 	 -34.4664 	 -4.2926 	 4.29558 	 
H 	 -36.243 	 -4.13977 	 4.35134 	 
H 	 -34.9845 	 -10.7079 	 6.26998 	 
H 	 -39.3215 	 -8.64742 	 -0.479907 	 
*
