! wB97X-D3 SP def2-SVP
%pal
nprocs 24
end

* xyz 0 1
S 	 -56.353 	 -48.2512 	 -79.6334 	 
C 	 -56.1039 	 -46.6855 	 -78.9061 	 
C 	 -55.311 	 -46.7651 	 -77.8269 	 
C 	 -54.8439 	 -48.1536 	 -77.6019 	 
C 	 -55.3217 	 -49.0594 	 -78.5284 	 
H 	 -54.0486 	 -48.4718 	 -76.986 	 
C 	 -54.8399 	 -45.5093 	 -77.0819 	 
H 	 -55.7027 	 -44.8713 	 -77.0128 	 
H 	 -54.1704 	 -44.8869 	 -77.7373 	 
C 	 -54.0905 	 -45.7397 	 -75.7673 	 
H 	 -53.3067 	 -46.4188 	 -76.0506 	 
H 	 -53.6131 	 -44.8048 	 -75.4263 	 
C 	 -54.8939 	 -46.4155 	 -74.6325 	 
H 	 -54.4641 	 -46.3904 	 -73.6279 	 
H 	 -55.861 	 -45.9518 	 -74.4378 	 
H 	 -55.2056 	 -47.3582 	 -74.9781 	 
S 	 -55.0145 	 -51.0164 	 -80.345 	 
C 	 -54.3111 	 -52.5391 	 -79.9778 	 
C 	 -54.1438 	 -52.6279 	 -78.6234 	 
C 	 -54.4624 	 -51.4005 	 -77.8988 	 
C 	 -54.8772 	 -50.4273 	 -78.7464 	 
H 	 -53.6294 	 -53.4548 	 -78.2556 	 
C 	 -54.355 	 -51.3024 	 -76.4137 	 
H 	 -54.7749 	 -52.2139 	 -76.1068 	 
H 	 -54.9799 	 -50.5531 	 -75.9553 	 
C 	 -52.9432 	 -50.9848 	 -75.8527 	 
H 	 -52.4897 	 -50.3373 	 -76.5857 	 
H 	 -52.3047 	 -51.941 	 -75.78 	 
C 	 -52.8449 	 -50.2 	 -74.5319 	 
H 	 -51.9126 	 -50.5789 	 -74.0683 	 
H 	 -53.6445 	 -50.6069 	 -73.8358 	 
H 	 -52.9113 	 -49.1397 	 -74.6863 	 
H 	 -56.5122 	 -45.7955 	 -79.364 	 
H 	 -53.8883 	 -53.2235 	 -80.6843 	 
*
