! wB97X-D3 SP def2-SVP
%pal
nprocs 24
end

* xyz 0 1
S 	 -54.9593 	 12.9146 	 -94.654 	 
C 	 -54.5263 	 11.4907 	 -93.7599 	 
C 	 -54.6261 	 11.7617 	 -92.3329 	 
C 	 -54.9677 	 13.154 	 -92.0897 	 
C 	 -55.1564 	 13.8748 	 -93.2325 	 
H 	 -55.1776 	 13.6338 	 -91.1805 	 
C 	 -54.4993 	 10.7543 	 -91.2465 	 
H 	 -55.0701 	 9.84815 	 -91.5339 	 
H 	 -55.0149 	 11.0725 	 -90.3321 	 
C 	 -53.026 	 10.4071 	 -90.9778 	 
H 	 -52.8433 	 9.83483 	 -91.8344 	 
H 	 -52.4266 	 11.3327 	 -91.1028 	 
C 	 -52.7588 	 9.61008 	 -89.6532 	 
H 	 -53.344 	 8.65988 	 -89.6403 	 
H 	 -51.7056 	 9.40525 	 -89.6885 	 
H 	 -53.1129 	 10.0717 	 -88.6795 	 
S 	 -57.6938 	 14.8817 	 -92.7855 	 
C 	 -57.9832 	 16.5415 	 -93.0209 	 
C 	 -56.8259 	 17.2709 	 -93.2756 	 
C 	 -55.6406 	 16.433 	 -93.4798 	 
C 	 -55.9912 	 15.0989 	 -93.2537 	 
H 	 -56.8282 	 18.3422 	 -93.3138 	 
C 	 -54.1783 	 16.883 	 -93.5272 	 
H 	 -53.7326 	 16.2474 	 -92.7808 	 
H 	 -54.0593 	 17.868 	 -93.0708 	 
C 	 -53.5028 	 16.8909 	 -94.904 	 
H 	 -54.0781 	 17.5966 	 -95.5447 	 
H 	 -53.5297 	 15.866 	 -95.3907 	 
C 	 -52.0023 	 17.0959 	 -94.7214 	 
H 	 -51.6226 	 16.4975 	 -93.8836 	 
H 	 -51.8247 	 18.2092 	 -94.6604 	 
H 	 -51.5976 	 16.7622 	 -95.6826 	 
H 	 -54.4953 	 10.4597 	 -94.1575 	 
H 	 -58.8828 	 17.1617 	 -92.9403 	 
*
