! wB97X-D3 SP def2-SVP
%pal
nprocs 24
end

* xyz 0 1
S 	 -96.2513 	 47.898 	 -101.489 	 
C 	 -95.7407 	 46.6995 	 -100.221 	 
C 	 -94.9922 	 47.3413 	 -99.2836 	 
C 	 -94.8923 	 48.7377 	 -99.475 	 
C 	 -95.4636 	 49.2054 	 -100.635 	 
H 	 -94.3307 	 49.4974 	 -98.88 	 
C 	 -94.2067 	 46.6492 	 -98.2199 	 
H 	 -93.3325 	 47.2199 	 -97.9452 	 
H 	 -93.9554 	 45.7228 	 -98.6961 	 
C 	 -95.0262 	 46.4594 	 -96.9335 	 
H 	 -95.4947 	 47.4083 	 -96.7238 	 
H 	 -95.9672 	 45.9003 	 -97.0933 	 
C 	 -94.2996 	 45.8357 	 -95.7687 	 
H 	 -95.0803 	 45.6855 	 -95.0052 	 
H 	 -93.9675 	 44.8594 	 -95.9879 	 
H 	 -93.5771 	 46.4641 	 -95.3635 	 
S 	 -94.5489 	 50.4556 	 -102.805 	 
C 	 -94.8233 	 52.1496 	 -102.962 	 
C 	 -95.4352 	 52.7659 	 -101.888 	 
C 	 -95.6814 	 51.7896 	 -100.856 	 
C 	 -95.3788 	 50.5236 	 -101.309 	 
H 	 -95.506 	 53.7995 	 -101.916 	 
C 	 -96.2425 	 52.0469 	 -99.5291 	 
H 	 -95.4906 	 51.835 	 -98.8414 	 
H 	 -97.0142 	 51.288 	 -99.3309 	 
C 	 -96.7277 	 53.4699 	 -99.2178 	 
H 	 -97.4436 	 53.7598 	 -99.956 	 
H 	 -95.854 	 54.1467 	 -99.3207 	 
C 	 -97.263 	 53.6739 	 -97.725 	 
H 	 -97.663 	 54.5873 	 -97.3552 	 
H 	 -96.5988 	 53.2169 	 -96.9882 	 
H 	 -98.0789 	 52.99 	 -97.6177 	 
H 	 -96.119 	 45.6905 	 -100.212 	 
H 	 -94.3707 	 52.7374 	 -103.719 	 
*
