! wB97X-D3 SP def2-SVP
%pal
nprocs 24
end

* xyz 0 1
S 	 -62.6456 	 1.74501 	 -16.2715 	 
C 	 -62.681 	 2.34614 	 -14.6824 	 
C 	 -61.6979 	 3.34058 	 -14.5602 	 
C 	 -61.0762 	 3.70737 	 -15.8142 	 
C 	 -61.3138 	 2.77639 	 -16.8069 	 
H 	 -60.3759 	 4.46674 	 -16.015 	 
C 	 -61.4616 	 3.98964 	 -13.2527 	 
H 	 -60.8746 	 4.91044 	 -13.4887 	 
H 	 -60.8569 	 3.46979 	 -12.5816 	 
C 	 -62.6871 	 4.46961 	 -12.5186 	 
H 	 -63.4388 	 3.65242 	 -12.3494 	 
H 	 -62.4354 	 4.75856 	 -11.4884 	 
C 	 -63.2488 	 5.74602 	 -13.1595 	 
H 	 -63.3787 	 5.53826 	 -14.2361 	 
H 	 -64.255 	 5.99026 	 -12.8165 	 
H 	 -62.6475 	 6.60932 	 -13.0121 	 
S 	 -60.1463 	 4.04929 	 -18.9399 	 
C 	 -58.9681 	 3.11629 	 -19.8279 	 
C 	 -59.1956 	 1.77149 	 -19.7175 	 
C 	 -60.16 	 1.40141 	 -18.7064 	 
C 	 -60.6362 	 2.52587 	 -18.1003 	 
H 	 -58.477 	 1.06114 	 -20.241 	 
C 	 -60.4209 	 -0.0518605 	 -18.3018 	 
H 	 -60.4607 	 -0.622018 	 -19.2297 	 
H 	 -61.4655 	 -0.00825965 	 -17.8742 	 
C 	 -59.4526 	 -0.707284 	 -17.2609 	 
H 	 -59.6964 	 -1.79438 	 -17.079 	 
H 	 -59.4442 	 -0.0736556 	 -16.3609 	 
C 	 -57.9837 	 -0.773842 	 -17.7868 	 
H 	 -57.5562 	 0.215373 	 -17.8676 	 
H 	 -57.9767 	 -1.27179 	 -18.7633 	 
H 	 -57.2439 	 -1.07386 	 -17.0454 	 
H 	 -63.2538 	 1.94585 	 -13.8468 	 
H 	 -58.3895 	 3.38955 	 -20.7004 	 
*
