! wB97X-D3 SP def2-SVP
%pal
nprocs 24
end

* xyz 0 1
S 	 -132.764 	 12.949 	 -6.30092 	 
C 	 -131.105 	 13.4721 	 -6.1363 	 
C 	 -130.289 	 13.2622 	 -7.18523 	 
C 	 -131.064 	 12.7296 	 -8.29358 	 
C 	 -132.401 	 12.6189 	 -8.04133 	 
H 	 -130.731 	 12.4456 	 -9.30353 	 
C 	 -128.735 	 13.5862 	 -7.2647 	 
H 	 -128.69 	 14.6237 	 -7.58419 	 
H 	 -128.295 	 12.9674 	 -8.0186 	 
C 	 -127.821 	 13.521 	 -6.01309 	 
H 	 -126.839 	 13.9021 	 -6.31575 	 
H 	 -128.163 	 14.2336 	 -5.22878 	 
C 	 -127.856 	 12.1938 	 -5.35537 	 
H 	 -127.306 	 11.4056 	 -5.91333 	 
H 	 -127.434 	 12.2154 	 -4.30585 	 
H 	 -128.959 	 11.7943 	 -5.29996 	 
S 	 -134.208 	 13.3072 	 -10.0407 	 
C 	 -134.874 	 12.1238 	 -11.0271 	 
C 	 -134.325 	 10.9264 	 -10.788 	 
C 	 -133.467 	 10.9039 	 -9.62859 	 
C 	 -133.385 	 12.1446 	 -9.00176 	 
H 	 -134.609 	 10.0646 	 -11.39 	 
C 	 -132.893 	 9.62265 	 -9.13981 	 
H 	 -133.812 	 9.06383 	 -8.75353 	 
H 	 -132.353 	 9.85458 	 -8.28547 	 
C 	 -132 	 8.72152 	 -10.0898 	 
H 	 -131.128 	 9.32 	 -10.4223 	 
H 	 -132.565 	 8.397 	 -10.975 	 
C 	 -131.472 	 7.56684 	 -9.30824 	 
H 	 -130.824 	 7.89553 	 -8.52222 	 
H 	 -130.786 	 6.92298 	 -9.93738 	 
H 	 -132.222 	 6.9846 	 -8.93378 	 
H 	 -130.719 	 13.9147 	 -5.26877 	 
H 	 -135.78 	 12.3042 	 -11.651 	 
*
