! wB97X-D3 SP def2-SVP
%pal
nprocs 24
end

* xyz 0 1
S 	 -72.6418 	 7.04535 	 -110.734 	 
C 	 -73.9403 	 7.46943 	 -109.564 	 
C 	 -73.4476 	 7.32854 	 -108.268 	 
C 	 -72.1381 	 6.76622 	 -108.19 	 
C 	 -71.6138 	 6.47069 	 -109.402 	 
H 	 -71.5203 	 6.5448 	 -107.301 	 
C 	 -74.1771 	 7.72033 	 -107.012 	 
H 	 -74.3782 	 6.74127 	 -106.523 	 
H 	 -75.0937 	 8.18791 	 -107.304 	 
C 	 -73.502 	 8.63634 	 -105.985 	 
H 	 -72.4785 	 8.29487 	 -105.791 	 
H 	 -73.2865 	 9.64475 	 -106.427 	 
C 	 -74.1234 	 8.94714 	 -104.649 	 
H 	 -74.7603 	 8.03634 	 -104.297 	 
H 	 -73.3535 	 9.23632 	 -104.02 	 
H 	 -74.8409 	 9.76717 	 -104.586 	 
S 	 -70.6249 	 4.20252 	 -110.631 	 
C 	 -68.9203 	 3.86164 	 -110.507 	 
C 	 -68.2177 	 4.85341 	 -109.821 	 
C 	 -69.1006 	 5.80531 	 -109.188 	 
C 	 -70.4004 	 5.69848 	 -109.708 	 
H 	 -67.1546 	 4.75919 	 -109.757 	 
C 	 -68.6351 	 7.0024 	 -108.289 	 
H 	 -69.2669 	 7.87177 	 -108.402 	 
H 	 -67.6357 	 7.21922 	 -108.732 	 
C 	 -68.4414 	 6.67696 	 -106.844 	 
H 	 -67.7971 	 5.82154 	 -106.776 	 
H 	 -69.4041 	 6.31195 	 -106.503 	 
C 	 -67.8612 	 7.83693 	 -106.027 	 
H 	 -68.5877 	 8.72593 	 -106.023 	 
H 	 -66.9598 	 8.24136 	 -106.522 	 
H 	 -67.5802 	 7.49941 	 -105.008 	 
H 	 -74.8666 	 7.92027 	 -109.908 	 
H 	 -68.3737 	 3.06435 	 -111.065 	 
*
