! wB97X-D3 SP def2-SVP
%pal
nprocs 24
end

* xyz 0 1
S 	 -108.122 	 61.6643 	 -98.6399 	 
C 	 -106.571 	 61.9074 	 -97.8521 	 
C 	 -105.935 	 60.6943 	 -97.5659 	 
C 	 -106.608 	 59.6459 	 -98.1557 	 
C 	 -107.72 	 60.0113 	 -98.9073 	 
H 	 -106.497 	 58.611 	 -98.1881 	 
C 	 -104.678 	 60.5488 	 -96.7574 	 
H 	 -104.592 	 59.6906 	 -96.1531 	 
H 	 -104.653 	 61.449 	 -96.0641 	 
C 	 -103.388 	 60.4654 	 -97.6039 	 
H 	 -103.471 	 59.7773 	 -98.529 	 
H 	 -103.326 	 61.4273 	 -98.1797 	 
C 	 -102.114 	 60.1771 	 -96.7985 	 
H 	 -101.138 	 60.2747 	 -97.3202 	 
H 	 -102.049 	 60.814 	 -95.9361 	 
H 	 -102.055 	 59.2145 	 -96.3812 	 
S 	 -109.04 	 57.5943 	 -98.736 	 
C 	 -110.012 	 57.0816 	 -100.097 	 
C 	 -109.953 	 57.9626 	 -101.164 	 
C 	 -109.231 	 59.1485 	 -100.797 	 
C 	 -108.61 	 59.0777 	 -99.5641 	 
H 	 -110.523 	 57.8547 	 -102.075 	 
C 	 -109.173 	 60.3421 	 -101.811 	 
H 	 -108.647 	 61.2173 	 -101.401 	 
H 	 -110.208 	 60.6533 	 -101.934 	 
C 	 -108.532 	 60.0199 	 -103.156 	 
H 	 -108.502 	 58.9523 	 -103.407 	 
H 	 -107.397 	 60.2847 	 -103.216 	 
C 	 -109.209 	 60.7267 	 -104.314 	 
H 	 -109.266 	 61.7728 	 -104.136 	 
H 	 -110.224 	 60.374 	 -104.402 	 
H 	 -108.772 	 60.5653 	 -105.271 	 
H 	 -106.238 	 62.7118 	 -97.2583 	 
H 	 -110.513 	 56.1235 	 -100.176 	 
*
