! wB97X-D3 SP def2-SVP
%pal
nprocs 24
end

* xyz 0 1
S 	 -54.8175 	 10.3602 	 -102.15 	 
C 	 -55.3781 	 10.3769 	 -103.767 	 
C 	 -55.1625 	 11.6397 	 -104.337 	 
C 	 -54.5503 	 12.5625 	 -103.453 	 
C 	 -54.2109 	 12.015 	 -102.184 	 
H 	 -54.4015 	 13.5898 	 -103.616 	 
C 	 -55.6217 	 12.0443 	 -105.689 	 
H 	 -55.1013 	 11.4281 	 -106.424 	 
H 	 -55.279 	 13.0477 	 -105.778 	 
C 	 -57.1431 	 12.1955 	 -105.883 	 
H 	 -57.6032 	 11.2982 	 -105.497 	 
H 	 -57.4532 	 13.0992 	 -105.298 	 
C 	 -57.4689 	 12.5871 	 -107.311 	 
H 	 -58.4988 	 12.8285 	 -107.469 	 
H 	 -56.8439 	 13.384 	 -107.718 	 
H 	 -57.2886 	 11.786 	 -107.993 	 
S 	 -54.5158 	 12.543 	 -99.5634 	 
C 	 -53.6075 	 13.8109 	 -98.7941 	 
C 	 -52.7253 	 14.3585 	 -99.6842 	 
C 	 -52.7519 	 13.8235 	 -100.993 	 
C 	 -53.6777 	 12.7194 	 -101.086 	 
H 	 -52.0699 	 15.1184 	 -99.1927 	 
C 	 -51.8167 	 14.4513 	 -102.028 	 
H 	 -51.9087 	 13.8976 	 -102.922 	 
H 	 -50.8734 	 14.1555 	 -101.591 	 
C 	 -51.9541 	 16.012 	 -102.257 	 
H 	 -51.3417 	 16.3613 	 -103.136 	 
H 	 -51.4273 	 16.3834 	 -101.431 	 
C 	 -53.3462 	 16.5819 	 -102.418 	 
H 	 -53.9058 	 16.4094 	 -101.524 	 
H 	 -53.899 	 16.0436 	 -103.222 	 
H 	 -53.3301 	 17.5854 	 -102.792 	 
H 	 -55.922 	 9.49579 	 -104.181 	 
H 	 -53.6809 	 14.1335 	 -97.8269 	 
*
