! wB97X-D3 SP def2-SVP
%pal
nprocs 24
end

* xyz 0 1
S 	 -40.5358 	 -2.52124 	 13.927 	 
C 	 -40.088 	 -2.63524 	 15.6299 	 
C 	 -40.8789 	 -1.7623 	 16.4167 	 
C 	 -41.6624 	 -0.992584 	 15.536 	 
C 	 -41.6775 	 -1.31693 	 14.1886 	 
H 	 -42.2972 	 -0.152105 	 15.7996 	 
C 	 -40.8005 	 -1.47568 	 17.8247 	 
H 	 -40.1119 	 -2.28338 	 18.1868 	 
H 	 -41.827 	 -1.53696 	 18.1933 	 
C 	 -40.2812 	 -0.121926 	 18.2351 	 
H 	 -40.1229 	 -0.0955171 	 19.303 	 
H 	 -39.2709 	 0.0701968 	 17.7375 	 
C 	 -41.085 	 1.08326 	 17.7375 	 
H 	 -40.8955 	 1.95133 	 18.367 	 
H 	 -40.8309 	 1.33331 	 16.7304 	 
H 	 -42.1494 	 0.973385 	 17.8225 	 
S 	 -43.4674 	 -1.74377 	 12.1099 	 
C 	 -44.2253 	 -0.405296 	 11.2587 	 
C 	 -43.8339 	 0.774577 	 11.8156 	 
C 	 -42.8884 	 0.647414 	 12.9065 	 
C 	 -42.4775 	 -0.664676 	 13.1163 	 
H 	 -44.2403 	 1.69832 	 11.3968 	 
C 	 -42.3451 	 1.86309 	 13.6182 	 
H 	 -42.1211 	 2.56223 	 12.8148 	 
H 	 -41.3468 	 1.56193 	 14.1057 	 
C 	 -43.3716 	 2.60729 	 14.5445 	 
H 	 -43.6211 	 1.87735 	 15.3034 	 
H 	 -44.1166 	 2.99476 	 13.8939 	 
C 	 -42.6659 	 3.76653 	 15.345 	 
H 	 -43.3606 	 4.46505 	 15.8405 	 
H 	 -42.1434 	 4.42714 	 14.6396 	 
H 	 -41.9558 	 3.37789 	 16.1479 	 
H 	 -39.3562 	 -3.24054 	 16.1073 	 
H 	 -44.9823 	 -0.647454 	 10.4751 	 
*
