! wB97X-D3 SP def2-SVP
%pal
nprocs 24
end

* xyz 0 1
S 	 -71.7761 	 -43.4929 	 -95.3193 	 
C 	 -70.944 	 -41.9378 	 -95.0778 	 
C 	 -70.6021 	 -41.4079 	 -96.2932 	 
C 	 -70.8239 	 -42.2745 	 -97.4228 	 
C 	 -71.4486 	 -43.4237 	 -97.0386 	 
H 	 -70.5991 	 -41.987 	 -98.3931 	 
C 	 -69.7093 	 -40.1902 	 -96.4435 	 
H 	 -69.8142 	 -39.5928 	 -95.5598 	 
H 	 -70.0355 	 -39.5415 	 -97.2844 	 
C 	 -68.2061 	 -40.4842 	 -96.6692 	 
H 	 -67.6616 	 -39.5975 	 -96.8669 	 
H 	 -67.6635 	 -40.8664 	 -95.8283 	 
C 	 -67.9439 	 -41.408 	 -97.8535 	 
H 	 -66.9331 	 -41.2848 	 -98.2863 	 
H 	 -68.0511 	 -42.4806 	 -97.4695 	 
H 	 -68.6623 	 -41.247 	 -98.5708 	 
S 	 -70.9663 	 -46.0823 	 -97.2137 	 
C 	 -71.3256 	 -46.9438 	 -98.6601 	 
C 	 -72.0992 	 -46.2399 	 -99.5554 	 
C 	 -72.1115 	 -44.844 	 -99.1919 	 
C 	 -71.5319 	 -44.5912 	 -97.8905 	 
H 	 -72.499 	 -46.7466 	 -100.429 	 
C 	 -72.854 	 -43.7237 	 -99.9755 	 
H 	 -73.0793 	 -44.1258 	 -100.923 	 
H 	 -72.2174 	 -42.8816 	 -100.176 	 
C 	 -74.23 	 -43.3597 	 -99.4398 	 
H 	 -74.568 	 -42.5618 	 -100.094 	 
H 	 -73.9879 	 -42.8706 	 -98.4567 	 
C 	 -75.2565 	 -44.5034 	 -99.3414 	 
H 	 -75.1596 	 -45.0382 	 -98.4832 	 
H 	 -75.3413 	 -45.1952 	 -100.194 	 
H 	 -76.2405 	 -44.0481 	 -99.2465 	 
H 	 -70.7228 	 -41.5151 	 -94.0922 	 
H 	 -71.1453 	 -48.0485 	 -98.8044 	 
*
