! wB97X-D3 SP def2-SVP
%pal
nprocs 24
end

* xyz 0 1
S 	 -16.1456 	 -25.2557 	 -94.4725 	 
C 	 -15.2748 	 -26.2281 	 -93.2818 	 
C 	 -15.75 	 -27.5301 	 -93.1481 	 
C 	 -16.7867 	 -27.7887 	 -94.0197 	 
C 	 -17.0072 	 -26.7445 	 -94.901 	 
H 	 -17.4492 	 -28.7135 	 -94.138 	 
C 	 -15.2909 	 -28.5015 	 -92.083 	 
H 	 -16.1555 	 -29.0538 	 -91.7873 	 
H 	 -15.0037 	 -27.9178 	 -91.1596 	 
C 	 -14.3042 	 -29.6062 	 -92.5577 	 
H 	 -14.4378 	 -30.2683 	 -91.7282 	 
H 	 -14.7406 	 -29.9531 	 -93.5347 	 
C 	 -12.8461 	 -29.222 	 -92.6934 	 
H 	 -12.6092 	 -28.3435 	 -93.3411 	 
H 	 -12.3576 	 -28.9309 	 -91.7323 	 
H 	 -12.2189 	 -30.0843 	 -93.0505 	 
S 	 -19.5105 	 -25.8313 	 -95.8557 	 
C 	 -20.0887 	 -26.4224 	 -97.3515 	 
C 	 -19.203 	 -27.3355 	 -97.886 	 
C 	 -18.0499 	 -27.6214 	 -97.0404 	 
C 	 -18.0586 	 -26.792 	 -95.9721 	 
H 	 -19.428 	 -27.9775 	 -98.7792 	 
C 	 -16.8833 	 -28.4537 	 -97.5254 	 
H 	 -17.1612 	 -29.3662 	 -98.0226 	 
H 	 -16.3638 	 -28.7233 	 -96.6755 	 
C 	 -16.0138 	 -27.5891 	 -98.3572 	 
H 	 -15.7088 	 -26.5971 	 -97.9231 	 
H 	 -16.5615 	 -27.3822 	 -99.3269 	 
C 	 -14.7489 	 -28.3553 	 -98.7652 	 
H 	 -14.3485 	 -28.7096 	 -97.8487 	 
H 	 -13.9855 	 -27.6893 	 -99.2619 	 
H 	 -14.8848 	 -29.3136 	 -99.2694 	 
H 	 -14.416 	 -25.8371 	 -92.7573 	 
H 	 -21.0773 	 -26.1799 	 -97.7088 	 
*
