! wB97X-D3 SP def2-SVP
%pal
nprocs 24
end

* xyz 0 1
S 	 -79.7932 	 -21.3439 	 -55.4239 	 
C 	 -79.0399 	 -20.1839 	 -54.3846 	 
C 	 -78.6554 	 -20.7065 	 -53.1769 	 
C 	 -79.0595 	 -22.088 	 -53.1221 	 
C 	 -79.509 	 -22.628 	 -54.3064 	 
H 	 -79.1139 	 -22.7664 	 -52.2787 	 
C 	 -77.9522 	 -19.9732 	 -52.0304 	 
H 	 -78.6954 	 -19.3332 	 -51.6092 	 
H 	 -77.0668 	 -19.3408 	 -52.3827 	 
C 	 -77.6002 	 -20.7834 	 -50.7559 	 
H 	 -78.4733 	 -21.2945 	 -50.4081 	 
H 	 -76.9062 	 -21.5974 	 -50.9885 	 
C 	 -76.9759 	 -19.8884 	 -49.5522 	 
H 	 -76.6944 	 -20.4639 	 -48.7156 	 
H 	 -76.0815 	 -19.3259 	 -49.936 	 
H 	 -77.7333 	 -19.1452 	 -49.2479 	 
S 	 -81.4933 	 -24.1153 	 -55.6985 	 
C 	 -81.7531 	 -25.7932 	 -55.3018 	 
C 	 -80.7211 	 -26.2183 	 -54.4162 	 
C 	 -79.894 	 -25.1511 	 -53.9291 	 
C 	 -80.2361 	 -23.9081 	 -54.4411 	 
H 	 -80.5314 	 -27.3025 	 -54.1919 	 
C 	 -78.6967 	 -25.4732 	 -53.0394 	 
H 	 -79.0564 	 -25.8883 	 -52.1286 	 
H 	 -78.0946 	 -24.58 	 -52.8227 	 
C 	 -77.7082 	 -26.4741 	 -53.5609 	 
H 	 -78.1207 	 -27.4741 	 -53.6867 	 
H 	 -76.8198 	 -26.5867 	 -52.9596 	 
C 	 -77.1083 	 -26.1131 	 -54.9224 	 
H 	 -77.9793 	 -26.0508 	 -55.6397 	 
H 	 -76.2194 	 -26.763 	 -55.1588 	 
H 	 -76.6868 	 -25.1355 	 -54.8802 	 
H 	 -78.9153 	 -19.1692 	 -54.7191 	 
H 	 -82.462 	 -26.553 	 -55.5905 	 
*
