! wB97X-D3 SP def2-SVP
%pal
nprocs 24
end

* xyz 0 1
S 	 -73.4612 	 0.31652 	 3.94258 	 
C 	 -73.8764 	 1.42426 	 5.2026 	 
C 	 -74.9297 	 2.25197 	 4.84731 	 
C 	 -75.3673 	 1.94878 	 3.49531 	 
C 	 -74.6681 	 0.958412 	 2.83906 	 
H 	 -76.2444 	 2.37371 	 3.04447 	 
C 	 -75.4638 	 3.37089 	 5.7542 	 
H 	 -75.4702 	 4.27071 	 5.16643 	 
H 	 -74.7605 	 3.56427 	 6.52409 	 
C 	 -76.9227 	 3.14501 	 6.11321 	 
H 	 -77.3867 	 4.14524 	 6.28548 	 
H 	 -77.456 	 2.63226 	 5.25385 	 
C 	 -77.1161 	 2.28329 	 7.40383 	 
H 	 -78.1661 	 2.06771 	 7.6609 	 
H 	 -76.6136 	 1.34525 	 7.27068 	 
H 	 -76.6838 	 2.94419 	 8.2055 	 
S 	 -74.6152 	 1.18408 	 0.0208595 	 
C 	 -75.4447 	 -0.0446169 	 -0.915708 	 
C 	 -75.986 	 -1.01731 	 -0.0566629 	 
C 	 -75.6354 	 -0.85097 	 1.31869 	 
C 	 -75.0313 	 0.374522 	 1.5498 	 
H 	 -76.5089 	 -1.82737 	 -0.485618 	 
C 	 -76.1674 	 -1.75096 	 2.44745 	 
H 	 -75.293 	 -1.95167 	 3.14245 	 
H 	 -76.3859 	 -2.7388 	 2.06338 	 
C 	 -77.2126 	 -1.2282 	 3.38664 	 
H 	 -77.9674 	 -0.744838 	 2.72361 	 
H 	 -76.7238 	 -0.490017 	 4.01961 	 
C 	 -78.0591 	 -2.21533 	 4.14006 	 
H 	 -78.8338 	 -1.64924 	 4.7039 	 
H 	 -77.4772 	 -2.75001 	 4.90866 	 
H 	 -78.5523 	 -3.0237 	 3.56065 	 
H 	 -73.4088 	 1.40128 	 6.21499 	 
H 	 -75.4645 	 -0.100594 	 -1.991 	 
*
