! wB97X-D3 SP def2-SVP
%pal
nprocs 24
end

* xyz 0 1
S 	 39.7621 	 -21.7168 	 -115.402 	 
C 	 41.0919 	 -22.7135 	 -115.863 	 
C 	 41.8791 	 -23.002 	 -114.78 	 
C 	 41.3464 	 -22.4328 	 -113.597 	 
C 	 40.1298 	 -21.807 	 -113.719 	 
H 	 41.8173 	 -22.4967 	 -112.65 	 
C 	 43.0956 	 -23.8319 	 -114.742 	 
H 	 43.5277 	 -23.931 	 -113.73 	 
H 	 43.8913 	 -23.4159 	 -115.418 	 
C 	 42.7981 	 -25.3274 	 -115.096 	 
H 	 42.6884 	 -25.4223 	 -116.214 	 
H 	 43.7592 	 -25.9388 	 -114.888 	 
C 	 41.6187 	 -25.9735 	 -114.339 	 
H 	 41.7895 	 -27.0326 	 -114.199 	 
H 	 41.3957 	 -25.4477 	 -113.362 	 
H 	 40.6773 	 -25.7572 	 -114.842 	 
S 	 39.5683 	 -19.1805 	 -113.016 	 
C 	 39.0201 	 -18.7981 	 -111.488 	 
C 	 39.0852 	 -19.945 	 -110.734 	 
C 	 39.3344 	 -21.1437 	 -111.43 	 
C 	 39.5931 	 -20.8824 	 -112.76 	 
H 	 38.8471 	 -19.7273 	 -109.732 	 
C 	 39.2663 	 -22.5473 	 -110.842 	 
H 	 39.5782 	 -22.5053 	 -109.748 	 
H 	 39.8727 	 -23.2754 	 -111.461 	 
C 	 37.828 	 -23.02 	 -110.761 	 
H 	 37.188 	 -22.1358 	 -110.615 	 
H 	 37.6875 	 -23.628 	 -109.837 	 
C 	 37.3276 	 -23.8357 	 -111.947 	 
H 	 37.2617 	 -23.1811 	 -112.9 	 
H 	 36.3152 	 -24.037 	 -111.664 	 
H 	 37.9616 	 -24.7435 	 -112.069 	 
H 	 41.3148 	 -23.019 	 -116.854 	 
H 	 38.9484 	 -17.7706 	 -111.112 	 
*
