! wB97X-D3 SP def2-SVP
%pal
nprocs 24
end

* xyz 0 1
S 	 -124.268 	 60.0319 	 -59.7737 	 
C 	 -123.524 	 61.5795 	 -60.0826 	 
C 	 -123.981 	 62.6082 	 -59.2805 	 
C 	 -124.905 	 62.0849 	 -58.3344 	 
C 	 -125.173 	 60.7657 	 -58.5068 	 
H 	 -125.102 	 62.5972 	 -57.3966 	 
C 	 -123.605 	 64.0622 	 -59.4171 	 
H 	 -122.548 	 64.1316 	 -59.603 	 
H 	 -123.721 	 64.6724 	 -58.4307 	 
C 	 -124.305 	 64.963 	 -60.4324 	 
H 	 -124.217 	 64.561 	 -61.4331 	 
H 	 -125.388 	 65.0415 	 -60.0905 	 
C 	 -123.691 	 66.3574 	 -60.5016 	 
H 	 -123.986 	 66.9721 	 -59.6335 	 
H 	 -122.617 	 66.3727 	 -60.6481 	 
H 	 -124.119 	 66.9207 	 -61.3618 	 
S 	 -124.805 	 58.5032 	 -57.0686 	 
C 	 -125.882 	 58.1295 	 -55.7772 	 
C 	 -126.905 	 59.0439 	 -55.6578 	 
C 	 -126.763 	 60.1021 	 -56.5582 	 
C 	 -125.7 	 59.938 	 -57.4383 	 
H 	 -127.706 	 58.9184 	 -54.9414 	 
C 	 -127.774 	 61.2465 	 -56.5411 	 
H 	 -127.245 	 62.086 	 -56.9026 	 
H 	 -128.069 	 61.458 	 -55.4673 	 
C 	 -129.043 	 60.9684 	 -57.386 	 
H 	 -129.422 	 59.9811 	 -57.2272 	 
H 	 -128.785 	 61.0057 	 -58.4927 	 
C 	 -130.143 	 62.0093 	 -57.0942 	 
H 	 -130.258 	 62.1708 	 -56.0665 	 
H 	 -131.104 	 61.7889 	 -57.567 	 
H 	 -129.798 	 62.9402 	 -57.5753 	 
H 	 -122.631 	 61.6827 	 -60.6883 	 
H 	 -125.936 	 57.2884 	 -55.1473 	 
*
