! wB97X-D3 SP def2-SVP
%pal
nprocs 24
end

* xyz 0 1
S 	 -119.269 	 54.696 	 -39.0113 	 
C 	 -119.921 	 55.8456 	 -40.1427 	 
C 	 -121.121 	 56.3602 	 -39.6607 	 
C 	 -121.56 	 55.7107 	 -38.4741 	 
C 	 -120.761 	 54.6968 	 -38.0232 	 
H 	 -122.481 	 55.9978 	 -37.9588 	 
C 	 -121.923 	 57.517 	 -40.293 	 
H 	 -121.225 	 58.3034 	 -40.5507 	 
H 	 -122.513 	 57.8196 	 -39.4603 	 
C 	 -122.75 	 57.1708 	 -41.4743 	 
H 	 -123.121 	 58.0764 	 -41.8223 	 
H 	 -122.204 	 56.6545 	 -42.2666 	 
C 	 -123.787 	 56.0697 	 -41.0555 	 
H 	 -124.357 	 56.3418 	 -40.2192 	 
H 	 -124.515 	 55.9967 	 -41.8717 	 
H 	 -123.41 	 55.0677 	 -40.7299 	 
S 	 -119.573 	 53.5053 	 -35.6951 	 
C 	 -120.625 	 52.5889 	 -34.6924 	 
C 	 -121.944 	 52.5342 	 -35.1038 	 
C 	 -122.133 	 53.2893 	 -36.3171 	 
C 	 -120.923 	 53.7337 	 -36.8798 	 
H 	 -122.706 	 52.0275 	 -34.4425 	 
C 	 -123.555 	 53.251 	 -37.0073 	 
H 	 -123.63 	 52.3222 	 -37.6051 	 
H 	 -123.491 	 53.9827 	 -37.852 	 
C 	 -124.858 	 53.5428 	 -36.1106 	 
H 	 -124.864 	 54.5928 	 -35.8224 	 
H 	 -124.789 	 52.9168 	 -35.2119 	 
C 	 -126.074 	 53.274 	 -36.898 	 
H 	 -126.195 	 53.9597 	 -37.7386 	 
H 	 -126.969 	 53.4055 	 -36.3497 	 
H 	 -126.145 	 52.2776 	 -37.2661 	 
H 	 -119.48 	 56.3251 	 -40.9894 	 
H 	 -120.319 	 52.2127 	 -33.7048 	 
*
