! wB97X-D3 SP def2-SVP
%pal
nprocs 24
end

* xyz 0 1
S 	 -49.5224 	 -6.27691 	 20.0106 	 
C 	 -50.9829 	 -6.34013 	 19.0022 	 
C 	 -50.7208 	 -5.86924 	 17.7695 	 
C 	 -49.4332 	 -5.36219 	 17.6569 	 
C 	 -48.6881 	 -5.51532 	 18.7772 	 
H 	 -49.0446 	 -4.86624 	 16.792 	 
C 	 -51.7331 	 -5.69544 	 16.6294 	 
H 	 -51.1937 	 -5.76994 	 15.7338 	 
H 	 -52.2321 	 -4.75831 	 16.7003 	 
C 	 -52.902 	 -6.62052 	 16.6735 	 
H 	 -52.6767 	 -7.5478 	 17.1598 	 
H 	 -53.6556 	 -6.27492 	 17.4084 	 
C 	 -53.5531 	 -6.82442 	 15.3441 	 
H 	 -54.565 	 -7.10822 	 15.5456 	 
H 	 -53.4965 	 -6.0067 	 14.624 	 
H 	 -53.1019 	 -7.77056 	 14.9556 	 
S 	 -45.9753 	 -6.29911 	 19.0222 	 
C 	 -44.7843 	 -5.11325 	 19.3002 	 
C 	 -45.2934 	 -3.85363 	 19.1513 	 
C 	 -46.6655 	 -3.84177 	 18.7288 	 
C 	 -47.2875 	 -5.08762 	 18.8338 	 
H 	 -44.7055 	 -2.99137 	 19.3317 	 
C 	 -47.3653 	 -2.45033 	 18.4112 	 
H 	 -47.2624 	 -1.76376 	 19.2629 	 
H 	 -48.3863 	 -2.73967 	 18.3605 	 
C 	 -47.005 	 -1.729 	 17.1332 	 
H 	 -46.0299 	 -1.30103 	 17.3051 	 
H 	 -47.6331 	 -0.852163 	 16.9291 	 
C 	 -47.0372 	 -2.60894 	 15.9075 	 
H 	 -46.7961 	 -1.96451 	 15.0594 	 
H 	 -48.021 	 -3.00782 	 15.7842 	 
H 	 -46.2378 	 -3.3595 	 16.0148 	 
H 	 -51.9375 	 -6.76253 	 19.3396 	 
H 	 -43.738 	 -5.27484 	 19.6522 	 
*
