! wB97X-D3 SP def2-SVP
%pal
nprocs 24
end

* xyz 0 1
S 	 -108.208 	 64.6442 	 -14.8518 	 
C 	 -109.691 	 64.9225 	 -13.9103 	 
C 	 -109.939 	 63.8927 	 -13.049 	 
C 	 -109.103 	 62.8129 	 -13.3196 	 
C 	 -108.053 	 63.0356 	 -14.2056 	 
H 	 -109.07 	 61.9094 	 -12.7883 	 
C 	 -111.037 	 63.9643 	 -11.9077 	 
H 	 -110.906 	 64.8299 	 -11.2742 	 
H 	 -110.77 	 63.093 	 -11.2841 	 
C 	 -112.467 	 63.9635 	 -12.4068 	 
H 	 -112.68 	 64.8646 	 -12.9842 	 
H 	 -112.536 	 63.108 	 -13.0078 	 
C 	 -113.445 	 63.7813 	 -11.1938 	 
H 	 -113.559 	 64.6904 	 -10.532 	 
H 	 -114.473 	 63.4446 	 -11.5306 	 
H 	 -112.967 	 62.9419 	 -10.6973 	 
S 	 -105.258 	 63.0876 	 -14.2452 	 
C 	 -104.435 	 61.5589 	 -14.3178 	 
C 	 -105.307 	 60.5112 	 -14.0514 	 
C 	 -106.712 	 60.8055 	 -14.1889 	 
C 	 -106.83 	 62.2183 	 -14.3313 	 
H 	 -104.863 	 59.5517 	 -13.8295 	 
C 	 -107.835 	 59.8001 	 -13.9378 	 
H 	 -108.531 	 59.8587 	 -14.7277 	 
H 	 -108.446 	 60.1716 	 -13.0618 	 
C 	 -107.369 	 58.3236 	 -13.7508 	 
H 	 -108.299 	 57.8209 	 -13.4523 	 
H 	 -106.677 	 58.3046 	 -12.8879 	 
C 	 -106.819 	 57.5669 	 -14.9363 	 
H 	 -105.9 	 57.8842 	 -15.275 	 
H 	 -107.621 	 57.4776 	 -15.6737 	 
H 	 -106.792 	 56.5412 	 -14.5808 	 
H 	 -110.268 	 65.8792 	 -13.9172 	 
H 	 -103.374 	 61.4389 	 -14.167 	 
*
