! wB97X-D3 SP def2-SVP
%pal
nprocs 24
end

* xyz 0 1
S 	 -36.4725 	 -9.49126 	 18.6492 	 
C 	 -35.5113 	 -10.8749 	 19.0202 	 
C 	 -35.6571 	 -11.8701 	 18.052 	 
C 	 -36.588 	 -11.5271 	 17.0551 	 
C 	 -37.0262 	 -10.2584 	 17.1972 	 
H 	 -36.817 	 -12.1414 	 16.2163 	 
C 	 -35.1032 	 -13.2082 	 18.1013 	 
H 	 -35.7319 	 -13.9135 	 17.57 	 
H 	 -34.9421 	 -13.4849 	 19.1012 	 
C 	 -33.6184 	 -13.3271 	 17.6062 	 
H 	 -33.3888 	 -14.2913 	 17.5338 	 
H 	 -33.5413 	 -12.9204 	 16.6407 	 
C 	 -32.5023 	 -12.5805 	 18.3606 	 
H 	 -31.5747 	 -12.9741 	 17.9161 	 
H 	 -32.4083 	 -11.5233 	 18.3415 	 
H 	 -32.6116 	 -12.8798 	 19.4341 	 
S 	 -39.2987 	 -8.87272 	 17.1091 	 
C 	 -40.0607 	 -8.54573 	 15.5995 	 
C 	 -39.3438 	 -8.97754 	 14.5284 	 
C 	 -38.1619 	 -9.66866 	 14.8954 	 
C 	 -37.9772 	 -9.57826 	 16.306 	 
H 	 -39.7703 	 -8.90699 	 13.5231 	 
C 	 -37.324 	 -10.3484 	 13.8777 	 
H 	 -37.9789 	 -10.478 	 12.9952 	 
H 	 -36.9304 	 -11.2812 	 14.1834 	 
C 	 -36.1798 	 -9.52636 	 13.3424 	 
H 	 -36.5185 	 -8.51816 	 13.0604 	 
H 	 -35.6522 	 -9.81851 	 12.416 	 
C 	 -35.0854 	 -9.1874 	 14.3993 	 
H 	 -34.2929 	 -8.48859 	 14.0548 	 
H 	 -34.6619 	 -10.1027 	 14.7635 	 
H 	 -35.5642 	 -8.65643 	 15.308 	 
H 	 -35.0541 	 -10.9729 	 19.9972 	 
H 	 -41.0493 	 -8.12244 	 15.5155 	 
*
