! wB97X-D3 SP def2-SVP
%pal
nprocs 24
end

* xyz 0 1
S 	 -17.2733 	 -29.4498 	 -101.728 	 
C 	 -18.2907 	 -28.0266 	 -101.805 	 
C 	 -19.6237 	 -28.3115 	 -101.815 	 
C 	 -19.9303 	 -29.7366 	 -101.645 	 
C 	 -18.7536 	 -30.4789 	 -101.647 	 
H 	 -20.8931 	 -30.182 	 -101.574 	 
C 	 -20.7711 	 -27.2755 	 -101.645 	 
H 	 -21.6118 	 -27.5636 	 -102.32 	 
H 	 -20.488 	 -26.3074 	 -102.005 	 
C 	 -21.3468 	 -27.1851 	 -100.218 	 
H 	 -22.1897 	 -26.4798 	 -100.265 	 
H 	 -21.6296 	 -28.2141 	 -99.9444 	 
C 	 -20.3518 	 -26.671 	 -99.2263 	 
H 	 -19.5287 	 -27.4224 	 -98.9838 	 
H 	 -20.0233 	 -25.6505 	 -99.316 	 
H 	 -20.7695 	 -26.7581 	 -98.2236 	 
S 	 -18.2789 	 -32.4582 	 -103.394 	 
C 	 -18.1789 	 -34.1243 	 -102.816 	 
C 	 -18.5117 	 -34.2895 	 -101.479 	 
C 	 -18.8892 	 -33.0135 	 -100.915 	 
C 	 -18.6623 	 -31.9039 	 -101.758 	 
H 	 -18.5006 	 -35.2705 	 -101.039 	 
C 	 -19.3929 	 -32.9812 	 -99.5301 	 
H 	 -20.2241 	 -33.6572 	 -99.5233 	 
H 	 -19.9442 	 -32.0237 	 -99.452 	 
C 	 -18.3653 	 -32.9781 	 -98.4001 	 
H 	 -17.8746 	 -34.0407 	 -98.3441 	 
H 	 -18.9086 	 -32.7955 	 -97.4733 	 
C 	 -17.3519 	 -31.8542 	 -98.4377 	 
H 	 -17.9105 	 -30.9026 	 -98.4536 	 
H 	 -16.7229 	 -31.8113 	 -99.2752 	 
H 	 -16.7082 	 -31.7412 	 -97.6237 	 
H 	 -17.788 	 -27.0364 	 -101.883 	 
H 	 -17.7168 	 -34.9353 	 -103.49 	 
*
