! wB97X-D3 SP def2-SVP
%pal
nprocs 24
end

* xyz 0 1
S 	 -119.536 	 29.4717 	 -19.4106 	 
C 	 -119.746 	 28.2312 	 -20.6793 	 
C 	 -118.594 	 27.4332 	 -20.8543 	 
C 	 -117.614 	 27.7906 	 -19.9063 	 
C 	 -117.902 	 28.8739 	 -19.0416 	 
H 	 -116.561 	 27.3359 	 -19.8048 	 
C 	 -118.356 	 26.3372 	 -21.9189 	 
H 	 -119.28 	 25.7403 	 -21.9486 	 
H 	 -117.541 	 25.6597 	 -21.609 	 
C 	 -118.058 	 26.8806 	 -23.3045 	 
H 	 -119.042 	 27.1707 	 -23.6976 	 
H 	 -117.535 	 27.8514 	 -23.2033 	 
C 	 -117.338 	 25.9443 	 -24.3077 	 
H 	 -116.444 	 25.5769 	 -23.8616 	 
H 	 -117.743 	 25.0712 	 -24.7558 	 
H 	 -116.842 	 26.6039 	 -25.0053 	 
S 	 -117.887 	 29.0544 	 -16.2796 	 
C 	 -116.517 	 29.7767 	 -15.4848 	 
C 	 -115.588 	 30.1785 	 -16.4125 	 
C 	 -115.873 	 29.8061 	 -17.7453 	 
C 	 -117.121 	 29.2514 	 -17.8868 	 
H 	 -114.743 	 30.794 	 -16.0406 	 
C 	 -115.028 	 30.261 	 -18.9154 	 
H 	 -115.342 	 29.7117 	 -19.8652 	 
H 	 -114.025 	 29.9269 	 -18.7072 	 
C 	 -115.156 	 31.8146 	 -19.2785 	 
H 	 -114.332 	 32.0294 	 -19.9483 	 
H 	 -114.922 	 32.4064 	 -18.3558 	 
C 	 -116.558 	 32.2299 	 -19.9831 	 
H 	 -116.624 	 33.2878 	 -20.1223 	 
H 	 -117.384 	 31.8976 	 -19.4053 	 
H 	 -116.745 	 31.7577 	 -21.0183 	 
H 	 -120.618 	 28.2813 	 -21.3042 	 
H 	 -116.571 	 29.9951 	 -14.3924 	 
*
