! wB97X-D3 SP def2-SVP
%pal
nprocs 24
end

* xyz 0 1
S 	 -51.4135 	 16.7019 	 24.5808 	 
C 	 -49.9242 	 15.7623 	 24.3712 	 
C 	 -49.1555 	 15.8792 	 25.534 	 
C 	 -49.8066 	 16.6024 	 26.5555 	 
C 	 -51.04 	 17.1497 	 26.2948 	 
H 	 -49.3003 	 16.8895 	 27.4937 	 
C 	 -47.7607 	 15.1799 	 25.685 	 
H 	 -47.5126 	 14.4954 	 24.8641 	 
H 	 -47.8883 	 14.506 	 26.5534 	 
C 	 -46.6544 	 16.2405 	 25.823 	 
H 	 -46.9821 	 16.8842 	 26.5861 	 
H 	 -45.7456 	 15.7313 	 26.0895 	 
C 	 -46.2864 	 17.0752 	 24.523 	 
H 	 -45.5532 	 17.8671 	 24.6266 	 
H 	 -46.0611 	 16.3071 	 23.7787 	 
H 	 -47.1768 	 17.4828 	 24.0666 	 
S 	 -51.5556 	 19.8033 	 26.7971 	 
C 	 -53.0178 	 20.3325 	 27.5642 	 
C 	 -53.6637 	 19.238 	 28.1812 	 
C 	 -53.0475 	 17.9792 	 27.7817 	 
C 	 -51.8161 	 18.1063 	 27.1392 	 
H 	 -54.6495 	 19.3659 	 28.5929 	 
C 	 -53.6001 	 16.6796 	 28.2644 	 
H 	 -52.8698 	 15.9218 	 27.882 	 
H 	 -54.6496 	 16.4813 	 27.8974 	 
C 	 -53.6545 	 16.5101 	 29.7709 	 
H 	 -54.2631 	 17.332 	 30.231 	 
H 	 -52.7143 	 16.5503 	 30.2216 	 
C 	 -54.3722 	 15.2796 	 30.2364 	 
H 	 -54.2564 	 14.3646 	 29.6329 	 
H 	 -55.423 	 15.4748 	 30.1475 	 
H 	 -54.1388 	 15.0526 	 31.3516 	 
H 	 -49.8607 	 15.1159 	 23.4902 	 
H 	 -53.3381 	 21.367 	 27.6177 	 
*
