! wB97X-D3 SP def2-SVP
%pal
nprocs 24
end

* xyz 0 1
S 	 -87.8224 	 -47.153 	 -82.3004 	 
C 	 -88.3264 	 -46.4037 	 -80.8168 	 
C 	 -87.6457 	 -47.0322 	 -79.8005 	 
C 	 -87.0982 	 -48.2908 	 -80.1741 	 
C 	 -87.0293 	 -48.4994 	 -81.5273 	 
H 	 -86.5699 	 -48.988 	 -79.459 	 
C 	 -87.6806 	 -46.6333 	 -78.3677 	 
H 	 -87.3934 	 -45.6135 	 -78.2377 	 
H 	 -86.908 	 -47.2275 	 -77.8077 	 
C 	 -89.0241 	 -46.8105 	 -77.6589 	 
H 	 -89.9164 	 -46.3751 	 -78.0807 	 
H 	 -89.2894 	 -47.8557 	 -77.8081 	 
C 	 -88.951 	 -46.6246 	 -76.0971 	 
H 	 -88.1697 	 -47.3475 	 -75.7072 	 
H 	 -88.7422 	 -45.6049 	 -75.949 	 
H 	 -89.8577 	 -46.8872 	 -75.5825 	 
S 	 -85.0183 	 -49.2927 	 -83.2282 	 
C 	 -84.7234 	 -50.9504 	 -83.5087 	 
C 	 -85.7399 	 -51.7422 	 -82.9633 	 
C 	 -86.646 	 -51.0231 	 -82.1679 	 
C 	 -86.4535 	 -49.6496 	 -82.2217 	 
H 	 -85.7304 	 -52.8157 	 -83.07 	 
C 	 -87.5792 	 -51.6362 	 -81.1734 	 
H 	 -88.3152 	 -50.9014 	 -80.825 	 
H 	 -87.1552 	 -51.7533 	 -80.202 	 
C 	 -88.3459 	 -52.9477 	 -81.643 	 
H 	 -87.6493 	 -53.7612 	 -81.8741 	 
H 	 -88.906 	 -52.7 	 -82.5401 	 
C 	 -89.3855 	 -53.3149 	 -80.519 	 
H 	 -90.2616 	 -53.838 	 -80.8555 	 
H 	 -89.8781 	 -52.4454 	 -80.1284 	 
H 	 -88.9307 	 -53.9439 	 -79.7114 	 
H 	 -88.9142 	 -45.5228 	 -80.7826 	 
H 	 -83.9716 	 -51.3594 	 -84.2684 	 
*
