! wB97X-D3 SP def2-SVP
%pal
nprocs 24
end

* xyz 0 1
S 	 -95.0777 	 14.7492 	 -115.284 	 
C 	 -95.1641 	 13.8723 	 -113.757 	 
C 	 -96.4798 	 13.9578 	 -113.28 	 
C 	 -97.401 	 14.4693 	 -114.276 	 
C 	 -96.7603 	 14.6523 	 -115.516 	 
H 	 -98.464 	 14.6025 	 -114.087 	 
C 	 -96.9588 	 13.4692 	 -111.902 	 
H 	 -96.5809 	 14.1666 	 -111.14 	 
H 	 -96.41 	 12.5848 	 -111.686 	 
C 	 -98.4608 	 13.0773 	 -111.605 	 
H 	 -98.5351 	 13.1038 	 -110.498 	 
H 	 -99.1445 	 13.9011 	 -111.897 	 
C 	 -98.8404 	 11.7965 	 -112.276 	 
H 	 -98.0711 	 11.0206 	 -112.19 	 
H 	 -99.7685 	 11.4494 	 -111.901 	 
H 	 -98.7851 	 12.0452 	 -113.353 	 
S 	 -96.7855 	 16.4086 	 -117.667 	 
C 	 -98.1594 	 16.5136 	 -118.664 	 
C 	 -98.969 	 15.4272 	 -118.51 	 
C 	 -98.5289 	 14.5492 	 -117.48 	 
C 	 -97.41 	 15.0169 	 -116.803 	 
H 	 -99.8981 	 15.3448 	 -119.165 	 
C 	 -99.3331 	 13.3358 	 -117.173 	 
H 	 -98.7903 	 12.8244 	 -116.457 	 
H 	 -99.1723 	 12.6394 	 -118.017 	 
C 	 -100.85 	 13.5117 	 -116.806 	 
H 	 -101.263 	 13.9156 	 -117.77 	 
H 	 -100.97 	 14.4009 	 -116.249 	 
C 	 -101.549 	 12.4295 	 -116.041 	 
H 	 -101.024 	 12.216 	 -115.157 	 
H 	 -101.564 	 11.4687 	 -116.586 	 
H 	 -102.617 	 12.6541 	 -115.755 	 
H 	 -94.2987 	 13.6293 	 -113.146 	 
H 	 -98.2126 	 17.2642 	 -119.423 	 
*
