! wB97X-D3 SP def2-SVP
%pal
nprocs 24
end

* xyz 0 1
S 	 -70.0811 	 3.14015 	 -68.4992 	 
C 	 -69.5903 	 3.39911 	 -66.8073 	 
C 	 -70.7132 	 3.18634 	 -65.908 	 
C 	 -71.8269 	 2.62685 	 -66.617 	 
C 	 -71.6498 	 2.53809 	 -67.9956 	 
H 	 -72.7556 	 2.22031 	 -66.3118 	 
C 	 -70.6051 	 3.20156 	 -64.3638 	 
H 	 -71.5088 	 3.64912 	 -63.9599 	 
H 	 -69.8094 	 3.90271 	 -64.1282 	 
C 	 -70.2836 	 1.80383 	 -63.7883 	 
H 	 -71.1846 	 1.18352 	 -63.9452 	 
H 	 -69.4611 	 1.31394 	 -64.3339 	 
C 	 -70.1677 	 1.94952 	 -62.2258 	 
H 	 -71.1341 	 2.2874 	 -61.8297 	 
H 	 -69.9742 	 0.958643 	 -61.8128 	 
H 	 -69.3935 	 2.62494 	 -61.9039 	 
S 	 -72.2092 	 0.790044 	 -70.0894 	 
C 	 -73.7705 	 0.911034 	 -70.9179 	 
C 	 -74.5881 	 1.89623 	 -70.4247 	 
C 	 -73.9671 	 2.57706 	 -69.2639 	 
C 	 -72.6707 	 2.07922 	 -68.9835 	 
H 	 -75.5597 	 2.02481 	 -70.9218 	 
C 	 -74.7154 	 3.65239 	 -68.5064 	 
H 	 -75.1574 	 4.2821 	 -69.1786 	 
H 	 -73.9749 	 4.29788 	 -67.9963 	 
C 	 -75.7652 	 3.03723 	 -67.6105 	 
H 	 -75.1583 	 2.4212 	 -66.9105 	 
H 	 -76.355 	 2.29472 	 -68.1517 	 
C 	 -76.5063 	 4.00815 	 -66.7543 	 
H 	 -77.4121 	 4.58394 	 -67.0896 	 
H 	 -75.8389 	 4.68937 	 -66.2818 	 
H 	 -76.9599 	 3.46051 	 -65.8776 	 
H 	 -68.6309 	 3.75261 	 -66.4766 	 
H 	 -74.123 	 0.267566 	 -71.7292 	 
*
