! wB97X-D3 SP def2-SVP
%pal
nprocs 24
end

* xyz 0 1
S 	 -75.0012 	 1.58736 	 -60.9497 	 
C 	 -76.0945 	 2.00224 	 -59.6253 	 
C 	 -76.8663 	 0.882237 	 -59.2137 	 
C 	 -76.4961 	 -0.298366 	 -60.0108 	 
C 	 -75.4656 	 -0.0992284 	 -60.8859 	 
H 	 -76.9896 	 -1.27523 	 -59.7259 	 
C 	 -77.8925 	 0.920261 	 -58.0704 	 
H 	 -77.6616 	 1.61738 	 -57.3014 	 
H 	 -77.9994 	 -0.0865733 	 -57.6427 	 
C 	 -79.2351 	 1.35884 	 -58.6515 	 
H 	 -79.0094 	 2.40838 	 -58.9635 	 
H 	 -79.6231 	 0.80103 	 -59.426 	 
C 	 -80.3184 	 1.34187 	 -57.5219 	 
H 	 -79.9814 	 1.80765 	 -56.5433 	 
H 	 -81.2211 	 1.77316 	 -57.9316 	 
H 	 -80.5872 	 0.348864 	 -57.2895 	 
S 	 -75.2698 	 -0.603163 	 -63.5355 	 
C 	 -74.1378 	 -1.79383 	 -64.0021 	 
C 	 -73.7668 	 -2.68619 	 -63.009 	 
C 	 -74.2452 	 -2.25835 	 -61.7696 	 
C 	 -74.897 	 -1.03265 	 -61.8658 	 
H 	 -72.9707 	 -3.48104 	 -63.1023 	 
C 	 -73.8887 	 -3.07131 	 -60.5468 	 
H 	 -73.4751 	 -3.96989 	 -60.8723 	 
H 	 -74.6961 	 -3.22197 	 -59.7946 	 
C 	 -72.6939 	 -2.38385 	 -59.7946 	 
H 	 -73.1559 	 -1.53129 	 -59.3848 	 
H 	 -71.9719 	 -1.98965 	 -60.4101 	 
C 	 -71.9255 	 -3.21233 	 -58.7266 	 
H 	 -72.6239 	 -3.45476 	 -57.9491 	 
H 	 -71.2016 	 -2.60969 	 -58.2217 	 
H 	 -71.4159 	 -4.06879 	 -59.2067 	 
H 	 -76.1397 	 2.91958 	 -59.0344 	 
H 	 -73.7183 	 -1.77475 	 -65.0603 	 
*
