! wB97X-D3 SP def2-SVP
%pal
nprocs 24
end

* xyz 0 1
S 	 -69.5329 	 -42.8915 	 -95.4477 	 
C 	 -69.525 	 -41.1908 	 -95.6581 	 
C 	 -70.4032 	 -40.8972 	 -96.6571 	 
C 	 -71.3683 	 -41.9441 	 -96.8876 	 
C 	 -71.1498 	 -43.083 	 -96.1737 	 
H 	 -72.1455 	 -41.9135 	 -97.6092 	 
C 	 -70.4908 	 -39.6034 	 -97.4444 	 
H 	 -70.4975 	 -38.8682 	 -96.7497 	 
H 	 -71.4911 	 -39.6789 	 -97.8603 	 
C 	 -69.3217 	 -39.4905 	 -98.4873 	 
H 	 -69.3803 	 -38.5443 	 -99.0326 	 
H 	 -68.414 	 -39.4274 	 -97.9751 	 
C 	 -69.1387 	 -40.5548 	 -99.5002 	 
H 	 -69.607 	 -40.2143 	 -100.439 	 
H 	 -68.0823 	 -40.5711 	 -99.6959 	 
H 	 -69.3621 	 -41.5495 	 -99.146 	 
S 	 -71.1003 	 -45.8219 	 -96.1857 	 
C 	 -72.6089 	 -46.6241 	 -96.2277 	 
C 	 -73.6781 	 -45.7549 	 -96.2477 	 
C 	 -73.3305 	 -44.4027 	 -96.2715 	 
C 	 -71.9404 	 -44.3004 	 -96.2342 	 
H 	 -74.6362 	 -46.136 	 -96.5021 	 
C 	 -74.382 	 -43.3422 	 -96.4247 	 
H 	 -75.2252 	 -43.8475 	 -96.9678 	 
H 	 -74.1455 	 -42.6777 	 -97.2142 	 
C 	 -74.7354 	 -42.6257 	 -95.1083 	 
H 	 -73.8174 	 -42.2573 	 -94.5736 	 
H 	 -75.1548 	 -43.3019 	 -94.4177 	 
C 	 -75.513 	 -41.3595 	 -95.2987 	 
H 	 -76.4946 	 -41.6012 	 -95.6229 	 
H 	 -75.0761 	 -40.6966 	 -96.0456 	 
H 	 -75.5729 	 -40.874 	 -94.3236 	 
H 	 -68.609 	 -40.6321 	 -95.4993 	 
H 	 -72.7296 	 -47.7022 	 -96.2723 	 
*
