! wB97X-D3 SP def2-SVP
%pal
nprocs 24
end

* xyz 0 1
S 	 -51.5892 	 -44.3658 	 -81.4302 	 
C 	 -52.6863 	 -43.1867 	 -81.8528 	 
C 	 -53.8388 	 -43.6629 	 -82.506 	 
C 	 -53.756 	 -45.0714 	 -82.6126 	 
C 	 -52.6197 	 -45.5915 	 -82.1147 	 
H 	 -54.4911 	 -45.758 	 -83.0977 	 
C 	 -54.9986 	 -42.7774 	 -82.938 	 
H 	 -54.7591 	 -41.737 	 -82.734 	 
H 	 -55.8714 	 -43.0312 	 -82.382 	 
C 	 -55.3579 	 -42.8514 	 -84.3807 	 
H 	 -55.6678 	 -43.8825 	 -84.7126 	 
H 	 -56.2384 	 -42.1927 	 -84.6645 	 
C 	 -54.234 	 -42.2338 	 -85.1789 	 
H 	 -53.7406 	 -41.4073 	 -84.6801 	 
H 	 -53.4766 	 -42.9851 	 -85.4265 	 
H 	 -54.4532 	 -41.947 	 -86.1841 	 
S 	 -53.5403 	 -48.252 	 -82.4685 	 
C 	 -52.2947 	 -49.5277 	 -82.3906 	 
C 	 -51.0227 	 -48.9874 	 -82.504 	 
C 	 -50.9781 	 -47.607 	 -82.3466 	 
C 	 -52.2542 	 -47.007 	 -82.2275 	 
H 	 -50.2363 	 -49.6369 	 -82.514 	 
C 	 -49.592 	 -46.8765 	 -82.4172 	 
H 	 -48.7787 	 -47.5012 	 -82.0632 	 
H 	 -49.7893 	 -46.2072 	 -81.605 	 
C 	 -49.305 	 -46.0846 	 -83.7438 	 
H 	 -48.2931 	 -45.7099 	 -83.634 	 
H 	 -49.9287 	 -45.2294 	 -83.9024 	 
C 	 -49.4551 	 -46.9359 	 -85.0275 	 
H 	 -48.8417 	 -47.7983 	 -85.1369 	 
H 	 -48.9934 	 -46.3035 	 -85.7301 	 
H 	 -50.4909 	 -47.1759 	 -85.3076 	 
H 	 -52.4279 	 -42.176 	 -81.779 	 
H 	 -52.5224 	 -50.5638 	 -82.508 	 
*
