! wB97X-D3 SP def2-SVP
%pal
nprocs 24
end

* xyz 0 1
S 	 -51.3428 	 3.59653 	 -23.5598 	 
C 	 -51.1147 	 4.68781 	 -22.2234 	 
C 	 -52.2943 	 5.06436 	 -21.5915 	 
C 	 -53.3893 	 4.27518 	 -22.1597 	 
C 	 -53.0097 	 3.38823 	 -23.1762 	 
H 	 -54.4014 	 4.18557 	 -21.6838 	 
C 	 -52.4174 	 6.20073 	 -20.5752 	 
H 	 -51.4111 	 6.60237 	 -20.3182 	 
H 	 -52.83 	 5.74538 	 -19.6214 	 
C 	 -53.4231 	 7.31553 	 -21.1709 	 
H 	 -53.0018 	 7.76313 	 -22.0835 	 
H 	 -54.4685 	 6.81868 	 -21.4185 	 
C 	 -53.8041 	 8.38435 	 -20.1738 	 
H 	 -52.9237 	 8.93918 	 -19.7369 	 
H 	 -54.3973 	 9.15564 	 -20.7003 	 
H 	 -54.4332 	 8.01751 	 -19.3273 	 
S 	 -55.6744 	 2.81278 	 -23.895 	 
C 	 -56.0065 	 1.17161 	 -24.5538 	 
C 	 -54.8094 	 0.58692 	 -24.8572 	 
C 	 -53.6826 	 1.21509 	 -24.3532 	 
C 	 -53.9471 	 2.41467 	 -23.7743 	 
H 	 -54.8149 	 -0.332586 	 -25.3896 	 
C 	 -52.3074 	 0.519909 	 -24.4417 	 
H 	 -52.361 	 -0.467339 	 -24.0721 	 
H 	 -51.7087 	 0.996767 	 -23.6841 	 
C 	 -51.6561 	 0.666906 	 -25.814 	 
H 	 -50.6295 	 0.175008 	 -25.9831 	 
H 	 -51.4858 	 1.71353 	 -25.8651 	 
C 	 -52.4551 	 0.0479306 	 -26.9632 	 
H 	 -52.3707 	 -1.06969 	 -26.8512 	 
H 	 -52.0196 	 0.220779 	 -27.9179 	 
H 	 -53.5146 	 0.445218 	 -27.0604 	 
H 	 -50.2301 	 5.26948 	 -22.0976 	 
H 	 -56.8831 	 0.717768 	 -24.929 	 
*
