! wB97X-D3 SP def2-SVP
%pal
nprocs 24
end

* xyz 0 1
S 	 -43.0701 	 -50.0999 	 -70.5253 	 
C 	 -41.3852 	 -49.7762 	 -70.2258 	 
C 	 -40.6634 	 -50.9293 	 -69.9192 	 
C 	 -41.4932 	 -52.0615 	 -69.9836 	 
C 	 -42.8483 	 -51.7877 	 -70.1663 	 
H 	 -41.2607 	 -53.1336 	 -69.9556 	 
C 	 -39.1953 	 -51.0061 	 -69.5226 	 
H 	 -38.5685 	 -50.8625 	 -70.4051 	 
H 	 -39.0742 	 -51.9821 	 -69.1737 	 
C 	 -38.6269 	 -50.0709 	 -68.4338 	 
H 	 -38.3803 	 -49.05 	 -68.7914 	 
H 	 -39.3267 	 -49.9055 	 -67.6073 	 
C 	 -37.3073 	 -50.6214 	 -67.8705 	 
H 	 -37.586 	 -51.528 	 -67.3712 	 
H 	 -36.5482 	 -50.7498 	 -68.5898 	 
H 	 -36.9599 	 -49.876 	 -67.1428 	 
S 	 -44.8785 	 -52.84 	 -71.7778 	 
C 	 -45.6974 	 -54.2965 	 -71.2908 	 
C 	 -45.3226 	 -54.7434 	 -70.0288 	 
C 	 -44.2197 	 -53.9608 	 -69.5336 	 
C 	 -43.9054 	 -52.8301 	 -70.2729 	 
H 	 -45.8302 	 -55.6684 	 -69.698 	 
C 	 -43.6029 	 -54.2418 	 -68.1951 	 
H 	 -44.3441 	 -54.1497 	 -67.3921 	 
H 	 -42.776 	 -53.5195 	 -68.0571 	 
C 	 -43.0296 	 -55.6489 	 -68.088 	 
H 	 -42.3026 	 -55.8444 	 -68.8453 	 
H 	 -43.8089 	 -56.4133 	 -68.2776 	 
C 	 -42.4701 	 -55.9648 	 -66.7015 	 
H 	 -41.9968 	 -56.9202 	 -66.667 	 
H 	 -43.2293 	 -56.0824 	 -65.8697 	 
H 	 -41.6957 	 -55.2439 	 -66.3254 	 
H 	 -40.963 	 -48.7592 	 -70.2855 	 
H 	 -46.5193 	 -54.7343 	 -71.9051 	 
*
