! wB97X-D3 SP def2-SVP
%pal
nprocs 24
end

* xyz 0 1
S 	 -105.399 	 35.1971 	 -25.7279 	 
C 	 -104.349 	 33.8018 	 -25.9663 	 
C 	 -104.048 	 33.2237 	 -24.7697 	 
C 	 -104.894 	 33.655 	 -23.6778 	 
C 	 -105.634 	 34.7699 	 -24.0417 	 
H 	 -104.965 	 33.2925 	 -22.6654 	 
C 	 -103.091 	 31.9784 	 -24.6464 	 
H 	 -102.915 	 31.7439 	 -25.6997 	 
H 	 -103.487 	 31.1211 	 -24.2198 	 
C 	 -101.701 	 32.2111 	 -24.1265 	 
H 	 -101.204 	 31.2226 	 -24.1548 	 
H 	 -101.089 	 32.8222 	 -24.7507 	 
C 	 -101.72 	 32.7598 	 -22.6306 	 
H 	 -100.692 	 32.8805 	 -22.2421 	 
H 	 -102.172 	 33.7074 	 -22.6644 	 
H 	 -102.129 	 32.1131 	 -21.9112 	 
S 	 -106.373 	 36.5827 	 -21.9938 	 
C 	 -108.095 	 36.6219 	 -21.6448 	 
C 	 -108.864 	 35.8009 	 -22.4404 	 
C 	 -108.082 	 35.206 	 -23.5093 	 
C 	 -106.704 	 35.355 	 -23.2624 	 
H 	 -109.923 	 35.8143 	 -22.333 	 
C 	 -108.778 	 34.3749 	 -24.6207 	 
H 	 -108.881 	 34.9123 	 -25.5831 	 
H 	 -109.829 	 34.316 	 -24.3586 	 
C 	 -108.306 	 32.9092 	 -24.8719 	 
H 	 -107.309 	 33 	 -25.372 	 
H 	 -108.877 	 32.4189 	 -25.6186 	 
C 	 -108.133 	 31.913 	 -23.7527 	 
H 	 -108.968 	 32.0879 	 -23.0253 	 
H 	 -107.247 	 32.1404 	 -23.19 	 
H 	 -108.049 	 30.9411 	 -24.18 	 
H 	 -103.735 	 33.5704 	 -26.8208 	 
H 	 -108.404 	 37.1674 	 -20.8087 	 
*
