! wB97X-D3 SP def2-SVP
%pal
nprocs 24
end

* xyz 0 1
S 	 -138.24 	 10.4186 	 3.54041 	 
C 	 -138.961 	 9.34035 	 2.31345 	 
C 	 -140.357 	 9.22661 	 2.46383 	 
C 	 -140.722 	 9.73794 	 3.74753 	 
C 	 -139.662 	 10.2905 	 4.49541 	 
H 	 -141.718 	 9.78771 	 4.1676 	 
C 	 -141.292 	 8.73578 	 1.308 	 
H 	 -140.672 	 8.00154 	 0.760349 	 
H 	 -141.478 	 9.55448 	 0.549737 	 
C 	 -142.649 	 8.09086 	 1.66721 	 
H 	 -142.41 	 7.20679 	 2.29335 	 
H 	 -143.307 	 8.76939 	 2.21924 	 
C 	 -143.376 	 7.67432 	 0.449694 	 
H 	 -143.829 	 8.45949 	 -0.187965 	 
H 	 -142.718 	 7.31078 	 -0.317345 	 
H 	 -144.144 	 6.87804 	 0.6866 	 
S 	 -141.008 	 12.168 	 6.00316 	 
C 	 -140.493 	 12.5357 	 7.64275 	 
C 	 -139.534 	 11.6542 	 8.10203 	 
C 	 -139.085 	 10.7557 	 7.06364 	 
C 	 -139.816 	 10.8204 	 5.85 	 
H 	 -139.009 	 11.8555 	 9.05733 	 
C 	 -137.903 	 9.81306 	 7.37888 	 
H 	 -137.337 	 10.3448 	 8.05099 	 
H 	 -137.397 	 9.54852 	 6.47863 	 
C 	 -138.22 	 8.51472 	 8.20597 	 
H 	 -138.658 	 7.84986 	 7.47087 	 
H 	 -139.007 	 8.68128 	 8.95814 	 
C 	 -136.983 	 7.81678 	 8.90888 	 
H 	 -136.659 	 8.23807 	 9.85089 	 
H 	 -136.14 	 7.71846 	 8.27474 	 
H 	 -137.347 	 6.8106 	 9.18287 	 
H 	 -138.429 	 9.01184 	 1.43477 	 
H 	 -140.813 	 13.4477 	 8.18624 	 
*
