! wB97X-D3 SP def2-SVP
%pal
nprocs 24
end

* xyz 0 1
S 	 -51.6506 	 -50.351 	 -75.4049 	 
C 	 -53.0319 	 -49.5634 	 -74.8092 	 
C 	 -53.1033 	 -48.2163 	 -75.0312 	 
C 	 -51.9239 	 -47.7423 	 -75.6544 	 
C 	 -51.0284 	 -48.7902 	 -76.0141 	 
H 	 -51.6863 	 -46.6907 	 -75.9356 	 
C 	 -54.249 	 -47.2473 	 -74.6495 	 
H 	 -53.7041 	 -46.2941 	 -74.4016 	 
H 	 -54.7242 	 -47.5356 	 -73.7147 	 
C 	 -55.3054 	 -47.0541 	 -75.747 	 
H 	 -54.8127 	 -46.8413 	 -76.7164 	 
H 	 -55.9828 	 -47.9428 	 -75.7073 	 
C 	 -56.1856 	 -45.8303 	 -75.524 	 
H 	 -55.6588 	 -44.9236 	 -75.5744 	 
H 	 -56.8796 	 -45.7429 	 -76.3533 	 
H 	 -56.696 	 -45.7822 	 -74.654 	 
S 	 -48.4342 	 -49.7885 	 -76.447 	 
C 	 -47.4056 	 -49.0244 	 -77.5872 	 
C 	 -48.1327 	 -48.065 	 -78.3078 	 
C 	 -49.4739 	 -47.887 	 -77.9074 	 
C 	 -49.8427 	 -48.681 	 -76.8566 	 
H 	 -47.6764 	 -47.5547 	 -79.2017 	 
C 	 -50.4324 	 -47.0101 	 -78.8588 	 
H 	 -49.9194 	 -46.0338 	 -79.0321 	 
H 	 -51.3315 	 -46.8264 	 -78.2675 	 
C 	 -50.7939 	 -47.5661 	 -80.2636 	 
H 	 -49.8481 	 -47.844 	 -80.6755 	 
H 	 -51.2581 	 -46.7946 	 -80.8143 	 
C 	 -51.5007 	 -48.8944 	 -80.2385 	 
H 	 -52.492 	 -48.9145 	 -79.7117 	 
H 	 -50.9027 	 -49.6994 	 -79.759 	 
H 	 -51.5535 	 -49.3237 	 -81.2333 	 
H 	 -53.8525 	 -49.9805 	 -74.2356 	 
H 	 -46.4236 	 -49.4007 	 -77.9523 	 
*
