! wB97X-D3 SP def2-SVP
%pal
nprocs 24
end

* xyz 0 1
S 	 17.71 	 -4.76151 	 -111.581 	 
C 	 18.1249 	 -4.7314 	 -109.842 	 
C 	 18.516 	 -6.03334 	 -109.41 	 
C 	 18.4228 	 -7.01255 	 -110.547 	 
C 	 18.123 	 -6.45109 	 -111.77 	 
H 	 18.7416 	 -7.99946 	 -110.527 	 
C 	 18.8365 	 -6.32693 	 -108.001 	 
H 	 19.1387 	 -7.36203 	 -107.985 	 
H 	 17.935 	 -6.27931 	 -107.392 	 
C 	 19.9702 	 -5.44821 	 -107.416 	 
H 	 19.7666 	 -4.42524 	 -107.709 	 
H 	 19.8536 	 -5.47424 	 -106.353 	 
C 	 21.3492 	 -5.88565 	 -107.89 	 
H 	 22.201 	 -5.2883 	 -107.372 	 
H 	 21.5337 	 -6.86138 	 -107.515 	 
H 	 21.5322 	 -5.85446 	 -108.951 	 
S 	 19.7925 	 -6.66229 	 -113.932 	 
C 	 19.548 	 -7.87887 	 -115.172 	 
C 	 18.5012 	 -8.73604 	 -114.844 	 
C 	 17.7451 	 -8.22732 	 -113.747 	 
C 	 18.3463 	 -7.12148 	 -113.084 	 
H 	 18.2652 	 -9.62859 	 -115.325 	 
C 	 16.4174 	 -8.76214 	 -113.384 	 
H 	 16.0642 	 -8.29121 	 -112.427 	 
H 	 16.5369 	 -9.90182 	 -113.255 	 
C 	 15.2691 	 -8.56664 	 -114.477 	 
H 	 15.6158 	 -9.33073 	 -115.252 	 
H 	 15.3327 	 -7.64649 	 -115.011 	 
C 	 13.8358 	 -8.81847 	 -114.014 	 
H 	 13.0308 	 -8.76013 	 -114.742 	 
H 	 13.6531 	 -8.04862 	 -113.247 	 
H 	 13.9006 	 -9.74792 	 -113.437 	 
H 	 18.0107 	 -3.83145 	 -109.291 	 
H 	 20.2633 	 -8.06596 	 -115.96 	 
*
