! wB97X-D3 SP def2-SVP
%pal
nprocs 24
end

* xyz 0 1
S 	 49.15 	 -12.0564 	 -109.418 	 
C 	 48.3621 	 -11.4109 	 -110.815 	 
C 	 47.0275 	 -11.1695 	 -110.609 	 
C 	 46.6157 	 -11.5748 	 -109.29 	 
C 	 47.6941 	 -12.0321 	 -108.456 	 
H 	 45.6714 	 -11.3385 	 -108.81 	 
C 	 46.1115 	 -10.6267 	 -111.713 	 
H 	 46.7496 	 -10.3715 	 -112.524 	 
H 	 45.6029 	 -9.77154 	 -111.311 	 
C 	 45.1082 	 -11.6189 	 -112.154 	 
H 	 45.6195 	 -12.5375 	 -112.287 	 
H 	 44.4009 	 -11.8098 	 -111.296 	 
C 	 44.2732 	 -11.245 	 -113.388 	 
H 	 44.9395 	 -11.2183 	 -114.235 	 
H 	 43.4577 	 -11.967 	 -113.64 	 
H 	 43.8645 	 -10.2004 	 -113.319 	 
S 	 46.6469 	 -14.0659 	 -106.949 	 
C 	 46.9874 	 -14.0839 	 -105.25 	 
C 	 47.6395 	 -12.9217 	 -104.764 	 
C 	 48.0911 	 -12.1041 	 -105.88 	 
C 	 47.5969 	 -12.6098 	 -107.082 	 
H 	 47.9133 	 -12.7832 	 -103.741 	 
C 	 48.7528 	 -10.7537 	 -105.797 	 
H 	 48.0222 	 -10.0064 	 -105.446 	 
H 	 49.0403 	 -10.4912 	 -106.829 	 
C 	 50.0528 	 -10.5933 	 -104.975 	 
H 	 49.848 	 -10.8194 	 -103.871 	 
H 	 50.3668 	 -9.54687 	 -105.16 	 
C 	 51.1656 	 -11.5655 	 -105.481 	 
H 	 51.4397 	 -11.5339 	 -106.534 	 
H 	 50.9165 	 -12.6597 	 -105.448 	 
H 	 51.9537 	 -11.4229 	 -104.824 	 
H 	 48.8597 	 -11.2689 	 -111.776 	 
H 	 46.4997 	 -14.7938 	 -104.613 	 
*
