! wB97X-D3 SP def2-SVP
%pal
nprocs 24
end

* xyz 0 1
S 	 -140.637 	 9.40622 	 4.4263 	 
C 	 -141.879 	 8.32305 	 4.2249 	 
C 	 -143.01 	 8.57091 	 4.97894 	 
C 	 -142.749 	 9.67689 	 5.87746 	 
C 	 -141.464 	 10.0957 	 5.82334 	 
H 	 -143.43 	 10.1418 	 6.6671 	 
C 	 -144.283 	 7.73752 	 4.92442 	 
H 	 -144.318 	 6.93254 	 5.6937 	 
H 	 -144.295 	 7.27542 	 3.90262 	 
C 	 -145.601 	 8.4998 	 4.90671 	 
H 	 -146.019 	 8.69601 	 5.93175 	 
H 	 -145.423 	 9.51968 	 4.38594 	 
C 	 -146.643 	 7.50742 	 4.23079 	 
H 	 -146.656 	 7.63096 	 3.10239 	 
H 	 -146.5 	 6.45575 	 4.4719 	 
H 	 -147.663 	 7.75267 	 4.42889 	 
S 	 -140.833 	 12.735 	 6.2754 	 
C 	 -140.274 	 13.0994 	 7.88929 	 
C 	 -140.134 	 12.0279 	 8.72114 	 
C 	 -140.401 	 10.8077 	 7.99265 	 
C 	 -140.922 	 11.0537 	 6.72858 	 
H 	 -139.832 	 12.1936 	 9.73617 	 
C 	 -140.335 	 9.48363 	 8.69049 	 
H 	 -139.325 	 9.40594 	 9.01925 	 
H 	 -140.585 	 8.77499 	 7.90586 	 
C 	 -141.264 	 9.1531 	 9.84672 	 
H 	 -142.279 	 9.12343 	 9.59395 	 
H 	 -141.193 	 9.98304 	 10.5263 	 
C 	 -141.042 	 7.7525 	 10.4573 	 
H 	 -139.957 	 7.41935 	 10.5557 	 
H 	 -141.409 	 6.98302 	 9.76036 	 
H 	 -141.534 	 7.57097 	 11.4093 	 
H 	 -141.891 	 7.58815 	 3.4366 	 
H 	 -140.12 	 14.1701 	 8.14934 	 
*
