! wB97X-D3 SP def2-SVP
%pal
nprocs 24
end

* xyz 0 1
S 	 43.3952 	 -18.6047 	 -110.679 	 
C 	 43.4635 	 -17.7311 	 -109.179 	 
C 	 43.4151 	 -18.6198 	 -108.063 	 
C 	 43.625 	 -19.9772 	 -108.559 	 
C 	 43.5025 	 -20.1491 	 -109.9 	 
H 	 43.7118 	 -20.7958 	 -107.922 	 
C 	 43.4063 	 -18.2054 	 -106.607 	 
H 	 42.3869 	 -18.1499 	 -106.332 	 
H 	 43.6409 	 -17.1608 	 -106.472 	 
C 	 44.1319 	 -19.0839 	 -105.634 	 
H 	 43.9051 	 -20.1208 	 -105.776 	 
H 	 45.1399 	 -19.0072 	 -105.857 	 
C 	 43.888 	 -18.7895 	 -104.125 	 
H 	 42.8694 	 -18.5952 	 -103.796 	 
H 	 44.3665 	 -19.5377 	 -103.371 	 
H 	 44.2946 	 -17.8127 	 -103.956 	 
S 	 44.7553 	 -21.5332 	 -111.918 	 
C 	 44.2303 	 -23.1804 	 -112.262 	 
C 	 43.2938 	 -23.6409 	 -111.355 	 
C 	 42.979 	 -22.6514 	 -110.35 	 
C 	 43.6248 	 -21.444 	 -110.575 	 
H 	 42.8116 	 -24.5689 	 -111.526 	 
C 	 41.7994 	 -22.9286 	 -109.425 	 
H 	 41.1385 	 -23.7138 	 -109.954 	 
H 	 41.0189 	 -22.232 	 -109.5 	 
C 	 42.2044 	 -23.4001 	 -108.086 	 
H 	 42.8603 	 -22.6385 	 -107.73 	 
H 	 42.8411 	 -24.3345 	 -108.146 	 
C 	 40.9933 	 -23.4647 	 -107.194 	 
H 	 40.2602 	 -24.195 	 -107.581 	 
H 	 40.4462 	 -22.5649 	 -107.063 	 
H 	 41.2416 	 -23.6547 	 -106.168 	 
H 	 43.3893 	 -16.6511 	 -109.133 	 
H 	 44.6039 	 -23.7487 	 -113.123 	 
*
