! wB97X-D3 SP def2-SVP
%pal
nprocs 24
end

* xyz 0 1
S 	 -30.083 	 -38.9494 	 -93.6087 	 
C 	 -29.65 	 -37.5772 	 -94.5895 	 
C 	 -29.5008 	 -36.4304 	 -93.7506 	 
C 	 -29.7763 	 -36.6973 	 -92.3884 	 
C 	 -30.0575 	 -38.0544 	 -92.1361 	 
H 	 -29.7453 	 -35.9348 	 -91.6363 	 
C 	 -29.2228 	 -35.0516 	 -94.281 	 
H 	 -30.2213 	 -34.6848 	 -94.4774 	 
H 	 -28.7048 	 -35.0334 	 -95.2769 	 
C 	 -28.5391 	 -34.1501 	 -93.2844 	 
H 	 -28.2397 	 -33.1737 	 -93.7375 	 
H 	 -29.1651 	 -33.8884 	 -92.4752 	 
C 	 -27.1807 	 -34.674 	 -92.7671 	 
H 	 -27.2152 	 -35.7595 	 -92.6024 	 
H 	 -26.4491 	 -34.5367 	 -93.5952 	 
H 	 -26.8393 	 -34.1893 	 -91.8643 	 
S 	 -28.8793 	 -39.0595 	 -89.8824 	 
C 	 -29.8805 	 -39.6149 	 -88.5873 	 
C 	 -31.1995 	 -39.3596 	 -88.8581 	 
C 	 -31.4813 	 -38.8158 	 -90.1053 	 
C 	 -30.3169 	 -38.6059 	 -90.8362 	 
H 	 -31.9437 	 -39.5667 	 -88.1361 	 
C 	 -32.906 	 -38.5264 	 -90.6224 	 
H 	 -32.8367 	 -37.6954 	 -91.2864 	 
H 	 -33.456 	 -38.1668 	 -89.736 	 
C 	 -33.8282 	 -39.5774 	 -91.3048 	 
H 	 -33.2454 	 -39.9022 	 -92.1845 	 
H 	 -34.717 	 -39.017 	 -91.7311 	 
C 	 -34.1435 	 -40.8969 	 -90.5231 	 
H 	 -34.7788 	 -41.6791 	 -90.9306 	 
H 	 -34.5129 	 -40.5645 	 -89.5644 	 
H 	 -33.1501 	 -41.4136 	 -90.3642 	 
H 	 -29.5614 	 -37.4055 	 -95.6734 	 
H 	 -29.6054 	 -40.0929 	 -87.6164 	 
*
