! wB97X-D3 SP def2-SVP
%pal
nprocs 24
end

* xyz 0 1
S 	 -74.345 	 -45.6098 	 -91.0332 	 
C 	 -74.3884 	 -43.8347 	 -90.8164 	 
C 	 -74.4027 	 -43.2139 	 -92.0394 	 
C 	 -74.7362 	 -44.1422 	 -93.0402 	 
C 	 -74.8719 	 -45.4632 	 -92.6721 	 
H 	 -74.7747 	 -43.9041 	 -94.1241 	 
C 	 -74.032 	 -41.7182 	 -92.3485 	 
H 	 -74.8397 	 -40.9692 	 -92.2962 	 
H 	 -73.6264 	 -41.6058 	 -93.404 	 
C 	 -72.82 	 -41.209 	 -91.5513 	 
H 	 -72.5504 	 -40.1378 	 -91.9134 	 
H 	 -73.1064 	 -41.2334 	 -90.5144 	 
C 	 -71.5596 	 -42.1794 	 -91.729 	 
H 	 -70.8463 	 -42.0251 	 -90.9471 	 
H 	 -71.9184 	 -43.2139 	 -91.659 	 
H 	 -71.2064 	 -42.0696 	 -92.7248 	 
S 	 -74.3226 	 -48.1507 	 -93.2507 	 
C 	 -75.2109 	 -48.9499 	 -94.5033 	 
C 	 -76.3272 	 -48.2111 	 -94.8678 	 
C 	 -76.2165 	 -46.8813 	 -94.4143 	 
C 	 -75.2946 	 -46.6777 	 -93.4058 	 
H 	 -77.0727 	 -48.6488 	 -95.5131 	 
C 	 -77.2681 	 -45.7948 	 -94.832 	 
H 	 -77.6542 	 -45.9287 	 -95.8231 	 
H 	 -76.9431 	 -44.6571 	 -94.8657 	 
C 	 -78.539 	 -45.7191 	 -93.9727 	 
H 	 -79.127 	 -44.8345 	 -94.2133 	 
H 	 -78.1748 	 -45.662 	 -92.9477 	 
C 	 -79.5176 	 -46.9424 	 -94.1835 	 
H 	 -79.1123 	 -47.9139 	 -94.0093 	 
H 	 -79.8268 	 -47.0147 	 -95.2607 	 
H 	 -80.4888 	 -46.8723 	 -93.6158 	 
H 	 -73.9971 	 -43.4259 	 -89.8955 	 
H 	 -75.1238 	 -50.074 	 -94.5872 	 
*
