! wB97X-D3 SP def2-SVP
%pal
nprocs 24
end

* xyz 0 1
S 	 -106.632 	 40.931 	 -8.42581 	 
C 	 -106.722 	 41.0883 	 -6.68412 	 
C 	 -107.808 	 41.8174 	 -6.23957 	 
C 	 -108.523 	 42.379 	 -7.38097 	 
C 	 -108.094 	 41.9708 	 -8.65246 	 
H 	 -109.39 	 42.9777 	 -7.33002 	 
C 	 -107.971 	 42.3963 	 -4.78398 	 
H 	 -107.778 	 41.5745 	 -4.01491 	 
H 	 -108.999 	 42.7602 	 -4.66143 	 
C 	 -107.07 	 43.6334 	 -4.39295 	 
H 	 -107.165 	 43.8166 	 -3.26743 	 
H 	 -106.051 	 43.532 	 -4.77997 	 
C 	 -107.562 	 44.9743 	 -5.01263 	 
H 	 -107.795 	 44.8681 	 -6.07184 	 
H 	 -108.423 	 45.4793 	 -4.46834 	 
H 	 -106.748 	 45.6792 	 -4.87584 	 
S 	 -108.62 	 41.1691 	 -11.2241 	 
C 	 -109.907 	 41.9024 	 -12.1455 	 
C 	 -110.259 	 43.1147 	 -11.576 	 
C 	 -109.633 	 43.3231 	 -10.2791 	 
C 	 -108.832 	 42.232 	 -9.90923 	 
H 	 -110.999 	 43.6581 	 -12.1544 	 
C 	 -109.842 	 44.5878 	 -9.56695 	 
H 	 -109.902 	 45.4484 	 -10.1802 	 
H 	 -108.979 	 44.7144 	 -8.95397 	 
C 	 -111.036 	 44.7193 	 -8.68089 	 
H 	 -111.262 	 43.7552 	 -8.25864 	 
H 	 -111.867 	 44.9239 	 -9.36901 	 
C 	 -110.894 	 45.8371 	 -7.67848 	 
H 	 -110.524 	 46.801 	 -8.10845 	 
H 	 -110.119 	 45.5892 	 -6.97891 	 
H 	 -111.833 	 46.0481 	 -7.06733 	 
H 	 -106.106 	 40.4291 	 -6.07869 	 
H 	 -110.283 	 41.6346 	 -13.1591 	 
*
