! wB97X-D3 SP def2-SVP
%pal
nprocs 24
end

* xyz 0 1
S 	 -120.744 	 53.3599 	 -31.8198 	 
C 	 -120.498 	 52.4107 	 -33.277 	 
C 	 -120.574 	 51.0646 	 -33.0831 	 
C 	 -120.862 	 50.8714 	 -31.6869 	 
C 	 -121.201 	 51.9563 	 -30.9164 	 
H 	 -120.985 	 49.9425 	 -31.2217 	 
C 	 -120.478 	 49.9129 	 -34.0856 	 
H 	 -119.633 	 49.2615 	 -33.8659 	 
H 	 -120.29 	 50.3169 	 -35.0046 	 
C 	 -121.731 	 49.0708 	 -34.2477 	 
H 	 -121.737 	 48.2871 	 -33.4581 	 
H 	 -122.731 	 49.6089 	 -34.1177 	 
C 	 -121.77 	 48.3245 	 -35.5195 	 
H 	 -122.742 	 47.8033 	 -35.7304 	 
H 	 -121.596 	 49.0412 	 -36.3479 	 
H 	 -120.95 	 47.6442 	 -35.5396 	 
S 	 -120.533 	 51.5818 	 -28.3475 	 
C 	 -121.786 	 51.7036 	 -27.1056 	 
C 	 -122.985 	 51.9981 	 -27.7128 	 
C 	 -122.94 	 52.1639 	 -29.1109 	 
C 	 -121.663 	 51.9911 	 -29.578 	 
H 	 -123.858 	 52.1578 	 -27.1235 	 
C 	 -124.055 	 52.5308 	 -30.0424 	 
H 	 -124.156 	 51.6112 	 -30.6449 	 
H 	 -123.862 	 53.4436 	 -30.6158 	 
C 	 -125.439 	 52.47 	 -29.3218 	 
H 	 -125.61 	 53.1831 	 -28.5506 	 
H 	 -125.44 	 51.4685 	 -28.8903 	 
C 	 -126.664 	 52.4307 	 -30.2791 	 
H 	 -127.679 	 52.3907 	 -29.7368 	 
H 	 -126.749 	 51.5741 	 -30.9405 	 
H 	 -126.681 	 53.309 	 -30.9317 	 
H 	 -120.285 	 52.9772 	 -34.1633 	 
H 	 -121.724 	 51.6102 	 -26.059 	 
*
