! wB97X-D3 SP def2-SVP
%pal
nprocs 24
end

* xyz 0 1
S 	 -53.9139 	 13.1301 	 -104.779 	 
C 	 -53.5992 	 13.6316 	 -103.1 	 
C 	 -54.685 	 13.6986 	 -102.255 	 
C 	 -55.8837 	 13.2644 	 -102.918 	 
C 	 -55.6473 	 12.9906 	 -104.264 	 
H 	 -56.847 	 13.0935 	 -102.422 	 
C 	 -54.5635 	 13.8387 	 -100.743 	 
H 	 -53.5498 	 13.619 	 -100.4 	 
H 	 -55.1248 	 13.0242 	 -100.288 	 
C 	 -54.9187 	 15.2508 	 -100.294 	 
H 	 -54.279 	 15.9999 	 -100.714 	 
H 	 -55.9606 	 15.5262 	 -100.618 	 
C 	 -55.0344 	 15.4478 	 -98.772 	 
H 	 -55.1922 	 16.4957 	 -98.6503 	 
H 	 -55.985 	 14.9592 	 -98.3944 	 
H 	 -54.1905 	 14.9776 	 -98.2009 	 
S 	 -56.0366 	 11.2231 	 -106.31 	 
C 	 -57.6567 	 10.9267 	 -106.966 	 
C 	 -58.582 	 11.6483 	 -106.233 	 
C 	 -57.9962 	 12.5598 	 -105.287 	 
C 	 -56.6294 	 12.3361 	 -105.119 	 
H 	 -59.6354 	 11.5965 	 -106.382 	 
C 	 -58.7878 	 13.6481 	 -104.54 	 
H 	 -58.6213 	 13.4529 	 -103.444 	 
H 	 -59.8558 	 13.4501 	 -104.873 	 
C 	 -58.3643 	 14.9904 	 -104.946 	 
H 	 -57.2703 	 14.9144 	 -105.042 	 
H 	 -58.4535 	 15.765 	 -104.139 	 
C 	 -59.1243 	 15.4737 	 -106.272 	 
H 	 -58.7556 	 16.4955 	 -106.441 	 
H 	 -60.1937 	 15.55 	 -106.116 	 
H 	 -58.8086 	 14.9577 	 -107.069 	 
H 	 -52.5557 	 13.7646 	 -102.788 	 
H 	 -57.8958 	 10.1885 	 -107.721 	 
*
