! wB97X-D3 SP def2-SVP
%pal
nprocs 24
end

* xyz 0 1
S 	 -112.324 	 62.5368 	 -71.4734 	 
C 	 -111.193 	 61.1767 	 -71.8215 	 
C 	 -110.406 	 61.5305 	 -72.8917 	 
C 	 -110.641 	 62.8657 	 -73.4122 	 
C 	 -111.744 	 63.4266 	 -72.8354 	 
H 	 -110.053 	 63.3281 	 -74.1328 	 
C 	 -109.394 	 60.6728 	 -73.5046 	 
H 	 -109.716 	 60.5038 	 -74.5674 	 
H 	 -109.454 	 59.6948 	 -72.9733 	 
C 	 -107.94 	 61.2225 	 -73.5109 	 
H 	 -107.351 	 60.3839 	 -73.7628 	 
H 	 -107.8 	 61.8827 	 -74.3845 	 
C 	 -107.554 	 61.9941 	 -72.1543 	 
H 	 -108.041 	 62.9242 	 -71.927 	 
H 	 -107.69 	 61.4757 	 -71.2671 	 
H 	 -106.483 	 62.2296 	 -72.2453 	 
S 	 -112.58 	 65.8892 	 -71.9453 	 
C 	 -113.168 	 67.0354 	 -73.0906 	 
C 	 -112.938 	 66.5776 	 -74.3681 	 
C 	 -112.488 	 65.2408 	 -74.4458 	 
C 	 -112.345 	 64.6999 	 -73.2009 	 
H 	 -113.174 	 67.2801 	 -75.1174 	 
C 	 -112.114 	 64.6564 	 -75.7174 	 
H 	 -110.997 	 64.4186 	 -75.8138 	 
H 	 -112.294 	 65.339 	 -76.5531 	 
C 	 -112.715 	 63.2747 	 -76.0303 	 
H 	 -112.457 	 62.4352 	 -75.3824 	 
H 	 -112.341 	 62.8991 	 -76.9896 	 
C 	 -114.284 	 63.2808 	 -76.1337 	 
H 	 -114.63 	 64.1008 	 -76.7392 	 
H 	 -114.653 	 63.4209 	 -75.1225 	 
H 	 -114.615 	 62.2729 	 -76.4071 	 
H 	 -111.222 	 60.1908 	 -71.2691 	 
H 	 -113.544 	 68.0597 	 -72.9574 	 
*
