! wB97X-D3 SP def2-SVP
%pal
nprocs 24
end

* xyz 0 1
S 	 -100.936 	 -0.441514 	 -114.137 	 
C 	 -101.611 	 0.748996 	 -115.301 	 
C 	 -103.006 	 0.581031 	 -115.338 	 
C 	 -103.525 	 -0.455682 	 -114.493 	 
C 	 -102.515 	 -1.14368 	 -113.805 	 
H 	 -104.522 	 -0.659047 	 -114.269 	 
C 	 -103.961 	 1.38184 	 -116.249 	 
H 	 -104.572 	 0.693688 	 -116.878 	 
H 	 -103.363 	 1.8936 	 -117.077 	 
C 	 -104.76 	 2.46613 	 -115.609 	 
H 	 -105.323 	 2.11242 	 -114.772 	 
H 	 -104.051 	 3.09373 	 -115.171 	 
C 	 -105.699 	 3.19652 	 -116.596 	 
H 	 -105.243 	 3.71892 	 -117.5 	 
H 	 -106.346 	 2.45163 	 -117.026 	 
H 	 -106.341 	 3.83991 	 -116.157 	 
S 	 -101.288 	 -3.30978 	 -112.713 	 
C 	 -102.112 	 -4.28881 	 -111.558 	 
C 	 -103.4 	 -3.84973 	 -111.298 	 
C 	 -103.727 	 -2.67552 	 -112.105 	 
C 	 -102.632 	 -2.22752 	 -112.857 	 
H 	 -104.061 	 -4.22352 	 -110.558 	 
C 	 -105.068 	 -2.00093 	 -111.976 	 
H 	 -104.95 	 -0.901627 	 -111.997 	 
H 	 -105.421 	 -2.14487 	 -110.934 	 
C 	 -106.102 	 -2.53324 	 -112.999 	 
H 	 -105.613 	 -2.79227 	 -113.885 	 
H 	 -106.715 	 -1.68368 	 -113.244 	 
C 	 -107.072 	 -3.56665 	 -112.354 	 
H 	 -107.891 	 -3.77701 	 -112.982 	 
H 	 -107.485 	 -3.06765 	 -111.474 	 
H 	 -106.708 	 -4.5585 	 -112.131 	 
H 	 -101.092 	 1.46202 	 -115.92 	 
H 	 -101.717 	 -5.17671 	 -110.932 	 
*
