! wB97X-D3 SP def2-SVP
%pal
nprocs 24
end

* xyz 0 1
S 	 -61.8057 	 13.1414 	 -110.219 	 
C 	 -63.4779 	 12.58 	 -110.392 	 
C 	 -64.1587 	 13.3411 	 -111.373 	 
C 	 -63.2845 	 14.3475 	 -111.975 	 
C 	 -62.0146 	 14.3639 	 -111.461 	 
H 	 -63.447 	 14.9877 	 -112.843 	 
C 	 -65.4868 	 13.0416 	 -112.031 	 
H 	 -65.6922 	 13.8786 	 -112.731 	 
H 	 -66.3024 	 13.0361 	 -111.232 	 
C 	 -65.5026 	 11.6592 	 -112.782 	 
H 	 -64.6564 	 11.6271 	 -113.495 	 
H 	 -65.4172 	 10.8756 	 -111.983 	 
C 	 -66.8667 	 11.4124 	 -113.51 	 
H 	 -67.5458 	 11.0766 	 -112.752 	 
H 	 -67.243 	 12.2882 	 -114.05 	 
H 	 -66.8236 	 10.6368 	 -114.327 	 
S 	 -59.4344 	 14.3741 	 -112.072 	 
C 	 -58.5499 	 15.8527 	 -112.389 	 
C 	 -59.3675 	 16.9585 	 -112.311 	 
C 	 -60.7438 	 16.6294 	 -111.939 	 
C 	 -60.9054 	 15.2245 	 -111.813 	 
H 	 -58.9935 	 17.9667 	 -112.441 	 
C 	 -61.7375 	 17.6619 	 -111.501 	 
H 	 -61.0522 	 18.4979 	 -111.415 	 
H 	 -62.0933 	 17.4848 	 -110.461 	 
C 	 -62.6918 	 18.0717 	 -112.571 	 
H 	 -63.3163 	 17.1992 	 -112.734 	 
H 	 -62.2971 	 18.061 	 -113.542 	 
C 	 -63.6673 	 19.2465 	 -112.32 	 
H 	 -64.2595 	 19.5822 	 -113.165 	 
H 	 -63.0907 	 20.1744 	 -112.012 	 
H 	 -64.3873 	 19.0496 	 -111.528 	 
H 	 -63.9963 	 11.7697 	 -109.845 	 
H 	 -57.5623 	 15.8649 	 -112.751 	 
*
