! wB97X-D3 SP def2-SVP
%pal
nprocs 24
end

* xyz 0 1
S 	 -27.9401 	 -7.13011 	 -4.54158 	 
C 	 -27.7623 	 -8.79469 	 -4.01603 	 
C 	 -28.77 	 -9.16826 	 -3.17541 	 
C 	 -29.7907 	 -8.13382 	 -3.15406 	 
C 	 -29.4631 	 -6.96643 	 -3.74836 	 
H 	 -30.6661 	 -8.16747 	 -2.58713 	 
C 	 -29.0851 	 -10.4972 	 -2.63439 	 
H 	 -28.3906 	 -11.2458 	 -3.07991 	 
H 	 -30.0776 	 -10.7028 	 -3.02941 	 
C 	 -29 	 -10.4957 	 -1.10738 	 
H 	 -28.0136 	 -10.4023 	 -0.737544 	 
H 	 -29.5721 	 -9.6655 	 -0.645737 	 
C 	 -29.5324 	 -11.7688 	 -0.494939 	 
H 	 -28.8374 	 -12.5632 	 -0.59434 	 
H 	 -29.8072 	 -11.6011 	 0.572901 	 
H 	 -30.428 	 -12.1257 	 -0.996294 	 
S 	 -29.9529 	 -4.58719 	 -5.2694 	 
C 	 -30.8476 	 -3.33061 	 -4.48477 	 
C 	 -31.2897 	 -3.69082 	 -3.25073 	 
C 	 -30.907 	 -5.05939 	 -2.87283 	 
C 	 -30.0721 	 -5.63848 	 -3.8229 	 
H 	 -31.7539 	 -2.90332 	 -2.65167 	 
C 	 -31.4378 	 -5.73579 	 -1.667 	 
H 	 -31.5673 	 -5.01177 	 -0.855102 	 
H 	 -30.7235 	 -6.51422 	 -1.32117 	 
C 	 -32.7544 	 -6.55272 	 -1.93384 	 
H 	 -32.6952 	 -6.94656 	 -2.95015 	 
H 	 -33.5854 	 -5.873 	 -1.8571 	 
C 	 -33.0189 	 -7.75914 	 -0.937258 	 
H 	 -33.4746 	 -7.39336 	 -0.100666 	 
H 	 -32.1064 	 -8.4049 	 -0.740891 	 
H 	 -33.8584 	 -8.33257 	 -1.40857 	 
H 	 -26.9866 	 -9.47948 	 -4.25615 	 
H 	 -30.9245 	 -2.36236 	 -4.94578 	 
*
