! wB97X-D3 SP def2-SVP
%pal
nprocs 24
end

* xyz 0 1
S 	 -88.7006 	 -31.027 	 -61.5589 	 
C 	 -88.7978 	 -29.4314 	 -62.3677 	 
C 	 -88.2896 	 -28.4391 	 -61.5293 	 
C 	 -87.9648 	 -28.9248 	 -60.2443 	 
C 	 -87.9442 	 -30.3146 	 -60.2049 	 
H 	 -87.6707 	 -28.3933 	 -59.392 	 
C 	 -88.3512 	 -26.981 	 -61.8851 	 
H 	 -87.9808 	 -26.8909 	 -62.9206 	 
H 	 -87.6611 	 -26.4364 	 -61.2757 	 
C 	 -89.6901 	 -26.3397 	 -61.74 	 
H 	 -89.6501 	 -25.315 	 -62.2275 	 
H 	 -90.4683 	 -26.9517 	 -62.2913 	 
C 	 -90.1101 	 -26.2029 	 -60.251 	 
H 	 -90.5075 	 -26.9903 	 -59.7058 	 
H 	 -89.385 	 -25.8707 	 -59.5821 	 
H 	 -90.9036 	 -25.4107 	 -60.1311 	 
S 	 -88.9116 	 -32.2498 	 -58.5511 	 
C 	 -88.0399 	 -32.7969 	 -57.1878 	 
C 	 -86.9142 	 -32.096 	 -56.9938 	 
C 	 -86.6698 	 -31.1226 	 -57.9621 	 
C 	 -87.6376 	 -31.1414 	 -59.0265 	 
H 	 -86.3735 	 -32.3734 	 -56.1221 	 
C 	 -85.4117 	 -30.2045 	 -57.9577 	 
H 	 -85.2759 	 -29.6091 	 -58.8712 	 
H 	 -84.5081 	 -30.8227 	 -57.9843 	 
C 	 -85.3314 	 -29.2514 	 -56.7816 	 
H 	 -85.3995 	 -29.8854 	 -55.9334 	 
H 	 -86.214 	 -28.5898 	 -56.7714 	 
C 	 -83.9761 	 -28.4926 	 -56.6018 	 
H 	 -84.2139 	 -27.629 	 -55.9782 	 
H 	 -83.6779 	 -28.1284 	 -57.5604 	 
H 	 -83.2477 	 -29.0201 	 -56.0041 	 
H 	 -89.1803 	 -29.1874 	 -63.3318 	 
H 	 -88.3015 	 -33.5953 	 -56.5335 	 
*
