! wB97X-D3 SP def2-SVP
%pal
nprocs 24
end

* xyz 0 1
S 	 -104.229 	 12.1229 	 -6.51351 	 
C 	 -104.435 	 12.63 	 -4.86822 	 
C 	 -105.422 	 11.8401 	 -4.22498 	 
C 	 -105.984 	 10.866 	 -5.11828 	 
C 	 -105.452 	 10.9304 	 -6.3988 	 
H 	 -106.752 	 10.1226 	 -4.87125 	 
C 	 -105.866 	 12.0647 	 -2.79001 	 
H 	 -105.209 	 12.6577 	 -2.217 	 
H 	 -106.069 	 11.0817 	 -2.41918 	 
C 	 -107.276 	 12.6486 	 -2.47619 	 
H 	 -107.952 	 11.988 	 -2.98078 	 
H 	 -107.553 	 12.5763 	 -1.38883 	 
C 	 -107.317 	 14.0599 	 -2.91372 	 
H 	 -108.338 	 14.5088 	 -2.81183 	 
H 	 -106.536 	 14.6624 	 -2.45685 	 
H 	 -107.153 	 14.0945 	 -3.98978 	 
S 	 -104.745 	 9.52584 	 -8.67817 	 
C 	 -105.948 	 8.91485 	 -9.74101 	 
C 	 -107.18 	 9.13579 	 -9.2121 	 
C 	 -107.17 	 9.78999 	 -7.98937 	 
C 	 -105.926 	 10.1632 	 -7.56345 	 
H 	 -108.012 	 8.74769 	 -9.76302 	 
C 	 -108.48 	 10.1081 	 -7.28071 	 
H 	 -108.466 	 10.0375 	 -6.20951 	 
H 	 -109.164 	 9.35816 	 -7.6453 	 
C 	 -109.07 	 11.4657 	 -7.56447 	 
H 	 -109.09 	 11.5861 	 -8.6507 	 
H 	 -108.371 	 12.2186 	 -7.13338 	 
C 	 -110.508 	 11.6969 	 -7.00913 	 
H 	 -110.455 	 11.5224 	 -5.97802 	 
H 	 -111.284 	 11.0478 	 -7.43978 	 
H 	 -110.966 	 12.6132 	 -7.14837 	 
H 	 -103.787 	 13.3892 	 -4.48884 	 
H 	 -105.703 	 8.49969 	 -10.7115 	 
*
