! wB97X-D3 SP def2-SVP
%pal
nprocs 24
end

* xyz 0 1
S 	 -116.42 	 35.0228 	 -119.268 	 
C 	 -115.6 	 33.9253 	 -120.4 	 
C 	 -114.423 	 33.5132 	 -119.893 	 
C 	 -114.235 	 34.0223 	 -118.604 	 
C 	 -115.175 	 34.827 	 -118.055 	 
H 	 -113.291 	 33.9975 	 -118.042 	 
C 	 -113.312 	 32.6314 	 -120.584 	 
H 	 -113.847 	 32.2593 	 -121.429 	 
H 	 -112.99 	 31.7065 	 -120.03 	 
C 	 -112.059 	 33.3594 	 -121.044 	 
H 	 -112.311 	 34.2274 	 -121.659 	 
H 	 -111.64 	 33.8759 	 -120.188 	 
C 	 -111.092 	 32.4569 	 -121.717 	 
H 	 -110.204 	 32.8367 	 -122.318 	 
H 	 -110.717 	 31.7452 	 -121.03 	 
H 	 -111.669 	 31.8007 	 -122.314 	 
S 	 -113.313 	 36.4857 	 -116.854 	 
C 	 -113.753 	 37.4348 	 -115.482 	 
C 	 -115.087 	 37.3616 	 -115.086 	 
C 	 -115.799 	 36.3977 	 -115.984 	 
C 	 -114.938 	 35.7896 	 -116.966 	 
H 	 -115.486 	 37.9271 	 -114.319 	 
C 	 -117.246 	 36.0566 	 -115.757 	 
H 	 -117.498 	 35.0533 	 -116.177 	 
H 	 -117.931 	 36.8197 	 -116.167 	 
C 	 -117.761 	 36.1959 	 -114.282 	 
H 	 -117.556 	 37.117 	 -113.769 	 
H 	 -117.133 	 35.523 	 -113.71 	 
C 	 -119.15 	 35.6332 	 -114.006 	 
H 	 -119.134 	 34.5921 	 -114.134 	 
H 	 -119.798 	 36.1805 	 -114.638 	 
H 	 -119.444 	 35.751 	 -113.02 	 
H 	 -115.958 	 33.7196 	 -121.387 	 
H 	 -112.995 	 37.9546 	 -114.965 	 
*
