! wB97X-D3 SP def2-SVP
%pal
nprocs 24
end

* xyz 0 1
S 	 -63.0924 	 8.27307 	 -85.7642 	 
C 	 -64.7336 	 7.75361 	 -85.9193 	 
C 	 -65.7006 	 8.57723 	 -85.2567 	 
C 	 -64.9109 	 9.53252 	 -84.4626 	 
C 	 -63.5533 	 9.42888 	 -84.5582 	 
H 	 -65.2965 	 10.416 	 -83.9197 	 
C 	 -67.2311 	 8.47669 	 -85.3387 	 
H 	 -67.6985 	 8.22254 	 -84.4009 	 
H 	 -67.3939 	 7.73066 	 -86.0942 	 
C 	 -67.9424 	 9.67779 	 -85.9737 	 
H 	 -67.7438 	 10.4793 	 -85.3141 	 
H 	 -67.6729 	 9.99435 	 -86.9717 	 
C 	 -69.3934 	 9.54566 	 -86.0756 	 
H 	 -69.9331 	 10.3994 	 -86.5136 	 
H 	 -69.6474 	 8.67791 	 -86.6937 	 
H 	 -69.8505 	 9.28963 	 -85.1194 	 
S 	 -61.7138 	 11.4166 	 -84.8336 	 
C 	 -60.7001 	 11.8895 	 -83.4657 	 
C 	 -61.0394 	 11.1405 	 -82.3598 	 
C 	 -62.0991 	 10.1682 	 -82.561 	 
C 	 -62.5907 	 10.1917 	 -83.8455 	 
H 	 -60.6431 	 11.3952 	 -81.4028 	 
C 	 -62.5788 	 9.19519 	 -81.4847 	 
H 	 -61.6924 	 8.76426 	 -81.0467 	 
H 	 -63.0745 	 8.27596 	 -81.9388 	 
C 	 -63.5856 	 9.83816 	 -80.5179 	 
H 	 -64.5399 	 10.0146 	 -80.9738 	 
H 	 -63.1307 	 10.7958 	 -80.1953 	 
C 	 -63.8641 	 8.89258 	 -79.2825 	 
H 	 -62.9957 	 8.51416 	 -78.8792 	 
H 	 -64.2656 	 7.93709 	 -79.7346 	 
H 	 -64.6127 	 9.32597 	 -78.5844 	 
H 	 -65.154 	 7.02995 	 -86.5755 	 
H 	 -60.0886 	 12.8526 	 -83.4944 	 
*
