! wB97X-D3 SP def2-SVP
%pal
nprocs 24
end

* xyz 0 1
S 	 -98.8035 	 1.72444 	 -106.854 	 
C 	 -98.9573 	 3.32785 	 -107.433 	 
C 	 -97.8099 	 4.08897 	 -107.201 	 
C 	 -96.7713 	 3.35828 	 -106.499 	 
C 	 -97.1763 	 2.05184 	 -106.233 	 
H 	 -95.6866 	 3.67499 	 -106.393 	 
C 	 -97.5375 	 5.58737 	 -107.604 	 
H 	 -97.1635 	 6.03154 	 -106.785 	 
H 	 -98.5516 	 5.99164 	 -107.773 	 
C 	 -96.6184 	 5.76901 	 -108.822 	 
H 	 -95.5797 	 5.59037 	 -108.533 	 
H 	 -96.8868 	 5.09009 	 -109.63 	 
C 	 -96.6376 	 7.27231 	 -109.286 	 
H 	 -97.5251 	 7.41403 	 -109.704 	 
H 	 -96.5198 	 8.00853 	 -108.498 	 
H 	 -95.7537 	 7.4293 	 -109.969 	 
S 	 -95.5675 	 -0.100843 	 -106.888 	 
C 	 -94.6464 	 -0.774284 	 -105.571 	 
C 	 -94.9483 	 -0.265852 	 -104.364 	 
C 	 -95.7393 	 0.884483 	 -104.47 	 
C 	 -96.2593 	 1.02427 	 -105.738 	 
H 	 -94.5246 	 -0.699125 	 -103.429 	 
C 	 -95.9938 	 1.8789 	 -103.35 	 
H 	 -95.8821 	 1.35315 	 -102.381 	 
H 	 -96.9613 	 2.24804 	 -103.503 	 
C 	 -94.974 	 3.05282 	 -103.209 	 
H 	 -94.8917 	 3.68402 	 -104.105 	 
H 	 -94.0313 	 2.58271 	 -103.218 	 
C 	 -95.2233 	 3.97068 	 -102.005 	 
H 	 -96.2917 	 4.30112 	 -101.883 	 
H 	 -94.6936 	 4.85029 	 -102.129 	 
H 	 -94.7891 	 3.61773 	 -101.097 	 
H 	 -99.8459 	 3.58484 	 -107.987 	 
H 	 -94.0008 	 -1.74454 	 -105.602 	 
*
