! wB97X-D3 SP def2-SVP
%pal
nprocs 24
end

* xyz 0 1
S 	 -39.5631 	 19.304 	 13.6102 	 
C 	 -41.1931 	 18.8769 	 14.0193 	 
C 	 -41.6079 	 19.3556 	 15.2509 	 
C 	 -40.606 	 20.1713 	 15.8315 	 
C 	 -39.5173 	 20.4443 	 14.976 	 
H 	 -40.5174 	 20.5997 	 16.8133 	 
C 	 -42.9294 	 19.0839 	 15.965 	 
H 	 -43.7679 	 19.0938 	 15.3008 	 
H 	 -43.0611 	 20.0118 	 16.5854 	 
C 	 -42.9257 	 17.7509 	 16.7597 	 
H 	 -42.5665 	 16.9543 	 16.0604 	 
H 	 -42.2544 	 17.768 	 17.5374 	 
C 	 -44.2606 	 17.4487 	 17.4019 	 
H 	 -44.2875 	 16.4588 	 17.8383 	 
H 	 -44.4483 	 18.1368 	 18.277 	 
H 	 -45.1254 	 17.4539 	 16.7224 	 
S 	 -36.8996 	 20.2384 	 15.4443 	 
C 	 -35.828 	 21.5903 	 15.8473 	 
C 	 -36.6549 	 22.7384 	 15.7413 	 
C 	 -38.0579 	 22.5197 	 15.5174 	 
C 	 -38.3226 	 21.1883 	 15.2773 	 
H 	 -36.224 	 23.693 	 15.8859 	 
C 	 -39.1156 	 23.623 	 15.5964 	 
H 	 -38.8981 	 24.3115 	 16.4488 	 
H 	 -40.127 	 23.2216 	 15.8181 	 
C 	 -39.2537 	 24.5622 	 14.3358 	 
H 	 -38.2341 	 25.023 	 14.1941 	 
H 	 -39.9704 	 25.3335 	 14.6167 	 
C 	 -39.674 	 23.8097 	 13.0434 	 
H 	 -40.5877 	 23.3109 	 13.0697 	 
H 	 -38.8845 	 23.1031 	 12.8441 	 
H 	 -39.6326 	 24.5659 	 12.3097 	 
H 	 -41.6987 	 18.1157 	 13.5055 	 
H 	 -34.7237 	 21.5689 	 15.9456 	 
*
