! wB97X-D3 SP def2-SVP
%pal
nprocs 24
end

* xyz 0 1
S 	 -115.038 	 37.5339 	 -116.611 	 
C 	 -113.643 	 37.0786 	 -117.573 	 
C 	 -112.533 	 36.7875 	 -116.794 	 
C 	 -112.782 	 36.9859 	 -115.385 	 
C 	 -114.069 	 37.3165 	 -115.117 	 
H 	 -112.054 	 36.8822 	 -114.563 	 
C 	 -111.193 	 36.4445 	 -117.405 	 
H 	 -111.232 	 35.4626 	 -117.868 	 
H 	 -110.303 	 36.4388 	 -116.724 	 
C 	 -110.644 	 37.4816 	 -118.457 	 
H 	 -111.19 	 37.7082 	 -119.364 	 
H 	 -110.592 	 38.4797 	 -117.984 	 
C 	 -109.203 	 37.2313 	 -118.844 	 
H 	 -108.569 	 37.027 	 -117.956 	 
H 	 -109.016 	 36.4479 	 -119.643 	 
H 	 -108.867 	 38.1596 	 -119.238 	 
S 	 -115.531 	 38.9624 	 -113.566 	 
C 	 -115.68 	 38.6935 	 -111.87 	 
C 	 -115.128 	 37.5477 	 -111.516 	 
C 	 -114.51 	 36.8328 	 -112.6 	 
C 	 -114.673 	 37.4819 	 -113.802 	 
H 	 -115.229 	 37.3227 	 -110.422 	 
C 	 -113.648 	 35.6925 	 -112.271 	 
H 	 -113.133 	 35.8747 	 -111.32 	 
H 	 -112.83 	 35.7318 	 -112.988 	 
C 	 -114.254 	 34.3212 	 -112.227 	 
H 	 -114.71 	 34.0179 	 -113.222 	 
H 	 -115.026 	 34.4335 	 -111.427 	 
C 	 -113.3 	 33.2796 	 -111.688 	 
H 	 -113.771 	 32.2401 	 -111.607 	 
H 	 -113.03 	 33.5212 	 -110.648 	 
H 	 -112.358 	 33.255 	 -112.282 	 
H 	 -113.467 	 37.1552 	 -118.644 	 
H 	 -116.198 	 39.3626 	 -111.21 	 
*
