! wB97X-D3 SP def2-SVP
%pal
nprocs 24
end

* xyz 0 1
S 	 -111.638 	 61.4717 	 -67.6 	 
C 	 -111.87 	 60.1994 	 -66.5384 	 
C 	 -112.457 	 60.5261 	 -65.3351 	 
C 	 -112.689 	 61.9748 	 -65.3605 	 
C 	 -112.343 	 62.589 	 -66.549 	 
H 	 -112.901 	 62.5847 	 -64.4445 	 
C 	 -112.729 	 59.6453 	 -64.1497 	 
H 	 -112.233 	 59.9952 	 -63.2585 	 
H 	 -112.278 	 58.6895 	 -64.4078 	 
C 	 -114.14 	 59.567 	 -63.6725 	 
H 	 -114.385 	 60.5788 	 -63.4099 	 
H 	 -114.793 	 59.2821 	 -64.5937 	 
C 	 -114.373 	 58.537 	 -62.5507 	 
H 	 -113.951 	 57.5982 	 -62.7133 	 
H 	 -114.074 	 59.0071 	 -61.5704 	 
H 	 -115.401 	 58.3359 	 -62.3319 	 
S 	 -110.869 	 64.7532 	 -67.2212 	 
C 	 -111.54 	 66.3448 	 -67.3162 	 
C 	 -112.921 	 66.1949 	 -67.344 	 
C 	 -113.475 	 64.8499 	 -67.0878 	 
C 	 -112.386 	 63.9947 	 -66.9451 	 
H 	 -113.517 	 67.0734 	 -67.4953 	 
C 	 -114.936 	 64.6152 	 -66.8612 	 
H 	 -115.258 	 64.8917 	 -65.8923 	 
H 	 -115.078 	 63.5617 	 -66.9512 	 
C 	 -115.857 	 65.2782 	 -67.9218 	 
H 	 -115.827 	 66.369 	 -67.7653 	 
H 	 -116.866 	 64.9439 	 -67.6214 	 
C 	 -115.441 	 64.9102 	 -69.3703 	 
H 	 -115.266 	 63.8397 	 -69.4378 	 
H 	 -114.628 	 65.526 	 -69.5963 	 
H 	 -116.171 	 65.2403 	 -70.0963 	 
H 	 -111.47 	 59.2433 	 -66.8229 	 
H 	 -111.035 	 67.2628 	 -67.4357 	 
*
