! wB97X-D3 SP def2-SVP
%pal
nprocs 24
end

* xyz 0 1
S 	 -53.8977 	 23.8345 	 -93.4958 	 
C 	 -52.4753 	 24.8165 	 -93.618 	 
C 	 -51.5077 	 24.1247 	 -94.3529 	 
C 	 -51.8333 	 22.7328 	 -94.5558 	 
C 	 -52.9956 	 22.341 	 -93.9248 	 
H 	 -51.3011 	 21.9338 	 -95.1157 	 
C 	 -50.1572 	 24.7878 	 -94.6274 	 
H 	 -50.1262 	 25.6853 	 -93.9956 	 
H 	 -50.1465 	 25.0017 	 -95.6726 	 
C 	 -48.9051 	 24.0961 	 -94.1368 	 
H 	 -48.6677 	 23.2125 	 -94.6376 	 
H 	 -48.1238 	 24.8406 	 -94.3492 	 
C 	 -48.9349 	 23.7982 	 -92.6045 	 
H 	 -48.0129 	 23.2637 	 -92.248 	 
H 	 -49.0086 	 24.6573 	 -91.9191 	 
H 	 -49.8467 	 23.2076 	 -92.4127 	 
S 	 -55.0812 	 20.7317 	 -94.9965 	 
C 	 -54.9518 	 18.9952 	 -94.663 	 
C 	 -53.8826 	 18.6828 	 -93.8186 	 
C 	 -53.0419 	 19.7676 	 -93.5786 	 
C 	 -53.5766 	 20.9983 	 -94.0039 	 
H 	 -53.7256 	 17.6974 	 -93.5337 	 
C 	 -51.8208 	 19.5582 	 -92.7488 	 
H 	 -52.0146 	 19.1722 	 -91.7283 	 
H 	 -51.4219 	 20.636 	 -92.5465 	 
C 	 -50.6761 	 18.6989 	 -93.4046 	 
H 	 -51.207 	 17.866 	 -93.8443 	 
H 	 -49.9838 	 18.35 	 -92.6343 	 
C 	 -49.7626 	 19.2228 	 -94.5061 	 
H 	 -50.1711 	 20.0348 	 -95.1336 	 
H 	 -49.3555 	 18.4071 	 -95.0971 	 
H 	 -48.8834 	 19.7061 	 -94.0235 	 
H 	 -52.1914 	 25.7271 	 -93.1038 	 
H 	 -55.7722 	 18.295 	 -94.8454 	 
*
