! wB97X-D3 SP def2-SVP
%pal
nprocs 24
end

* xyz 0 1
S 	 21.206 	 0.283687 	 -114.207 	 
C 	 19.4268 	 -0.028862 	 -114.156 	 
C 	 18.8766 	 0.476203 	 -112.995 	 
C 	 19.8747 	 0.987561 	 -112.137 	 
C 	 21.1812 	 0.907162 	 -112.566 	 
H 	 19.6638 	 1.50345 	 -111.159 	 
C 	 17.3809 	 0.545723 	 -112.585 	 
H 	 16.7785 	 1.20257 	 -113.3 	 
H 	 17.3171 	 1.0793 	 -111.636 	 
C 	 16.5913 	 -0.788996 	 -112.378 	 
H 	 15.65 	 -0.579269 	 -111.861 	 
H 	 16.3926 	 -1.13279 	 -113.362 	 
C 	 17.2955 	 -1.75657 	 -111.479 	 
H 	 17.1931 	 -1.52962 	 -110.413 	 
H 	 16.8879 	 -2.75288 	 -111.572 	 
H 	 18.393 	 -1.90382 	 -111.623 	 
S 	 23.5621 	 2.37906 	 -112.621 	 
C 	 24.6963 	 2.1229 	 -111.405 	 
C 	 24.204 	 1.51136 	 -110.274 	 
C 	 22.8758 	 0.975128 	 -110.583 	 
C 	 22.361 	 1.31722 	 -111.818 	 
H 	 24.8441 	 1.45272 	 -109.355 	 
C 	 22.1341 	 0.125524 	 -109.585 	 
H 	 21.2222 	 -0.333976 	 -110.029 	 
H 	 21.5881 	 0.813314 	 -108.993 	 
C 	 23.013 	 -0.759927 	 -108.601 	 
H 	 22.2467 	 -1.34087 	 -108.114 	 
H 	 23.63 	 -0.250552 	 -107.865 	 
C 	 23.8923 	 -1.8414 	 -109.239 	 
H 	 23.3176 	 -2.67334 	 -109.68 	 
H 	 24.4434 	 -2.2444 	 -108.404 	 
H 	 24.6203 	 -1.42101 	 -109.911 	 
H 	 18.8833 	 -0.56357 	 -114.874 	 
H 	 25.6475 	 2.67179 	 -111.359 	 
*
