! wB97X-D3 SP def2-SVP
%pal
nprocs 24
end

* xyz 0 1
S 	 -128.718 	 61.3479 	 -56.8224 	 
C 	 -129.643 	 59.9755 	 -57.2864 	 
C 	 -130.534 	 59.5692 	 -56.3325 	 
C 	 -130.462 	 60.4333 	 -55.1845 	 
C 	 -129.661 	 61.54 	 -55.3651 	 
H 	 -131.122 	 60.5491 	 -54.3362 	 
C 	 -131.48 	 58.351 	 -56.3504 	 
H 	 -132.229 	 58.4829 	 -55.5397 	 
H 	 -130.863 	 57.4932 	 -56.015 	 
C 	 -132.042 	 57.919 	 -57.7716 	 
H 	 -132.106 	 58.8044 	 -58.3651 	 
H 	 -131.281 	 57.3209 	 -58.3107 	 
C 	 -133.429 	 57.2547 	 -57.6779 	 
H 	 -134.14 	 57.8442 	 -56.9824 	 
H 	 -133.883 	 57.1649 	 -58.6699 	 
H 	 -133.26 	 56.2221 	 -57.2943 	 
S 	 -129.686 	 64.3598 	 -55.5002 	 
C 	 -130.595 	 65.1029 	 -54.212 	 
C 	 -130.52 	 64.3009 	 -53.0786 	 
C 	 -129.926 	 63.0344 	 -53.281 	 
C 	 -129.722 	 62.7937 	 -54.6537 	 
H 	 -130.848 	 64.705 	 -52.1275 	 
C 	 -129.985 	 62.0573 	 -52.1073 	 
H 	 -129.256 	 62.4457 	 -51.3456 	 
H 	 -129.52 	 61.1138 	 -52.3583 	 
C 	 -131.348 	 61.8554 	 -51.4398 	 
H 	 -131.822 	 61.0564 	 -52.0711 	 
H 	 -131.934 	 62.7889 	 -51.3902 	 
C 	 -131.307 	 61.3807 	 -50.0224 	 
H 	 -132.381 	 61.3426 	 -49.7072 	 
H 	 -130.758 	 62.0834 	 -49.376 	 
H 	 -130.989 	 60.3409 	 -49.7921 	 
H 	 -129.569 	 59.4532 	 -58.2029 	 
H 	 -130.832 	 66.1145 	 -54.1154 	 
*
