! wB97X-D3 SP def2-SVP
%pal
nprocs 24
end

* xyz 0 1
S 	 -91.458 	 6.44682 	 0.193501 	 
C 	 -89.9625 	 5.75891 	 -0.171223 	 
C 	 -89.6981 	 4.8344 	 0.84735 	 
C 	 -90.8558 	 4.60652 	 1.70248 	 
C 	 -91.9372 	 5.40484 	 1.41477 	 
H 	 -90.8949 	 3.83386 	 2.50697 	 
C 	 -88.3634 	 4.03988 	 0.956635 	 
H 	 -88.3131 	 3.38739 	 1.86557 	 
H 	 -87.5528 	 4.75512 	 1.10836 	 
C 	 -88.011 	 3.08987 	 -0.188204 	 
H 	 -88.8694 	 2.37698 	 -0.181639 	 
H 	 -88.0423 	 3.68783 	 -1.08302 	 
C 	 -86.7828 	 2.21122 	 -0.0690123 	 
H 	 -86.0181 	 2.79725 	 -0.57435 	 
H 	 -86.551 	 1.98633 	 0.991243 	 
H 	 -86.8683 	 1.2156 	 -0.537657 	 
S 	 -94.7138 	 5.21056 	 1.48367 	 
C 	 -95.5456 	 5.70505 	 2.95795 	 
C 	 -94.6111 	 6.10919 	 3.88596 	 
C 	 -93.2229 	 5.95833 	 3.49047 	 
C 	 -93.1257 	 5.5579 	 2.19721 	 
H 	 -94.9218 	 6.48306 	 4.82216 	 
C 	 -92.0043 	 6.30733 	 4.38705 	 
H 	 -91.4562 	 5.34789 	 4.646 	 
H 	 -92.376 	 6.62672 	 5.33845 	 
C 	 -91.0938 	 7.50147 	 3.89539 	 
H 	 -90.3205 	 7.16863 	 3.18287 	 
H 	 -90.5629 	 7.81272 	 4.81823 	 
C 	 -91.9519 	 8.64942 	 3.34523 	 
H 	 -92.5038 	 8.27701 	 2.44447 	 
H 	 -91.4131 	 9.57965 	 3.17626 	 
H 	 -92.6468 	 8.82497 	 4.2288 	 
H 	 -89.2435 	 5.99043 	 -1.00749 	 
H 	 -96.5349 	 5.67865 	 3.19925 	 
*
