! wB97X-D3 SP def2-SVP
%pal
nprocs 24
end

* xyz 0 1
S 	 -124.562 	 58.1601 	 -35.9962 	 
C 	 -123.255 	 57.0169 	 -36.0526 	 
C 	 -122.065 	 57.6458 	 -36.0786 	 
C 	 -122.131 	 59.0609 	 -36.0364 	 
C 	 -123.396 	 59.564 	 -35.8322 	 
H 	 -121.259 	 59.7225 	 -36.0029 	 
C 	 -120.784 	 56.8908 	 -36.2251 	 
H 	 -119.964 	 57.4404 	 -36.7522 	 
H 	 -121.035 	 56.1254 	 -36.8748 	 
C 	 -120.135 	 56.3191 	 -34.9541 	 
H 	 -120.797 	 55.5789 	 -34.4729 	 
H 	 -119.147 	 55.8921 	 -35.2628 	 
C 	 -119.843 	 57.2785 	 -33.7814 	 
H 	 -119.345 	 56.774 	 -32.978 	 
H 	 -119.187 	 58.152 	 -33.9703 	 
H 	 -120.779 	 57.6382 	 -33.4209 	 
S 	 -124.646 	 61.6223 	 -37.1618 	 
C 	 -125.201 	 63.0115 	 -36.1896 	 
C 	 -124.764 	 62.9289 	 -34.8924 	 
C 	 -123.863 	 61.8786 	 -34.6573 	 
C 	 -123.788 	 60.9895 	 -35.7227 	 
H 	 -125.009 	 63.7229 	 -34.2267 	 
C 	 -123.198 	 61.7463 	 -33.3028 	 
H 	 -123.362 	 60.716 	 -33.0574 	 
H 	 -123.573 	 62.4356 	 -32.6106 	 
C 	 -121.733 	 61.8924 	 -33.4488 	 
H 	 -121.356 	 62.8429 	 -33.8289 	 
H 	 -121.384 	 61.011 	 -34.0427 	 
C 	 -121.124 	 61.5935 	 -32.1272 	 
H 	 -120.056 	 61.5275 	 -32.1132 	 
H 	 -121.469 	 60.572 	 -31.7984 	 
H 	 -121.257 	 62.4667 	 -31.452 	 
H 	 -123.419 	 55.9596 	 -36.2545 	 
H 	 -125.76 	 63.8531 	 -36.6642 	 
*
