! wB97X-D3 SP def2-SVP
%pal
nprocs 24
end

* xyz 0 1
S 	 -105.628 	 0.254789 	 -104.567 	 
C 	 -105.473 	 1.40038 	 -105.812 	 
C 	 -104.245 	 2.04329 	 -105.642 	 
C 	 -103.466 	 1.53034 	 -104.596 	 
C 	 -104.019 	 0.459946 	 -103.925 	 
H 	 -102.442 	 1.91467 	 -104.324 	 
C 	 -103.668 	 3.15696 	 -106.481 	 
H 	 -103.075 	 3.85692 	 -105.86 	 
H 	 -104.442 	 3.81071 	 -106.929 	 
C 	 -102.718 	 2.65574 	 -107.502 	 
H 	 -101.923 	 2.09011 	 -106.98 	 
H 	 -103.108 	 2.01736 	 -108.259 	 
C 	 -101.955 	 3.80124 	 -108.207 	 
H 	 -101.592 	 4.5313 	 -107.474 	 
H 	 -101.105 	 3.27137 	 -108.674 	 
H 	 -102.478 	 4.37513 	 -108.95 	 
S 	 -104.648 	 -0.503376 	 -101.446 	 
C 	 -103.345 	 -1.10337 	 -100.459 	 
C 	 -102.174 	 -1.27354 	 -101.141 	 
C 	 -102.291 	 -0.81457 	 -102.525 	 
C 	 -103.482 	 -0.311951 	 -102.803 	 
H 	 -101.35 	 -1.57891 	 -100.621 	 
C 	 -101.027 	 -0.684589 	 -103.421 	 
H 	 -101.353 	 -0.437528 	 -104.475 	 
H 	 -100.569 	 -1.69142 	 -103.319 	 
C 	 -99.973 	 0.348938 	 -103.004 	 
H 	 -99.4873 	 0.148779 	 -102.011 	 
H 	 -100.459 	 1.31236 	 -102.919 	 
C 	 -98.7713 	 0.515045 	 -103.968 	 
H 	 -97.8853 	 0.980936 	 -103.475 	 
H 	 -98.961 	 1.17007 	 -104.83 	 
H 	 -98.4478 	 -0.433467 	 -104.444 	 
H 	 -106.144 	 1.58262 	 -106.618 	 
H 	 -103.357 	 -1.33252 	 -99.3478 	 
*
