! wB97X-D3 SP def2-SVP
%pal
nprocs 24
end

* xyz 0 1
S 	 -129.847 	 27.707 	 -16.1816 	 
C 	 -128.129 	 27.9997 	 -16.1671 	 
C 	 -127.607 	 28.6695 	 -17.245 	 
C 	 -128.681 	 28.9163 	 -18.1871 	 
C 	 -129.903 	 28.3988 	 -17.7962 	 
H 	 -128.523 	 29.3178 	 -19.2277 	 
C 	 -126.232 	 29.1933 	 -17.3974 	 
H 	 -125.872 	 29.0399 	 -18.4143 	 
H 	 -125.675 	 28.6507 	 -16.6759 	 
C 	 -126.037 	 30.6997 	 -17.104 	 
H 	 -124.994 	 31.0666 	 -17.145 	 
H 	 -126.542 	 31.2968 	 -17.8642 	 
C 	 -126.491 	 30.9645 	 -15.6773 	 
H 	 -126.348 	 32.0768 	 -15.4953 	 
H 	 -127.566 	 30.7578 	 -15.5179 	 
H 	 -125.978 	 30.2958 	 -14.9538 	 
S 	 -131.739 	 26.6482 	 -18.7556 	 
C 	 -132.92 	 27.1581 	 -19.8434 	 
C 	 -132.906 	 28.5488 	 -19.8969 	 
C 	 -131.892 	 29.1748 	 -19.1667 	 
C 	 -131.043 	 28.2214 	 -18.6305 	 
H 	 -133.789 	 29.0307 	 -20.4068 	 
C 	 -131.853 	 30.7024 	 -18.9617 	 
H 	 -131.685 	 30.956 	 -17.8815 	 
H 	 -132.892 	 31.0382 	 -19.1067 	 
C 	 -130.931 	 31.4294 	 -19.9673 	 
H 	 -131.188 	 31.1666 	 -21.0092 	 
H 	 -129.912 	 31.0476 	 -19.7695 	 
C 	 -130.96 	 32.9427 	 -19.777 	 
H 	 -130.803 	 33.1307 	 -18.7246 	 
H 	 -131.774 	 33.5394 	 -20.2367 	 
H 	 -130.021 	 33.383 	 -20.2875 	 
H 	 -127.498 	 27.6905 	 -15.3741 	 
H 	 -133.592 	 26.4972 	 -20.3189 	 
*
