! wB97X-D3 SP def2-SVP
%pal
nprocs 24
end

* xyz 0 1
S 	 -120.39 	 53.8094 	 -38.488 	 
C 	 -119.379 	 52.4937 	 -38.9911 	 
C 	 -118.091 	 52.9633 	 -39.1771 	 
C 	 -117.91 	 54.333 	 -38.9444 	 
C 	 -119.122 	 54.9993 	 -38.7145 	 
H 	 -117.045 	 54.954 	 -38.9638 	 
C 	 -117.029 	 52.0696 	 -39.6229 	 
H 	 -116.956 	 52.2094 	 -40.7028 	 
H 	 -117.391 	 51.0186 	 -39.5484 	 
C 	 -115.708 	 52.2298 	 -38.9922 	 
H 	 -114.966 	 51.6195 	 -39.5314 	 
H 	 -115.414 	 53.2908 	 -39.2115 	 
C 	 -115.761 	 51.6696 	 -37.5685 	 
H 	 -114.846 	 51.7077 	 -36.9879 	 
H 	 -116.436 	 52.2505 	 -36.9807 	 
H 	 -116.079 	 50.595 	 -37.5411 	 
S 	 -121.018 	 56.9164 	 -38.231 	 
C 	 -120.663 	 58.57 	 -38.6349 	 
C 	 -119.316 	 58.7608 	 -38.6321 	 
C 	 -118.528 	 57.5624 	 -38.6765 	 
C 	 -119.362 	 56.4241 	 -38.6227 	 
H 	 -118.885 	 59.8189 	 -38.7297 	 
C 	 -117.017 	 57.6325 	 -38.7748 	 
H 	 -116.719 	 58.7061 	 -38.9286 	 
H 	 -116.764 	 57.1299 	 -39.6813 	 
C 	 -116.195 	 57.1338 	 -37.6405 	 
H 	 -116.615 	 56.2113 	 -37.2097 	 
H 	 -116.197 	 57.8217 	 -36.8138 	 
C 	 -114.718 	 56.9583 	 -38.1493 	 
H 	 -114.168 	 56.8251 	 -37.2142 	 
H 	 -114.282 	 57.817 	 -38.7617 	 
H 	 -114.719 	 56.0115 	 -38.7643 	 
H 	 -119.594 	 51.4638 	 -39.207 	 
H 	 -121.371 	 59.3823 	 -38.5497 	 
*
