! wB97X-D3 SP def2-SVP
%pal
nprocs 24
end

* xyz 0 1
S 	 -44.5744 	 16.3996 	 24.8198 	 
C 	 -45.8357 	 17.5993 	 24.7331 	 
C 	 -46.3484 	 17.9254 	 25.9818 	 
C 	 -45.6334 	 17.254 	 27.0365 	 
C 	 -44.6361 	 16.4074 	 26.6176 	 
H 	 -45.7276 	 17.5008 	 28.0618 	 
C 	 -47.4288 	 18.8733 	 26.293 	 
H 	 -47.2584 	 19.8585 	 25.8949 	 
H 	 -47.485 	 19.0593 	 27.3253 	 
C 	 -48.8055 	 18.4074 	 26.0026 	 
H 	 -48.9351 	 17.4162 	 26.3725 	 
H 	 -49.4145 	 19.0902 	 26.666 	 
C 	 -49.3633 	 18.6095 	 24.5856 	 
H 	 -48.7861 	 18.022 	 23.8993 	 
H 	 -50.307 	 18.1431 	 24.4114 	 
H 	 -49.4368 	 19.6429 	 24.2814 	 
S 	 -43.3908 	 13.91 	 27.0958 	 
C 	 -42.1592 	 13.8053 	 28.2955 	 
C 	 -42.1815 	 14.9108 	 29.1318 	 
C 	 -42.9405 	 15.9535 	 28.603 	 
C 	 -43.6878 	 15.6099 	 27.4555 	 
H 	 -41.4684 	 14.9301 	 29.9647 	 
C 	 -42.9555 	 17.252 	 29.2937 	 
H 	 -43.4088 	 18.0577 	 28.7882 	 
H 	 -41.8862 	 17.4813 	 29.2974 	 
C 	 -43.5077 	 17.1615 	 30.7792 	 
H 	 -43.0434 	 16.413 	 31.4556 	 
H 	 -44.5873 	 16.8848 	 30.754 	 
C 	 -43.5171 	 18.5764 	 31.4323 	 
H 	 -44.1654 	 18.4409 	 32.2706 	 
H 	 -43.9793 	 19.3192 	 30.8005 	 
H 	 -42.5564 	 18.9703 	 31.8724 	 
H 	 -46.2861 	 17.8933 	 23.8225 	 
H 	 -41.5827 	 13.0071 	 28.4551 	 
*
