! wB97X-D3 SP def2-SVP
%pal
nprocs 24
end

* xyz 0 1
S 	 -104.462 	 7.69814 	 -123.528 	 
C 	 -106.09 	 7.18025 	 -123.272 	 
C 	 -106.432 	 7.0992 	 -121.913 	 
C 	 -105.425 	 7.65412 	 -121.102 	 
C 	 -104.296 	 7.99132 	 -121.795 	 
H 	 -105.574 	 7.9084 	 -120.059 	 
C 	 -107.812 	 6.60203 	 -121.424 	 
H 	 -108.549 	 7.27967 	 -121.856 	 
H 	 -107.768 	 6.90808 	 -120.326 	 
C 	 -108.212 	 5.12044 	 -121.452 	 
H 	 -108.369 	 4.77138 	 -122.422 	 
H 	 -107.5 	 4.41832 	 -120.996 	 
C 	 -109.595 	 4.88808 	 -120.687 	 
H 	 -109.812 	 3.86618 	 -120.75 	 
H 	 -109.69 	 5.27382 	 -119.633 	 
H 	 -110.398 	 5.59115 	 -121.095 	 
S 	 -102.166 	 9.76632 	 -122.235 	 
C 	 -101.148 	 10.2208 	 -120.877 	 
C 	 -101.443 	 9.42226 	 -119.764 	 
C 	 -102.518 	 8.46918 	 -119.997 	 
C 	 -103.068 	 8.56111 	 -121.258 	 
H 	 -100.906 	 9.66753 	 -118.862 	 
C 	 -103.015 	 7.62957 	 -118.871 	 
H 	 -102.241 	 7.01619 	 -118.403 	 
H 	 -103.548 	 6.75379 	 -119.199 	 
C 	 -103.826 	 8.38392 	 -117.751 	 
H 	 -104.674 	 8.94285 	 -118.32 	 
H 	 -103.147 	 9.14508 	 -117.367 	 
C 	 -104.214 	 7.50262 	 -116.552 	 
H 	 -103.389 	 7.03596 	 -116.094 	 
H 	 -104.868 	 6.64584 	 -116.896 	 
H 	 -104.828 	 8.15095 	 -115.914 	 
H 	 -106.886 	 6.97139 	 -124.021 	 
H 	 -100.438 	 11.0603 	 -120.843 	 
*
