! wB97X-D3 SP def2-SVP
%pal
nprocs 24
end

* xyz 0 1
S 	 -55.7792 	 10.8227 	 20.7189 	 
C 	 -56.6365 	 11.4651 	 19.3264 	 
C 	 -57.881 	 10.8907 	 19.2538 	 
C 	 -58.0774 	 9.8917 	 20.2483 	 
C 	 -57.027 	 9.7611 	 21.1997 	 
H 	 -58.9735 	 9.32627 	 20.3527 	 
C 	 -58.9766 	 11.3169 	 18.3417 	 
H 	 -58.7287 	 12.3825 	 17.9831 	 
H 	 -59.916 	 11.5309 	 18.9231 	 
C 	 -59.3417 	 10.4035 	 17.1363 	 
H 	 -58.5201 	 10.1259 	 16.4026 	 
H 	 -59.7636 	 9.54309 	 17.5522 	 
C 	 -60.4001 	 11.0743 	 16.2721 	 
H 	 -60.763 	 10.3567 	 15.6274 	 
H 	 -61.3076 	 11.4032 	 16.7963 	 
H 	 -59.9954 	 11.8651 	 15.6977 	 
S 	 -57.1199 	 9.8728 	 23.8337 	 
C 	 -57.2402 	 8.45293 	 24.8201 	 
C 	 -57.1824 	 7.2774 	 24.055 	 
C 	 -56.935 	 7.50892 	 22.633 	 
C 	 -56.9864 	 8.89462 	 22.3739 	 
H 	 -57.2011 	 6.33655 	 24.6071 	 
C 	 -56.8494 	 6.4687 	 21.5301 	 
H 	 -56.2474 	 5.57394 	 21.9004 	 
H 	 -56.3942 	 6.9427 	 20.6883 	 
C 	 -58.2963 	 5.95417 	 21.1662 	 
H 	 -58.7547 	 6.56921 	 20.3727 	 
H 	 -58.9055 	 6.07208 	 22.0478 	 
C 	 -58.3256 	 4.46108 	 20.5883 	 
H 	 -57.5451 	 4.37064 	 19.8849 	 
H 	 -59.2498 	 4.28138 	 20.126 	 
H 	 -58.0615 	 3.78297 	 21.5014 	 
H 	 -56.3567 	 12.4073 	 18.8465 	 
H 	 -57.6216 	 8.45552 	 25.8747 	 
*
