! wB97X-D3 SP def2-SVP
%pal
nprocs 24
end

* xyz 0 1
S 	 -31.635 	 -6.51866 	 13.8325 	 
C 	 -31.7147 	 -6.52553 	 15.5927 	 
C 	 -32.2777 	 -7.66104 	 16.074 	 
C 	 -32.7214 	 -8.53267 	 15.0524 	 
C 	 -32.4895 	 -8.03268 	 13.7996 	 
H 	 -33.1733 	 -9.42711 	 15.2469 	 
C 	 -32.5705 	 -7.91674 	 17.5724 	 
H 	 -31.6506 	 -8.15036 	 18.1798 	 
H 	 -33.1631 	 -8.89096 	 17.6201 	 
C 	 -33.4347 	 -6.82855 	 18.2145 	 
H 	 -33.7421 	 -7.11345 	 19.2186 	 
H 	 -32.9043 	 -5.86779 	 18.4648 	 
C 	 -34.7761 	 -6.61995 	 17.509 	 
H 	 -34.8032 	 -6.42488 	 16.4686 	 
H 	 -35.462 	 -7.4772 	 17.7098 	 
H 	 -35.3051 	 -5.81359 	 17.9231 	 
S 	 -31.9686 	 -9.73938 	 11.7751 	 
C 	 -32.9514 	 -9.72151 	 10.3185 	 
C 	 -34.1585 	 -9.07516 	 10.5764 	 
C 	 -34.1287 	 -8.27132 	 11.8061 	 
C 	 -32.978 	 -8.56695 	 12.5366 	 
H 	 -35.0946 	 -9.12344 	 9.97846 	 
C 	 -35.2652 	 -7.3655 	 12.2814 	 
H 	 -35.1571 	 -7.1621 	 13.3634 	 
H 	 -36.1393 	 -7.91284 	 12.1421 	 
C 	 -35.3715 	 -6.06127 	 11.4876 	 
H 	 -35.1909 	 -6.07794 	 10.3949 	 
H 	 -34.6303 	 -5.31289 	 11.8076 	 
C 	 -36.7268 	 -5.34064 	 11.6392 	 
H 	 -37.0791 	 -5.01164 	 12.6378 	 
H 	 -37.5531 	 -5.94565 	 11.368 	 
H 	 -36.7261 	 -4.34201 	 11.1885 	 
H 	 -31.4197 	 -5.73014 	 16.25 	 
H 	 -32.7504 	 -10.3419 	 9.479 	 
*
