! wB97X-D3 SP def2-SVP
%pal
nprocs 24
end

* xyz 0 1
S 	 -82.0185 	 -19.8582 	 -46.3837 	 
C 	 -81.9424 	 -18.1669 	 -46.0546 	 
C 	 -80.9042 	 -17.5596 	 -46.7741 	 
C 	 -80.0217 	 -18.5515 	 -47.4038 	 
C 	 -80.5307 	 -19.8252 	 -47.2837 	 
H 	 -79.0875 	 -18.453 	 -47.9173 	 
C 	 -80.8169 	 -16.0302 	 -47.0564 	 
H 	 -81.4498 	 -15.3819 	 -46.4864 	 
H 	 -80.9135 	 -15.8582 	 -48.1263 	 
C 	 -79.3868 	 -15.5828 	 -46.6554 	 
H 	 -78.7344 	 -16.1147 	 -47.3155 	 
H 	 -79.1993 	 -14.4859 	 -46.7647 	 
C 	 -79.0592 	 -15.7643 	 -45.1523 	 
H 	 -79.6481 	 -15.1346 	 -44.5274 	 
H 	 -79.1873 	 -16.7677 	 -44.7656 	 
H 	 -78.0022 	 -15.5714 	 -44.9641 	 
S 	 -78.6566 	 -21.863 	 -47.0428 	 
C 	 -78.3272 	 -22.7926 	 -48.4357 	 
C 	 -79.0491 	 -22.4201 	 -49.5604 	 
C 	 -79.9275 	 -21.3006 	 -49.3443 	 
C 	 -79.9045 	 -20.9516 	 -47.9646 	 
H 	 -78.9603 	 -22.9292 	 -50.5238 	 
C 	 -80.7341 	 -20.5718 	 -50.392 	 
H 	 -79.951 	 -20.2295 	 -51.1043 	 
H 	 -81.1261 	 -19.6885 	 -49.8858 	 
C 	 -81.8911 	 -21.38 	 -51.0167 	 
H 	 -82.6568 	 -20.6554 	 -51.4229 	 
H 	 -82.3303 	 -21.9403 	 -50.1181 	 
C 	 -81.4428 	 -22.4458 	 -52.0013 	 
H 	 -82.2468 	 -22.9264 	 -52.6105 	 
H 	 -80.8002 	 -23.1885 	 -51.5311 	 
H 	 -80.7746 	 -21.8805 	 -52.6051 	 
H 	 -82.7361 	 -17.6487 	 -45.55 	 
H 	 -77.7366 	 -23.7655 	 -48.426 	 
*
