! wB97X-D3 SP def2-SVP
%pal
nprocs 24
end

* xyz 0 1
S 	 -127.109 	 58.1455 	 -57.5502 	 
C 	 -126.373 	 58.2951 	 -59.0976 	 
C 	 -127.351 	 58.4438 	 -60.1006 	 
C 	 -128.637 	 58.4837 	 -59.5464 	 
C 	 -128.721 	 58.4378 	 -58.1813 	 
H 	 -129.548 	 58.6508 	 -60.0914 	 
C 	 -127.028 	 58.502 	 -61.5708 	 
H 	 -125.951 	 58.2499 	 -61.6553 	 
H 	 -127.119 	 59.6222 	 -61.8091 	 
C 	 -128.006 	 57.7865 	 -62.5131 	 
H 	 -128.111 	 56.7661 	 -62.1324 	 
H 	 -128.92 	 58.3065 	 -62.2419 	 
C 	 -127.585 	 57.8754 	 -63.9767 	 
H 	 -127.946 	 57.0896 	 -64.6385 	 
H 	 -127.958 	 58.7957 	 -64.4366 	 
H 	 -126.493 	 57.9239 	 -64.1308 	 
S 	 -130.827 	 56.8926 	 -57.5048 	 
C 	 -132.097 	 57.5009 	 -56.5075 	 
C 	 -131.995 	 58.8448 	 -56.305 	 
C 	 -130.711 	 59.3392 	 -56.7052 	 
C 	 -129.914 	 58.3875 	 -57.3884 	 
H 	 -132.693 	 59.3203 	 -55.61 	 
C 	 -130.431 	 60.7741 	 -56.3125 	 
H 	 -129.309 	 60.9357 	 -56.3589 	 
H 	 -130.661 	 60.8263 	 -55.2847 	 
C 	 -131.235 	 61.8834 	 -57.073 	 
H 	 -132.367 	 61.6873 	 -57.0108 	 
H 	 -131.001 	 61.9024 	 -58.1789 	 
C 	 -130.875 	 63.2522 	 -56.5549 	 
H 	 -131.649 	 63.9462 	 -56.7849 	 
H 	 -129.949 	 63.6948 	 -56.9544 	 
H 	 -130.705 	 63.3431 	 -55.4645 	 
H 	 -125.29 	 58.442 	 -59.1958 	 
H 	 -132.984 	 56.8934 	 -56.1688 	 
*
