! wB97X-D3 SP def2-SVP
%pal
nprocs 24
end

* xyz 0 1
S 	 -136.575 	 27.4953 	 -19.7873 	 
C 	 -137.338 	 25.9763 	 -20.0239 	 
C 	 -136.752 	 25.2086 	 -21.0267 	 
C 	 -135.581 	 25.8743 	 -21.5215 	 
C 	 -135.422 	 27.1495 	 -21.0857 	 
H 	 -134.88 	 25.5977 	 -22.315 	 
C 	 -137.135 	 23.7998 	 -21.4879 	 
H 	 -137.352 	 23.8091 	 -22.5557 	 
H 	 -138.079 	 23.593 	 -21.0462 	 
C 	 -136.098 	 22.6785 	 -21.2071 	 
H 	 -136.298 	 21.7646 	 -21.802 	 
H 	 -135.152 	 23.1122 	 -21.5253 	 
C 	 -135.99 	 22.2024 	 -19.7898 	 
H 	 -136.94 	 21.7425 	 -19.4914 	 
H 	 -135.134 	 21.5593 	 -19.6121 	 
H 	 -135.899 	 23.0907 	 -19.0801 	 
S 	 -134.878 	 29.6772 	 -22.269 	 
C 	 -133.302 	 30.0569 	 -22.8417 	 
C 	 -132.499 	 28.9805 	 -22.7143 	 
C 	 -133.094 	 27.9764 	 -21.9093 	 
C 	 -134.445 	 28.1366 	 -21.6018 	 
H 	 -131.57 	 28.9222 	 -23.2572 	 
C 	 -132.287 	 26.6852 	 -21.7452 	 
H 	 -132.152 	 26.0766 	 -22.7142 	 
H 	 -132.887 	 26.0915 	 -21.0761 	 
C 	 -130.829 	 26.7288 	 -21.1271 	 
H 	 -130.64 	 25.8674 	 -20.502 	 
H 	 -130.741 	 27.5058 	 -20.3743 	 
C 	 -129.743 	 26.7261 	 -22.1273 	 
H 	 -129.627 	 25.6978 	 -22.5591 	 
H 	 -128.779 	 27.0267 	 -21.7063 	 
H 	 -129.851 	 27.3916 	 -23.0124 	 
H 	 -138.166 	 25.6818 	 -19.4068 	 
H 	 -132.99 	 30.9376 	 -23.3588 	 
*
