! wB97X-D3 SP def2-SVP
%pal
nprocs 24
end

* xyz 0 1
S 	 -67.6426 	 7.40634 	 19.4105 	 
C 	 -66.4081 	 8.47579 	 19.9399 	 
C 	 -65.1527 	 7.89655 	 19.9101 	 
C 	 -65.227 	 6.50118 	 19.8441 	 
C 	 -66.4998 	 6.0862 	 19.5088 	 
H 	 -64.444 	 5.78261 	 19.8166 	 
C 	 -63.9144 	 8.56048 	 20.3497 	 
H 	 -63.5219 	 7.91614 	 21.1748 	 
H 	 -64.1408 	 9.5218 	 20.7522 	 
C 	 -62.8201 	 8.71985 	 19.2678 	 
H 	 -62.3478 	 7.8112 	 18.9176 	 
H 	 -63.3015 	 9.13911 	 18.3149 	 
C 	 -61.7343 	 9.62101 	 19.7882 	 
H 	 -60.9894 	 10.0152 	 19.1387 	 
H 	 -62.0056 	 10.5891 	 20.2111 	 
H 	 -61.0485 	 9.14682 	 20.4837 	 
S 	 -68.6381 	 4.25903 	 19.5335 	 
C 	 -68.3323 	 2.76523 	 18.7171 	 
C 	 -67.1869 	 2.66383 	 17.922 	 
C 	 -66.3459 	 3.80031 	 18.1524 	 
C 	 -66.926 	 4.72525 	 19.079 	 
H 	 -67.0141 	 1.86961 	 17.2766 	 
C 	 -65.0174 	 3.92376 	 17.4766 	 
H 	 -64.845 	 4.91949 	 17.0986 	 
H 	 -65.101 	 3.33158 	 16.5263 	 
C 	 -63.9101 	 3.4074 	 18.283 	 
H 	 -64.0982 	 2.32811 	 18.2762 	 
H 	 -63.9205 	 3.74272 	 19.2874 	 
C 	 -62.5507 	 3.75858 	 17.6218 	 
H 	 -62.4036 	 3.36319 	 16.6351 	 
H 	 -61.81 	 3.35238 	 18.2505 	 
H 	 -62.6092 	 4.82208 	 17.5224 	 
H 	 -66.5999 	 9.46927 	 20.299 	 
H 	 -68.9795 	 1.96964 	 18.602 	 
*
