! wB97X-D3 SP def2-SVP
%pal
nprocs 24
end

* xyz 0 1
S 	 -103.551 	 39.9702 	 -91.013 	 
C 	 -103.188 	 38.7832 	 -89.7677 	 
C 	 -102.364 	 37.8027 	 -90.2417 	 
C 	 -102.007 	 38.0144 	 -91.6076 	 
C 	 -102.446 	 39.1604 	 -92.129 	 
H 	 -101.309 	 37.4225 	 -92.1703 	 
C 	 -101.879 	 36.6579 	 -89.3789 	 
H 	 -102.508 	 35.7899 	 -89.3763 	 
H 	 -101.894 	 36.9231 	 -88.3264 	 
C 	 -100.423 	 36.2994 	 -89.6811 	 
H 	 -100.506 	 35.8213 	 -90.5951 	 
H 	 -99.8156 	 37.2074 	 -89.7429 	 
C 	 -99.7994 	 35.3094 	 -88.638 	 
H 	 -99.1208 	 34.7257 	 -89.1702 	 
H 	 -99.344 	 35.7388 	 -87.7589 	 
H 	 -100.462 	 34.4668 	 -88.4177 	 
S 	 -102.744 	 39.1413 	 -94.8463 	 
C 	 -101.663 	 40.1313 	 -95.7899 	 
C 	 -100.883 	 40.9914 	 -95.0163 	 
C 	 -101.143 	 40.809 	 -93.6143 	 
C 	 -102.028 	 39.7586 	 -93.3677 	 
H 	 -100.281 	 41.776 	 -95.4737 	 
C 	 -100.414 	 41.6553 	 -92.5718 	 
H 	 -101.27 	 41.7725 	 -91.961 	 
H 	 -100.294 	 42.6599 	 -93.0437 	 
C 	 -99.2392 	 41.0322 	 -91.7773 	 
H 	 -98.3427 	 40.686 	 -92.3207 	 
H 	 -99.6616 	 40.0963 	 -91.279 	 
C 	 -98.6628 	 42.0051 	 -90.7357 	 
H 	 -97.8216 	 41.604 	 -90.2353 	 
H 	 -99.4371 	 42.1446 	 -90.0017 	 
H 	 -98.5762 	 42.9982 	 -91.138 	 
H 	 -103.552 	 38.7966 	 -88.7419 	 
H 	 -101.605 	 40.0425 	 -96.8312 	 
*
