! wB97X-D3 SP def2-SVP
%pal
nprocs 24
end

* xyz 0 1
S 	 -122.916 	 66.7941 	 -42.2294 	 
C 	 -122.083 	 68.3434 	 -41.7746 	 
C 	 -121.48 	 68.8645 	 -42.8767 	 
C 	 -121.319 	 67.9036 	 -43.8681 	 
C 	 -121.883 	 66.6641 	 -43.6633 	 
H 	 -120.888 	 68.0263 	 -44.8688 	 
C 	 -121.164 	 70.3657 	 -43.1022 	 
H 	 -120.409 	 70.4042 	 -43.8234 	 
H 	 -120.62 	 70.8351 	 -42.2582 	 
C 	 -122.31 	 71.3495 	 -43.3762 	 
H 	 -121.83 	 72.3166 	 -43.4926 	 
H 	 -122.974 	 71.1014 	 -44.2448 	 
C 	 -123.221 	 71.4489 	 -42.1591 	 
H 	 -123.774 	 70.4089 	 -42.0314 	 
H 	 -122.687 	 71.8255 	 -41.2844 	 
H 	 -124.077 	 72.1351 	 -42.459 	 
S 	 -120.692 	 64.3899 	 -44.7365 	 
C 	 -121.529 	 63.4353 	 -45.9124 	 
C 	 -122.8 	 63.9749 	 -46.1732 	 
C 	 -123.017 	 65.2358 	 -45.4899 	 
C 	 -121.98 	 65.5947 	 -44.658 	 
H 	 -123.526 	 63.4877 	 -46.8131 	 
C 	 -124.284 	 66.0137 	 -45.7454 	 
H 	 -124.191 	 66.8288 	 -44.952 	 
H 	 -125.155 	 65.3608 	 -45.7462 	 
C 	 -124.326 	 66.6143 	 -47.1496 	 
H 	 -125.229 	 67.1486 	 -47.28 	 
H 	 -124.373 	 65.7332 	 -47.8014 	 
C 	 -123.017 	 67.3909 	 -47.4314 	 
H 	 -123.135 	 68.3403 	 -46.9608 	 
H 	 -122.81 	 67.4146 	 -48.4697 	 
H 	 -122.133 	 67.0336 	 -46.9691 	 
H 	 -122.335 	 68.8095 	 -40.8136 	 
H 	 -121.113 	 62.4707 	 -46.27 	 
*
