! wB97X-D3 SP def2-SVP
%pal
nprocs 24
end

* xyz 0 1
S 	 -104.742 	 58.6123 	 -99.5033 	 
C 	 -105.909 	 58.1863 	 -100.735 	 
C 	 -105.347 	 57.4006 	 -101.72 	 
C 	 -103.961 	 57.2042 	 -101.529 	 
C 	 -103.439 	 57.8934 	 -100.476 	 
H 	 -103.29 	 56.6186 	 -102.128 	 
C 	 -106.075 	 56.8766 	 -102.827 	 
H 	 -107.133 	 56.6995 	 -102.624 	 
H 	 -105.761 	 55.8449 	 -102.864 	 
C 	 -105.849 	 57.6309 	 -104.195 	 
H 	 -104.787 	 57.5159 	 -104.447 	 
H 	 -106.448 	 57.1332 	 -104.978 	 
C 	 -106.144 	 59.0844 	 -104.176 	 
H 	 -107.086 	 59.3354 	 -103.611 	 
H 	 -105.307 	 59.5817 	 -103.67 	 
H 	 -106.216 	 59.5201 	 -105.235 	 
S 	 -101.849 	 57.511 	 -98.2665 	 
C 	 -100.132 	 57.6206 	 -98.4338 	 
C 	 -99.7418 	 57.7375 	 -99.7349 	 
C 	 -100.82 	 57.8695 	 -100.674 	 
C 	 -102.036 	 57.748 	 -100.003 	 
H 	 -98.7382 	 57.6757 	 -100.06 	 
C 	 -100.55 	 58.0961 	 -102.117 	 
H 	 -99.9691 	 58.9643 	 -102.158 	 
H 	 -101.5 	 58.3458 	 -102.554 	 
C 	 -100.034 	 56.8282 	 -102.964 	 
H 	 -100.759 	 56.0593 	 -102.899 	 
H 	 -99.1169 	 56.4292 	 -102.562 	 
C 	 -99.7388 	 57.1701 	 -104.398 	 
H 	 -99.4829 	 56.2059 	 -104.908 	 
H 	 -98.8423 	 57.7794 	 -104.576 	 
H 	 -100.594 	 57.6306 	 -104.885 	 
H 	 -106.981 	 58.3803 	 -100.667 	 
H 	 -99.3929 	 57.4958 	 -97.6804 	 
*
