! wB97X-D3 SP def2-SVP
%pal
nprocs 24
end

* xyz 0 1
S 	 -30.7523 	 -37.2113 	 -90.8696 	 
C 	 -29.8161 	 -35.7506 	 -90.834 	 
C 	 -30.603 	 -34.5982 	 -90.5938 	 
C 	 -32.048 	 -34.9358 	 -90.5318 	 
C 	 -32.3173 	 -36.3553 	 -90.7488 	 
H 	 -32.7428 	 -34.2904 	 -90.0705 	 
C 	 -30.1219 	 -33.2068 	 -90.4052 	 
H 	 -30.9605 	 -32.7167 	 -90.5336 	 
H 	 -29.4574 	 -32.8866 	 -91.2578 	 
C 	 -29.5136 	 -32.7765 	 -89.1156 	 
H 	 -29.5951 	 -31.6716 	 -89.1246 	 
H 	 -30.1155 	 -33.1893 	 -88.3045 	 
C 	 -28.0328 	 -33.0997 	 -88.893 	 
H 	 -27.7577 	 -34.0991 	 -88.6034 	 
H 	 -27.4538 	 -33.0064 	 -89.867 	 
H 	 -27.5777 	 -32.4842 	 -88.1677 	 
S 	 -33.6008 	 -38.2002 	 -89.037 	 
C 	 -35.37 	 -38.2334 	 -89.0239 	 
C 	 -35.895 	 -37.2965 	 -89.8435 	 
C 	 -34.873 	 -36.5781 	 -90.6287 	 
C 	 -33.5734 	 -37.0717 	 -90.4126 	 
H 	 -36.9179 	 -36.9814 	 -89.7517 	 
C 	 -35.3711 	 -35.438 	 -91.5456 	 
H 	 -35.1583 	 -34.5072 	 -90.9935 	 
H 	 -36.448 	 -35.5657 	 -91.5348 	 
C 	 -34.729 	 -35.3199 	 -92.874 	 
H 	 -33.7001 	 -35.09 	 -92.5794 	 
H 	 -35.0751 	 -34.3864 	 -93.3021 	 
C 	 -34.7359 	 -36.4975 	 -93.8042 	 
H 	 -33.8776 	 -37.1629 	 -93.6644 	 
H 	 -34.4962 	 -36.1492 	 -94.7673 	 
H 	 -35.7483 	 -36.9704 	 -93.8968 	 
H 	 -28.6817 	 -35.7225 	 -90.9984 	 
H 	 -35.787 	 -38.7609 	 -88.1217 	 
*
