! wB97X-D3 SP def2-SVP
%pal
nprocs 24
end

* xyz 0 1
S 	 -80.4016 	 -3.64808 	 -57.8945 	 
C 	 -79.7873 	 -2.25132 	 -58.7903 	 
C 	 -79.2439 	 -2.59302 	 -60.0121 	 
C 	 -79.4261 	 -3.98699 	 -60.2624 	 
C 	 -80.1015 	 -4.7538 	 -59.2836 	 
H 	 -79.0673 	 -4.42173 	 -61.198 	 
C 	 -78.5231 	 -1.56657 	 -60.9698 	 
H 	 -77.5977 	 -2.07794 	 -61.3734 	 
H 	 -78.2446 	 -0.779242 	 -60.3444 	 
C 	 -79.4537 	 -1.055 	 -62.1149 	 
H 	 -80.0001 	 -1.8892 	 -62.5645 	 
H 	 -80.0398 	 -0.246782 	 -61.8676 	 
C 	 -78.6096 	 -0.45953 	 -63.2489 	 
H 	 -78.0877 	 -1.26838 	 -63.7408 	 
H 	 -79.3001 	 -0.0142172 	 -63.9796 	 
H 	 -77.9681 	 0.332743 	 -62.8938 	 
S 	 -79.4178 	 -7.19155 	 -58.173 	 
C 	 -80.062 	 -8.69562 	 -58.7669 	 
C 	 -80.9776 	 -8.45745 	 -59.7918 	 
C 	 -81.0798 	 -7.07932 	 -60.1767 	 
C 	 -80.3968 	 -6.20363 	 -59.2903 	 
H 	 -81.4674 	 -9.2664 	 -60.2527 	 
C 	 -81.7044 	 -6.62659 	 -61.4617 	 
H 	 -81.7159 	 -7.47868 	 -62.1233 	 
H 	 -81.0199 	 -5.8747 	 -61.8149 	 
C 	 -83.1537 	 -6.13858 	 -61.4295 	 
H 	 -83.7953 	 -7.03469 	 -61.2916 	 
H 	 -83.4046 	 -5.86754 	 -62.3932 	 
C 	 -83.4718 	 -5.10907 	 -60.4072 	 
H 	 -83.5901 	 -5.49397 	 -59.3993 	 
H 	 -84.4262 	 -4.55681 	 -60.5631 	 
H 	 -82.6822 	 -4.4429 	 -60.3531 	 
H 	 -79.8782 	 -1.23936 	 -58.4561 	 
H 	 -79.8383 	 -9.70319 	 -58.4776 	 
*
