! wB97X-D3 SP def2-SVP
%pal
nprocs 24
end

* xyz 0 1
S 	 -101.827 	 15.0998 	 -121.413 	 
C 	 -102.556 	 16.0489 	 -122.641 	 
C 	 -102.337 	 15.5765 	 -123.939 	 
C 	 -101.767 	 14.2733 	 -123.821 	 
C 	 -101.476 	 13.824 	 -122.539 	 
H 	 -101.575 	 13.6984 	 -124.707 	 
C 	 -102.793 	 16.2644 	 -125.199 	 
H 	 -103.603 	 16.9381 	 -125.02 	 
H 	 -103.25 	 15.5497 	 -125.893 	 
C 	 -101.643 	 16.9273 	 -126.019 	 
H 	 -101.188 	 16.1154 	 -126.674 	 
H 	 -102.129 	 17.679 	 -126.575 	 
C 	 -100.722 	 17.7447 	 -125.17 	 
H 	 -99.8607 	 17.0831 	 -124.986 	 
H 	 -100.236 	 18.5584 	 -125.872 	 
H 	 -101.161 	 18.1453 	 -124.226 	 
S 	 -101.779 	 11.2021 	 -121.716 	 
C 	 -100.265 	 10.2747 	 -121.527 	 
C 	 -99.123 	 10.9988 	 -121.772 	 
C 	 -99.4487 	 12.3875 	 -121.997 	 
C 	 -100.813 	 12.6367 	 -122.074 	 
H 	 -98.1266 	 10.5934 	 -121.829 	 
C 	 -98.3283 	 13.3701 	 -122.36 	 
H 	 -98.798 	 14.2554 	 -122.693 	 
H 	 -97.9358 	 13.066 	 -123.28 	 
C 	 -97.104 	 13.5897 	 -121.408 	 
H 	 -96.2869 	 14.1559 	 -121.872 	 
H 	 -96.6463 	 12.6776 	 -121.082 	 
C 	 -97.5255 	 14.3737 	 -120.171 	 
H 	 -98.2416 	 13.8852 	 -119.582 	 
H 	 -97.9485 	 15.3628 	 -120.437 	 
H 	 -96.6266 	 14.4338 	 -119.564 	 
H 	 -103.007 	 16.9652 	 -122.407 	 
H 	 -100.259 	 9.17789 	 -121.401 	 
*
