! wB97X-D3 SP def2-SVP
%pal
nprocs 24
end

* xyz 0 1
S 	 -107.051 	 53.4439 	 -79.8792 	 
C 	 -107.256 	 53.2799 	 -81.6167 	 
C 	 -107.697 	 54.428 	 -82.2828 	 
C 	 -107.682 	 55.501 	 -81.2975 	 
C 	 -107.406 	 55.1643 	 -80.0032 	 
H 	 -107.904 	 56.4476 	 -81.4171 	 
C 	 -107.971 	 54.5941 	 -83.7889 	 
H 	 -107.162 	 55.087 	 -84.2639 	 
H 	 -108.858 	 55.2566 	 -83.8024 	 
C 	 -108.445 	 53.3058 	 -84.525 	 
H 	 -107.59 	 52.6295 	 -84.5806 	 
H 	 -109.274 	 52.9271 	 -83.891 	 
C 	 -108.857 	 53.5418 	 -85.9911 	 
H 	 -108.036 	 54.0744 	 -86.5066 	 
H 	 -109.187 	 52.576 	 -86.3702 	 
H 	 -109.683 	 54.2412 	 -86.0239 	 
S 	 -105.609 	 55.7352 	 -78.0585 	 
C 	 -105.867 	 57.2014 	 -77.1317 	 
C 	 -106.97 	 57.9346 	 -77.4945 	 
C 	 -107.603 	 57.3225 	 -78.5932 	 
C 	 -107.101 	 56.0482 	 -78.9189 	 
H 	 -107.224 	 58.8961 	 -77.0621 	 
C 	 -108.808 	 58.0021 	 -79.1477 	 
H 	 -108.572 	 57.9342 	 -80.2004 	 
H 	 -108.714 	 59.0935 	 -78.9242 	 
C 	 -110.169 	 57.3606 	 -78.9451 	 
H 	 -110.112 	 56.3452 	 -79.3197 	 
H 	 -110.958 	 57.8551 	 -79.5435 	 
C 	 -110.679 	 57.3195 	 -77.5103 	 
H 	 -111.677 	 56.9563 	 -77.4312 	 
H 	 -110.622 	 58.3173 	 -77.1243 	 
H 	 -110.145 	 56.5077 	 -76.9197 	 
H 	 -106.986 	 52.3589 	 -82.1216 	 
H 	 -105.128 	 57.535 	 -76.4305 	 
*
