! wB97X-D3 SP def2-SVP
%pal
nprocs 24
end

* xyz 0 1
S 	 -116.706 	 32.9231 	 -115.377 	 
C 	 -117.162 	 32.2808 	 -117.005 	 
C 	 -117.73 	 33.3041 	 -117.819 	 
C 	 -117.776 	 34.5609 	 -117.103 	 
C 	 -117.348 	 34.5209 	 -115.776 	 
H 	 -118.15 	 35.459 	 -117.599 	 
C 	 -118.133 	 33.0362 	 -119.297 	 
H 	 -119.048 	 33.6051 	 -119.576 	 
H 	 -118.276 	 31.946 	 -119.406 	 
C 	 -117.15 	 33.4593 	 -120.41 	 
H 	 -117.107 	 34.5385 	 -120.396 	 
H 	 -116.159 	 33.0601 	 -120.008 	 
C 	 -117.538 	 33.0165 	 -121.825 	 
H 	 -118.328 	 33.6158 	 -122.236 	 
H 	 -116.736 	 33.2387 	 -122.414 	 
H 	 -117.711 	 31.9046 	 -121.932 	 
S 	 -115.438 	 36.0865 	 -114.81 	 
C 	 -115.801 	 37.4205 	 -113.834 	 
C 	 -117.183 	 37.7405 	 -113.923 	 
C 	 -117.869 	 36.7076 	 -114.641 	 
C 	 -117.101 	 35.6348 	 -114.98 	 
H 	 -117.761 	 38.6022 	 -113.55 	 
C 	 -119.384 	 36.7964 	 -114.822 	 
H 	 -119.717 	 36.1131 	 -115.599 	 
H 	 -119.499 	 37.7718 	 -115.216 	 
C 	 -120.124 	 36.4519 	 -113.512 	 
H 	 -119.752 	 36.875 	 -112.542 	 
H 	 -120.1 	 35.334 	 -113.447 	 
C 	 -121.56 	 36.8584 	 -113.655 	 
H 	 -121.88 	 36.3204 	 -114.499 	 
H 	 -121.7 	 37.8847 	 -113.853 	 
H 	 -122.209 	 36.7335 	 -112.823 	 
H 	 -116.972 	 31.26 	 -117.295 	 
H 	 -115.167 	 38.1295 	 -113.257 	 
*
