! wB97X-D3 SP def2-SVP
%pal
nprocs 24
end

* xyz 0 1
S 	 -58.2327 	 2.88941 	 -19.6677 	 
C 	 -59.8954 	 3.46102 	 -19.5863 	 
C 	 -60.5921 	 3.10097 	 -20.729 	 
C 	 -59.8017 	 2.45429 	 -21.7503 	 
C 	 -58.5092 	 2.24516 	 -21.3368 	 
H 	 -60.0806 	 2.12441 	 -22.7209 	 
C 	 -62.0744 	 3.21936 	 -20.964 	 
H 	 -62.4848 	 3.21478 	 -19.9315 	 
H 	 -62.4236 	 2.32912 	 -21.4779 	 
C 	 -62.4212 	 4.40439 	 -21.8889 	 
H 	 -62.1066 	 5.28709 	 -21.4849 	 
H 	 -61.8372 	 4.24797 	 -22.8106 	 
C 	 -63.8838 	 4.41435 	 -22.1603 	 
H 	 -64.5065 	 4.62137 	 -21.3217 	 
H 	 -64.1551 	 5.14458 	 -22.9239 	 
H 	 -64.2728 	 3.63068 	 -22.6984 	 
S 	 -56.5721 	 0.371228 	 -21.2243 	 
C 	 -55.4011 	 0.254863 	 -22.565 	 
C 	 -55.8292 	 0.953832 	 -23.6791 	 
C 	 -56.9102 	 1.82783 	 -23.4022 	 
C 	 -57.4279 	 1.63301 	 -22.0494 	 
H 	 -55.2428 	 0.942531 	 -24.6058 	 
C 	 -57.4005 	 2.77919 	 -24.4253 	 
H 	 -56.4814 	 3.03181 	 -24.8687 	 
H 	 -57.7213 	 3.69928 	 -23.9202 	 
C 	 -58.5413 	 2.36042 	 -25.4408 	 
H 	 -58.5246 	 3.17366 	 -26.187 	 
H 	 -59.5118 	 2.31513 	 -24.9685 	 
C 	 -58.1376 	 1.08439 	 -26.0933 	 
H 	 -57.8114 	 0.297209 	 -25.421 	 
H 	 -57.3047 	 1.29488 	 -26.7256 	 
H 	 -58.8662 	 0.817771 	 -26.7923 	 
H 	 -60.4239 	 3.94384 	 -18.7595 	 
H 	 -54.4209 	 -0.24323 	 -22.6235 	 
*
