! wB97X-D3 SP def2-SVP
%pal
nprocs 24
end

* xyz 0 1
S 	 32.8101 	 -28.7575 	 -113.603 	 
C 	 33.1701 	 -28.2178 	 -112.006 	 
C 	 33.6792 	 -29.209 	 -111.162 	 
C 	 33.9926 	 -30.3615 	 -111.951 	 
C 	 33.5484 	 -30.348 	 -113.253 	 
H 	 34.4554 	 -31.252 	 -111.692 	 
C 	 33.8467 	 -29.2626 	 -109.651 	 
H 	 33.8254 	 -30.3033 	 -109.245 	 
H 	 33.0233 	 -28.7307 	 -109.187 	 
C 	 35.1764 	 -28.7871 	 -109.149 	 
H 	 35.1603 	 -27.657 	 -109.206 	 
H 	 35.1567 	 -29.0415 	 -108.089 	 
C 	 36.4956 	 -29.251 	 -109.821 	 
H 	 36.601 	 -30.2193 	 -110.185 	 
H 	 36.6704 	 -28.6624 	 -110.727 	 
H 	 37.3175 	 -29.0305 	 -109.108 	 
S 	 34.1477 	 -30.6603 	 -116.036 	 
C 	 34.1241 	 -32.2981 	 -116.718 	 
C 	 34.0443 	 -33.2164 	 -115.705 	 
C 	 33.7225 	 -32.6669 	 -114.418 	 
C 	 33.7578 	 -31.2886 	 -114.393 	 
H 	 34.117 	 -34.293 	 -115.82 	 
C 	 33.4687 	 -33.6183 	 -113.237 	 
H 	 32.8587 	 -34.4136 	 -113.652 	 
H 	 32.9557 	 -33.0302 	 -112.432 	 
C 	 34.7157 	 -34.2813 	 -112.66 	 
H 	 35.3436 	 -33.4364 	 -112.336 	 
H 	 35.3229 	 -34.9767 	 -113.319 	 
C 	 34.3158 	 -35.2583 	 -111.598 	 
H 	 35.2428 	 -35.5922 	 -111.073 	 
H 	 34.0218 	 -36.2533 	 -111.888 	 
H 	 33.5927 	 -34.9587 	 -110.826 	 
H 	 32.7591 	 -27.3792 	 -111.561 	 
H 	 34.5827 	 -32.693 	 -117.707 	 
*
