! wB97X-D3 SP def2-SVP
%pal
nprocs 24
end

* xyz 0 1
S 	 -54.1295 	 0.614322 	 -24.2696 	 
C 	 -55.1337 	 1.95165 	 -23.7832 	 
C 	 -55.4631 	 2.80104 	 -24.8447 	 
C 	 -54.9543 	 2.21666 	 -26.0623 	 
C 	 -54.1551 	 1.13768 	 -25.9446 	 
H 	 -55.07 	 2.68016 	 -27.1001 	 
C 	 -56.2748 	 4.05712 	 -24.8193 	 
H 	 -55.6467 	 4.87965 	 -24.8722 	 
H 	 -56.8925 	 4.07597 	 -23.9053 	 
C 	 -57.167 	 4.31625 	 -26.1098 	 
H 	 -56.6312 	 4.41791 	 -27.0205 	 
H 	 -57.7765 	 3.44346 	 -26.2099 	 
C 	 -57.9442 	 5.55455 	 -25.9803 	 
H 	 -58.6402 	 5.6431 	 -26.8558 	 
H 	 -58.6117 	 5.61445 	 -25.1044 	 
H 	 -57.3509 	 6.42004 	 -26.0521 	 
S 	 -51.5984 	 0.680606 	 -26.6203 	 
C 	 -51.3615 	 -0.463589 	 -27.9552 	 
C 	 -52.546 	 -0.627904 	 -28.7005 	 
C 	 -53.7093 	 -0.0645141 	 -28.1312 	 
C 	 -53.3609 	 0.511991 	 -26.888 	 
H 	 -52.4023 	 -1.18473 	 -29.5956 	 
C 	 -54.9873 	 -0.128799 	 -28.8707 	 
H 	 -54.7572 	 -0.0500605 	 -29.8854 	 
H 	 -55.4705 	 0.757336 	 -28.5458 	 
C 	 -55.8245 	 -1.31656 	 -28.4003 	 
H 	 -56.8774 	 -1.19856 	 -28.8663 	 
H 	 -55.9655 	 -1.36924 	 -27.3256 	 
C 	 -55.2248 	 -2.65478 	 -29.0363 	 
H 	 -55.7748 	 -3.59026 	 -28.7635 	 
H 	 -54.1987 	 -2.86774 	 -28.7561 	 
H 	 -55.2293 	 -2.64598 	 -30.0764 	 
H 	 -55.4865 	 2.06635 	 -22.7585 	 
H 	 -50.3512 	 -0.556028 	 -28.3745 	 
*
