! wB97X-D3 SP def2-SVP
%pal
nprocs 24
end

* xyz 0 1
S 	 -54.2141 	 -3.70206 	 -28.6531 	 
C 	 -52.9524 	 -3.19042 	 -27.6228 	 
C 	 -53.1224 	 -1.92217 	 -27.1861 	 
C 	 -54.2547 	 -1.29987 	 -27.778 	 
C 	 -55.0153 	 -2.09071 	 -28.5996 	 
H 	 -54.6265 	 -0.249149 	 -27.6265 	 
C 	 -52.1416 	 -1.1411 	 -26.3863 	 
H 	 -52.4084 	 -0.0576308 	 -26.3712 	 
H 	 -51.199 	 -1.2329 	 -26.8959 	 
C 	 -51.921 	 -1.61875 	 -24.9196 	 
H 	 -52.8855 	 -1.57883 	 -24.3601 	 
H 	 -51.7346 	 -2.633 	 -24.927 	 
C 	 -50.966 	 -0.633139 	 -24.1966 	 
H 	 -50.6978 	 -0.936984 	 -23.224 	 
H 	 -50.0158 	 -0.551147 	 -24.7596 	 
H 	 -51.3639 	 0.411557 	 -24.216 	 
S 	 -57.7853 	 -2.58042 	 -28.8639 	 
C 	 -58.7764 	 -1.58843 	 -29.9 	 
C 	 -57.9687 	 -0.713847 	 -30.5719 	 
C 	 -56.5761 	 -0.875988 	 -30.3034 	 
C 	 -56.2925 	 -1.72835 	 -29.2712 	 
H 	 -58.374 	 0.0841336 	 -31.0293 	 
C 	 -55.5445 	 0.00733508 	 -31.0362 	 
H 	 -54.8845 	 0.609502 	 -30.3872 	 
H 	 -56.027 	 1.01947 	 -31.3034 	 
C 	 -54.7749 	 -0.618121 	 -32.1563 	 
H 	 -54.2009 	 0.118945 	 -32.5798 	 
H 	 -55.3906 	 -0.947668 	 -32.9783 	 
C 	 -53.9282 	 -1.78826 	 -31.7575 	 
H 	 -53.1018 	 -1.52039 	 -31.065 	 
H 	 -53.478 	 -2.32443 	 -32.6502 	 
H 	 -54.6133 	 -2.48875 	 -31.2243 	 
H 	 -52.1892 	 -3.84625 	 -27.2415 	 
H 	 -59.8749 	 -1.5893 	 -29.9369 	 
*
