! wB97X-D3 SP def2-SVP
%pal
nprocs 24
end

* xyz 0 1
S 	 -99.2832 	 2.31017 	 -106.917 	 
C 	 -98.8594 	 0.633907 	 -107.304 	 
C 	 -99.68 	 -0.276856 	 -106.695 	 
C 	 -100.802 	 0.341902 	 -106.088 	 
C 	 -100.851 	 1.72173 	 -106.294 	 
H 	 -101.597 	 -0.191823 	 -105.654 	 
C 	 -99.4786 	 -1.72445 	 -106.674 	 
H 	 -98.8692 	 -2.21018 	 -105.871 	 
H 	 -99.0856 	 -1.84336 	 -107.648 	 
C 	 -100.735 	 -2.65271 	 -106.619 	 
H 	 -101.041 	 -2.84697 	 -105.582 	 
H 	 -101.508 	 -2.17065 	 -107.186 	 
C 	 -100.571 	 -4.09892 	 -107.317 	 
H 	 -100.398 	 -4.09709 	 -108.437 	 
H 	 -99.7835 	 -4.70031 	 -106.849 	 
H 	 -101.444 	 -4.66547 	 -107.085 	 
S 	 -101.335 	 3.87562 	 -104.505 	 
C 	 -103.028 	 4.0765 	 -104.025 	 
C 	 -103.907 	 3.50165 	 -104.85 	 
C 	 -103.243 	 2.62268 	 -105.787 	 
C 	 -101.805 	 2.65194 	 -105.72 	 
H 	 -104.987 	 3.6084 	 -104.728 	 
C 	 -103.979 	 1.87393 	 -106.891 	 
H 	 -103.284 	 1.38894 	 -107.548 	 
H 	 -104.622 	 2.57919 	 -107.419 	 
C 	 -104.939 	 0.836917 	 -106.421 	 
H 	 -105.736 	 1.43554 	 -105.873 	 
H 	 -104.465 	 0.274075 	 -105.676 	 
C 	 -105.444 	 -0.216051 	 -107.468 	 
H 	 -106.091 	 0.223211 	 -108.158 	 
H 	 -106.023 	 -1.05102 	 -106.931 	 
H 	 -104.68 	 -0.807604 	 -107.934 	 
H 	 -98.0187 	 0.384644 	 -107.803 	 
H 	 -103.409 	 4.83172 	 -103.32 	 
*
