! wB97X-D3 SP def2-SVP
%pal
nprocs 24
end

* xyz 0 1
S 	 -51.8155 	 11.9478 	 21.2574 	 
C 	 -51.1901 	 10.3412 	 21.416 	 
C 	 -52.0599 	 9.50891 	 22.1667 	 
C 	 -53.2661 	 10.2269 	 22.6166 	 
C 	 -53.2151 	 11.5098 	 22.1713 	 
H 	 -54.0618 	 9.79636 	 23.128 	 
C 	 -51.8955 	 7.96616 	 22.3593 	 
H 	 -50.8241 	 7.76533 	 22.5166 	 
H 	 -52.0642 	 7.48938 	 21.4291 	 
C 	 -52.7007 	 7.41424 	 23.4971 	 
H 	 -52.4694 	 8.1231 	 24.2988 	 
H 	 -53.7471 	 7.57901 	 23.3697 	 
C 	 -52.3121 	 5.96341 	 23.7272 	 
H 	 -52.9214 	 5.62377 	 24.5238 	 
H 	 -52.3812 	 5.40055 	 22.812 	 
H 	 -51.2108 	 5.81515 	 23.8292 	 
S 	 -54.9841 	 13.4107 	 21.2195 	 
C 	 -56.0207 	 14.2624 	 22.2917 	 
C 	 -55.8027 	 13.9665 	 23.6341 	 
C 	 -54.8003 	 12.9076 	 23.7293 	 
C 	 -54.1707 	 12.532 	 22.542 	 
H 	 -56.2875 	 14.4508 	 24.4308 	 
C 	 -54.4141 	 12.4828 	 25.1496 	 
H 	 -54.4405 	 11.3319 	 25.2187 	 
H 	 -55.1905 	 12.7004 	 25.9145 	 
C 	 -53.1301 	 13.0566 	 25.5995 	 
H 	 -53.1108 	 14.1644 	 25.4271 	 
H 	 -52.3666 	 12.6376 	 24.9712 	 
C 	 -52.7158 	 12.7614 	 27.0585 	 
H 	 -52.7941 	 11.7433 	 27.2642 	 
H 	 -53.4052 	 13.3495 	 27.7746 	 
H 	 -51.6932 	 13.1723 	 27.2485 	 
H 	 -50.309 	 10.05 	 20.8761 	 
H 	 -56.677 	 15.0294 	 21.9914 	 
*
