! wB97X-D3 SP def2-SVP
%pal
nprocs 24
end

* xyz 0 1
S 	 -60.1712 	 7.75154 	 -7.2959 	 
C 	 -59.6912 	 6.04095 	 -7.03148 	 
C 	 -59.9278 	 5.2248 	 -8.1555 	 
C 	 -60.6018 	 5.956 	 -9.22251 	 
C 	 -60.7331 	 7.31742 	 -8.95977 	 
H 	 -60.9176 	 5.46976 	 -10.1074 	 
C 	 -59.8017 	 3.70348 	 -8.17549 	 
H 	 -60.5886 	 3.38318 	 -7.46704 	 
H 	 -58.8521 	 3.57357 	 -7.66232 	 
C 	 -59.7699 	 3.02656 	 -9.57534 	 
H 	 -60.6733 	 3.26367 	 -10.1051 	 
H 	 -59.1029 	 3.45086 	 -10.2983 	 
C 	 -59.6288 	 1.51214 	 -9.54493 	 
H 	 -58.761 	 1.09431 	 -9.06929 	 
H 	 -60.472 	 1.0024 	 -9.02209 	 
H 	 -59.741 	 1.18677 	 -10.5351 	 
S 	 -62.7829 	 9.23621 	 -9.07136 	 
C 	 -63.0773 	 9.97608 	 -10.6694 	 
C 	 -62.463 	 9.32344 	 -11.6875 	 
C 	 -61.4721 	 8.38895 	 -11.2301 	 
C 	 -61.4457 	 8.2896 	 -9.80724 	 
H 	 -62.574 	 9.6889 	 -12.7106 	 
C 	 -60.3922 	 7.85718 	 -12.1322 	 
H 	 -59.569 	 7.43269 	 -11.6324 	 
H 	 -59.9701 	 8.75605 	 -12.5543 	 
C 	 -60.7517 	 6.9662 	 -13.3773 	 
H 	 -59.8459 	 6.71159 	 -13.9374 	 
H 	 -61.4103 	 7.47692 	 -14.0673 	 
C 	 -61.2974 	 5.61357 	 -12.9097 	 
H 	 -60.5521 	 4.99968 	 -12.4768 	 
H 	 -61.7141 	 4.97294 	 -13.7487 	 
H 	 -62.0955 	 5.67961 	 -12.2808 	 
H 	 -59.3135 	 5.59994 	 -6.1133 	 
H 	 -63.6795 	 10.8456 	 -10.8679 	 
*
