! wB97X-D3 SP def2-SVP
%pal
nprocs 24
end

* xyz 0 1
S 	 40.6958 	 -21.0516 	 -110.923 	 
C 	 42.1186 	 -22.0592 	 -110.922 	 
C 	 42.0995 	 -22.956 	 -109.846 	 
C 	 40.8924 	 -22.8596 	 -109.072 	 
C 	 40.0079 	 -21.8879 	 -109.515 	 
H 	 40.7298 	 -23.3973 	 -108.129 	 
C 	 43.1963 	 -23.9539 	 -109.439 	 
H 	 43.2579 	 -24.0932 	 -108.364 	 
H 	 44.0899 	 -23.3693 	 -109.487 	 
C 	 43.3899 	 -25.241 	 -110.243 	 
H 	 43.9873 	 -25.9869 	 -109.723 	 
H 	 42.3766 	 -25.6248 	 -110.53 	 
C 	 44.1599 	 -24.9183 	 -111.582 	 
H 	 43.601 	 -24.252 	 -112.217 	 
H 	 45.1027 	 -24.4372 	 -111.22 	 
H 	 44.2832 	 -25.857 	 -112.197 	 
S 	 37.7044 	 -22.9012 	 -108.179 	 
C 	 36.4041 	 -21.8132 	 -107.782 	 
C 	 36.7701 	 -20.5076 	 -108.006 	 
C 	 38.023 	 -20.3689 	 -108.628 	 
C 	 38.6817 	 -21.5554 	 -108.846 	 
H 	 36.1012 	 -19.7384 	 -107.702 	 
C 	 38.6397 	 -19.0163 	 -108.975 	 
H 	 37.804 	 -18.3985 	 -108.826 	 
H 	 38.8236 	 -19.0086 	 -110.045 	 
C 	 39.7847 	 -18.497 	 -108.146 	 
H 	 40.6171 	 -19.194 	 -108.467 	 
H 	 39.5184 	 -18.7002 	 -107.121 	 
C 	 40.2258 	 -17.0686 	 -108.429 	 
H 	 40.9515 	 -16.8641 	 -107.651 	 
H 	 39.416 	 -16.3814 	 -108.228 	 
H 	 40.7387 	 -16.9697 	 -109.382 	 
H 	 43.0572 	 -21.829 	 -111.47 	 
H 	 35.5411 	 -22.0366 	 -107.098 	 
*
