! wB97X-D3 SP def2-SVP
%pal
nprocs 24
end

* xyz 0 1
S 	 -47.5406 	 25.8152 	 26.6406 	 
C 	 -48.4406 	 26.0277 	 28.0886 	 
C 	 -48.7521 	 24.8329 	 28.6851 	 
C 	 -48.0463 	 23.7767 	 28.0154 	 
C 	 -47.3003 	 24.1497 	 26.8935 	 
H 	 -47.8746 	 22.7897 	 28.3864 	 
C 	 -49.6759 	 24.6159 	 29.8516 	 
H 	 -50.1364 	 23.5782 	 29.7985 	 
H 	 -50.4982 	 25.3719 	 29.7148 	 
C 	 -49.0056 	 24.675 	 31.2238 	 
H 	 -48.1833 	 23.993 	 31.1649 	 
H 	 -48.4952 	 25.5805 	 31.4446 	 
C 	 -49.9827 	 24.1964 	 32.3187 	 
H 	 -50.1359 	 23.1326 	 32.1009 	 
H 	 -49.5807 	 24.2726 	 33.3315 	 
H 	 -50.8514 	 24.7985 	 32.1876 	 
S 	 -45.019 	 23.8932 	 25.4255 	 
C 	 -44.712 	 22.3798 	 24.6139 	 
C 	 -45.7315 	 21.4697 	 24.7363 	 
C 	 -46.7593 	 21.9003 	 25.6392 	 
C 	 -46.4749 	 23.2248 	 26.1186 	 
H 	 -45.5734 	 20.5354 	 24.2118 	 
C 	 -47.9634 	 21.1007 	 25.9988 	 
H 	 -48.3407 	 20.6832 	 25.1124 	 
H 	 -48.6712 	 21.921 	 26.3309 	 
C 	 -47.7931 	 20.1029 	 27.0985 	 
H 	 -47.3532 	 20.5408 	 27.9872 	 
H 	 -47.1991 	 19.24 	 26.7841 	 
C 	 -49.1026 	 19.4751 	 27.6229 	 
H 	 -49.0164 	 18.7574 	 28.4471 	 
H 	 -49.6476 	 18.8991 	 26.8614 	 
H 	 -49.718 	 20.2593 	 28.0683 	 
H 	 -48.8542 	 26.9818 	 28.4012 	 
H 	 -43.8862 	 22.1529 	 23.9825 	 
*
