! wB97X-D3 SP def2-SVP
%pal
nprocs 24
end

* xyz 0 1
S 	 -133.746 	 13.7651 	 -7.96482 	 
C 	 -132.696 	 14.1029 	 -6.60338 	 
C 	 -132.38 	 13.032 	 -5.78355 	 
C 	 -133.128 	 11.906 	 -6.29392 	 
C 	 -133.838 	 12.0517 	 -7.49819 	 
H 	 -133.218 	 10.9649 	 -5.8366 	 
C 	 -131.464 	 12.8766 	 -4.57213 	 
H 	 -132.201 	 12.705 	 -3.80378 	 
H 	 -131.165 	 13.8789 	 -4.41104 	 
C 	 -130.348 	 11.8179 	 -4.5257 	 
H 	 -129.882 	 11.7778 	 -3.61556 	 
H 	 -130.781 	 10.7887 	 -4.65973 	 
C 	 -129.198 	 12.0274 	 -5.65151 	 
H 	 -128.544 	 12.8766 	 -5.398 	 
H 	 -128.702 	 11.0579 	 -5.65764 	 
H 	 -129.661 	 12.1572 	 -6.64673 	 
S 	 -136.53 	 11.6496 	 -8.04862 	 
C 	 -137.029 	 9.99365 	 -8.63507 	 
C 	 -135.909 	 9.13351 	 -8.58081 	 
C 	 -134.665 	 9.7286 	 -8.28499 	 
C 	 -134.818 	 11.0933 	 -8.01132 	 
H 	 -136.178 	 8.08093 	 -8.84773 	 
C 	 -133.373 	 8.91396 	 -8.18636 	 
H 	 -133.659 	 7.90424 	 -8.42747 	 
H 	 -132.889 	 8.89357 	 -7.18736 	 
C 	 -132.373 	 9.41937 	 -9.249 	 
H 	 -132.11 	 10.4375 	 -9.03465 	 
H 	 -132.769 	 9.32016 	 -10.2151 	 
C 	 -131.05 	 8.55147 	 -9.1649 	 
H 	 -130.769 	 8.53433 	 -8.12963 	 
H 	 -130.19 	 8.92156 	 -9.75326 	 
H 	 -131.205 	 7.47406 	 -9.48504 	 
H 	 -132.302 	 15.1184 	 -6.45143 	 
H 	 -138.003 	 9.74351 	 -8.96137 	 
*
