! wB97X-D3 SP def2-SVP
%pal
nprocs 24
end

* xyz 0 1
S 	 -51.7585 	 12.6463 	 22.6302 	 
C 	 -52.6321 	 11.2057 	 22.2879 	 
C 	 -53.1816 	 10.7042 	 23.4304 	 
C 	 -52.9669 	 11.5348 	 24.54 	 
C 	 -52.2176 	 12.6606 	 24.293 	 
H 	 -53.3841 	 11.3628 	 25.5522 	 
C 	 -54.0073 	 9.50198 	 23.4939 	 
H 	 -53.743 	 9.02628 	 24.4361 	 
H 	 -53.6033 	 8.87384 	 22.7019 	 
C 	 -55.557 	 9.62044 	 23.4269 	 
H 	 -55.8213 	 10.2619 	 24.269 	 
H 	 -55.8364 	 10.0971 	 22.5221 	 
C 	 -56.3148 	 8.24691 	 23.5518 	 
H 	 -56.2396 	 7.83865 	 24.5657 	 
H 	 -57.3842 	 8.43795 	 23.4454 	 
H 	 -55.9155 	 7.54635 	 22.8292 	 
S 	 -52.5669 	 15.2712 	 24.5495 	 
C 	 -52.0099 	 16.131 	 25.9646 	 
C 	 -51.2477 	 15.2608 	 26.8077 	 
C 	 -51.2479 	 13.9126 	 26.3483 	 
C 	 -51.906 	 13.7927 	 25.1716 	 
H 	 -50.8815 	 15.599 	 27.7445 	 
C 	 -50.608 	 12.7795 	 27.095 	 
H 	 -51.1041 	 11.871 	 26.9627 	 
H 	 -50.8118 	 12.9966 	 28.1152 	 
C 	 -49.1084 	 12.5657 	 26.7427 	 
H 	 -48.7463 	 11.9125 	 27.4911 	 
H 	 -48.7138 	 13.5373 	 26.9507 	 
C 	 -48.615 	 12.124 	 25.3601 	 
H 	 -48.8556 	 12.9251 	 24.5729 	 
H 	 -49.1877 	 11.2205 	 25.0291 	 
H 	 -47.6188 	 11.8209 	 25.17 	 
H 	 -52.7077 	 10.7263 	 21.2787 	 
H 	 -52.219 	 17.2077 	 26.1884 	 
*
