! wB97X-D3 SP def2-SVP
%pal
nprocs 24
end

* xyz 0 1
S 	 -129.812 	 3.05063 	 2.89266 	 
C 	 -128.547 	 1.89948 	 2.44656 	 
C 	 -127.536 	 1.88913 	 3.37921 	 
C 	 -127.845 	 2.71753 	 4.53316 	 
C 	 -129.02 	 3.38849 	 4.42134 	 
H 	 -127.196 	 2.82115 	 5.3757 	 
C 	 -126.352 	 0.938213 	 3.31973 	 
H 	 -125.674 	 1.31082 	 4.15448 	 
H 	 -125.624 	 1.03645 	 2.51224 	 
C 	 -126.799 	 -0.458121 	 3.47946 	 
H 	 -127.31 	 -0.484195 	 4.45717 	 
H 	 -127.485 	 -0.720422 	 2.68378 	 
C 	 -125.578 	 -1.36182 	 3.4596 	 
H 	 -125.703 	 -2.47466 	 3.59036 	 
H 	 -125.133 	 -1.25187 	 2.46005 	 
H 	 -124.723 	 -1.0805 	 4.10603 	 
S 	 -129.566 	 6.07861 	 4.62484 	 
C 	 -130.501 	 6.55245 	 6.03772 	 
C 	 -130.523 	 5.57089 	 6.99938 	 
C 	 -129.856 	 4.35753 	 6.65858 	 
C 	 -129.502 	 4.40831 	 5.3177 	 
H 	 -131.078 	 5.84705 	 7.9174 	 
C 	 -129.939 	 3.11358 	 7.50573 	 
H 	 -129.782 	 3.35623 	 8.51682 	 
H 	 -129.035 	 2.56289 	 7.20653 	 
C 	 -131.149 	 2.23684 	 7.28416 	 
H 	 -131.334 	 2.3187 	 6.26017 	 
H 	 -131.998 	 2.61779 	 7.80748 	 
C 	 -130.904 	 0.768476 	 7.66451 	 
H 	 -131.649 	 0.128882 	 7.29309 	 
H 	 -130.683 	 0.600718 	 8.71116 	 
H 	 -130.032 	 0.419526 	 7.12012 	 
H 	 -128.41 	 1.35334 	 1.52354 	 
H 	 -130.978 	 7.54679 	 6.199 	 
*
