! wB97X-D3 SP def2-SVP
%pal
nprocs 24
end

* xyz 0 1
S 	 -61.4366 	 -0.487439 	 -29.9037 	 
C 	 -62.4312 	 0.622432 	 -30.7483 	 
C 	 -61.7552 	 1.32583 	 -31.6443 	 
C 	 -60.3852 	 0.910228 	 -31.7183 	 
C 	 -60.0626 	 -0.0286981 	 -30.7874 	 
H 	 -59.627 	 1.33983 	 -32.3548 	 
C 	 -62.3841 	 2.4309 	 -32.4069 	 
H 	 -62.89 	 3.16875 	 -31.7005 	 
H 	 -63.0429 	 1.9249 	 -33.0682 	 
C 	 -61.4713 	 3.24251 	 -33.2879 	 
H 	 -60.891 	 4.08359 	 -32.7923 	 
H 	 -60.7531 	 2.64445 	 -33.7897 	 
C 	 -62.3841 	 4.01099 	 -34.2413 	 
H 	 -61.7499 	 4.59569 	 -34.9933 	 
H 	 -63.0267 	 3.31304 	 -34.866 	 
H 	 -63.0419 	 4.73509 	 -33.7212 	 
S 	 -58.5824 	 -1.10334 	 -28.785 	 
C 	 -56.8823 	 -0.937492 	 -28.6915 	 
C 	 -56.3838 	 -0.640648 	 -29.9399 	 
C 	 -57.4145 	 -0.279016 	 -30.876 	 
C 	 -58.6841 	 -0.434186 	 -30.3751 	 
H 	 -55.327 	 -0.601124 	 -30.0763 	 
C 	 -57.0087 	 0.29095 	 -32.2573 	 
H 	 -57.4428 	 1.23773 	 -32.2371 	 
H 	 -57.6162 	 -0.191986 	 -33.0779 	 
C 	 -55.5337 	 0.233817 	 -32.7425 	 
H 	 -55.0945 	 -0.782005 	 -32.6169 	 
H 	 -54.8809 	 0.768775 	 -32.0795 	 
C 	 -55.0911 	 0.653527 	 -34.1409 	 
H 	 -55.17 	 1.70334 	 -34.3147 	 
H 	 -55.5868 	 0.184198 	 -34.9417 	 
H 	 -54.0202 	 0.411313 	 -34.3968 	 
H 	 -63.5007 	 0.567775 	 -30.8696 	 
H 	 -56.339 	 -1.25256 	 -27.8134 	 
*
