! wB97X-D3 SP def2-SVP
%pal
nprocs 24
end

* xyz 0 1
S 	 -139.126 	 7.31898 	 6.36002 	 
C 	 -137.587 	 6.70925 	 5.63296 	 
C 	 -136.785 	 6.34643 	 6.68157 	 
C 	 -137.306 	 6.54986 	 7.99948 	 
C 	 -138.581 	 7.09873 	 8.01155 	 
H 	 -136.921 	 6.30331 	 8.92917 	 
C 	 -135.404 	 5.68574 	 6.38006 	 
H 	 -135.311 	 5.68783 	 5.28333 	 
H 	 -135.424 	 4.60297 	 6.60757 	 
C 	 -134.124 	 6.34188 	 6.95763 	 
H 	 -133.902 	 7.31418 	 6.68663 	 
H 	 -134.321 	 6.36053 	 8.07292 	 
C 	 -132.883 	 5.53055 	 6.72151 	 
H 	 -132.575 	 5.62369 	 5.64661 	 
H 	 -132.069 	 5.88654 	 7.3177 	 
H 	 -133.129 	 4.49266 	 6.9268 	 
S 	 -139.504 	 6.57069 	 10.478 	 
C 	 -140.092 	 7.9059 	 11.3919 	 
C 	 -140.04 	 9.12875 	 10.7651 	 
C 	 -139.53 	 8.95813 	 9.43633 	 
C 	 -139.172 	 7.63823 	 9.14426 	 
H 	 -140.357 	 10.0937 	 11.1794 	 
C 	 -139.467 	 10.1487 	 8.45713 	 
H 	 -138.982 	 9.75161 	 7.59459 	 
H 	 -138.863 	 10.9933 	 8.96827 	 
C 	 -140.873 	 10.7216 	 8.06394 	 
H 	 -140.694 	 11.6432 	 7.50714 	 
H 	 -141.281 	 11.081 	 8.99187 	 
C 	 -141.827 	 9.62402 	 7.5537 	 
H 	 -141.399 	 9.33024 	 6.64607 	 
H 	 -142.824 	 10.0559 	 7.40655 	 
H 	 -141.973 	 8.73717 	 8.21042 	 
H 	 -137.281 	 6.75186 	 4.57548 	 
H 	 -140.598 	 7.78261 	 12.3284 	 
*
