! wB97X-D3 SP def2-SVP
%pal
nprocs 24
end

* xyz 0 1
S 	 -62.1481 	 20.7431 	 19.8668 	 
C 	 -63.4321 	 20.166 	 20.9858 	 
C 	 -62.9118 	 19.7953 	 22.1862 	 
C 	 -61.4736 	 19.9733 	 22.2296 	 
C 	 -60.9758 	 20.6606 	 21.1148 	 
H 	 -60.8848 	 19.6605 	 23.0352 	 
C 	 -63.6722 	 19.321 	 23.4335 	 
H 	 -64.2965 	 20.2335 	 23.5009 	 
H 	 -63.072 	 19.2769 	 24.3528 	 
C 	 -64.4495 	 18.0436 	 23.2453 	 
H 	 -65.0967 	 17.9195 	 24.1404 	 
H 	 -65.1187 	 18.1421 	 22.3695 	 
C 	 -63.7098 	 16.6992 	 23.2824 	 
H 	 -64.3201 	 15.8655 	 23.0787 	 
H 	 -62.9719 	 16.7266 	 22.5165 	 
H 	 -63.2007 	 16.6098 	 24.2623 	 
S 	 -58.8076 	 20.7293 	 19.4883 	 
C 	 -57.3665 	 21.5419 	 20.0177 	 
C 	 -57.4859 	 21.9754 	 21.3011 	 
C 	 -58.7586 	 21.7823 	 21.8597 	 
C 	 -59.6082 	 21.1181 	 20.9618 	 
H 	 -56.6191 	 22.3749 	 21.8471 	 
C 	 -59.1798 	 22.4364 	 23.1902 	 
H 	 -59.9762 	 21.8792 	 23.6844 	 
H 	 -59.6361 	 23.374 	 22.9137 	 
C 	 -58.1457 	 22.5985 	 24.2825 	 
H 	 -57.1639 	 22.9077 	 23.9885 	 
H 	 -57.879 	 21.6042 	 24.7364 	 
C 	 -58.6984 	 23.5036 	 25.4126 	 
H 	 -59.1944 	 24.433 	 25.0831 	 
H 	 -57.9426 	 23.7724 	 26.1148 	 
H 	 -59.4844 	 22.9375 	 25.9072 	 
H 	 -64.4697 	 20.0704 	 20.8133 	 
H 	 -56.3733 	 21.5799 	 19.516 	 
*
