! wB97X-D3 SP def2-SVP
%pal
nprocs 24
end

* xyz 0 1
S 	 -31.2756 	 -35.9407 	 -89.3167 	 
C 	 -30.5179 	 -34.5881 	 -88.5129 	 
C 	 -30.0451 	 -33.7066 	 -89.4672 	 
C 	 -30.3072 	 -34.0709 	 -90.7982 	 
C 	 -31.0688 	 -35.185 	 -90.8489 	 
H 	 -30.1172 	 -33.5892 	 -91.7613 	 
C 	 -29.1478 	 -32.5369 	 -89.1151 	 
H 	 -28.428 	 -32.3857 	 -89.9242 	 
H 	 -28.5168 	 -32.8708 	 -88.3064 	 
C 	 -29.8605 	 -31.2189 	 -88.886 	 
H 	 -30.3488 	 -31.2564 	 -87.9289 	 
H 	 -29.1149 	 -30.459 	 -88.8027 	 
C 	 -30.8666 	 -30.8258 	 -89.9864 	 
H 	 -30.4698 	 -30.6549 	 -91.0095 	 
H 	 -31.7169 	 -31.5309 	 -90.0096 	 
H 	 -31.3708 	 -29.9143 	 -89.6678 	 
S 	 -30.8998 	 -37.5298 	 -92.247 	 
C 	 -31.6225 	 -37.7744 	 -93.8024 	 
C 	 -32.2867 	 -36.6541 	 -94.2326 	 
C 	 -32.1673 	 -35.63 	 -93.2468 	 
C 	 -31.4063 	 -35.8843 	 -92.1011 	 
H 	 -32.8394 	 -36.5744 	 -95.1935 	 
C 	 -32.8865 	 -34.281 	 -93.496 	 
H 	 -32.8539 	 -33.6107 	 -92.653 	 
H 	 -33.9504 	 -34.5726 	 -93.7228 	 
C 	 -32.1976 	 -33.5515 	 -94.6602 	 
H 	 -31.9363 	 -34.1235 	 -95.5938 	 
H 	 -31.2395 	 -33.2097 	 -94.2355 	 
C 	 -32.9095 	 -32.3287 	 -94.9977 	 
H 	 -33.899 	 -32.4367 	 -95.2141 	 
H 	 -32.4693 	 -31.8579 	 -95.9334 	 
H 	 -32.7945 	 -31.6177 	 -94.1797 	 
H 	 -30.4772 	 -34.4648 	 -87.3898 	 
H 	 -31.6327 	 -38.6276 	 -94.4401 	 
*
