! wB97X-D3 SP def2-SVP
%pal
nprocs 24
end

* xyz 0 1
S 	 -107.422 	 1.00847 	 -113.049 	 
C 	 -108.99 	 1.79033 	 -112.913 	 
C 	 -109.85 	 1.37583 	 -113.927 	 
C 	 -109.123 	 0.674458 	 -114.966 	 
C 	 -107.788 	 0.424288 	 -114.634 	 
H 	 -109.619 	 0.200995 	 -115.825 	 
C 	 -111.23 	 1.96345 	 -114.108 	 
H 	 -111.148 	 3.11357 	 -114.267 	 
H 	 -111.733 	 1.86537 	 -113.2 	 
C 	 -112.159 	 1.3428 	 -115.301 	 
H 	 -111.663 	 1.33566 	 -116.282 	 
H 	 -112.346 	 0.308321 	 -115.04 	 
C 	 -113.511 	 2.1173 	 -115.484 	 
H 	 -114.069 	 2.43569 	 -114.609 	 
H 	 -113.265 	 3.09491 	 -116.056 	 
H 	 -114.128 	 1.63982 	 -116.192 	 
S 	 -106.544 	 -0.0156023 	 -116.991 	 
C 	 -105.763 	 -1.54386 	 -117.304 	 
C 	 -105.742 	 -2.36382 	 -116.192 	 
C 	 -106.41 	 -1.7366 	 -115.056 	 
C 	 -106.907 	 -0.454693 	 -115.364 	 
H 	 -105.142 	 -3.30253 	 -116.33 	 
C 	 -106.711 	 -2.43271 	 -113.747 	 
H 	 -106.584 	 -1.62129 	 -112.969 	 
H 	 -105.914 	 -3.17225 	 -113.401 	 
C 	 -108.002 	 -3.10854 	 -113.483 	 
H 	 -108.772 	 -2.34017 	 -113.641 	 
H 	 -108.048 	 -3.48279 	 -112.372 	 
C 	 -108.334 	 -4.33624 	 -114.359 	 
H 	 -107.984 	 -5.23561 	 -113.869 	 
H 	 -107.771 	 -4.24953 	 -115.313 	 
H 	 -109.395 	 -4.41187 	 -114.539 	 
H 	 -109.311 	 2.46799 	 -112.137 	 
H 	 -105.282 	 -1.82759 	 -118.218 	 
*
