! wB97X-D3 SP def2-SVP
%pal
nprocs 24
end

* xyz 0 1
S 	 -52.545 	 21.6307 	 30.2919 	 
C 	 -51.0617 	 22.4831 	 30.4914 	 
C 	 -50.28 	 21.7461 	 31.3379 	 
C 	 -50.7525 	 20.4461 	 31.5912 	 
C 	 -51.9092 	 20.1352 	 30.9307 	 
H 	 -50.2515 	 19.7374 	 32.267 	 
C 	 -48.8672 	 22.0994 	 31.7715 	 
H 	 -48.785 	 21.8151 	 32.8464 	 
H 	 -48.929 	 23.2531 	 31.7401 	 
C 	 -47.7202 	 21.5892 	 30.8408 	 
H 	 -47.8695 	 21.8338 	 29.8328 	 
H 	 -46.8124 	 22.1274 	 30.986 	 
C 	 -47.36 	 20.1805 	 31.0115 	 
H 	 -46.5258 	 20.061 	 30.346 	 
H 	 -47.147 	 19.9841 	 32.0536 	 
H 	 -48.1531 	 19.5218 	 30.7391 	 
S 	 -54.3243 	 18.8841 	 31.2349 	 
C 	 -54.4417 	 17.1561 	 31.4942 	 
C 	 -53.1708 	 16.6035 	 31.3654 	 
C 	 -52.093 	 17.5619 	 31.2274 	 
C 	 -52.6098 	 18.8719 	 31.0216 	 
H 	 -52.9463 	 15.5992 	 31.394 	 
C 	 -50.6311 	 17.0661 	 31.2713 	 
H 	 -50.0134 	 17.8547 	 30.9033 	 
H 	 -50.5205 	 16.2728 	 30.5067 	 
C 	 -50.1678 	 16.5264 	 32.5979 	 
H 	 -50.8578 	 15.7872 	 32.9921 	 
H 	 -50.0845 	 17.2997 	 33.3578 	 
C 	 -48.8376 	 15.7129 	 32.515 	 
H 	 -48.8183 	 15.0329 	 31.6801 	 
H 	 -48.6559 	 15.0319 	 33.3218 	 
H 	 -47.8912 	 16.2958 	 32.2241 	 
H 	 -50.8035 	 23.4784 	 30.1605 	 
H 	 -55.3273 	 16.6028 	 31.5977 	 
*
