! wB97X-D3 SP def2-SVP
%pal
nprocs 24
end

* xyz 0 1
S 	 -124.769 	 17.9144 	 -21.5129 	 
C 	 -123.813 	 18.6826 	 -20.2869 	 
C 	 -122.602 	 19.1995 	 -20.7606 	 
C 	 -122.731 	 19.3757 	 -22.206 	 
C 	 -123.726 	 18.5617 	 -22.7693 	 
H 	 -122.017 	 19.873 	 -22.8342 	 
C 	 -121.533 	 19.947 	 -19.8984 	 
H 	 -122.019 	 20.384 	 -19.0321 	 
H 	 -121.16 	 20.6965 	 -20.545 	 
C 	 -120.497 	 19.0196 	 -19.3079 	 
H 	 -120.987 	 18.2531 	 -18.7171 	 
H 	 -119.982 	 18.5195 	 -20.0555 	 
C 	 -119.485 	 19.7345 	 -18.3544 	 
H 	 -118.937 	 20.4446 	 -18.9321 	 
H 	 -119.986 	 20.2242 	 -17.4684 	 
H 	 -118.748 	 18.9935 	 -17.9981 	 
S 	 -124.096 	 19.9842 	 -25.1979 	 
C 	 -124.774 	 19.1162 	 -26.4818 	 
C 	 -124.845 	 17.7847 	 -26.2529 	 
C 	 -124.417 	 17.4116 	 -24.9725 	 
C 	 -124.049 	 18.5046 	 -24.1752 	 
H 	 -125.123 	 17.1279 	 -27.061 	 
C 	 -124.522 	 15.9305 	 -24.5388 	 
H 	 -125.372 	 15.4797 	 -25.0471 	 
H 	 -124.836 	 15.8869 	 -23.4654 	 
C 	 -123.304 	 14.9383 	 -24.7455 	 
H 	 -123.678 	 13.9137 	 -24.461 	 
H 	 -122.581 	 15.1693 	 -23.9683 	 
C 	 -122.651 	 15.0132 	 -26.1766 	 
H 	 -122.092 	 14.043 	 -26.413 	 
H 	 -121.991 	 15.821 	 -26.181 	 
H 	 -123.441 	 15.1303 	 -26.9708 	 
H 	 -123.966 	 18.5985 	 -19.2397 	 
H 	 -125.008 	 19.5775 	 -27.3819 	 
*
