! wB97X-D3 SP def2-SVP
%pal
nprocs 24
end

* xyz 0 1
S 	 -51.663 	 12.6239 	 -105.306 	 
C 	 -53.1182 	 12.1776 	 -106.169 	 
C 	 -54.1824 	 12.9653 	 -105.707 	 
C 	 -53.8463 	 13.6957 	 -104.534 	 
C 	 -52.495 	 13.6467 	 -104.19 	 
H 	 -54.5876 	 14.1947 	 -103.991 	 
C 	 -55.5768 	 13.0784 	 -106.467 	 
H 	 -55.4337 	 12.7022 	 -107.497 	 
H 	 -55.9061 	 14.1357 	 -106.591 	 
C 	 -56.7072 	 12.3131 	 -105.733 	 
H 	 -56.3707 	 11.2913 	 -105.519 	 
H 	 -56.7333 	 12.7833 	 -104.737 	 
C 	 -58.1747 	 12.45 	 -106.271 	 
H 	 -58.7913 	 11.8137 	 -105.547 	 
H 	 -58.5321 	 13.4781 	 -106.15 	 
H 	 -58.3688 	 12.1782 	 -107.315 	 
S 	 -51.8294 	 13.2636 	 -101.618 	 
C 	 -51.1226 	 14.5041 	 -100.641 	 
C 	 -51.0335 	 15.6361 	 -101.34 	 
C 	 -51.431 	 15.5015 	 -102.687 	 
C 	 -51.8833 	 14.2326 	 -103.006 	 
H 	 -50.6851 	 16.5606 	 -100.815 	 
C 	 -51.4792 	 16.7193 	 -103.597 	 
H 	 -51.5688 	 16.4063 	 -104.589 	 
H 	 -50.4521 	 17.1669 	 -103.552 	 
C 	 -52.4346 	 17.8555 	 -103.294 	 
H 	 -52.1731 	 18.7017 	 -103.956 	 
H 	 -52.4379 	 18.1291 	 -102.227 	 
C 	 -53.8507 	 17.6062 	 -103.749 	 
H 	 -53.812 	 17.1846 	 -104.766 	 
H 	 -54.471 	 18.52 	 -103.801 	 
H 	 -54.287 	 16.8928 	 -103.077 	 
H 	 -53.1163 	 11.4981 	 -107.063 	 
H 	 -50.7147 	 14.3846 	 -99.6624 	 
*
