! wB97X-D3 SP def2-SVP
%pal
nprocs 24
end

* xyz 0 1
S 	 -108.996 	 55.4044 	 -90.9389 	 
C 	 -110.18 	 54.8883 	 -92.1286 	 
C 	 -111.181 	 54.0987 	 -91.5844 	 
C 	 -110.883 	 53.8838 	 -90.1904 	 
C 	 -109.75 	 54.5061 	 -89.6903 	 
H 	 -111.371 	 53.2613 	 -89.5062 	 
C 	 -112.39 	 53.4467 	 -92.3047 	 
H 	 -112.217 	 52.6037 	 -93.0546 	 
H 	 -112.85 	 54.1655 	 -92.898 	 
C 	 -113.357 	 52.8007 	 -91.3087 	 
H 	 -112.813 	 51.933 	 -90.9129 	 
H 	 -113.396 	 53.4782 	 -90.5175 	 
C 	 -114.8 	 52.529 	 -91.7735 	 
H 	 -115.559 	 52.0086 	 -91.1582 	 
H 	 -115.275 	 53.4323 	 -92.1227 	 
H 	 -114.643 	 51.7411 	 -92.4811 	 
S 	 -108.89 	 56.1165 	 -87.6845 	 
C 	 -108.546 	 55.4732 	 -86.071 	 
C 	 -108.787 	 54.0986 	 -85.9927 	 
C 	 -109.085 	 53.5251 	 -87.2857 	 
C 	 -109.184 	 54.5105 	 -88.34 	 
H 	 -108.757 	 53.6993 	 -85.035 	 
C 	 -109.461 	 52.0384 	 -87.5251 	 
H 	 -108.718 	 51.6337 	 -88.171 	 
H 	 -110.389 	 51.9503 	 -88.0772 	 
C 	 -109.697 	 51.2039 	 -86.2554 	 
H 	 -110.299 	 50.3115 	 -86.594 	 
H 	 -110.443 	 51.7379 	 -85.5967 	 
C 	 -108.478 	 50.7523 	 -85.5619 	 
H 	 -108.288 	 51.5337 	 -84.916 	 
H 	 -107.64 	 50.6851 	 -86.1587 	 
H 	 -108.606 	 49.8909 	 -84.8638 	 
H 	 -110.053 	 55.0962 	 -93.1129 	 
H 	 -108.273 	 55.9051 	 -85.125 	 
*
