! wB97X-D3 SP def2-SVP
%pal
nprocs 24
end

* xyz 0 1
S 	 -110.211 	 52.9199 	 -90.4651 	 
C 	 -108.705 	 52.9193 	 -89.5381 	 
C 	 -107.841 	 53.9328 	 -89.8946 	 
C 	 -108.373 	 54.6725 	 -90.9706 	 
C 	 -109.648 	 54.3585 	 -91.3859 	 
H 	 -107.857 	 55.4922 	 -91.4314 	 
C 	 -106.459 	 54.2204 	 -89.3807 	 
H 	 -105.784 	 54.2267 	 -90.1943 	 
H 	 -106.143 	 53.3699 	 -88.6894 	 
C 	 -106.416 	 55.628 	 -88.7161 	 
H 	 -106.433 	 56.2981 	 -89.5728 	 
H 	 -107.386 	 55.717 	 -88.168 	 
C 	 -105.1 	 55.9208 	 -87.923 	 
H 	 -105.016 	 55.1889 	 -87.1574 	 
H 	 -104.312 	 55.7509 	 -88.6486 	 
H 	 -105.173 	 56.8761 	 -87.4503 	 
S 	 -111.708 	 54.216 	 -93.0848 	 
C 	 -112.27 	 55.4608 	 -94.146 	 
C 	 -111.544 	 56.5673 	 -93.7515 	 
C 	 -110.468 	 56.3966 	 -92.7272 	 
C 	 -110.442 	 55.08 	 -92.3139 	 
H 	 -111.813 	 57.5443 	 -94.1668 	 
C 	 -109.722 	 57.6267 	 -92.1969 	 
H 	 -109.139 	 58.1055 	 -93.0481 	 
H 	 -108.986 	 57.2645 	 -91.4906 	 
C 	 -110.551 	 58.7043 	 -91.4066 	 
H 	 -111.026 	 58.1854 	 -90.5688 	 
H 	 -111.423 	 58.9072 	 -92.0282 	 
C 	 -109.698 	 59.8228 	 -90.775 	 
H 	 -110.376 	 60.259 	 -90.0067 	 
H 	 -109.522 	 60.6341 	 -91.4597 	 
H 	 -108.722 	 59.5411 	 -90.4524 	 
H 	 -108.44 	 52.2288 	 -88.7232 	 
H 	 -112.944 	 55.4105 	 -95.0088 	 
*
