! wB97X-D3 SP def2-SVP
%pal
nprocs 24
end

* xyz 0 1
S 	 -90.3074 	 -31.0926 	 -54.1318 	 
C 	 -89.2612 	 -32.5575 	 -54.1921 	 
C 	 -88.1295 	 -32.3468 	 -55.015 	 
C 	 -88.1078 	 -30.9705 	 -55.3842 	 
C 	 -89.1458 	 -30.1968 	 -54.9532 	 
H 	 -87.4319 	 -30.4552 	 -56.0317 	 
C 	 -87.0791 	 -33.3202 	 -55.3576 	 
H 	 -87.6014 	 -34.2486 	 -55.0968 	 
H 	 -86.3293 	 -33.0989 	 -54.5726 	 
C 	 -86.5574 	 -33.5256 	 -56.8153 	 
H 	 -86.1688 	 -34.4913 	 -56.9543 	 
H 	 -87.4637 	 -33.3848 	 -57.3979 	 
C 	 -85.4984 	 -32.5358 	 -57.2088 	 
H 	 -85.0213 	 -32.8268 	 -58.1847 	 
H 	 -85.8872 	 -31.5094 	 -57.251 	 
H 	 -84.6152 	 -32.4838 	 -56.5267 	 
S 	 -89.5287 	 -28.0378 	 -56.6198 	 
C 	 -89.4169 	 -26.4617 	 -56.0108 	 
C 	 -89.3592 	 -26.5059 	 -54.6202 	 
C 	 -89.3251 	 -27.8404 	 -54.0686 	 
C 	 -89.1695 	 -28.7424 	 -55.0671 	 
H 	 -89.3062 	 -25.6054 	 -54.1085 	 
C 	 -89.3396 	 -27.9993 	 -52.5411 	 
H 	 -89.9333 	 -28.806 	 -52.1877 	 
H 	 -89.7509 	 -27.0735 	 -52.2877 	 
C 	 -87.8671 	 -27.95 	 -51.9129 	 
H 	 -87.5042 	 -26.917 	 -51.962 	 
H 	 -87.3375 	 -28.5173 	 -52.6598 	 
C 	 -87.6572 	 -28.4676 	 -50.549 	 
H 	 -88.0382 	 -27.7982 	 -49.7924 	 
H 	 -86.5286 	 -28.6075 	 -50.4941 	 
H 	 -87.9806 	 -29.4657 	 -50.381 	 
H 	 -89.4353 	 -33.4474 	 -53.7305 	 
H 	 -89.4631 	 -25.5265 	 -56.5811 	 
*
