! wB97X-D3 SP def2-SVP
%pal
nprocs 24
end

* xyz 0 1
S 	 -16.5174 	 -35.9255 	 -93.0979 	 
C 	 -14.9825 	 -36.3812 	 -93.6368 	 
C 	 -14.2801 	 -35.3191 	 -94.2143 	 
C 	 -14.9949 	 -34.1145 	 -94.1168 	 
C 	 -16.2461 	 -34.2517 	 -93.5141 	 
H 	 -14.6755 	 -33.1577 	 -94.5583 	 
C 	 -12.8938 	 -35.5565 	 -94.9412 	 
H 	 -11.999 	 -35.8565 	 -94.3478 	 
H 	 -12.6657 	 -34.5411 	 -95.2651 	 
C 	 -12.9199 	 -36.4846 	 -96.1894 	 
H 	 -12.7468 	 -37.5172 	 -95.8781 	 
H 	 -13.8771 	 -36.473 	 -96.696 	 
C 	 -11.6872 	 -36.2439 	 -97.1018 	 
H 	 -10.7648 	 -36.4352 	 -96.5885 	 
H 	 -11.7742 	 -36.9646 	 -97.9481 	 
H 	 -11.625 	 -35.2983 	 -97.4917 	 
S 	 -18.6247 	 -33.1618 	 -93.8133 	 
C 	 -19.0162 	 -31.6169 	 -93.1929 	 
C 	 -18.0106 	 -31.0765 	 -92.4928 	 
C 	 -16.8618 	 -31.9287 	 -92.4161 	 
C 	 -17.0936 	 -33.1612 	 -93.0743 	 
H 	 -17.9758 	 -30.0812 	 -92.0649 	 
C 	 -15.5676 	 -31.4539 	 -91.6844 	 
H 	 -15.1334 	 -30.5774 	 -92.1535 	 
H 	 -14.8644 	 -32.2892 	 -91.671 	 
C 	 -15.884 	 -31.075 	 -90.2553 	 
H 	 -16.5952 	 -31.8904 	 -89.9644 	 
H 	 -16.5203 	 -30.1771 	 -90.1347 	 
C 	 -14.6769 	 -31.1331 	 -89.3408 	 
H 	 -14.0184 	 -30.3183 	 -89.5835 	 
H 	 -14.275 	 -32.1074 	 -89.495 	 
H 	 -14.8425 	 -31.1041 	 -88.2826 	 
H 	 -14.6414 	 -37.4228 	 -93.5944 	 
H 	 -19.817 	 -30.925 	 -93.3621 	 
*
