! wB97X-D3 SP def2-SVP
%pal
nprocs 24
end

* xyz 0 1
S 	 -124.11 	 58.8323 	 -55.391 	 
C 	 -124.332 	 59.8921 	 -56.7375 	 
C 	 -124.522 	 61.2474 	 -56.3935 	 
C 	 -124.427 	 61.4013 	 -54.9952 	 
C 	 -124.196 	 60.2291 	 -54.3205 	 
H 	 -124.482 	 62.2913 	 -54.4899 	 
C 	 -124.637 	 62.3691 	 -57.3782 	 
H 	 -124.868 	 61.9495 	 -58.3471 	 
H 	 -123.642 	 62.823 	 -57.5474 	 
C 	 -125.678 	 63.4302 	 -56.9857 	 
H 	 -126.079 	 63.8999 	 -57.9146 	 
H 	 -126.482 	 63.0294 	 -56.3108 	 
C 	 -125.122 	 64.6612 	 -56.12 	 
H 	 -125.747 	 65.555 	 -56.2356 	 
H 	 -125.152 	 64.2212 	 -55.0963 	 
H 	 -124.102 	 64.8951 	 -56.3189 	 
S 	 -125.743 	 60.2725 	 -52.1284 	 
C 	 -125.062 	 60.2555 	 -50.518 	 
C 	 -123.73 	 59.8722 	 -50.5236 	 
C 	 -123.271 	 59.8037 	 -51.8933 	 
C 	 -124.237 	 60.0258 	 -52.8661 	 
H 	 -123.129 	 59.7489 	 -49.5797 	 
C 	 -121.768 	 59.6794 	 -52.2484 	 
H 	 -121.653 	 59.6615 	 -53.3702 	 
H 	 -121.507 	 58.6232 	 -52.0753 	 
C 	 -120.832 	 60.722 	 -51.6005 	 
H 	 -120.976 	 60.7989 	 -50.5452 	 
H 	 -121.201 	 61.6022 	 -51.9858 	 
C 	 -119.343 	 60.6402 	 -51.9843 	 
H 	 -118.707 	 61.5495 	 -52.0364 	 
H 	 -119.312 	 60.2461 	 -52.9758 	 
H 	 -118.786 	 59.934 	 -51.3707 	 
H 	 -124.419 	 59.6095 	 -57.782 	 
H 	 -125.65 	 60.3586 	 -49.6088 	 
*
