! wB97X-D3 SP def2-SVP
%pal
nprocs 24
end

* xyz 0 1
S 	 -107.586 	 52.2161 	 -111.247 	 
C 	 -106.571 	 53.5655 	 -110.951 	 
C 	 -106.742 	 54.0806 	 -109.746 	 
C 	 -107.762 	 53.373 	 -109.022 	 
C 	 -108.386 	 52.3385 	 -109.704 	 
H 	 -108.237 	 53.6207 	 -108.061 	 
C 	 -106.05 	 55.2854 	 -109.117 	 
H 	 -106.587 	 55.5374 	 -108.192 	 
H 	 -106.242 	 56.0496 	 -109.886 	 
C 	 -104.492 	 55.1162 	 -108.789 	 
H 	 -104.02 	 54.7755 	 -109.732 	 
H 	 -104.146 	 56.1092 	 -108.642 	 
C 	 -104.14 	 54.1399 	 -107.677 	 
H 	 -103.047 	 54.2386 	 -107.28 	 
H 	 -104.887 	 54.382 	 -106.911 	 
H 	 -104.312 	 53.0786 	 -108.052 	 
S 	 -109.584 	 51.0018 	 -107.559 	 
C 	 -111.28 	 50.439 	 -107.729 	 
C 	 -111.571 	 50.3452 	 -109.023 	 
C 	 -110.622 	 50.9031 	 -109.908 	 
C 	 -109.443 	 51.4204 	 -109.272 	 
H 	 -112.519 	 50.0263 	 -109.382 	 
C 	 -110.878 	 50.9363 	 -111.377 	 
H 	 -111.459 	 50.1256 	 -111.638 	 
H 	 -109.877 	 50.7712 	 -111.831 	 
C 	 -111.438 	 52.2626 	 -112.046 	 
H 	 -111.927 	 52.0338 	 -112.983 	 
H 	 -110.689 	 52.8689 	 -112.447 	 
C 	 -112.319 	 53.0831 	 -111.095 	 
H 	 -111.736 	 53.2447 	 -110.15 	 
H 	 -113.203 	 52.3976 	 -110.863 	 
H 	 -112.609 	 53.9628 	 -111.625 	 
H 	 -105.845 	 53.9713 	 -111.628 	 
H 	 -112.021 	 50.2308 	 -107.019 	 
*
