! wB97X-D3 SP def2-SVP
%pal
nprocs 24
end

* xyz 0 1
S 	 -110.119 	 52.557 	 -89.8458 	 
C 	 -108.387 	 52.3797 	 -89.9526 	 
C 	 -107.796 	 53.6292 	 -89.8377 	 
C 	 -108.755 	 54.7265 	 -89.846 	 
C 	 -110.017 	 54.2905 	 -89.9351 	 
H 	 -108.405 	 55.794 	 -89.7293 	 
C 	 -106.333 	 53.8426 	 -89.5926 	 
H 	 -105.906 	 53.396 	 -88.7098 	 
H 	 -106.196 	 54.9042 	 -89.3622 	 
C 	 -105.351 	 53.4915 	 -90.7447 	 
H 	 -105.7 	 53.9656 	 -91.6718 	 
H 	 -104.355 	 53.8024 	 -90.6796 	 
C 	 -105.361 	 52.018 	 -90.9807 	 
H 	 -106.31 	 51.6256 	 -91.3346 	 
H 	 -104.673 	 51.7612 	 -91.8384 	 
H 	 -105.012 	 51.4034 	 -90.1669 	 
S 	 -112.417 	 54.7389 	 -91.1166 	 
C 	 -113.455 	 56.0322 	 -90.5316 	 
C 	 -112.83 	 56.7659 	 -89.5503 	 
C 	 -111.534 	 56.2368 	 -89.1617 	 
C 	 -111.209 	 55.1172 	 -89.9323 	 
H 	 -113.371 	 57.5532 	 -89.0576 	 
C 	 -110.728 	 56.8608 	 -87.9645 	 
H 	 -111.132 	 57.791 	 -87.5659 	 
H 	 -109.794 	 57.1679 	 -88.2955 	 
C 	 -110.553 	 55.9571 	 -86.7247 	 
H 	 -109.986 	 55.069 	 -87.0761 	 
H 	 -111.444 	 55.4992 	 -86.3908 	 
C 	 -109.62 	 56.4964 	 -85.5892 	 
H 	 -110.127 	 57.0154 	 -84.7899 	 
H 	 -108.976 	 57.2455 	 -85.8871 	 
H 	 -109.075 	 55.6891 	 -85.1242 	 
H 	 -107.944 	 51.4947 	 -89.6474 	 
H 	 -114.429 	 56.312 	 -90.8906 	 
*
