! wB97X-D3 SP def2-SVP
%pal
nprocs 24
end

* xyz 0 1
S 	 -104.543 	 23.2677 	 -119.11 	 
C 	 -104.451 	 23.5609 	 -117.381 	 
C 	 -105.439 	 22.7911 	 -116.808 	 
C 	 -106.054 	 21.8491 	 -117.712 	 
C 	 -105.459 	 21.7816 	 -118.952 	 
H 	 -106.803 	 21.0978 	 -117.514 	 
C 	 -105.969 	 23.0326 	 -115.42 	 
H 	 -106.341 	 22.047 	 -115.205 	 
H 	 -106.752 	 23.7552 	 -115.491 	 
C 	 -105.003 	 23.3825 	 -114.307 	 
H 	 -104.638 	 24.3127 	 -114.573 	 
H 	 -105.683 	 23.4501 	 -113.451 	 
C 	 -103.744 	 22.4813 	 -114.163 	 
H 	 -103.018 	 22.4972 	 -114.999 	 
H 	 -103.086 	 22.7606 	 -113.313 	 
H 	 -104.179 	 21.4119 	 -114.085 	 
S 	 -106.008 	 21.6817 	 -121.668 	 
C 	 -106.307 	 20.1811 	 -122.45 	 
C 	 -106.143 	 19.1292 	 -121.574 	 
C 	 -105.872 	 19.5401 	 -120.261 	 
C 	 -105.689 	 20.9059 	 -120.121 	 
H 	 -106.259 	 18.0629 	 -121.88 	 
C 	 -105.575 	 18.6092 	 -119.1 	 
H 	 -105.654 	 19.1746 	 -118.18 	 
H 	 -104.524 	 18.3029 	 -119.077 	 
C 	 -106.589 	 17.4145 	 -118.948 	 
H 	 -106.688 	 16.7933 	 -119.798 	 
H 	 -107.52 	 17.8213 	 -118.769 	 
C 	 -106.168 	 16.3979 	 -117.798 	 
H 	 -106.392 	 16.7704 	 -116.818 	 
H 	 -105.103 	 16.2479 	 -117.847 	 
H 	 -106.509 	 15.4649 	 -117.935 	 
H 	 -104.083 	 24.4677 	 -116.954 	 
H 	 -106.638 	 20.1667 	 -123.43 	 
*
