! wB97X-D3 SP def2-SVP
%pal
nprocs 24
end

* xyz 0 1
S 	 -139.437 	 4.40682 	 3.35715 	 
C 	 -139.249 	 2.99724 	 2.30837 	 
C 	 -138.799 	 1.88635 	 2.95866 	 
C 	 -138.667 	 2.23318 	 4.35698 	 
C 	 -138.834 	 3.56096 	 4.6938 	 
H 	 -138.46 	 1.62085 	 5.14736 	 
C 	 -138.565 	 0.453113 	 2.38607 	 
H 	 -138.284 	 0.495972 	 1.32339 	 
H 	 -139.57 	 0.02129 	 2.31614 	 
C 	 -137.67 	 -0.481066 	 3.23817 	 
H 	 -136.667 	 -0.0426237 	 3.4184 	 
H 	 -138.164 	 -0.62741 	 4.192 	 
C 	 -137.578 	 -1.86356 	 2.51241 	 
H 	 -138.554 	 -2.30065 	 2.41732 	 
H 	 -136.999 	 -1.6498 	 1.58976 	 
H 	 -137.013 	 -2.65 	 3.01819 	 
S 	 -137.481 	 5.70767 	 5.69696 	 
C 	 -137.447 	 6.06843 	 7.39983 	 
C 	 -138.013 	 4.97637 	 8.04628 	 
C 	 -138.635 	 3.89271 	 7.2732 	 
C 	 -138.497 	 4.25434 	 5.93093 	 
H 	 -138.055 	 5.0305 	 9.14667 	 
C 	 -139.479 	 2.84406 	 7.88905 	 
H 	 -140.097 	 2.41197 	 7.07578 	 
H 	 -140.068 	 3.34846 	 8.56745 	 
C 	 -138.774 	 1.75009 	 8.71301 	 
H 	 -139.493 	 1.17954 	 9.28332 	 
H 	 -138.125 	 2.28045 	 9.42288 	 
C 	 -137.896 	 0.737785 	 7.85001 	 
H 	 -137.353 	 0.171793 	 8.57357 	 
H 	 -137.226 	 1.29746 	 7.21165 	 
H 	 -138.484 	 0.125529 	 7.2021 	 
H 	 -139.562 	 3.18392 	 1.27846 	 
H 	 -137.094 	 6.99298 	 7.92284 	 
*
