! wB97X-D3 SP def2-SVP
%pal
nprocs 24
end

* xyz 0 1
S 	 -62.9683 	 13.0248 	 -106.589 	 
C 	 -64.4867 	 13.8973 	 -106.52 	 
C 	 -64.5561 	 14.7062 	 -105.397 	 
C 	 -63.4119 	 14.4612 	 -104.498 	 
C 	 -62.4634 	 13.6091 	 -105.051 	 
H 	 -63.1427 	 15.0699 	 -103.701 	 
C 	 -65.6616 	 15.6676 	 -105.043 	 
H 	 -66.1853 	 15.1911 	 -104.26 	 
H 	 -66.3974 	 15.7452 	 -105.867 	 
C 	 -65.232 	 17.1364 	 -104.805 	 
H 	 -64.5927 	 17.1308 	 -103.887 	 
H 	 -64.5296 	 17.6028 	 -105.575 	 
C 	 -66.3965 	 18.0733 	 -104.465 	 
H 	 -66.9555 	 17.8729 	 -103.543 	 
H 	 -65.9197 	 19.0365 	 -104.373 	 
H 	 -67.1279 	 18.2344 	 -105.163 	 
S 	 -60.7724 	 11.8169 	 -103.855 	 
C 	 -59.1215 	 12.3231 	 -103.44 	 
C 	 -58.9574 	 13.6526 	 -103.781 	 
C 	 -60.0634 	 14.2157 	 -104.453 	 
C 	 -61.1476 	 13.3341 	 -104.606 	 
H 	 -57.9656 	 14.0664 	 -103.611 	 
C 	 -60.1271 	 15.6021 	 -105.012 	 
H 	 -60.9785 	 15.7254 	 -105.767 	 
H 	 -59.1982 	 15.6242 	 -105.688 	 
C 	 -60.2259 	 16.727 	 -103.942 	 
H 	 -59.4494 	 16.5867 	 -103.245 	 
H 	 -61.1545 	 16.6756 	 -103.247 	 
C 	 -60.1372 	 18.1228 	 -104.69 	 
H 	 -59.3853 	 18.1493 	 -105.534 	 
H 	 -59.8164 	 18.8854 	 -104.006 	 
H 	 -61.1369 	 18.5025 	 -105.108 	 
H 	 -65.2123 	 14.045 	 -107.299 	 
H 	 -58.3358 	 11.8001 	 -102.937 	 
*
