! wB97X-D3 SP def2-SVP
%pal
nprocs 24
end

* xyz 0 1
S 	 -134.562 	 31.9457 	 -19.7199 	 
C 	 -132.89 	 31.6771 	 -19.4797 	 
C 	 -132.565 	 30.4149 	 -19.9688 	 
C 	 -133.695 	 29.775 	 -20.6451 	 
C 	 -134.849 	 30.4444 	 -20.5974 	 
H 	 -133.653 	 28.8027 	 -21.1481 	 
C 	 -131.131 	 29.8749 	 -19.9434 	 
H 	 -130.414 	 30.5265 	 -20.4063 	 
H 	 -131.139 	 28.9978 	 -20.5519 	 
C 	 -130.443 	 29.682 	 -18.5945 	 
H 	 -129.465 	 29.305 	 -18.8264 	 
H 	 -130.387 	 30.715 	 -18.1648 	 
C 	 -131.101 	 28.7113 	 -17.5637 	 
H 	 -130.614 	 28.6152 	 -16.6043 	 
H 	 -132.161 	 28.8974 	 -17.4558 	 
H 	 -131.162 	 27.7173 	 -17.9192 	 
S 	 -137.214 	 29.2977 	 -19.747 	 
C 	 -138.371 	 28.6638 	 -20.9269 	 
C 	 -137.891 	 28.855 	 -22.1794 	 
C 	 -136.623 	 29.5152 	 -22.2735 	 
C 	 -136.183 	 29.9518 	 -21.0298 	 
H 	 -138.543 	 28.4783 	 -22.9201 	 
C 	 -135.872 	 29.746 	 -23.5396 	 
H 	 -136.358 	 29.2036 	 -24.3555 	 
H 	 -134.92 	 29.36 	 -23.4645 	 
C 	 -135.86 	 31.1991 	 -23.9831 	 
H 	 -135.446 	 31.8076 	 -23.1677 	 
H 	 -136.826 	 31.5902 	 -24.1313 	 
C 	 -135.123 	 31.2895 	 -25.3201 	 
H 	 -134.997 	 32.3603 	 -25.6337 	 
H 	 -135.638 	 30.7063 	 -26.0954 	 
H 	 -134.145 	 30.8624 	 -25.1625 	 
H 	 -132.221 	 32.4222 	 -19.1287 	 
H 	 -139.337 	 28.2518 	 -20.7431 	 
*
