! wB97X-D3 SP def2-SVP
%pal
nprocs 24
end

* xyz 0 1
S 	 -125.828 	 28.5643 	 -20.2666 	 
C 	 -126.171 	 30.0001 	 -21.2997 	 
C 	 -127.578 	 30.0097 	 -21.63 	 
C 	 -128.291 	 28.9455 	 -21.0645 	 
C 	 -127.511 	 28.1632 	 -20.2355 	 
H 	 -129.371 	 28.8226 	 -20.9908 	 
C 	 -128.222 	 31.0965 	 -22.4342 	 
H 	 -128.028 	 30.8576 	 -23.4712 	 
H 	 -127.798 	 32.0834 	 -22.2783 	 
C 	 -129.73 	 31.2867 	 -22.3977 	 
H 	 -130.007 	 32.1795 	 -22.9698 	 
H 	 -130.271 	 30.3931 	 -22.7821 	 
C 	 -130.387 	 31.6485 	 -20.9644 	 
H 	 -130.063 	 31.0421 	 -20.088 	 
H 	 -130.179 	 32.6438 	 -20.5211 	 
H 	 -131.485 	 31.5598 	 -21.1537 	 
S 	 -126.98 	 25.6127 	 -19.3582 	 
C 	 -128.144 	 24.7071 	 -18.4564 	 
C 	 -129.174 	 25.5567 	 -18.1133 	 
C 	 -129.142 	 26.9291 	 -18.6641 	 
C 	 -127.974 	 27.0709 	 -19.4203 	 
H 	 -129.926 	 25.0857 	 -17.579 	 
C 	 -130.265 	 27.874 	 -18.4277 	 
H 	 -129.992 	 28.9223 	 -18.3395 	 
H 	 -130.519 	 27.6529 	 -17.396 	 
C 	 -131.564 	 27.7353 	 -19.155 	 
H 	 -132.042 	 26.7502 	 -18.9949 	 
H 	 -131.271 	 27.7097 	 -20.2675 	 
C 	 -132.539 	 28.908 	 -18.789 	 
H 	 -132.072 	 29.8714 	 -18.9868 	 
H 	 -132.751 	 28.8314 	 -17.7343 	 
H 	 -133.485 	 28.8469 	 -19.2471 	 
H 	 -125.43 	 30.6996 	 -21.3956 	 
H 	 -128.127 	 23.6343 	 -18.181 	 
*
