! wB97X-D3 SP def2-SVP
%pal
nprocs 24
end

* xyz 0 1
S 	 -128.017 	 28.235 	 -113.889 	 
C 	 -127.292 	 27.0737 	 -115.056 	 
C 	 -126.016 	 27.4478 	 -115.433 	 
C 	 -125.697 	 28.7409 	 -114.906 	 
C 	 -126.642 	 29.2972 	 -114.121 	 
H 	 -124.867 	 29.4031 	 -115.233 	 
C 	 -125.199 	 26.6671 	 -116.439 	 
H 	 -124.489 	 27.2871 	 -116.934 	 
H 	 -125.939 	 26.3307 	 -117.23 	 
C 	 -124.53 	 25.5298 	 -115.837 	 
H 	 -125.34 	 24.9959 	 -115.328 	 
H 	 -124.026 	 24.9412 	 -116.644 	 
C 	 -123.559 	 25.8799 	 -114.732 	 
H 	 -122.901 	 26.7657 	 -114.908 	 
H 	 -124.193 	 26.0836 	 -113.916 	 
H 	 -122.991 	 25.0096 	 -114.366 	 
S 	 -126.468 	 32.0572 	 -114.393 	 
C 	 -126.59 	 33.0435 	 -112.969 	 
C 	 -126.751 	 32.2971 	 -111.831 	 
C 	 -126.65 	 30.872 	 -112.057 	 
C 	 -126.56 	 30.5764 	 -113.424 	 
H 	 -126.909 	 32.7775 	 -110.905 	 
C 	 -126.777 	 29.8658 	 -110.922 	 
H 	 -126.309 	 28.9312 	 -111.129 	 
H 	 -127.84 	 29.7089 	 -110.872 	 
C 	 -126.191 	 30.1998 	 -109.633 	 
H 	 -126.553 	 31.1903 	 -109.363 	 
H 	 -125.123 	 30.2813 	 -109.711 	 
C 	 -126.558 	 29.22 	 -108.587 	 
H 	 -127.547 	 29.1677 	 -108.331 	 
H 	 -126.055 	 29.3776 	 -107.612 	 
H 	 -126.429 	 28.1572 	 -108.86 	 
H 	 -127.722 	 26.0512 	 -115.188 	 
H 	 -126.25 	 34.0871 	 -113.049 	 
*
