! wB97X-D3 SP def2-SVP
%pal
nprocs 24
end

* xyz 0 1
S 	 -86.1259 	 3.27023 	 6.65061 	 
C 	 -84.999 	 2.05239 	 6.1878 	 
C 	 -85.0657 	 1.77037 	 4.82768 	 
C 	 -86.1031 	 2.46255 	 4.20567 	 
C 	 -86.6958 	 3.44292 	 4.98757 	 
H 	 -86.3108 	 2.50467 	 3.14552 	 
C 	 -84.1896 	 0.7322 	 4.10645 	 
H 	 -84.5433 	 -0.285889 	 4.36377 	 
H 	 -83.222 	 0.833001 	 4.65192 	 
C 	 -83.8761 	 0.805039 	 2.59643 	 
H 	 -84.3669 	 -0.00188241 	 1.99178 	 
H 	 -84.417 	 1.72162 	 2.21458 	 
C 	 -82.351 	 1.06916 	 2.34339 	 
H 	 -82.1776 	 2.09301 	 2.80822 	 
H 	 -81.6334 	 0.34251 	 2.8153 	 
H 	 -82.2282 	 1.17686 	 1.27843 	 
S 	 -87.2337 	 6.05767 	 5.39825 	 
C 	 -88.5514 	 6.78979 	 4.55222 	 
C 	 -89.073 	 6.00241 	 3.5887 	 
C 	 -88.5797 	 4.65098 	 3.6793 	 
C 	 -87.4726 	 4.58957 	 4.55141 	 
H 	 -89.8149 	 6.4316 	 2.90814 	 
C 	 -89.008 	 3.51126 	 2.74777 	 
H 	 -90.0924 	 3.49347 	 2.68774 	 
H 	 -88.5493 	 2.61409 	 3.14801 	 
C 	 -88.566 	 3.73114 	 1.28404 	 
H 	 -87.4577 	 3.88207 	 1.20517 	 
H 	 -88.9493 	 4.70259 	 0.98328 	 
C 	 -88.8843 	 2.6218 	 0.357874 	 
H 	 -88.2464 	 2.72018 	 -0.430812 	 
H 	 -89.9172 	 2.5741 	 -0.0615986 	 
H 	 -88.6979 	 1.66733 	 0.837448 	 
H 	 -84.2119 	 1.72736 	 6.88245 	 
H 	 -88.7372 	 7.81841 	 4.60473 	 
*
