! wB97X-D3 SP def2-SVP
%pal
nprocs 24
end

* xyz 0 1
S 	 -130.621 	 26.2634 	 -15.3405 	 
C 	 -130.242 	 24.5991 	 -15.3764 	 
C 	 -131.376 	 23.7851 	 -15.2857 	 
C 	 -132.62 	 24.62 	 -15.276 	 
C 	 -132.381 	 25.9826 	 -15.3736 	 
H 	 -133.63 	 24.1941 	 -15.1627 	 
C 	 -131.403 	 22.2546 	 -15.3025 	 
H 	 -130.38 	 21.98 	 -15.3954 	 
H 	 -131.826 	 22.0575 	 -16.2513 	 
C 	 -131.982 	 21.547 	 -14.1073 	 
H 	 -133.039 	 21.8419 	 -14.0966 	 
H 	 -132.03 	 20.5366 	 -14.2294 	 
C 	 -131.265 	 21.8831 	 -12.801 	 
H 	 -131.514 	 22.9197 	 -12.45 	 
H 	 -131.46 	 21.2069 	 -11.9938 	 
H 	 -130.201 	 21.8903 	 -12.9032 	 
S 	 -132.972 	 28.3681 	 -14.0868 	 
C 	 -134.435 	 29.2377 	 -14.5739 	 
C 	 -135.195 	 28.4647 	 -15.4003 	 
C 	 -134.704 	 27.1784 	 -15.626 	 
C 	 -133.384 	 26.9703 	 -15.0904 	 
H 	 -136.04 	 28.8034 	 -16.013 	 
C 	 -135.323 	 26.2731 	 -16.696 	 
H 	 -134.619 	 25.5191 	 -17.0076 	 
H 	 -135.613 	 26.8176 	 -17.5656 	 
C 	 -136.589 	 25.5719 	 -16.2439 	 
H 	 -137.332 	 26.2645 	 -16.0623 	 
H 	 -136.553 	 25.0053 	 -15.2557 	 
C 	 -137.117 	 24.6877 	 -17.3793 	 
H 	 -138.104 	 24.3232 	 -17.0368 	 
H 	 -136.535 	 23.7813 	 -17.3604 	 
H 	 -137.286 	 25.1569 	 -18.3058 	 
H 	 -129.223 	 24.277 	 -15.3571 	 
H 	 -134.643 	 30.2566 	 -14.1635 	 
*
