! wB97X-D3 SP def2-SVP
%pal
nprocs 24
end

* xyz 0 1
S 	 -107.531 	 64.852 	 -74.2813 	 
C 	 -106.824 	 63.2109 	 -74.6123 	 
C 	 -107.79 	 62.2529 	 -74.7088 	 
C 	 -109.114 	 62.8547 	 -74.6499 	 
C 	 -109.106 	 64.2431 	 -74.6438 	 
H 	 -110.073 	 62.3581 	 -74.7247 	 
C 	 -107.515 	 60.7712 	 -74.7974 	 
H 	 -107.31 	 60.4327 	 -73.7887 	 
H 	 -106.561 	 60.6033 	 -75.2626 	 
C 	 -108.758 	 59.914 	 -75.3488 	 
H 	 -108.522 	 58.8711 	 -75.0646 	 
H 	 -109.637 	 60.0389 	 -74.6644 	 
C 	 -109.062 	 60.077 	 -76.8424 	 
H 	 -108.161 	 59.9637 	 -77.3871 	 
H 	 -109.792 	 59.3603 	 -77.156 	 
H 	 -109.529 	 60.9964 	 -77.1926 	 
S 	 -110.877 	 65.9608 	 -73.6157 	 
C 	 -112.413 	 66.2275 	 -74.4754 	 
C 	 -112.307 	 65.9353 	 -75.8276 	 
C 	 -111.077 	 65.1742 	 -76.0584 	 
C 	 -110.251 	 65.0704 	 -74.9097 	 
H 	 -113.071 	 66.1409 	 -76.5124 	 
C 	 -110.709 	 64.5682 	 -77.4063 	 
H 	 -111.57 	 63.9179 	 -77.6837 	 
H 	 -109.925 	 63.8222 	 -77.0653 	 
C 	 -110.29 	 65.4962 	 -78.5144 	 
H 	 -111.026 	 66.3008 	 -78.6234 	 
H 	 -110.406 	 64.9768 	 -79.4384 	 
C 	 -108.858 	 65.975 	 -78.224 	 
H 	 -108.534 	 66.5566 	 -79.0844 	 
H 	 -108.141 	 65.1575 	 -78.2227 	 
H 	 -108.782 	 66.663 	 -77.3457 	 
H 	 -105.771 	 62.9401 	 -74.3311 	 
H 	 -113.178 	 66.8414 	 -74.087 	 
*
