! wB97X-D3 SP def2-SVP
%pal
nprocs 24
end

* xyz 0 1
S 	 -101.33 	 -4.23839 	 -107.755 	 
C 	 -102.481 	 -4.87935 	 -106.611 	 
C 	 -102.052 	 -4.70864 	 -105.338 	 
C 	 -100.666 	 -4.18064 	 -105.314 	 
C 	 -100.112 	 -4.02689 	 -106.559 	 
H 	 -100.067 	 -3.86362 	 -104.511 	 
C 	 -102.908 	 -4.99453 	 -104.127 	 
H 	 -102.51 	 -5.92129 	 -103.694 	 
H 	 -103.883 	 -5.33513 	 -104.453 	 
C 	 -102.992 	 -3.86139 	 -103.152 	 
H 	 -102.179 	 -3.88889 	 -102.484 	 
H 	 -103.016 	 -3.00826 	 -103.775 	 
C 	 -104.295 	 -3.91082 	 -102.332 	 
H 	 -104.232 	 -2.9688 	 -101.761 	 
H 	 -105.204 	 -3.84111 	 -103.084 	 
H 	 -104.465 	 -4.73333 	 -101.616 	 
S 	 -97.5766 	 -4.74107 	 -107.258 	 
C 	 -96.274 	 -3.6051 	 -107.085 	 
C 	 -96.6788 	 -2.32871 	 -106.811 	 
C 	 -98.1169 	 -2.25866 	 -106.581 	 
C 	 -98.7542 	 -3.50874 	 -106.853 	 
H 	 -95.9756 	 -1.53973 	 -106.543 	 
C 	 -98.7372 	 -1.05544 	 -105.928 	 
H 	 -99.7983 	 -0.908569 	 -106.083 	 
H 	 -98.3222 	 -0.285792 	 -106.564 	 
C 	 -98.3254 	 -0.818139 	 -104.522 	 
H 	 -97.2625 	 -0.45907 	 -104.399 	 
H 	 -98.3764 	 -1.70418 	 -103.899 	 
C 	 -99.2817 	 0.195883 	 -103.796 	 
H 	 -99.3291 	 1.01695 	 -104.488 	 
H 	 -98.8781 	 0.617943 	 -102.809 	 
H 	 -100.34 	 -0.16884 	 -103.709 	 
H 	 -103.466 	 -5.38552 	 -106.898 	 
H 	 -95.2373 	 -3.87488 	 -107.106 	 
*
