! wB97X-D3 SP def2-SVP
%pal
nprocs 24
end

* xyz 0 1
S 	 -57.8947 	 12.0935 	 -96.2567 	 
C 	 -56.5141 	 12.5087 	 -97.2617 	 
C 	 -56.2808 	 13.828 	 -97.3025 	 
C 	 -56.9737 	 14.5272 	 -96.2581 	 
C 	 -57.7575 	 13.6504 	 -95.5176 	 
H 	 -56.733 	 15.5301 	 -95.9832 	 
C 	 -55.21 	 14.4898 	 -98.1202 	 
H 	 -55.4315 	 15.5339 	 -98.2138 	 
H 	 -55.4284 	 14.2359 	 -99.1072 	 
C 	 -53.6713 	 14.28 	 -97.7255 	 
H 	 -53.6229 	 14.4089 	 -96.6039 	 
H 	 -53.5146 	 13.2337 	 -97.8061 	 
C 	 -52.5999 	 15.0973 	 -98.4687 	 
H 	 -51.5182 	 14.9076 	 -98.4064 	 
H 	 -52.7995 	 14.8766 	 -99.4909 	 
H 	 -52.8504 	 16.1652 	 -98.475 	 
S 	 -60.2505 	 14.3969 	 -94.7773 	 
C 	 -60.6114 	 14.8892 	 -93.1373 	 
C 	 -59.5328 	 14.7351 	 -92.3543 	 
C 	 -58.3819 	 14.2594 	 -93.1044 	 
C 	 -58.6052 	 14.0425 	 -94.407 	 
H 	 -59.5021 	 14.8665 	 -91.3136 	 
C 	 -57.0719 	 13.9142 	 -92.4484 	 
H 	 -56.693 	 12.8905 	 -92.6696 	 
H 	 -57.3802 	 13.885 	 -91.3206 	 
C 	 -55.9826 	 14.9122 	 -92.6979 	 
H 	 -56.4342 	 15.8969 	 -92.669 	 
H 	 -55.5705 	 14.6903 	 -93.6924 	 
C 	 -54.8202 	 15.1025 	 -91.7425 	 
H 	 -54.4197 	 14.1347 	 -91.3945 	 
H 	 -55.2086 	 15.6531 	 -90.8817 	 
H 	 -53.9647 	 15.7096 	 -92.0891 	 
H 	 -56.0644 	 11.8156 	 -97.8909 	 
H 	 -61.5156 	 15.282 	 -92.6737 	 
*
