! wB97X-D3 SP def2-SVP
%pal
nprocs 24
end

* xyz 0 1
S 	 -96.0198 	 51.4332 	 -95.2814 	 
C 	 -96.0657 	 50.3024 	 -93.8654 	 
C 	 -95.5819 	 49.0467 	 -94.2263 	 
C 	 -95.0687 	 49.0246 	 -95.5888 	 
C 	 -95.3116 	 50.2157 	 -96.2531 	 
H 	 -94.6933 	 48.1465 	 -96.137 	 
C 	 -95.6119 	 47.7775 	 -93.3003 	 
H 	 -95.7128 	 48.0735 	 -92.2307 	 
H 	 -94.5679 	 47.3491 	 -93.0911 	 
C 	 -96.5715 	 46.6151 	 -93.7455 	 
H 	 -97.6213 	 46.9854 	 -93.8909 	 
H 	 -96.2969 	 46.2074 	 -94.7948 	 
C 	 -96.4566 	 45.2879 	 -92.8864 	 
H 	 -97.0412 	 44.4857 	 -93.3141 	 
H 	 -95.4193 	 44.9671 	 -92.737 	 
H 	 -96.8216 	 45.5415 	 -91.9092 	 
S 	 -93.63 	 50.6061 	 -98.3855 	 
C 	 -94.2897 	 50.7156 	 -99.9353 	 
C 	 -95.6602 	 50.5675 	 -99.974 	 
C 	 -96.2675 	 50.4106 	 -98.6812 	 
C 	 -95.2458 	 50.3947 	 -97.6797 	 
H 	 -96.0511 	 50.4711 	 -100.986 	 
C 	 -97.7747 	 50.1156 	 -98.4919 	 
H 	 -98.3821 	 50.2067 	 -99.3873 	 
H 	 -98.2064 	 50.7845 	 -97.7588 	 
C 	 -98.0713 	 48.6381 	 -98.0571 	 
H 	 -97.4601 	 48.2967 	 -97.2229 	 
H 	 -97.8153 	 47.9395 	 -98.8737 	 
C 	 -99.4501 	 48.3117 	 -97.6522 	 
H 	 -99.8328 	 49.022 	 -96.8612 	 
H 	 -99.4609 	 47.3489 	 -97.1395 	 
H 	 -100.148 	 48.3386 	 -98.5089 	 
H 	 -96.5856 	 50.45 	 -93.0113 	 
H 	 -93.6811 	 50.7764 	 -100.855 	 
*
