! wB97X-D3 SP def2-SVP
%pal
nprocs 24
end

* xyz 0 1
S 	 47.3814 	 -21.7178 	 -111.874 	 
C 	 48.1964 	 -20.6444 	 -110.784 	 
C 	 47.4484 	 -20.4664 	 -109.595 	 
C 	 46.1502 	 -21.064 	 -109.758 	 
C 	 45.8976 	 -21.7157 	 -110.903 	 
H 	 45.3124 	 -20.877 	 -109.068 	 
C 	 47.6629 	 -19.4936 	 -108.415 	 
H 	 46.6323 	 -19.4833 	 -107.996 	 
H 	 47.8548 	 -18.4805 	 -108.737 	 
C 	 48.7537 	 -19.8386 	 -107.386 	 
H 	 49.712 	 -19.556 	 -107.806 	 
H 	 48.6057 	 -19.2011 	 -106.546 	 
C 	 48.6639 	 -21.2562 	 -106.9 	 
H 	 49.4936 	 -21.3816 	 -106.274 	 
H 	 47.8284 	 -21.4979 	 -106.347 	 
H 	 48.7465 	 -22.0634 	 -107.648 	 
S 	 43.1348 	 -21.5432 	 -110.645 	 
C 	 42.2012 	 -22.9906 	 -110.96 	 
C 	 43.0017 	 -24.0015 	 -111.477 	 
C 	 44.3685 	 -23.6426 	 -111.728 	 
C 	 44.6477 	 -22.4081 	 -111.192 	 
H 	 42.6071 	 -24.9596 	 -111.718 	 
C 	 45.344 	 -24.6867 	 -112.214 	 
H 	 45.3212 	 -25.561 	 -111.648 	 
H 	 46.3449 	 -24.3588 	 -112.021 	 
C 	 45.1005 	 -25.0212 	 -113.69 	 
H 	 44.0551 	 -25.4642 	 -113.778 	 
H 	 45.6845 	 -25.8505 	 -114.071 	 
C 	 45.2976 	 -23.8716 	 -114.639 	 
H 	 45.1828 	 -24.3636 	 -115.694 	 
H 	 46.3423 	 -23.4636 	 -114.486 	 
H 	 44.6629 	 -22.9671 	 -114.52 	 
H 	 49.2268 	 -20.2699 	 -111.008 	 
H 	 41.1591 	 -23.159 	 -110.57 	 
*
