! wB97X-D3 SP def2-SVP
%pal
nprocs 24
end

* xyz 0 1
S 	 -68.7589 	 11.1673 	 -72.7568 	 
C 	 -69.0357 	 10.2304 	 -71.234 	 
C 	 -68.0412 	 10.3767 	 -70.2779 	 
C 	 -67.0073 	 11.1784 	 -70.8263 	 
C 	 -67.154 	 11.5976 	 -72.2013 	 
H 	 -66.1047 	 11.432 	 -70.2792 	 
C 	 -68.0407 	 9.89267 	 -68.8568 	 
H 	 -69.07 	 9.74269 	 -68.6302 	 
H 	 -67.7378 	 10.7812 	 -68.388 	 
C 	 -67.1264 	 8.59816 	 -68.6575 	 
H 	 -66.1562 	 8.77947 	 -69.0536 	 
H 	 -67.1486 	 8.54565 	 -67.5269 	 
C 	 -67.5492 	 7.23296 	 -69.2525 	 
H 	 -68.5723 	 6.91321 	 -69.0331 	 
H 	 -67.5422 	 7.28975 	 -70.4163 	 
H 	 -66.8222 	 6.39467 	 -69.0054 	 
S 	 -67.1734 	 13.827 	 -73.786 	 
C 	 -65.7256 	 14.3647 	 -74.5545 	 
C 	 -64.6491 	 13.6421 	 -74.0998 	 
C 	 -64.9871 	 12.5239 	 -73.3209 	 
C 	 -66.3754 	 12.5124 	 -73.0217 	 
H 	 -63.7303 	 13.9258 	 -74.5218 	 
C 	 -63.9206 	 11.5073 	 -73.0561 	 
H 	 -64.063 	 11.252 	 -72.0393 	 
H 	 -62.9581 	 11.9999 	 -73.0788 	 
C 	 -63.8928 	 10.2463 	 -73.9317 	 
H 	 -63.8522 	 10.5441 	 -74.993 	 
H 	 -64.7864 	 9.61555 	 -73.7659 	 
C 	 -62.657 	 9.37929 	 -73.5757 	 
H 	 -61.702 	 9.9232 	 -73.6115 	 
H 	 -62.6871 	 8.54053 	 -74.1718 	 
H 	 -62.7294 	 9.04748 	 -72.5767 	 
H 	 -69.9635 	 9.75896 	 -70.9625 	 
H 	 -65.7308 	 15.0706 	 -75.3908 	 
*
