! wB97X-D3 SP def2-SVP
%pal
nprocs 24
end

* xyz 0 1
S 	 -3.47533 	 -25.8509 	 -109.614 	 
C 	 -3.66406 	 -24.1773 	 -110.039 	 
C 	 -4.19545 	 -23.5409 	 -108.938 	 
C 	 -4.36069 	 -24.3635 	 -107.778 	 
C 	 -4.17327 	 -25.6817 	 -108.026 	 
H 	 -4.55158 	 -24.1728 	 -106.718 	 
C 	 -4.29647 	 -22.1222 	 -108.685 	 
H 	 -3.98894 	 -21.5353 	 -109.57 	 
H 	 -3.63404 	 -21.7895 	 -107.839 	 
C 	 -5.80902 	 -21.6465 	 -108.384 	 
H 	 -6.40788 	 -22.3631 	 -107.698 	 
H 	 -5.83871 	 -20.6254 	 -107.872 	 
C 	 -6.6681 	 -21.6131 	 -109.643 	 
H 	 -7.75476 	 -21.2775 	 -109.517 	 
H 	 -6.19456 	 -21.0115 	 -110.386 	 
H 	 -6.66536 	 -22.6598 	 -110.03 	 
S 	 -2.48236 	 -27.4857 	 -106.687 	 
C 	 -3.13519 	 -28.514 	 -105.426 	 
C 	 -4.44616 	 -28.21 	 -105.191 	 
C 	 -4.96242 	 -27.3293 	 -106.171 	 
C 	 -4.03552 	 -26.819 	 -107.073 	 
H 	 -5.11484 	 -28.6385 	 -104.384 	 
C 	 -6.48447 	 -26.8767 	 -106.136 	 
H 	 -6.43153 	 -25.9888 	 -106.654 	 
H 	 -6.89146 	 -26.7667 	 -105.158 	 
C 	 -7.43327 	 -27.8059 	 -106.996 	 
H 	 -7.13364 	 -27.7985 	 -108.066 	 
H 	 -8.41668 	 -27.3567 	 -107.07 	 
C 	 -7.68679 	 -29.2107 	 -106.454 	 
H 	 -6.75461 	 -29.6643 	 -106.162 	 
H 	 -8.43151 	 -29.8498 	 -106.963 	 
H 	 -8.34989 	 -29.0777 	 -105.57 	 
H 	 -3.36581 	 -23.6643 	 -110.963 	 
H 	 -2.57934 	 -29.2239 	 -104.765 	 
*
