! wB97X-D3 SP def2-SVP
%pal
nprocs 24
end

* xyz 0 1
S 	 -42.4794 	 -2.95219 	 13.511 	 
C 	 -42.1816 	 -2.7886 	 15.174 	 
C 	 -42.4561 	 -1.46869 	 15.5264 	 
C 	 -42.6638 	 -0.568037 	 14.4131 	 
C 	 -42.6574 	 -1.19764 	 13.1886 	 
H 	 -42.8951 	 0.474172 	 14.5896 	 
C 	 -42.4319 	 -1.00612 	 16.979 	 
H 	 -43.1123 	 -1.73564 	 17.5348 	 
H 	 -42.9194 	 -0.0769214 	 17.2146 	 
C 	 -41.0743 	 -1.10544 	 17.7505 	 
H 	 -41.2261 	 -0.883337 	 18.7966 	 
H 	 -40.6632 	 -2.11445 	 17.7339 	 
C 	 -39.9581 	 -0.231496 	 17.1881 	 
H 	 -39.0631 	 -0.469045 	 17.7852 	 
H 	 -39.772 	 -0.507281 	 16.159 	 
H 	 -40.1688 	 0.878307 	 17.274 	 
S 	 -43.7643 	 -1.47512 	 10.7276 	 
C 	 -43.755 	 -0.154149 	 9.62953 	 
C 	 -42.9493 	 0.860093 	 10.0622 	 
C 	 -42.3925 	 0.631717 	 11.3864 	 
C 	 -42.7202 	 -0.667018 	 11.8337 	 
H 	 -42.7797 	 1.78824 	 9.49235 	 
C 	 -41.4026 	 1.63632 	 12.0488 	 
H 	 -40.6065 	 1.80853 	 11.3852 	 
H 	 -40.8595 	 1.34935 	 12.9223 	 
C 	 -42.1282 	 2.89218 	 12.5036 	 
H 	 -42.8662 	 2.507 	 13.2244 	 
H 	 -42.6865 	 3.22896 	 11.6675 	 
C 	 -41.1288 	 3.98192 	 13.0307 	 
H 	 -40.4557 	 3.61466 	 13.7797 	 
H 	 -41.6128 	 4.95545 	 13.3469 	 
H 	 -40.3946 	 4.22764 	 12.2618 	 
H 	 -41.8752 	 -3.51099 	 15.8561 	 
H 	 -44.3475 	 -0.114397 	 8.64423 	 
*
