! wB97X-D3 SP def2-SVP
%pal
nprocs 24
end

* xyz 0 1
S 	 -100.352 	 44.4642 	 -84.2886 	 
C 	 -99.8741 	 43.0601 	 -85.2734 	 
C 	 -100.442 	 43.0943 	 -86.5234 	 
C 	 -101.066 	 44.3818 	 -86.7497 	 
C 	 -100.959 	 45.291 	 -85.6957 	 
H 	 -101.538 	 44.646 	 -87.6946 	 
C 	 -100.521 	 42.0513 	 -87.6465 	 
H 	 -99.5469 	 41.9316 	 -88.0821 	 
H 	 -101.099 	 42.5388 	 -88.4734 	 
C 	 -101.171 	 40.6536 	 -87.4197 	 
H 	 -100.884 	 40.0585 	 -88.2801 	 
H 	 -100.72 	 40.067 	 -86.5148 	 
C 	 -102.696 	 40.6907 	 -87.2068 	 
H 	 -103.118 	 41.1717 	 -88.0566 	 
H 	 -102.968 	 39.7031 	 -87.0804 	 
H 	 -102.972 	 41.2508 	 -86.3514 	 
S 	 -100.872 	 47.9355 	 -84.9119 	 
C 	 -102.406 	 48.8038 	 -84.8436 	 
C 	 -103.486 	 48.0739 	 -85.2803 	 
C 	 -103.108 	 46.6494 	 -85.471 	 
C 	 -101.738 	 46.5064 	 -85.5211 	 
H 	 -104.466 	 48.5832 	 -85.275 	 
C 	 -104.114 	 45.5258 	 -85.644 	 
H 	 -103.581 	 44.6379 	 -85.4107 	 
H 	 -104.318 	 45.4394 	 -86.7668 	 
C 	 -105.372 	 45.4752 	 -84.6893 	 
H 	 -105.774 	 44.4904 	 -84.9745 	 
H 	 -106.125 	 46.1919 	 -85.0627 	 
C 	 -105.116 	 45.3649 	 -83.1682 	 
H 	 -104.513 	 44.4378 	 -82.8881 	 
H 	 -105.99 	 45.4078 	 -82.5022 	 
H 	 -104.617 	 46.2237 	 -82.6907 	 
H 	 -99.4317 	 42.1831 	 -84.889 	 
H 	 -102.505 	 49.8704 	 -84.6391 	 
*
