! wB97X-D3 SP def2-SVP
%pal
nprocs 24
end

* xyz 0 1
S 	 -139.315 	 5.66011 	 -8.3601 	 
C 	 -138.484 	 6.67947 	 -9.51982 	 
C 	 -137.946 	 7.84432 	 -8.94267 	 
C 	 -138.144 	 7.88864 	 -7.5202 	 
C 	 -139.032 	 6.84441 	 -7.08852 	 
H 	 -137.722 	 8.73568 	 -6.95407 	 
C 	 -137.075 	 8.954 	 -9.52562 	 
H 	 -137.325 	 9.91015 	 -9.11791 	 
H 	 -137.307 	 9.033 	 -10.6588 	 
C 	 -135.574 	 8.75266 	 -9.34267 	 
H 	 -135.387 	 8.73802 	 -8.22104 	 
H 	 -135.322 	 7.76744 	 -9.70486 	 
C 	 -134.662 	 9.83444 	 -10.0081 	 
H 	 -133.687 	 9.90801 	 -9.45535 	 
H 	 -134.389 	 9.46815 	 -11.0112 	 
H 	 -134.972 	 10.8766 	 -10.1285 	 
S 	 -140.799 	 5.83763 	 -5.42448 	 
C 	 -140.654 	 6.14283 	 -3.62537 	 
C 	 -139.508 	 6.90907 	 -3.34634 	 
C 	 -138.67 	 6.99817 	 -4.47824 	 
C 	 -139.217 	 6.46525 	 -5.66444 	 
H 	 -139.197 	 7.29625 	 -2.36678 	 
C 	 -137.339 	 7.65943 	 -4.41547 	 
H 	 -136.757 	 7.36462 	 -5.2783 	 
H 	 -136.903 	 7.21431 	 -3.58077 	 
C 	 -137.294 	 9.16837 	 -4.05609 	 
H 	 -137.649 	 9.18561 	 -3.02064 	 
H 	 -137.999 	 9.85986 	 -4.63065 	 
C 	 -135.832 	 9.7263 	 -4.23854 	 
H 	 -135.769 	 10.8669 	 -4.28052 	 
H 	 -135.298 	 9.24008 	 -5.02156 	 
H 	 -135.226 	 9.37102 	 -3.367 	 
H 	 -138.606 	 6.44799 	 -10.5694 	 
H 	 -141.451 	 5.92784 	 -2.94468 	 
*
