! wB97X-D3 SP def2-SVP
%pal
nprocs 24
end

* xyz 0 1
S 	 -18.3751 	 -29.3817 	 -93.7346 	 
C 	 -17.0797 	 -30.2182 	 -93.0239 	 
C 	 -16.989 	 -31.5585 	 -93.4222 	 
C 	 -17.9137 	 -31.8187 	 -94.4452 	 
C 	 -18.6883 	 -30.7244 	 -94.7717 	 
H 	 -17.8878 	 -32.7528 	 -94.9548 	 
C 	 -16.197 	 -32.6679 	 -92.7464 	 
H 	 -16.8873 	 -33.4726 	 -92.5034 	 
H 	 -15.8525 	 -32.2064 	 -91.8293 	 
C 	 -14.9317 	 -33.2855 	 -93.4278 	 
H 	 -14.5078 	 -34.2389 	 -93.0189 	 
H 	 -15.3629 	 -33.6286 	 -94.4238 	 
C 	 -13.7489 	 -32.3409 	 -93.6508 	 
H 	 -14.1183 	 -31.8092 	 -94.511 	 
H 	 -13.5918 	 -31.6386 	 -92.799 	 
H 	 -12.8117 	 -32.9039 	 -93.8625 	 
S 	 -21.4323 	 -30.4867 	 -95.1744 	 
C 	 -21.9608 	 -30.6154 	 -96.8287 	 
C 	 -20.9621 	 -30.8886 	 -97.7312 	 
C 	 -19.7114 	 -31.0323 	 -97.1263 	 
C 	 -19.7856 	 -30.8321 	 -95.7148 	 
H 	 -21.1678 	 -30.8515 	 -98.7953 	 
C 	 -18.4638 	 -31.2885 	 -97.954 	 
H 	 -18.5808 	 -32.1532 	 -98.5532 	 
H 	 -17.4803 	 -31.5328 	 -97.3755 	 
C 	 -18.0553 	 -30.1125 	 -98.8395 	 
H 	 -17.8303 	 -29.1515 	 -98.2338 	 
H 	 -18.9423 	 -29.739 	 -99.4392 	 
C 	 -16.8297 	 -30.4305 	 -99.6841 	 
H 	 -15.921 	 -30.659 	 -99.1451 	 
H 	 -16.6163 	 -29.6875 	 -100.427 	 
H 	 -17.0732 	 -31.3436 	 -100.203 	 
H 	 -16.5577 	 -29.7639 	 -92.1977 	 
H 	 -22.9217 	 -30.2832 	 -97.2261 	 
*
