! wB97X-D3 SP def2-SVP
%pal
nprocs 24
end

* xyz 0 1
S 	 -33.7443 	 -36.6532 	 -91.5835 	 
C 	 -33.0271 	 -36.0156 	 -90.1311 	 
C 	 -33.861 	 -35.0603 	 -89.4861 	 
C 	 -35.0451 	 -34.8704 	 -90.2722 	 
C 	 -35.0653 	 -35.4608 	 -91.4891 	 
H 	 -35.9602 	 -34.5026 	 -89.9659 	 
C 	 -33.6424 	 -34.4867 	 -88.0231 	 
H 	 -34.3991 	 -33.6883 	 -87.8359 	 
H 	 -32.6324 	 -34.0301 	 -87.9388 	 
C 	 -33.7597 	 -35.574 	 -86.9232 	 
H 	 -32.9109 	 -36.1878 	 -86.8657 	 
H 	 -33.5701 	 -35.2237 	 -85.953 	 
C 	 -35.0911 	 -36.4473 	 -86.8811 	 
H 	 -35.8786 	 -35.7418 	 -86.8683 	 
H 	 -35.0874 	 -37.1065 	 -87.7245 	 
H 	 -35.0729 	 -37.1837 	 -86.0299 	 
S 	 -37.0788 	 -36.8484 	 -92.4981 	 
C 	 -38.1097 	 -36.1142 	 -93.6685 	 
C 	 -37.8903 	 -34.7781 	 -93.8384 	 
C 	 -36.7863 	 -34.3746 	 -93.0154 	 
C 	 -36.1416 	 -35.4175 	 -92.4018 	 
H 	 -38.5276 	 -34.0982 	 -94.3922 	 
C 	 -36.2197 	 -32.9576 	 -93.0619 	 
H 	 -36.2949 	 -32.5809 	 -92.0472 	 
H 	 -36.797 	 -32.3157 	 -93.7107 	 
C 	 -34.8307 	 -32.7804 	 -93.635 	 
H 	 -34.9765 	 -33.0837 	 -94.6338 	 
H 	 -34.1022 	 -33.2916 	 -93.167 	 
C 	 -34.3271 	 -31.356 	 -93.6084 	 
H 	 -34.5402 	 -30.9917 	 -92.6671 	 
H 	 -34.8267 	 -30.7542 	 -94.3587 	 
H 	 -33.27 	 -31.2411 	 -93.7748 	 
H 	 -32.0859 	 -36.388 	 -89.7724 	 
H 	 -38.9619 	 -36.4867 	 -94.1147 	 
*
