! wB97X-D3 SP def2-SVP
%pal
nprocs 24
end

* xyz 0 1
S 	 -108.615 	 3.53026 	 -107.393 	 
C 	 -107.828 	 4.94477 	 -107.765 	 
C 	 -107.007 	 5.36446 	 -106.707 	 
C 	 -106.807 	 4.38515 	 -105.69 	 
C 	 -107.455 	 3.24728 	 -106.103 	 
H 	 -106.115 	 4.36065 	 -104.814 	 
C 	 -106.231 	 6.69212 	 -106.647 	 
H 	 -106.04 	 6.89576 	 -105.605 	 
H 	 -106.878 	 7.54085 	 -106.99 	 
C 	 -104.913 	 6.68627 	 -107.461 	 
H 	 -104.22 	 5.86277 	 -107.239 	 
H 	 -105.152 	 6.71329 	 -108.491 	 
C 	 -104.151 	 7.97137 	 -107.097 	 
H 	 -103.392 	 8.2782 	 -107.823 	 
H 	 -104.913 	 8.79446 	 -107.026 	 
H 	 -103.664 	 7.92654 	 -106.105 	 
S 	 -105.784 	 1.37328 	 -105.058 	 
C 	 -106.398 	 0.00701944 	 -104.191 	 
C 	 -107.791 	 -0.0112864 	 -104.318 	 
C 	 -108.36 	 0.977404 	 -105.09 	 
C 	 -107.36 	 1.9651 	 -105.429 	 
H 	 -108.328 	 -0.827248 	 -103.891 	 
C 	 -109.802 	 0.923529 	 -105.547 	 
H 	 -110.18 	 1.8952 	 -105.734 	 
H 	 -110.196 	 0.581111 	 -104.641 	 
C 	 -109.999 	 0.0863117 	 -106.841 	 
H 	 -109.596 	 -0.925333 	 -106.696 	 
H 	 -109.5 	 0.49568 	 -107.696 	 
C 	 -111.456 	 0.0935809 	 -107.281 	 
H 	 -112.089 	 -0.464644 	 -106.566 	 
H 	 -111.665 	 -0.433395 	 -108.215 	 
H 	 -111.793 	 1.10576 	 -107.396 	 
H 	 -108.145 	 5.57253 	 -108.605 	 
H 	 -105.783 	 -0.748521 	 -103.773 	 
*
