! wB97X-D3 SP def2-SVP
%pal
nprocs 24
end

* xyz 0 1
S 	 -137.998 	 4.05816 	 2.69141 	 
C 	 -138.255 	 4.00729 	 4.45898 	 
C 	 -138.199 	 5.25986 	 4.9786 	 
C 	 -138.299 	 6.28591 	 4.01329 	 
C 	 -138.199 	 5.77242 	 2.69822 	 
H 	 -138.267 	 7.359 	 4.10054 	 
C 	 -138.289 	 5.59319 	 6.43872 	 
H 	 -137.292 	 5.7853 	 6.74728 	 
H 	 -138.555 	 4.70041 	 7.04446 	 
C 	 -139.169 	 6.78423 	 6.85049 	 
H 	 -138.943 	 6.83117 	 7.92753 	 
H 	 -138.943 	 7.76778 	 6.37132 	 
C 	 -140.675 	 6.50518 	 6.72531 	 
H 	 -140.912 	 5.58699 	 7.19162 	 
H 	 -141.222 	 7.3301 	 7.17047 	 
H 	 -141.161 	 6.40825 	 5.75145 	 
S 	 -137.061 	 5.88739 	 0.239479 	 
C 	 -137.194 	 7.24531 	 -0.793201 	 
C 	 -137.852 	 8.27716 	 -0.119584 	 
C 	 -138.327 	 7.92277 	 1.20081 	 
C 	 -138.048 	 6.58185 	 1.53264 	 
H 	 -138.027 	 9.23556 	 -0.594878 	 
C 	 -139.286 	 8.91662 	 1.99379 	 
H 	 -139.207 	 9.91098 	 1.54656 	 
H 	 -138.793 	 9.04286 	 2.97224 	 
C 	 -140.698 	 8.32836 	 2.1633 	 
H 	 -140.607 	 7.38374 	 2.71801 	 
H 	 -141.133 	 8.00286 	 1.24451 	 
C 	 -141.702 	 9.20833 	 2.91313 	 
H 	 -141.731 	 9.04911 	 3.99215 	 
H 	 -142.667 	 9.05513 	 2.49413 	 
H 	 -141.508 	 10.2741 	 2.66601 	 
H 	 -138.306 	 3.0022 	 4.97238 	 
H 	 -136.559 	 7.35196 	 -1.64881 	 
*
