! wB97X-D3 SP def2-SVP
%pal
nprocs 24
end

* xyz 0 1
S 	 -52.4206 	 21.3807 	 25.3974 	 
C 	 -53.2584 	 21.0745 	 23.8808 	 
C 	 -52.905 	 19.8371 	 23.3886 	 
C 	 -52.0747 	 19.0965 	 24.2648 	 
C 	 -51.8269 	 19.7176 	 25.5025 	 
H 	 -51.7889 	 18.0594 	 24.0644 	 
C 	 -53.2677 	 19.3603 	 21.9998 	 
H 	 -54.1883 	 19.8483 	 21.6951 	 
H 	 -53.3926 	 18.2866 	 22.0438 	 
C 	 -52.1772 	 19.6592 	 20.9671 	 
H 	 -51.1744 	 19.2118 	 21.13 	 
H 	 -52.4366 	 19.1142 	 20.0402 	 
C 	 -51.946 	 21.1424 	 20.5631 	 
H 	 -52.8327 	 21.6993 	 20.2756 	 
H 	 -51.5694 	 21.745 	 21.2786 	 
H 	 -51.2231 	 21.1789 	 19.782 	 
S 	 -49.9841 	 20.2597 	 27.4641 	 
C 	 -49.6752 	 19.1134 	 28.7314 	 
C 	 -50.3328 	 17.9283 	 28.4928 	 
C 	 -51.1651 	 17.9682 	 27.3487 	 
C 	 -51.1201 	 19.2026 	 26.6888 	 
H 	 -50.2206 	 17.0434 	 29.0798 	 
C 	 -52.0247 	 16.8395 	 26.8573 	 
H 	 -51.4056 	 15.9855 	 26.5342 	 
H 	 -52.5105 	 16.977 	 25.8945 	 
C 	 -53.0225 	 16.4599 	 27.924 	 
H 	 -53.7817 	 17.2282 	 28.1137 	 
H 	 -52.465 	 16.3855 	 28.863 	 
C 	 -53.7405 	 15.1392 	 27.6709 	 
H 	 -54.3228 	 14.929 	 28.4782 	 
H 	 -53.0238 	 14.2969 	 27.4974 	 
H 	 -54.4301 	 15.2679 	 26.8239 	 
H 	 -53.8256 	 21.8514 	 23.4356 	 
H 	 -49.0583 	 19.3591 	 29.6021 	 
*
