! wB97X-D3 SP def2-SVP
%pal
nprocs 24
end

* xyz 0 1
S 	 -104.565 	 2.11652 	 -111.094 	 
C 	 -106.04 	 2.65415 	 -111.92 	 
C 	 -106.438 	 1.66907 	 -112.804 	 
C 	 -105.66 	 0.480655 	 -112.758 	 
C 	 -104.609 	 0.56426 	 -111.854 	 
H 	 -105.704 	 -0.389388 	 -113.419 	 
C 	 -107.673 	 1.84806 	 -113.648 	 
H 	 -107.617 	 2.59807 	 -114.441 	 
H 	 -108.439 	 2.27481 	 -112.925 	 
C 	 -108.292 	 0.585031 	 -114.249 	 
H 	 -107.59 	 0.166207 	 -114.95 	 
H 	 -108.339 	 -0.074104 	 -113.357 	 
C 	 -109.627 	 0.705156 	 -114.866 	 
H 	 -110.026 	 -0.26243 	 -115.193 	 
H 	 -110.366 	 1.10802 	 -114.2 	 
H 	 -109.514 	 1.36852 	 -115.722 	 
S 	 -102.78 	 -1.20319 	 -113.033 	 
C 	 -101.489 	 -1.82572 	 -112.057 	 
C 	 -101.69 	 -1.58742 	 -110.724 	 
C 	 -102.936 	 -0.833655 	 -110.489 	 
C 	 -103.57 	 -0.454245 	 -111.672 	 
H 	 -101.095 	 -2.11738 	 -109.998 	 
C 	 -103.368 	 -0.562297 	 -108.999 	 
H 	 -103.38 	 -1.47833 	 -108.45 	 
H 	 -104.361 	 -0.221647 	 -108.877 	 
C 	 -102.395 	 0.390315 	 -108.236 	 
H 	 -101.343 	 0.0921865 	 -108.347 	 
H 	 -102.629 	 0.435816 	 -107.194 	 
C 	 -102.468 	 1.81777 	 -108.735 	 
H 	 -101.676 	 2.37236 	 -108.219 	 
H 	 -103.36 	 2.33058 	 -108.469 	 
H 	 -102.248 	 1.88721 	 -109.816 	 
H 	 -106.502 	 3.62192 	 -111.759 	 
H 	 -100.662 	 -2.39093 	 -112.507 	 
*
