! wB97X-D3 SP def2-SVP
%pal
nprocs 24
end

* xyz 0 1
S 	 -43.3686 	 -46.1662 	 -80.1192 	 
C 	 -41.7871 	 -46.3878 	 -80.8394 	 
C 	 -40.9223 	 -46.8695 	 -79.8908 	 
C 	 -41.5959 	 -47.4318 	 -78.7303 	 
C 	 -42.9775 	 -47.1422 	 -78.7849 	 
H 	 -41.2249 	 -47.9809 	 -77.9334 	 
C 	 -39.3924 	 -46.9882 	 -80.0813 	 
H 	 -38.9947 	 -46.1036 	 -79.4952 	 
H 	 -39.2593 	 -46.9637 	 -81.1301 	 
C 	 -38.7588 	 -48.3698 	 -79.5581 	 
H 	 -38.9517 	 -48.5958 	 -78.5835 	 
H 	 -39.1507 	 -49.2128 	 -79.9958 	 
C 	 -37.2687 	 -48.3825 	 -79.6808 	 
H 	 -36.7669 	 -47.7168 	 -78.8981 	 
H 	 -36.8316 	 -49.3719 	 -79.6557 	 
H 	 -36.9862 	 -47.8551 	 -80.5731 	 
S 	 -45.3509 	 -46.6271 	 -77.3922 	 
C 	 -46.0561 	 -47.7723 	 -76.3041 	 
C 	 -45.2956 	 -48.951 	 -76.3001 	 
C 	 -44.1491 	 -48.9022 	 -77.2306 	 
C 	 -44.0487 	 -47.6575 	 -77.8586 	 
H 	 -45.5369 	 -49.7713 	 -75.6122 	 
C 	 -43.2755 	 -50.0988 	 -77.2856 	 
H 	 -43.6363 	 -50.9104 	 -76.618 	 
H 	 -42.2353 	 -49.843 	 -76.9793 	 
C 	 -43.0532 	 -50.7613 	 -78.6501 	 
H 	 -42.4615 	 -51.7452 	 -78.6444 	 
H 	 -42.4663 	 -50.1241 	 -79.2362 	 
C 	 -44.3358 	 -51.0695 	 -79.4564 	 
H 	 -44.8593 	 -51.7374 	 -78.8888 	 
H 	 -44.0901 	 -51.4965 	 -80.4612 	 
H 	 -44.9578 	 -50.2132 	 -79.4726 	 
H 	 -41.5216 	 -45.8357 	 -81.7288 	 
H 	 -46.9016 	 -47.551 	 -75.6534 	 
*
