! wB97X-D3 SP def2-SVP
%pal
nprocs 24
end

* xyz 0 1
S 	 -143.311 	 1.046 	 13.3287 	 
C 	 -144.426 	 -0.0248799 	 12.4578 	 
C 	 -145.345 	 0.705702 	 11.7486 	 
C 	 -144.971 	 2.08971 	 11.6318 	 
C 	 -143.838 	 2.38997 	 12.4078 	 
H 	 -145.497 	 2.85739 	 11.1376 	 
C 	 -146.451 	 0.109606 	 10.9532 	 
H 	 -147.264 	 -0.2313 	 11.5204 	 
H 	 -146.022 	 -0.807321 	 10.4692 	 
C 	 -147.032 	 1.02185 	 9.83798 	 
H 	 -147.397 	 1.91567 	 10.3204 	 
H 	 -146.232 	 1.07606 	 9.04121 	 
C 	 -148.304 	 0.435383 	 9.24181 	 
H 	 -148.195 	 -0.612512 	 9.07292 	 
H 	 -149.247 	 0.587891 	 9.82837 	 
H 	 -148.641 	 0.89111 	 8.33943 	 
S 	 -141.545 	 3.91551 	 12.0745 	 
C 	 -141.598 	 5.65742 	 11.919 	 
C 	 -142.927 	 6.05216 	 12.0078 	 
C 	 -143.845 	 5.03898 	 12.4527 	 
C 	 -143.27 	 3.7752 	 12.4313 	 
H 	 -143.143 	 7.03225 	 11.8394 	 
C 	 -145.265 	 5.43944 	 12.913 	 
H 	 -145.927 	 4.56233 	 12.7245 	 
H 	 -145.807 	 6.28736 	 12.5038 	 
C 	 -145.249 	 5.5766 	 14.4326 	 
H 	 -144.798 	 6.56688 	 14.5733 	 
H 	 -144.52 	 4.98314 	 15.0364 	 
C 	 -146.658 	 5.61109 	 14.8924 	 
H 	 -147.255 	 4.72728 	 14.664 	 
H 	 -147.115 	 6.62585 	 14.5727 	 
H 	 -146.867 	 5.69574 	 15.9811 	 
H 	 -144.671 	 -1.08912 	 12.677 	 
H 	 -140.65 	 6.22222 	 11.6354 	 
*
