! wB97X-D3 SP def2-SVP
%pal
nprocs 24
end

* xyz 0 1
S 	 -36.2738 	 -11.7444 	 18.4635 	 
C 	 -36.3554 	 -9.98023 	 18.5699 	 
C 	 -35.2766 	 -9.32649 	 17.9481 	 
C 	 -34.4118 	 -10.296 	 17.3703 	 
C 	 -34.8297 	 -11.6606 	 17.5078 	 
H 	 -33.5718 	 -10.055 	 16.7108 	 
C 	 -35.1412 	 -7.82148 	 17.7338 	 
H 	 -34.0724 	 -7.75491 	 17.9273 	 
H 	 -35.6786 	 -7.12133 	 18.429 	 
C 	 -35.5068 	 -7.20531 	 16.3683 	 
H 	 -35.0792 	 -6.23422 	 16.2895 	 
H 	 -34.9411 	 -7.71635 	 15.5617 	 
C 	 -37.0126 	 -7.14158 	 16.1825 	 
H 	 -37.3953 	 -6.89561 	 15.2092 	 
H 	 -37.2907 	 -8.21061 	 16.4072 	 
H 	 -37.5472 	 -6.4117 	 16.8401 	 
S 	 -33.5074 	 -13.8435 	 18.3429 	 
C 	 -32.5751 	 -14.8653 	 17.3187 	 
C 	 -32.7122 	 -14.4819 	 16.0354 	 
C 	 -33.4968 	 -13.3318 	 15.8495 	 
C 	 -34.0646 	 -12.8466 	 17.0744 	 
H 	 -32.3552 	 -15.1182 	 15.2193 	 
C 	 -33.6614 	 -12.6326 	 14.5413 	 
H 	 -32.7854 	 -12.8746 	 13.8991 	 
H 	 -33.4981 	 -11.6049 	 14.6717 	 
C 	 -34.9544 	 -12.7846 	 13.8118 	 
H 	 -35.8348 	 -12.6256 	 14.3621 	 
H 	 -35.1449 	 -13.8725 	 13.5131 	 
C 	 -35.064 	 -11.816 	 12.6603 	 
H 	 -35.821 	 -12.0076 	 11.9099 	 
H 	 -34.2427 	 -11.7563 	 12.0219 	 
H 	 -35.1322 	 -10.8243 	 13.1296 	 
H 	 -37.1484 	 -9.43879 	 19.1223 	 
H 	 -31.9348 	 -15.748 	 17.6656 	 
*
