! wB97X-D3 SP def2-SVP
%pal
nprocs 24
end

* xyz 0 1
S 	 -129.179 	 2.95546 	 6.03585 	 
C 	 -128.037 	 2.63128 	 4.71308 	 
C 	 -126.704 	 2.72177 	 5.11031 	 
C 	 -126.591 	 2.9496 	 6.52432 	 
C 	 -127.819 	 3.18834 	 7.11442 	 
H 	 -125.677 	 2.97721 	 7.12646 	 
C 	 -125.457 	 2.64149 	 4.20971 	 
H 	 -124.617 	 2.83631 	 4.84549 	 
H 	 -125.5 	 3.5252 	 3.56372 	 
C 	 -125.324 	 1.34788 	 3.47966 	 
H 	 -125.715 	 0.560335 	 4.06593 	 
H 	 -125.908 	 1.49123 	 2.56863 	 
C 	 -123.868 	 0.938731 	 3.2718 	 
H 	 -123.882 	 0.0355639 	 2.65942 	 
H 	 -123.284 	 1.66985 	 2.76671 	 
H 	 -123.31 	 0.708868 	 4.18264 	 
S 	 -129.075 	 5.00794 	 8.70679 	 
C 	 -128.675 	 5.00479 	 10.3917 	 
C 	 -127.784 	 3.97743 	 10.8125 	 
C 	 -127.538 	 3.11233 	 9.67582 	 
C 	 -128.014 	 3.63558 	 8.47619 	 
H 	 -127.433 	 3.82766 	 11.8278 	 
C 	 -126.728 	 1.8349 	 9.91918 	 
H 	 -125.92 	 1.89191 	 10.7022 	 
H 	 -126.129 	 1.58455 	 9.04265 	 
C 	 -127.587 	 0.545052 	 10.1563 	 
H 	 -126.876 	 -0.295486 	 10.3339 	 
H 	 -128.035 	 0.324375 	 9.27345 	 
C 	 -128.53 	 0.557366 	 11.4014 	 
H 	 -127.944 	 0.835751 	 12.3371 	 
H 	 -129.095 	 -0.396784 	 11.5271 	 
H 	 -129.335 	 1.32178 	 11.275 	 
H 	 -128.318 	 2.48677 	 3.67909 	 
H 	 -129.189 	 5.61647 	 11.0885 	 
*
