! wB97X-D3 SP def2-SVP
%pal
nprocs 24
end

* xyz 0 1
S 	 -31.2624 	 14.6979 	 -2.47794 	 
C 	 -32.5316 	 13.5642 	 -2.66716 	 
C 	 -32.3571 	 12.5336 	 -1.73584 	 
C 	 -31.3215 	 12.8096 	 -0.724793 	 
C 	 -30.6114 	 13.9819 	 -1.03841 	 
H 	 -30.991 	 12.1846 	 0.0738887 	 
C 	 -33.1205 	 11.1914 	 -1.6913 	 
H 	 -32.3969 	 10.4011 	 -1.69392 	 
H 	 -33.6728 	 11.0559 	 -2.61096 	 
C 	 -34.1192 	 11.0877 	 -0.443757 	 
H 	 -34.0804 	 11.9962 	 0.150899 	 
H 	 -35.1145 	 10.8685 	 -0.853064 	 
C 	 -33.7154 	 10.124 	 0.601378 	 
H 	 -34.4799 	 10.0856 	 1.39901 	 
H 	 -33.6858 	 9.03523 	 0.193085 	 
H 	 -32.6772 	 10.3321 	 0.90653 	 
S 	 -28.2072 	 15.1164 	 -1.31744 	 
C 	 -27.3496 	 15.8734 	 0.0558049 	 
C 	 -28.0177 	 15.624 	 1.2558 	 
C 	 -29.1887 	 14.7832 	 1.01319 	 
C 	 -29.4785 	 14.5887 	 -0.349814 	 
H 	 -27.6107 	 16.1316 	 2.13183 	 
C 	 -30.2109 	 14.4216 	 2.06977 	 
H 	 -31.1858 	 14.4989 	 1.61716 	 
H 	 -30.293 	 15.1601 	 2.84585 	 
C 	 -30.0741 	 13.1025 	 2.83576 	 
H 	 -29.0947 	 12.9852 	 3.30455 	 
H 	 -29.9721 	 12.317 	 1.98504 	 
C 	 -31.1989 	 12.8112 	 3.7841 	 
H 	 -32.2668 	 13.1093 	 3.40469 	 
H 	 -30.9321 	 13.4086 	 4.58183 	 
H 	 -31.1886 	 11.7794 	 4.15958 	 
H 	 -33.3625 	 13.623 	 -3.43414 	 
H 	 -26.4454 	 16.2687 	 -0.048096 	 
*
