! wB97X-D3 SP def2-SVP
%pal
nprocs 24
end

* xyz 0 1
S 	 40.7855 	 -23.1912 	 -116.462 	 
C 	 42.4577 	 -23.5471 	 -116.82 	 
C 	 43.2632 	 -22.9671 	 -115.845 	 
C 	 42.5064 	 -22.4651 	 -114.726 	 
C 	 41.1882 	 -22.7604 	 -114.843 	 
H 	 42.9438 	 -21.8996 	 -113.941 	 
C 	 44.7305 	 -22.835 	 -115.976 	 
H 	 45.2479 	 -21.9881 	 -115.573 	 
H 	 44.9349 	 -22.7047 	 -117.032 	 
C 	 45.5648 	 -24.0743 	 -115.738 	 
H 	 45.1257 	 -24.9375 	 -116.152 	 
H 	 46.5612 	 -24.018 	 -116.263 	 
C 	 45.9068 	 -24.3311 	 -114.281 	 
H 	 46.2552 	 -23.4193 	 -113.749 	 
H 	 45.013 	 -24.7227 	 -113.804 	 
H 	 46.7241 	 -25.0716 	 -114.156 	 
S 	 39.0216 	 -21.1217 	 -114.473 	 
C 	 38.4477 	 -20.9547 	 -112.878 	 
C 	 39.128 	 -21.6374 	 -111.902 	 
C 	 40.2037 	 -22.4627 	 -112.476 	 
C 	 40.1865 	 -22.3405 	 -113.893 	 
H 	 39.0028 	 -21.5408 	 -110.866 	 
C 	 41.1884 	 -23.1953 	 -111.561 	 
H 	 41.8868 	 -22.414 	 -111.399 	 
H 	 41.6517 	 -23.8962 	 -112.217 	 
C 	 40.7114 	 -23.7342 	 -110.211 	 
H 	 40.0774 	 -23.0544 	 -109.616 	 
H 	 41.5424 	 -24.2062 	 -109.663 	 
C 	 39.6875 	 -24.933 	 -110.334 	 
H 	 40.1609 	 -25.7268 	 -110.969 	 
H 	 38.7383 	 -24.5983 	 -110.841 	 
H 	 39.4158 	 -25.2554 	 -109.299 	 
H 	 42.7476 	 -24.0842 	 -117.726 	 
H 	 37.5927 	 -20.346 	 -112.682 	 
*
