! wB97X-D3 SP def2-SVP
%pal
nprocs 24
end

* xyz 0 1
S 	 -51.5972 	 -41.1735 	 -79.1286 	 
C 	 -53.0224 	 -41.2125 	 -78.1251 	 
C 	 -53.6809 	 -42.3921 	 -78.2192 	 
C 	 -52.9787 	 -43.3451 	 -78.9916 	 
C 	 -51.757 	 -42.8998 	 -79.3938 	 
H 	 -53.2786 	 -44.3536 	 -79.048 	 
C 	 -55.0359 	 -42.6816 	 -77.639 	 
H 	 -55.4998 	 -43.469 	 -78.2777 	 
H 	 -55.5306 	 -41.6822 	 -77.8204 	 
C 	 -55.0116 	 -42.9416 	 -76.1465 	 
H 	 -54.4064 	 -43.8463 	 -76.0068 	 
H 	 -54.6548 	 -42.0911 	 -75.4985 	 
C 	 -56.4359 	 -43.2538 	 -75.6653 	 
H 	 -56.7978 	 -44.0849 	 -76.3342 	 
H 	 -56.5275 	 -43.6531 	 -74.6634 	 
H 	 -57.1928 	 -42.4063 	 -75.7305 	 
S 	 -50.457 	 -45.3693 	 -79.835 	 
C 	 -49.1756 	 -45.5193 	 -80.9899 	 
C 	 -49.046 	 -44.3844 	 -81.6916 	 
C 	 -49.9789 	 -43.325 	 -81.292 	 
C 	 -50.783 	 -43.6475 	 -80.212 	 
H 	 -48.33 	 -44.3389 	 -82.5258 	 
C 	 -50.0489 	 -42.0702 	 -82.1727 	 
H 	 -51.0737 	 -41.8206 	 -82.3408 	 
H 	 -49.6419 	 -42.3976 	 -83.0881 	 
C 	 -49.1065 	 -40.925 	 -81.7408 	 
H 	 -49.4978 	 -40.5593 	 -80.7958 	 
H 	 -49.1626 	 -40.0909 	 -82.4454 	 
C 	 -47.5365 	 -41.3253 	 -81.8054 	 
H 	 -47.3294 	 -41.9567 	 -82.6946 	 
H 	 -47.3658 	 -41.9032 	 -80.9106 	 
H 	 -46.8701 	 -40.4588 	 -81.6786 	 
H 	 -53.2838 	 -40.3422 	 -77.5588 	 
H 	 -48.518 	 -46.3896 	 -81.1394 	 
*
