! wB97X-D3 SP def2-SVP
%pal
nprocs 24
end

* xyz 0 1
S 	 -102.251 	 -1.57561 	 -122.336 	 
C 	 -103.733 	 -2.32356 	 -122.974 	 
C 	 -104.491 	 -2.84845 	 -121.96 	 
C 	 -103.852 	 -2.7282 	 -120.701 	 
C 	 -102.596 	 -2.14614 	 -120.717 	 
H 	 -104.392 	 -3.02748 	 -119.817 	 
C 	 -105.788 	 -3.58142 	 -122.085 	 
H 	 -105.755 	 -4.63509 	 -121.835 	 
H 	 -105.987 	 -3.7839 	 -123.176 	 
C 	 -106.951 	 -2.8861 	 -121.571 	 
H 	 -106.983 	 -2.97775 	 -120.522 	 
H 	 -106.788 	 -1.85449 	 -121.89 	 
C 	 -108.29 	 -3.48594 	 -121.936 	 
H 	 -108.514 	 -3.19975 	 -122.978 	 
H 	 -108.449 	 -4.57728 	 -121.901 	 
H 	 -109.036 	 -2.98512 	 -121.371 	 
S 	 -100.809 	 -0.429173 	 -119.558 	 
C 	 -99.8537 	 -0.931294 	 -118.15 	 
C 	 -100.345 	 -2.13749 	 -117.728 	 
C 	 -101.318 	 -2.69979 	 -118.542 	 
C 	 -101.676 	 -1.89796 	 -119.598 	 
H 	 -99.9887 	 -2.6004 	 -116.827 	 
C 	 -102.023 	 -3.94012 	 -118.076 	 
H 	 -103.106 	 -3.68135 	 -118.055 	 
H 	 -101.872 	 -4.19345 	 -116.993 	 
C 	 -101.973 	 -5.19128 	 -119.001 	 
H 	 -100.96 	 -5.42948 	 -119.21 	 
H 	 -102.492 	 -4.94789 	 -119.968 	 
C 	 -102.655 	 -6.39209 	 -118.282 	 
H 	 -103.639 	 -6.04398 	 -117.954 	 
H 	 -102.151 	 -6.81405 	 -117.414 	 
H 	 -102.738 	 -7.1338 	 -119.084 	 
H 	 -104.068 	 -2.33761 	 -124.03 	 
H 	 -99.0626 	 -0.341205 	 -117.761 	 
*
