! wB97X-D3 SP def2-SVP
%pal
nprocs 24
end

* xyz 0 1
S 	 -81.5548 	 -33.049 	 -55.7501 	 
C 	 -79.8461 	 -33.3327 	 -55.6406 	 
C 	 -79.3335 	 -32.6802 	 -54.5082 	 
C 	 -80.3303 	 -31.9584 	 -53.7965 	 
C 	 -81.562 	 -32.0199 	 -54.3415 	 
H 	 -80.2039 	 -31.3293 	 -52.9011 	 
C 	 -77.8303 	 -32.7005 	 -54.1992 	 
H 	 -77.7327 	 -33.6721 	 -53.5583 	 
H 	 -77.5904 	 -31.9638 	 -53.4849 	 
C 	 -76.8796 	 -32.3619 	 -55.3364 	 
H 	 -75.8278 	 -32.3777 	 -55.0806 	 
H 	 -76.9832 	 -33.0243 	 -56.1813 	 
C 	 -77.1521 	 -30.8503 	 -55.6892 	 
H 	 -76.2308 	 -30.3852 	 -56.0257 	 
H 	 -77.8367 	 -30.6594 	 -56.5952 	 
H 	 -77.452 	 -30.1975 	 -54.9351 	 
S 	 -83.8267 	 -30.4649 	 -55.1204 	 
C 	 -84.8307 	 -29.8708 	 -53.7944 	 
C 	 -84.3463 	 -30.1886 	 -52.5522 	 
C 	 -83.2231 	 -31.0883 	 -52.6415 	 
C 	 -82.7603 	 -31.3412 	 -53.9436 	 
H 	 -84.8792 	 -29.8883 	 -51.71 	 
C 	 -82.6042 	 -31.6448 	 -51.3742 	 
H 	 -82.0142 	 -30.8179 	 -50.9589 	 
H 	 -81.8783 	 -32.3643 	 -51.7073 	 
C 	 -83.5 	 -32.1619 	 -50.2772 	 
H 	 -84.1049 	 -31.3867 	 -49.7574 	 
H 	 -82.8632 	 -32.5437 	 -49.5058 	 
C 	 -84.4499 	 -33.2797 	 -50.7643 	 
H 	 -84.1013 	 -33.9264 	 -51.5815 	 
H 	 -85.4255 	 -32.9492 	 -50.9961 	 
H 	 -84.4884 	 -33.8937 	 -49.8855 	 
H 	 -79.2527 	 -33.8926 	 -56.354 	 
H 	 -85.7717 	 -29.3283 	 -53.9919 	 
*
