! wB97X-D3 SP def2-SVP
%pal
nprocs 24
end

* xyz 0 1
S 	 -56.1007 	 2.71086 	 -19.9071 	 
C 	 -57.7418 	 2.0591 	 -19.5856 	 
C 	 -58.4158 	 2.96952 	 -18.8202 	 
C 	 -57.6331 	 4.11715 	 -18.415 	 
C 	 -56.3246 	 4.09874 	 -18.829 	 
H 	 -58.0132 	 4.92325 	 -17.8249 	 
C 	 -59.859 	 2.91284 	 -18.3589 	 
H 	 -60.4596 	 2.43471 	 -19.1224 	 
H 	 -60.3407 	 3.88154 	 -18.271 	 
C 	 -60.0433 	 2.06056 	 -17.0794 	 
H 	 -59.9399 	 0.991341 	 -17.3191 	 
H 	 -59.32 	 2.4078 	 -16.4058 	 
C 	 -61.4971 	 2.1092 	 -16.5284 	 
H 	 -61.5793 	 1.71223 	 -15.4768 	 
H 	 -62.0321 	 3.11143 	 -16.5042 	 
H 	 -62.143 	 1.50089 	 -17.1395 	 
S 	 -53.7434 	 4.30281 	 -17.8565 	 
C 	 -53.0249 	 5.83091 	 -17.3674 	 
C 	 -53.9208 	 6.84885 	 -17.7762 	 
C 	 -55.0592 	 6.36622 	 -18.4479 	 
C 	 -55.2263 	 4.98635 	 -18.407 	 
H 	 -53.7068 	 7.8502 	 -17.5418 	 
C 	 -55.9575 	 7.3964 	 -19.0651 	 
H 	 -55.5584 	 8.36627 	 -18.962 	 
H 	 -56.8105 	 7.40845 	 -18.3551 	 
C 	 -56.4484 	 7.04193 	 -20.4128 	 
H 	 -56.9684 	 6.06182 	 -20.436 	 
H 	 -55.5497 	 6.86594 	 -21.0283 	 
C 	 -57.4579 	 8.06163 	 -20.9223 	 
H 	 -56.9932 	 9.04628 	 -21.2808 	 
H 	 -58.2699 	 8.21627 	 -20.1503 	 
H 	 -57.8502 	 7.5302 	 -21.7665 	 
H 	 -58.0936 	 1.08325 	 -19.9747 	 
H 	 -51.9741 	 5.9851 	 -16.9842 	 
*
