! wB97X-D3 SP def2-SVP
%pal
nprocs 24
end

* xyz 0 1
S 	 -138.16 	 12.6659 	 -1.31522 	 
C 	 -137.399 	 11.1557 	 -0.808225 	 
C 	 -136.046 	 11.369 	 -0.565706 	 
C 	 -135.614 	 12.6507 	 -0.972254 	 
C 	 -136.545 	 13.4373 	 -1.61774 	 
H 	 -134.594 	 12.9772 	 -0.943687 	 
C 	 -135.093 	 10.394 	 0.135428 	 
H 	 -135.606 	 9.4648 	 0.272426 	 
H 	 -134.795 	 10.8177 	 1.06687 	 
C 	 -133.835 	 10.1071 	 -0.682354 	 
H 	 -133.258 	 11.0048 	 -0.776214 	 
H 	 -133.194 	 9.47203 	 -0.0714726 	 
C 	 -134.104 	 9.45627 	 -2.02999 	 
H 	 -134.686 	 10.0849 	 -2.77761 	 
H 	 -133.194 	 9.26392 	 -2.42006 	 
H 	 -134.722 	 8.58383 	 -2.01806 	 
S 	 -137.464 	 16.1015 	 -1.54378 	 
C 	 -136.784 	 17.2102 	 -2.72417 	 
C 	 -135.71 	 16.6416 	 -3.41457 	 
C 	 -135.443 	 15.2884 	 -3.04967 	 
C 	 -136.35 	 14.8004 	 -2.0966 	 
H 	 -135.196 	 17.1608 	 -4.18764 	 
C 	 -134.369 	 14.4846 	 -3.75313 	 
H 	 -134.518 	 14.8299 	 -4.77252 	 
H 	 -134.677 	 13.4505 	 -3.75407 	 
C 	 -132.885 	 14.7063 	 -3.28532 	 
H 	 -132.846 	 14.6141 	 -2.1764 	 
H 	 -132.593 	 15.6942 	 -3.60588 	 
C 	 -131.86 	 13.8359 	 -3.98047 	 
H 	 -131.81 	 14.1216 	 -5.02003 	 
H 	 -132.144 	 12.7691 	 -3.98554 	 
H 	 -130.838 	 14.0974 	 -3.79751 	 
H 	 -137.975 	 10.2681 	 -0.398716 	 
H 	 -137.147 	 18.2129 	 -2.93008 	 
*
