! wB97X-D3 SP def2-SVP
%pal
nprocs 24
end

* xyz 0 1
S 	 -105.929 	 -2.00733 	 -107.786 	 
C 	 -106.215 	 -1.39038 	 -106.187 	 
C 	 -105.246 	 -0.481482 	 -105.858 	 
C 	 -104.251 	 -0.279299 	 -106.886 	 
C 	 -104.475 	 -1.07619 	 -107.986 	 
H 	 -103.431 	 0.386381 	 -106.886 	 
C 	 -105.23 	 0.177904 	 -104.501 	 
H 	 -104.667 	 -0.433752 	 -103.849 	 
H 	 -106.253 	 0.360463 	 -104.098 	 
C 	 -104.39 	 1.4637 	 -104.415 	 
H 	 -103.402 	 1.09848 	 -104.46 	 
H 	 -104.538 	 2.09914 	 -105.305 	 
C 	 -104.547 	 2.31524 	 -103.111 	 
H 	 -105.567 	 2.47884 	 -102.929 	 
H 	 -104.146 	 1.71751 	 -102.216 	 
H 	 -104.034 	 3.26309 	 -103.156 	 
S 	 -103.756 	 -2.54272 	 -110.194 	 
C 	 -102.812 	 -1.87748 	 -111.487 	 
C 	 -102.454 	 -0.564364 	 -111.233 	 
C 	 -102.938 	 -0.176847 	 -109.906 	 
C 	 -103.659 	 -1.15647 	 -109.209 	 
H 	 -101.966 	 0.126927 	 -111.971 	 
C 	 -102.748 	 1.27055 	 -109.417 	 
H 	 -103.472 	 1.50368 	 -108.663 	 
H 	 -103.037 	 1.95227 	 -110.247 	 
C 	 -101.279 	 1.62175 	 -108.904 	 
H 	 -100.6 	 1.30646 	 -109.638 	 
H 	 -101.031 	 1.03652 	 -108.046 	 
C 	 -101.239 	 3.15548 	 -108.705 	 
H 	 -100.236 	 3.53011 	 -108.347 	 
H 	 -102.001 	 3.52766 	 -108.022 	 
H 	 -101.296 	 3.64952 	 -109.722 	 
H 	 -107.094 	 -1.55562 	 -105.606 	 
H 	 -102.618 	 -2.4409 	 -112.392 	 
*
