! wB97X-D3 SP def2-SVP
%pal
nprocs 24
end

* xyz 0 1
S 	 -86.8551 	 -45.2457 	 -83.6775 	 
C 	 -88.1574 	 -44.0479 	 -83.7928 	 
C 	 -88.8475 	 -43.9747 	 -82.5672 	 
C 	 -88.2043 	 -44.8454 	 -81.5335 	 
C 	 -87.1141 	 -45.6041 	 -81.9636 	 
H 	 -88.6217 	 -44.7965 	 -80.5397 	 
C 	 -90.0136 	 -43.0878 	 -82.2907 	 
H 	 -90.5301 	 -42.9479 	 -83.2076 	 
H 	 -89.6323 	 -42.1284 	 -81.9659 	 
C 	 -91.0625 	 -43.6494 	 -81.3644 	 
H 	 -91.3061 	 -44.6087 	 -81.6391 	 
H 	 -90.5682 	 -43.6782 	 -80.3673 	 
C 	 -92.3585 	 -42.7558 	 -81.1742 	 
H 	 -92.9575 	 -42.6616 	 -82.1367 	 
H 	 -93.0746 	 -43.266 	 -80.6514 	 
H 	 -92.1316 	 -41.749 	 -80.7973 	 
S 	 -85.5535 	 -47.8715 	 -82.0379 	 
C 	 -84.5965 	 -48.2683 	 -80.6055 	 
C 	 -84.6397 	 -47.3011 	 -79.6585 	 
C 	 -85.5946 	 -46.2539 	 -79.9596 	 
C 	 -86.1167 	 -46.4388 	 -81.227 	 
H 	 -84.0406 	 -47.265 	 -78.7999 	 
C 	 -85.8057 	 -45.0199 	 -79.003 	 
H 	 -86.8339 	 -44.9963 	 -78.6845 	 
H 	 -85.7322 	 -44.1838 	 -79.6367 	 
C 	 -84.804 	 -44.8012 	 -77.747 	 
H 	 -84.8529 	 -45.7465 	 -77.2253 	 
H 	 -85.3116 	 -44.035 	 -77.1002 	 
C 	 -83.3964 	 -44.5314 	 -78.1389 	 
H 	 -83.0693 	 -45.0582 	 -79.0325 	 
H 	 -82.6263 	 -44.8817 	 -77.3884 	 
H 	 -83.315 	 -43.4573 	 -78.2838 	 
H 	 -88.3718 	 -43.5583 	 -84.7515 	 
H 	 -84.044 	 -49.1216 	 -80.5563 	 
*
