! wB97X-D3 SP def2-SVP
%pal
nprocs 24
end

* xyz 0 1
S 	 -52.239 	 -49.6248 	 -82.3243 	 
C 	 -52.6547 	 -47.9011 	 -82.3742 	 
C 	 -51.58 	 -47.1874 	 -81.8733 	 
C 	 -50.5883 	 -47.9302 	 -81.1786 	 
C 	 -50.8488 	 -49.303 	 -81.2663 	 
H 	 -49.7005 	 -47.5962 	 -80.6602 	 
C 	 -51.5323 	 -45.6727 	 -81.96 	 
H 	 -51.0899 	 -45.301 	 -81.0596 	 
H 	 -52.4826 	 -45.228 	 -81.9155 	 
C 	 -50.702 	 -45.0583 	 -83.0429 	 
H 	 -49.6944 	 -45.3549 	 -82.8279 	 
H 	 -50.9376 	 -45.5124 	 -83.9752 	 
C 	 -50.7937 	 -43.5511 	 -83.1739 	 
H 	 -50.7123 	 -43.158 	 -82.13 	 
H 	 -50.1245 	 -43.1398 	 -83.9034 	 
H 	 -51.8424 	 -43.4123 	 -83.442 	 
S 	 -50.7038 	 -51.6992 	 -79.9859 	 
C 	 -49.2323 	 -52.3122 	 -79.4221 	 
C 	 -48.161 	 -51.5255 	 -79.8208 	 
C 	 -48.5642 	 -50.4601 	 -80.6691 	 
C 	 -49.9644 	 -50.3589 	 -80.842 	 
H 	 -47.1348 	 -51.7889 	 -79.6282 	 
C 	 -47.6519 	 -49.3125 	 -81.2135 	 
H 	 -48.2727 	 -48.7031 	 -81.8458 	 
H 	 -46.9906 	 -49.7477 	 -81.9422 	 
C 	 -46.7896 	 -48.4914 	 -80.1867 	 
H 	 -47.3416 	 -48.7027 	 -79.287 	 
H 	 -46.8522 	 -47.3956 	 -80.2358 	 
C 	 -45.3015 	 -48.8813 	 -80.0488 	 
H 	 -44.6262 	 -48.3312 	 -80.7395 	 
H 	 -45.2276 	 -49.9608 	 -80.2183 	 
H 	 -44.9566 	 -48.6987 	 -79.0719 	 
H 	 -53.508 	 -47.382 	 -82.9298 	 
H 	 -49.0622 	 -53.0619 	 -78.6568 	 
*
