! wB97X-D3 SP def2-SVP
%pal
nprocs 24
end

* xyz 0 1
S 	 -48.7624 	 5.17774 	 -20.4329 	 
C 	 -49.626 	 3.68974 	 -20.8221 	 
C 	 -50.4029 	 3.24264 	 -19.8247 	 
C 	 -50.4574 	 4.19405 	 -18.7696 	 
C 	 -49.5735 	 5.27261 	 -18.918 	 
H 	 -51.004 	 4.05705 	 -17.8807 	 
C 	 -51.0588 	 1.87819 	 -19.7587 	 
H 	 -50.4307 	 1.28832 	 -19.0928 	 
H 	 -51.0395 	 1.49374 	 -20.8026 	 
C 	 -52.4501 	 1.90198 	 -19.2704 	 
H 	 -52.3948 	 2.41942 	 -18.303 	 
H 	 -53.1238 	 2.40549 	 -20.0123 	 
C 	 -52.9375 	 0.462714 	 -18.9499 	 
H 	 -53.8806 	 0.400131 	 -18.3851 	 
H 	 -53.0574 	 -0.0471536 	 -19.9257 	 
H 	 -52.1462 	 0.026491 	 -18.281 	 
S 	 -49.3322 	 8.04362 	 -18.8887 	 
C 	 -48.8191 	 8.76723 	 -17.3217 	 
C 	 -49.0108 	 7.91647 	 -16.2694 	 
C 	 -49.3162 	 6.56914 	 -16.6888 	 
C 	 -49.4266 	 6.47101 	 -18.0729 	 
H 	 -48.7853 	 8.22195 	 -15.3143 	 
C 	 -49.5332 	 5.45375 	 -15.6188 	 
H 	 -50.3222 	 4.77209 	 -15.8718 	 
H 	 -50.096 	 5.97726 	 -14.8723 	 
C 	 -48.2816 	 4.75761 	 -15.1142 	 
H 	 -48.0922 	 3.91342 	 -15.8417 	 
H 	 -48.4781 	 4.26936 	 -14.1871 	 
C 	 -47.1428 	 5.6783 	 -14.798 	 
H 	 -46.8836 	 6.28217 	 -15.6562 	 
H 	 -46.3222 	 5.08766 	 -14.4516 	 
H 	 -47.4209 	 6.31553 	 -13.9545 	 
H 	 -49.5354 	 3.24695 	 -21.7899 	 
H 	 -48.3014 	 9.6816 	 -17.2048 	 
*
