! wB97X-D3 SP def2-SVP
%pal
nprocs 24
end

* xyz 0 1
S 	 -1.48336 	 -22.0534 	 -113.37 	 
C 	 -1.38361 	 -23.2733 	 -114.559 	 
C 	 -1.48944 	 -24.4944 	 -114.049 	 
C 	 -1.65422 	 -24.4854 	 -112.643 	 
C 	 -1.89208 	 -23.217 	 -112.138 	 
H 	 -1.74669 	 -25.3407 	 -111.973 	 
C 	 -1.40348 	 -25.7143 	 -114.903 	 
H 	 -0.46807 	 -25.7417 	 -115.363 	 
H 	 -2.12394 	 -25.5948 	 -115.743 	 
C 	 -1.68507 	 -27.1142 	 -114.17 	 
H 	 -0.950737 	 -27.256 	 -113.353 	 
H 	 -2.77004 	 -27.1333 	 -113.776 	 
C 	 -1.45393 	 -28.342 	 -115.164 	 
H 	 -1.66133 	 -29.2508 	 -114.653 	 
H 	 -2.02715 	 -28.1768 	 -116.038 	 
H 	 -0.435566 	 -28.316 	 -115.502 	 
S 	 -3.37896 	 -21.3286 	 -110.842 	 
C 	 -4.0577 	 -21.6715 	 -109.206 	 
C 	 -3.61532 	 -22.8224 	 -108.7 	 
C 	 -2.68852 	 -23.4747 	 -109.631 	 
C 	 -2.43908 	 -22.8325 	 -110.834 	 
H 	 -3.94068 	 -23.146 	 -107.689 	 
C 	 -2.1763 	 -24.8331 	 -109.261 	 
H 	 -1.88821 	 -24.91 	 -108.206 	 
H 	 -1.30504 	 -24.972 	 -109.867 	 
C 	 -3.09135 	 -25.9755 	 -109.539 	 
H 	 -3.60529 	 -25.7655 	 -110.492 	 
H 	 -3.83528 	 -25.9434 	 -108.766 	 
C 	 -2.423 	 -27.3217 	 -109.498 	 
H 	 -1.8047 	 -27.4443 	 -110.417 	 
H 	 -3.04406 	 -28.1695 	 -109.556 	 
H 	 -1.82561 	 -27.5095 	 -108.664 	 
H 	 -1.21959 	 -23.1279 	 -115.598 	 
H 	 -4.78254 	 -21.0585 	 -108.677 	 
*
