! wB97X-D3 SP def2-SVP
%pal
nprocs 24
end

* xyz 0 1
S 	 -108.559 	 53.29 	 -73.5608 	 
C 	 -108.78 	 52.4413 	 -75.1031 	 
C 	 -107.587 	 52.0905 	 -75.6391 	 
C 	 -106.467 	 52.5832 	 -74.9251 	 
C 	 -106.801 	 53.169 	 -73.7274 	 
H 	 -105.371 	 52.4672 	 -75.0503 	 
C 	 -107.452 	 51.3439 	 -76.9643 	 
H 	 -108.276 	 50.6369 	 -76.9685 	 
H 	 -106.556 	 50.7701 	 -76.8202 	 
C 	 -107.3 	 52.1434 	 -78.2825 	 
H 	 -108.089 	 52.8388 	 -78.463 	 
H 	 -106.354 	 52.6987 	 -78.2298 	 
C 	 -107.185 	 51.1458 	 -79.4351 	 
H 	 -108.11 	 50.5747 	 -79.2513 	 
H 	 -107.293 	 51.5863 	 -80.4176 	 
H 	 -106.271 	 50.5463 	 -79.3563 	 
S 	 -104.468 	 52.5647 	 -72.4553 	 
C 	 -104.026 	 53.4683 	 -71.0242 	 
C 	 -104.95 	 54.4719 	 -70.7139 	 
C 	 -106.049 	 54.5866 	 -71.6266 	 
C 	 -105.969 	 53.4747 	 -72.52 	 
H 	 -104.925 	 55.16 	 -69.8268 	 
C 	 -107.12 	 55.5318 	 -71.4198 	 
H 	 -107.727 	 55.6671 	 -72.3202 	 
H 	 -106.709 	 56.5047 	 -71.2214 	 
C 	 -108.051 	 55.2084 	 -70.1528 	 
H 	 -107.553 	 55.1974 	 -69.1948 	 
H 	 -108.649 	 54.3149 	 -70.3198 	 
C 	 -109.218 	 56.2143 	 -70.0108 	 
H 	 -108.914 	 57.1956 	 -69.598 	 
H 	 -109.866 	 55.741 	 -69.3598 	 
H 	 -109.811 	 56.4338 	 -70.9041 	 
H 	 -109.674 	 52.164 	 -75.6326 	 
H 	 -103.129 	 53.2549 	 -70.5179 	 
*
