! wB97X-D3 SP def2-SVP
%pal
nprocs 24
end

* xyz 0 1
S 	 -100.175 	 3.22707 	 -117.03 	 
C 	 -100.82 	 4.71196 	 -117.915 	 
C 	 -101.073 	 5.71129 	 -117.04 	 
C 	 -100.535 	 5.33517 	 -115.752 	 
C 	 -99.9724 	 4.09496 	 -115.524 	 
H 	 -100.654 	 6.05625 	 -114.914 	 
C 	 -101.875 	 6.99921 	 -117.268 	 
H 	 -102.251 	 7.35445 	 -116.33 	 
H 	 -102.752 	 6.76698 	 -117.907 	 
C 	 -100.958 	 8.0788 	 -117.947 	 
H 	 -99.9369 	 7.99909 	 -117.501 	 
H 	 -100.878 	 7.94079 	 -118.992 	 
C 	 -101.54 	 9.51126 	 -117.771 	 
H 	 -102.619 	 9.58327 	 -118.077 	 
H 	 -101.619 	 9.89372 	 -116.747 	 
H 	 -100.973 	 10.1854 	 -118.385 	 
S 	 -98.3269 	 4.56024 	 -113.378 	 
C 	 -97.5188 	 3.25234 	 -112.636 	 
C 	 -98.2802 	 2.07641 	 -112.772 	 
C 	 -99.3185 	 2.16433 	 -113.762 	 
C 	 -99.3596 	 3.51634 	 -114.341 	 
H 	 -98.1387 	 1.0958 	 -112.285 	 
C 	 -100.272 	 1.11962 	 -114.195 	 
H 	 -99.7686 	 0.524223 	 -114.897 	 
H 	 -101.094 	 1.50728 	 -114.813 	 
C 	 -101.008 	 0.41495 	 -112.99 	 
H 	 -101.683 	 1.14832 	 -112.567 	 
H 	 -100.175 	 0.154417 	 -112.237 	 
C 	 -101.889 	 -0.782897 	 -113.454 	 
H 	 -102.46 	 -1.07989 	 -112.637 	 
H 	 -101.315 	 -1.66057 	 -113.781 	 
H 	 -102.672 	 -0.56551 	 -114.148 	 
H 	 -101.044 	 4.75166 	 -119.052 	 
H 	 -96.641 	 3.28751 	 -112.033 	 
*
