! wB97X-D3 SP def2-SVP
%pal
nprocs 24
end

* xyz 0 1
S 	 18.4705 	 -12.7022 	 -128.417 	 
C 	 17.0526 	 -12.653 	 -129.482 	 
C 	 16.1119 	 -13.5365 	 -128.96 	 
C 	 16.515 	 -14.2501 	 -127.803 	 
C 	 17.7293 	 -13.8658 	 -127.275 	 
H 	 15.8808 	 -14.9567 	 -127.343 	 
C 	 14.6985 	 -13.672 	 -129.607 	 
H 	 14.3956 	 -14.6881 	 -129.455 	 
H 	 14.9102 	 -13.5921 	 -130.649 	 
C 	 13.5933 	 -12.7542 	 -128.977 	 
H 	 13.4821 	 -12.9436 	 -127.943 	 
H 	 14.0485 	 -11.7577 	 -128.952 	 
C 	 12.2325 	 -12.8565 	 -129.605 	 
H 	 11.6256 	 -12.1241 	 -129.125 	 
H 	 12.216 	 -12.6061 	 -130.675 	 
H 	 11.7598 	 -13.8147 	 -129.419 	 
S 	 20.1685 	 -14.5806 	 -126.386 	 
C 	 20.393 	 -15.4022 	 -124.835 	 
C 	 19.1138 	 -15.6679 	 -124.307 	 
C 	 18.0214 	 -15.1393 	 -125.069 	 
C 	 18.4487 	 -14.3736 	 -126.137 	 
H 	 19.0813 	 -16.2006 	 -123.443 	 
C 	 16.5874 	 -15.3184 	 -124.608 	 
H 	 15.8677 	 -14.7832 	 -125.173 	 
H 	 16.7033 	 -14.7533 	 -123.665 	 
C 	 16.1551 	 -16.7805 	 -124.408 	 
H 	 15.1308 	 -16.8295 	 -123.881 	 
H 	 16.7141 	 -17.2657 	 -123.779 	 
C 	 15.8703 	 -17.6529 	 -125.687 	 
H 	 16.7423 	 -18.0095 	 -126.272 	 
H 	 15.2449 	 -17.1582 	 -126.438 	 
H 	 15.2752 	 -18.5547 	 -125.47 	 
H 	 16.8434 	 -12.0178 	 -130.366 	 
H 	 21.2781 	 -15.8237 	 -124.412 	 
*
