! wB97X-D3 SP def2-SVP
%pal
nprocs 24
end

* xyz 0 1
S 	 -60.7807 	 10.2181 	 -15.1806 	 
C 	 -60.8174 	 8.68707 	 -14.3498 	 
C 	 -61.1654 	 7.67679 	 -15.2851 	 
C 	 -61.2857 	 8.10139 	 -16.6336 	 
C 	 -60.9917 	 9.45134 	 -16.7291 	 
H 	 -61.4696 	 7.6168 	 -17.6153 	 
C 	 -61.6379 	 6.22844 	 -14.8754 	 
H 	 -62.6441 	 6.32759 	 -14.4638 	 
H 	 -60.9748 	 5.84738 	 -14.0007 	 
C 	 -61.8953 	 5.10953 	 -15.9003 	 
H 	 -62.5424 	 5.5049 	 -16.7735 	 
H 	 -61.0844 	 4.84298 	 -16.4939 	 
C 	 -62.5778 	 3.85579 	 -15.2043 	 
H 	 -62.2595 	 3.62561 	 -14.1848 	 
H 	 -63.6138 	 4.02993 	 -14.9248 	 
H 	 -62.4936 	 2.93379 	 -15.8591 	 
S 	 -61.7823 	 11.8274 	 -17.9555 	 
C 	 -61.1647 	 12.2393 	 -19.5013 	 
C 	 -60.2138 	 11.2771 	 -19.9256 	 
C 	 -60.0609 	 10.1659 	 -18.9914 	 
C 	 -60.9279 	 10.2701 	 -17.889 	 
H 	 -59.6492 	 11.491 	 -20.8051 	 
C 	 -58.9616 	 9.08495 	 -19.1173 	 
H 	 -59.2356 	 8.27884 	 -18.3646 	 
H 	 -57.9905 	 9.48348 	 -18.8617 	 
C 	 -59.0417 	 8.31456 	 -20.4397 	 
H 	 -58.2765 	 7.56214 	 -20.5227 	 
H 	 -58.6583 	 8.99552 	 -21.2286 	 
C 	 -60.5172 	 7.70212 	 -20.6872 	 
H 	 -60.5099 	 7.30748 	 -21.711 	 
H 	 -61.405 	 8.37811 	 -20.6615 	 
H 	 -60.6736 	 6.879 	 -19.9715 	 
H 	 -61.034 	 8.62593 	 -13.2694 	 
H 	 -61.3873 	 13.2252 	 -19.9576 	 
*
