! wB97X-D3 SP def2-SVP
%pal
nprocs 24
end

* xyz 0 1
S 	 -117.57 	 24.6489 	 -19.4183 	 
C 	 -116.801 	 25.7594 	 -20.4207 	 
C 	 -116.234 	 26.8369 	 -19.7338 	 
C 	 -116.664 	 26.8204 	 -18.3628 	 
C 	 -117.44 	 25.7025 	 -18.0169 	 
H 	 -116.456 	 27.5452 	 -17.5641 	 
C 	 -115.423 	 27.9238 	 -20.3054 	 
H 	 -114.998 	 28.3983 	 -19.4815 	 
H 	 -116.058 	 28.6661 	 -20.6863 	 
C 	 -114.323 	 27.5476 	 -21.3648 	 
H 	 -113.723 	 26.6202 	 -20.996 	 
H 	 -114.624 	 27.1771 	 -22.278 	 
C 	 -113.429 	 28.7077 	 -21.6923 	 
H 	 -113.107 	 29.4126 	 -20.9056 	 
H 	 -112.55 	 28.3185 	 -22.1884 	 
H 	 -113.964 	 29.2615 	 -22.4626 	 
S 	 -117.877 	 23.8188 	 -16.0028 	 
C 	 -118.376 	 24.4389 	 -14.4585 	 
C 	 -118.961 	 25.6571 	 -14.5911 	 
C 	 -118.813 	 26.2669 	 -15.8921 	 
C 	 -118.079 	 25.4407 	 -16.7673 	 
H 	 -119.431 	 26.0702 	 -13.7916 	 
C 	 -119.276 	 27.725 	 -16.1428 	 
H 	 -118.501 	 28.5352 	 -16.2081 	 
H 	 -119.85 	 28.1539 	 -15.323 	 
C 	 -120.022 	 28.0381 	 -17.477 	 
H 	 -119.489 	 27.5123 	 -18.3583 	 
H 	 -119.804 	 29.099 	 -17.7233 	 
C 	 -121.491 	 27.6863 	 -17.3838 	 
H 	 -121.642 	 26.6972 	 -17.012 	 
H 	 -122.011 	 27.748 	 -18.319 	 
H 	 -122.116 	 28.3473 	 -16.7632 	 
H 	 -116.529 	 25.734 	 -21.4765 	 
H 	 -118.277 	 24.0253 	 -13.4198 	 
*
