! wB97X-D3 SP def2-SVP
%pal
nprocs 24
end

* xyz 0 1
S 	 -78.1265 	 6.42238 	 -108.982 	 
C 	 -79.7922 	 6.19802 	 -109.485 	 
C 	 -79.9893 	 6.76279 	 -110.698 	 
C 	 -78.9835 	 7.69404 	 -111.079 	 
C 	 -77.864 	 7.62641 	 -110.235 	 
H 	 -79.0051 	 8.36167 	 -111.982 	 
C 	 -81.2396 	 6.44453 	 -111.484 	 
H 	 -82.0583 	 7.09223 	 -111.115 	 
H 	 -81.6226 	 5.43076 	 -111.214 	 
C 	 -81.1681 	 6.50034 	 -113.033 	 
H 	 -82.1233 	 6.60156 	 -113.466 	 
H 	 -80.6519 	 7.38474 	 -113.394 	 
C 	 -80.522 	 5.19832 	 -113.696 	 
H 	 -79.4352 	 5.1806 	 -113.498 	 
H 	 -80.9788 	 4.32094 	 -113.266 	 
H 	 -80.6465 	 5.23914 	 -114.768 	 
S 	 -75.3158 	 7.3467 	 -110.984 	 
C 	 -74.3079 	 8.72254 	 -111.309 	 
C 	 -75.0054 	 9.90037 	 -111.133 	 
C 	 -76.2934 	 9.70774 	 -110.553 	 
C 	 -76.6283 	 8.36958 	 -110.446 	 
H 	 -74.697 	 10.8848 	 -111.371 	 
C 	 -77.2103 	 10.8766 	 -110.269 	 
H 	 -76.5934 	 11.6484 	 -109.877 	 
H 	 -77.9132 	 10.7997 	 -109.44 	 
C 	 -77.8214 	 11.4384 	 -111.525 	 
H 	 -78.1334 	 10.5156 	 -112.031 	 
H 	 -77.0444 	 11.9301 	 -112.236 	 
C 	 -79.0383 	 12.2562 	 -111.307 	 
H 	 -79.5515 	 12.5049 	 -112.175 	 
H 	 -78.8602 	 13.1643 	 -110.702 	 
H 	 -79.7114 	 11.744 	 -110.647 	 
H 	 -80.4652 	 5.38628 	 -109.126 	 
H 	 -73.4278 	 8.59938 	 -111.967 	 
*
