! wB97X-D3 SP def2-SVP
%pal
nprocs 24
end

* xyz 0 1
S 	 -99.0996 	 0.698759 	 -106.279 	 
C 	 -98.9837 	 1.447 	 -107.819 	 
C 	 -98.6311 	 2.80335 	 -107.723 	 
C 	 -98.1778 	 3.12722 	 -106.425 	 
C 	 -98.2537 	 2.05143 	 -105.541 	 
H 	 -97.6964 	 4.03512 	 -106.119 	 
C 	 -98.5834 	 3.88699 	 -108.882 	 
H 	 -99.4646 	 3.60323 	 -109.485 	 
H 	 -97.7772 	 3.65515 	 -109.517 	 
C 	 -98.9113 	 5.30587 	 -108.575 	 
H 	 -99.9592 	 5.45371 	 -108.211 	 
H 	 -98.349 	 5.53075 	 -107.689 	 
C 	 -98.5142 	 6.33709 	 -109.705 	 
H 	 -97.4495 	 6.25259 	 -109.997 	 
H 	 -99.1212 	 6.1223 	 -110.622 	 
H 	 -98.7849 	 7.27586 	 -109.357 	 
S 	 -96.4965 	 1.08525 	 -103.693 	 
C 	 -96.5106 	 1.92508 	 -102.17 	 
C 	 -97.3279 	 3.07108 	 -102.086 	 
C 	 -98.0617 	 3.23804 	 -103.28 	 
C 	 -97.7916 	 2.20881 	 -104.186 	 
H 	 -97.2115 	 3.52929 	 -101.089 	 
C 	 -98.9523 	 4.43898 	 -103.434 	 
H 	 -99.7947 	 4.46216 	 -102.734 	 
H 	 -99.2976 	 4.31478 	 -104.384 	 
C 	 -98.1206 	 5.71528 	 -103.463 	 
H 	 -97.1362 	 5.41356 	 -103.893 	 
H 	 -97.9576 	 6.02252 	 -102.448 	 
C 	 -98.7861 	 6.89372 	 -104.181 	 
H 	 -98.7899 	 6.65102 	 -105.223 	 
H 	 -98.1173 	 7.74929 	 -104.097 	 
H 	 -99.8072 	 7.35998 	 -103.917 	 
H 	 -99.2823 	 1.04983 	 -108.808 	 
H 	 -96.0219 	 1.61626 	 -101.302 	 
*
