! wB97X-D3 SP def2-SVP
%pal
nprocs 24
end

* xyz 0 1
S 	 -42.3915 	 18.8735 	 25.9064 	 
C 	 -43.4221 	 19.0606 	 27.3792 	 
C 	 -42.7375 	 18.5383 	 28.456 	 
C 	 -41.5388 	 17.8317 	 28.0965 	 
C 	 -41.2139 	 17.9867 	 26.779 	 
H 	 -40.8304 	 17.3879 	 28.7505 	 
C 	 -43.0565 	 18.7367 	 29.8993 	 
H 	 -43.7016 	 17.9074 	 30.1962 	 
H 	 -43.6781 	 19.6234 	 29.9659 	 
C 	 -41.9103 	 18.9566 	 30.9488 	 
H 	 -41.3519 	 17.9836 	 31.0384 	 
H 	 -41.133 	 19.5748 	 30.5592 	 
C 	 -42.4491 	 19.472 	 32.3151 	 
H 	 -43.4288 	 18.9999 	 32.6169 	 
H 	 -41.8091 	 19.2043 	 33.129 	 
H 	 -42.5863 	 20.5821 	 32.2347 	 
S 	 -40.3464 	 16.5496 	 24.6125 	 
C 	 -38.6209 	 16.0759 	 24.5748 	 
C 	 -37.892 	 16.5883 	 25.6118 	 
C 	 -38.6946 	 17.3942 	 26.4744 	 
C 	 -40.05 	 17.3856 	 26.0985 	 
H 	 -36.8215 	 16.4952 	 25.6931 	 
C 	 -38.1363 	 18.0634 	 27.685 	 
H 	 -37.9739 	 17.3413 	 28.421 	 
H 	 -38.8681 	 18.6758 	 28.2792 	 
C 	 -36.9069 	 18.9769 	 27.5175 	 
H 	 -37.0418 	 19.7221 	 26.7339 	 
H 	 -36.1012 	 18.2631 	 27.2743 	 
C 	 -36.5605 	 19.7315 	 28.8433 	 
H 	 -36.209 	 18.9843 	 29.5354 	 
H 	 -37.3991 	 20.2417 	 29.3593 	 
H 	 -35.7706 	 20.4799 	 28.6432 	 
H 	 -44.2584 	 19.736 	 27.4446 	 
H 	 -38.1272 	 15.4311 	 23.8409 	 
*
