! wB97X-D3 SP def2-SVP
%pal
nprocs 24
end

* xyz 0 1
S 	 -41.8244 	 13.3561 	 21.366 	 
C 	 -43.5139 	 13.8449 	 21.3794 	 
C 	 -43.7636 	 14.7398 	 20.3325 	 
C 	 -42.6504 	 14.918 	 19.3944 	 
C 	 -41.5243 	 14.2144 	 19.8484 	 
H 	 -42.5706 	 15.5051 	 18.4989 	 
C 	 -45.1343 	 15.2616 	 20.0854 	 
H 	 -45.7405 	 14.366 	 20.043 	 
H 	 -45.1657 	 15.7283 	 19.1417 	 
C 	 -45.6751 	 16.2103 	 21.1178 	 
H 	 -45.8127 	 15.7562 	 22.0736 	 
H 	 -44.9516 	 16.9772 	 21.1912 	 
C 	 -47.0995 	 16.7943 	 20.6622 	 
H 	 -46.8876 	 17.4542 	 19.7529 	 
H 	 -47.7129 	 15.9176 	 20.2778 	 
H 	 -47.6036 	 17.3 	 21.4098 	 
S 	 -39.6541 	 12.6457 	 18.7811 	 
C 	 -38.2305 	 13.3553 	 18.099 	 
C 	 -38.3289 	 14.7346 	 17.9871 	 
C 	 -39.5036 	 15.2716 	 18.5149 	 
C 	 -40.2696 	 14.2507 	 19.0845 	 
H 	 -37.5013 	 15.3072 	 17.5961 	 
C 	 -39.8411 	 16.7754 	 18.5197 	 
H 	 -38.9368 	 17.251 	 18.7861 	 
H 	 -40.4865 	 16.9205 	 19.4655 	 
C 	 -40.521 	 17.4325 	 17.2612 	 
H 	 -41.3533 	 16.9288 	 16.8853 	 
H 	 -39.7669 	 17.5021 	 16.4747 	 
C 	 -41.06 	 18.8401 	 17.4948 	 
H 	 -41.9938 	 18.7971 	 18.0686 	 
H 	 -41.3718 	 19.2355 	 16.5283 	 
H 	 -40.4186 	 19.6797 	 17.9401 	 
H 	 -44.1826 	 13.4353 	 22.067 	 
H 	 -37.3647 	 12.7952 	 17.754 	 
*
