! wB97X-D3 SP def2-SVP
%pal
nprocs 24
end

* xyz 0 1
S 	 -56.7317 	 3.41912 	 -22.0283 	 
C 	 -58.0757 	 3.55718 	 -23.136 	 
C 	 -59.1888 	 3.94071 	 -22.4225 	 
C 	 -59.0052 	 3.90808 	 -20.9718 	 
C 	 -57.6679 	 3.60591 	 -20.5991 	 
H 	 -59.6979 	 4.18373 	 -20.1752 	 
C 	 -60.6322 	 4.14179 	 -22.9126 	 
H 	 -60.6835 	 4.31888 	 -24.0096 	 
H 	 -60.9759 	 5.06285 	 -22.3845 	 
C 	 -61.6456 	 2.98452 	 -22.6296 	 
H 	 -61.1722 	 2.08833 	 -22.8903 	 
H 	 -61.8469 	 2.87746 	 -21.5703 	 
C 	 -63.0034 	 3.16538 	 -23.4062 	 
H 	 -63.5636 	 3.95212 	 -22.9022 	 
H 	 -62.8338 	 3.34477 	 -24.4123 	 
H 	 -63.5526 	 2.23846 	 -23.3625 	 
S 	 -56.9472 	 2.03853 	 -18.356 	 
C 	 -56.1838 	 2.80695 	 -17.0562 	 
C 	 -56.0272 	 4.14834 	 -17.3021 	 
C 	 -56.6178 	 4.6338 	 -18.487 	 
C 	 -57.0859 	 3.56357 	 -19.2391 	 
H 	 -55.4867 	 4.76552 	 -16.6265 	 
C 	 -56.6771 	 6.04584 	 -18.8231 	 
H 	 -57.0322 	 6.67422 	 -17.9989 	 
H 	 -57.5252 	 6.1985 	 -19.5416 	 
C 	 -55.3704 	 6.74771 	 -19.2003 	 
H 	 -54.9562 	 6.13307 	 -20.0074 	 
H 	 -54.8426 	 6.62224 	 -18.3528 	 
C 	 -55.5385 	 8.26027 	 -19.6324 	 
H 	 -56.057 	 8.43435 	 -20.5778 	 
H 	 -54.5661 	 8.73778 	 -19.832 	 
H 	 -56.2738 	 8.77029 	 -18.9848 	 
H 	 -58.3571 	 2.96905 	 -24.0229 	 
H 	 -55.8482 	 2.28834 	 -16.1544 	 
*
