! wB97X-D3 SP def2-SVP
%pal
nprocs 24
end

* xyz 0 1
S 	 -40.2387 	 17.1702 	 26.3612 	 
C 	 -40.1269 	 15.5903 	 27.2125 	 
C 	 -39.3287 	 15.6948 	 28.3732 	 
C 	 -38.9778 	 17.0437 	 28.6406 	 
C 	 -39.3562 	 17.9512 	 27.6813 	 
H 	 -38.4752 	 17.3472 	 29.5431 	 
C 	 -39.1005 	 14.6097 	 29.379 	 
H 	 -39.4953 	 13.6715 	 28.9666 	 
H 	 -39.7493 	 14.914 	 30.1764 	 
C 	 -37.6119 	 14.3074 	 29.8078 	 
H 	 -37.0244 	 13.7868 	 29.0463 	 
H 	 -36.9563 	 15.16 	 29.8783 	 
C 	 -37.4913 	 13.4323 	 31.0691 	 
H 	 -38.1445 	 12.6055 	 30.9934 	 
H 	 -36.4617 	 13.0448 	 31.2122 	 
H 	 -37.6393 	 13.9461 	 32.0051 	 
S 	 -40.2211 	 20.4464 	 27.0736 	 
C 	 -39.0719 	 21.8234 	 26.9157 	 
C 	 -37.9711 	 21.5135 	 27.6795 	 
C 	 -37.916 	 20.1383 	 28.1163 	 
C 	 -39.0348 	 19.3825 	 27.711 	 
H 	 -37.1667 	 22.1808 	 27.7503 	 
C 	 -36.6967 	 19.5823 	 28.852 	 
H 	 -35.8589 	 19.6847 	 28.2232 	 
H 	 -36.7943 	 18.449 	 28.8917 	 
C 	 -36.3109 	 20.1132 	 30.2132 	 
H 	 -36.2279 	 21.1914 	 30.0941 	 
H 	 -35.3189 	 19.7733 	 30.4118 	 
C 	 -37.1969 	 19.6807 	 31.4013 	 
H 	 -38.2814 	 19.9677 	 31.1333 	 
H 	 -36.8989 	 20.0885 	 32.3368 	 
H 	 -37.202 	 18.6062 	 31.4792 	 
H 	 -40.6536 	 14.685 	 26.9799 	 
H 	 -39.2381 	 22.84 	 26.5921 	 
*
