! wB97X-D3 SP def2-SVP
%pal
nprocs 24
end

* xyz 0 1
S 	 -115.098 	 32.6065 	 -15.1487 	 
C 	 -114.438 	 31.6225 	 -16.4385 	 
C 	 -115.418 	 31.0552 	 -17.2504 	 
C 	 -116.699 	 31.4513 	 -16.7388 	 
C 	 -116.658 	 32.2477 	 -15.6647 	 
H 	 -117.722 	 31.0892 	 -17.0503 	 
C 	 -115.271 	 29.9827 	 -18.3397 	 
H 	 -115.572 	 28.9975 	 -17.8622 	 
H 	 -114.22 	 30.0361 	 -18.5966 	 
C 	 -115.871 	 30.3784 	 -19.7081 	 
H 	 -116.993 	 30.507 	 -19.8039 	 
H 	 -115.331 	 31.2808 	 -20.0938 	 
C 	 -115.681 	 29.2793 	 -20.7127 	 
H 	 -115.922 	 28.3331 	 -20.3822 	 
H 	 -116.226 	 29.6175 	 -21.5317 	 
H 	 -114.745 	 29.2979 	 -21.0366 	 
S 	 -117.815 	 32.2193 	 -13.268 	 
C 	 -119.391 	 32.9544 	 -12.9522 	 
C 	 -119.88 	 33.4677 	 -14.171 	 
C 	 -118.959 	 33.4516 	 -15.2349 	 
C 	 -117.822 	 32.7785 	 -14.9087 	 
H 	 -120.878 	 33.8154 	 -14.1843 	 
C 	 -119.24 	 34.1124 	 -16.5532 	 
H 	 -120.234 	 34.5455 	 -16.527 	 
H 	 -119.489 	 33.3994 	 -17.2478 	 
C 	 -118.306 	 35.2089 	 -17.0951 	 
H 	 -117.389 	 34.7654 	 -17.1695 	 
H 	 -118.089 	 36.1232 	 -16.5532 	 
C 	 -118.589 	 35.5921 	 -18.5336 	 
H 	 -119.265 	 36.366 	 -18.4268 	 
H 	 -119.016 	 34.6925 	 -19.0184 	 
H 	 -117.775 	 35.9909 	 -19.1169 	 
H 	 -113.385 	 31.422 	 -16.4628 	 
H 	 -119.922 	 32.7466 	 -12.0998 	 
*
