! wB97X-D3 SP def2-SVP
%pal
nprocs 24
end

* xyz 0 1
S 	 -98.3118 	 1.1102 	 -108.149 	 
C 	 -99.6032 	 1.18341 	 -106.945 	 
C 	 -99.6561 	 2.40683 	 -106.319 	 
C 	 -98.7327 	 3.34532 	 -106.865 	 
C 	 -97.7707 	 2.78859 	 -107.709 	 
H 	 -98.7073 	 4.37358 	 -106.572 	 
C 	 -100.621 	 2.79111 	 -105.16 	 
H 	 -101.32 	 1.92007 	 -105.084 	 
H 	 -101.089 	 3.66278 	 -105.549 	 
C 	 -99.9149 	 3.15392 	 -103.853 	 
H 	 -99.5428 	 2.20756 	 -103.445 	 
H 	 -98.9927 	 3.73355 	 -104.01 	 
C 	 -100.808 	 3.59286 	 -102.671 	 
H 	 -101.705 	 3.04048 	 -102.613 	 
H 	 -100.367 	 3.71855 	 -101.712 	 
H 	 -101.21 	 4.59265 	 -102.893 	 
S 	 -96.4785 	 3.98883 	 -109.797 	 
C 	 -94.8257 	 4.36056 	 -109.614 	 
C 	 -94.3876 	 4.13064 	 -108.309 	 
C 	 -95.4852 	 3.77891 	 -107.478 	 
C 	 -96.5704 	 3.40293 	 -108.208 	 
H 	 -93.3489 	 4.32642 	 -108.037 	 
C 	 -95.3413 	 3.54769 	 -105.964 	 
H 	 -95.0561 	 2.47503 	 -105.839 	 
H 	 -96.2491 	 3.59323 	 -105.423 	 
C 	 -94.2273 	 4.37991 	 -105.195 	 
H 	 -94.4573 	 5.44299 	 -105.169 	 
H 	 -93.2971 	 4.36982 	 -105.807 	 
C 	 -94.0944 	 4.01177 	 -103.715 	 
H 	 -93.5274 	 3.19566 	 -103.556 	 
H 	 -95.0892 	 3.98555 	 -103.236 	 
H 	 -93.4739 	 4.7019 	 -103.128 	 
H 	 -100.291 	 0.402063 	 -106.675 	 
H 	 -94.3129 	 4.82156 	 -110.385 	 
*
