! wB97X-D3 SP def2-SVP
%pal
nprocs 24
end

* xyz 0 1
S 	 -37.0606 	 -51.7219 	 -76.2785 	 
C 	 -35.339 	 -52.0265 	 -76.3324 	 
C 	 -34.562 	 -51.0165 	 -75.8273 	 
C 	 -35.3684 	 -49.8923 	 -75.5926 	 
C 	 -36.7282 	 -50.0693 	 -75.8456 	 
H 	 -34.9709 	 -49.1115 	 -74.9323 	 
C 	 -33.0416 	 -51.0893 	 -75.6159 	 
H 	 -32.6332 	 -50.0729 	 -75.35 	 
H 	 -32.6795 	 -51.4164 	 -76.6083 	 
C 	 -32.6131 	 -52.12 	 -74.5268 	 
H 	 -32.0188 	 -51.5593 	 -73.845 	 
H 	 -33.5454 	 -52.4883 	 -73.9707 	 
C 	 -31.7123 	 -53.2169 	 -75.002 	 
H 	 -31.8246 	 -53.57 	 -76.0548 	 
H 	 -30.6996 	 -52.9294 	 -75.0402 	 
H 	 -31.7715 	 -54.0501 	 -74.2199 	 
S 	 -39.3029 	 -49.7368 	 -74.925 	 
C 	 -39.9081 	 -48.1759 	 -74.477 	 
C 	 -38.9888 	 -47.2838 	 -74.9783 	 
C 	 -37.7872 	 -47.8014 	 -75.5778 	 
C 	 -37.7569 	 -49.142 	 -75.4116 	 
H 	 -39.1618 	 -46.1934 	 -74.8417 	 
C 	 -36.6968 	 -46.9504 	 -76.1364 	 
H 	 -37.1456 	 -46.0976 	 -76.7125 	 
H 	 -36.2404 	 -47.6672 	 -76.8774 	 
C 	 -35.714 	 -46.4058 	 -75.1991 	 
H 	 -35.3573 	 -47.0824 	 -74.4554 	 
H 	 -36.1978 	 -45.6279 	 -74.5806 	 
C 	 -34.575 	 -45.6772 	 -75.8188 	 
H 	 -34.1307 	 -45.125 	 -75.0097 	 
H 	 -34.9223 	 -45.088 	 -76.6672 	 
H 	 -33.8737 	 -46.5128 	 -76.1798 	 
H 	 -34.9296 	 -52.9425 	 -76.6209 	 
H 	 -40.8047 	 -47.9111 	 -73.9303 	 
*
