! wB97X-D3 SP def2-SVP
%pal
nprocs 24
end

* xyz 0 1
S 	 -60.9733 	 5.56527 	 -13.186 	 
C 	 -59.7236 	 5.47271 	 -11.9079 	 
C 	 -58.519 	 6.01126 	 -12.363 	 
C 	 -58.6347 	 6.70692 	 -13.658 	 
C 	 -59.8826 	 6.55683 	 -14.1887 	 
H 	 -57.8664 	 7.25688 	 -14.222 	 
C 	 -57.2418 	 5.98406 	 -11.5988 	 
H 	 -57.3607 	 5.65084 	 -10.5725 	 
H 	 -56.8108 	 6.96914 	 -11.3725 	 
C 	 -55.9965 	 5.17695 	 -12.0423 	 
H 	 -56.1472 	 4.13743 	 -11.903 	 
H 	 -55.7538 	 5.40951 	 -13.105 	 
C 	 -54.6281 	 5.48644 	 -11.3937 	 
H 	 -54.3765 	 6.5016 	 -11.7771 	 
H 	 -54.7465 	 5.37815 	 -10.2913 	 
H 	 -53.87 	 4.78999 	 -11.7247 	 
S 	 -59.3115 	 8.26585 	 -16.2326 	 
C 	 -60.0941 	 8.09744 	 -17.7999 	 
C 	 -60.8709 	 6.95597 	 -17.8122 	 
C 	 -60.917 	 6.21925 	 -16.5735 	 
C 	 -60.2161 	 6.91277 	 -15.534 	 
H 	 -61.3792 	 6.73769 	 -18.6908 	 
C 	 -61.5008 	 4.84503 	 -16.5003 	 
H 	 -61.78 	 4.67177 	 -17.5499 	 
H 	 -62.3732 	 4.8444 	 -15.8509 	 
C 	 -60.6018 	 3.66314 	 -16.2022 	 
H 	 -61.1549 	 2.70701 	 -16.0829 	 
H 	 -60.18 	 3.83854 	 -15.1846 	 
C 	 -59.4423 	 3.41656 	 -17.1467 	 
H 	 -59.3608 	 4.33038 	 -17.7679 	 
H 	 -59.5834 	 2.53288 	 -17.7583 	 
H 	 -58.5334 	 3.30709 	 -16.5636 	 
H 	 -59.8447 	 4.9535 	 -10.9632 	 
H 	 -60.2269 	 8.89437 	 -18.5239 	 
*
