! wB97X-D3 SP def2-SVP
%pal
nprocs 24
end

* xyz 0 1
S 	 -109.786 	 64.0149 	 -71.531 	 
C 	 -109.462 	 62.3328 	 -71.5065 	 
C 	 -109.706 	 61.726 	 -72.6821 	 
C 	 -110.319 	 62.6723 	 -73.6174 	 
C 	 -110.392 	 63.9658 	 -73.2236 	 
H 	 -110.673 	 62.5412 	 -74.585 	 
C 	 -109.37 	 60.2729 	 -72.9968 	 
H 	 -110.308 	 59.6934 	 -72.8017 	 
H 	 -108.609 	 59.75 	 -72.4319 	 
C 	 -109.066 	 59.9341 	 -74.4801 	 
H 	 -109.154 	 58.8495 	 -74.6066 	 
H 	 -109.884 	 60.3378 	 -75.1036 	 
C 	 -107.708 	 60.6196 	 -75.0367 	 
H 	 -107.607 	 61.6706 	 -74.7593 	 
H 	 -106.822 	 60.1478 	 -74.5925 	 
H 	 -107.675 	 60.5254 	 -76.1516 	 
S 	 -112.241 	 66.0547 	 -73.0405 	 
C 	 -112.197 	 67.2989 	 -74.2992 	 
C 	 -111.414 	 66.8771 	 -75.375 	 
C 	 -110.674 	 65.6802 	 -75.0992 	 
C 	 -110.918 	 65.163 	 -73.8129 	 
H 	 -111.423 	 67.4433 	 -76.2988 	 
C 	 -109.653 	 65.156 	 -76.1173 	 
H 	 -109.155 	 64.314 	 -75.6381 	 
H 	 -108.923 	 65.9599 	 -76.2478 	 
C 	 -110.275 	 64.9131 	 -77.5508 	 
H 	 -110.501 	 65.8431 	 -77.9555 	 
H 	 -111.287 	 64.4221 	 -77.4728 	 
C 	 -109.349 	 64.1112 	 -78.3962 	 
H 	 -108.98 	 63.1899 	 -77.8761 	 
H 	 -108.443 	 64.6989 	 -78.4862 	 
H 	 -109.798 	 63.8701 	 -79.3333 	 
H 	 -108.893 	 61.7998 	 -70.7188 	 
H 	 -112.888 	 68.0929 	 -74.2725 	 
*
