! wB97X-D3 SP def2-SVP
%pal
nprocs 24
end

* xyz 0 1
S 	 -74.5446 	 7.87696 	 -110.95 	 
C 	 -74.5688 	 8.18354 	 -109.288 	 
C 	 -73.4939 	 7.63383 	 -108.627 	 
C 	 -72.6205 	 6.91544 	 -109.467 	 
C 	 -72.9926 	 7.03363 	 -110.807 	 
H 	 -71.7353 	 6.42964 	 -109.169 	 
C 	 -73.2932 	 7.90605 	 -107.188 	 
H 	 -73.9743 	 7.28825 	 -106.592 	 
H 	 -73.8423 	 8.78755 	 -106.974 	 
C 	 -71.8268 	 7.98711 	 -106.544 	 
H 	 -71.9003 	 8.06293 	 -105.464 	 
H 	 -71.3253 	 6.97666 	 -106.73 	 
C 	 -70.9746 	 9.23735 	 -106.879 	 
H 	 -71.5085 	 10.1878 	 -106.952 	 
H 	 -70.1513 	 9.29892 	 -106.185 	 
H 	 -70.5854 	 8.96438 	 -107.868 	 
S 	 -73.2498 	 5.44719 	 -113.027 	 
C 	 -71.7778 	 4.87722 	 -113.935 	 
C 	 -70.7108 	 5.58727 	 -113.393 	 
C 	 -70.9044 	 6.38857 	 -112.228 	 
C 	 -72.2751 	 6.41057 	 -111.903 	 
H 	 -69.736 	 5.53566 	 -113.768 	 
C 	 -69.815 	 7.16953 	 -111.423 	 
H 	 -68.8898 	 6.74378 	 -111.877 	 
H 	 -69.8438 	 6.84319 	 -110.368 	 
C 	 -69.6815 	 8.71187 	 -111.609 	 
H 	 -68.8539 	 9.04593 	 -110.952 	 
H 	 -70.52 	 9.12925 	 -111.167 	 
C 	 -69.4907 	 9.16313 	 -112.999 	 
H 	 -68.6831 	 8.6645 	 -113.457 	 
H 	 -69.172 	 10.2361 	 -113.095 	 
H 	 -70.354 	 9.0128 	 -113.576 	 
H 	 -75.3181 	 8.68765 	 -108.705 	 
H 	 -71.7254 	 4.30067 	 -114.909 	 
*
