! wB97X-D3 SP def2-SVP
%pal
nprocs 24
end

* xyz 0 1
S 	 -104.87 	 47.6509 	 -96.7173 	 
C 	 -104.132 	 49.0067 	 -95.7977 	 
C 	 -105.027 	 49.2705 	 -94.7097 	 
C 	 -106.101 	 48.3256 	 -94.4854 	 
C 	 -106.197 	 47.4971 	 -95.5431 	 
H 	 -106.723 	 48.3179 	 -93.6215 	 
C 	 -104.574 	 50.0775 	 -93.5323 	 
H 	 -103.484 	 50.0853 	 -93.5844 	 
H 	 -104.692 	 49.3817 	 -92.6002 	 
C 	 -105.164 	 51.5403 	 -93.3316 	 
H 	 -104.587 	 52.1114 	 -92.5905 	 
H 	 -105.08 	 52.131 	 -94.2791 	 
C 	 -106.667 	 51.6194 	 -92.7025 	 
H 	 -107.496 	 51.0799 	 -93.1854 	 
H 	 -106.739 	 51.0858 	 -91.7532 	 
H 	 -107.041 	 52.6942 	 -92.6684 	 
S 	 -106.328 	 44.8688 	 -95.7181 	 
C 	 -107.869 	 44.0792 	 -95.6595 	 
C 	 -108.887 	 44.9773 	 -95.4351 	 
C 	 -108.457 	 46.3382 	 -95.5108 	 
C 	 -107.118 	 46.406 	 -95.6473 	 
H 	 -109.883 	 44.5918 	 -95.1895 	 
C 	 -109.463 	 47.5156 	 -95.2616 	 
H 	 -109.218 	 48.2557 	 -94.5164 	 
H 	 -110.33 	 47.0501 	 -94.7866 	 
C 	 -110.14 	 48.1665 	 -96.5 	 
H 	 -111.02 	 48.8734 	 -96.222 	 
H 	 -110.512 	 47.377 	 -97.2685 	 
C 	 -109.237 	 49.1696 	 -97.1254 	 
H 	 -108.853 	 49.9232 	 -96.4177 	 
H 	 -109.684 	 49.802 	 -97.9043 	 
H 	 -108.423 	 48.6699 	 -97.6666 	 
H 	 -103.221 	 49.4437 	 -95.9367 	 
H 	 -107.964 	 42.997 	 -95.4654 	 
*
