! wB97X-D3 SP def2-SVP
%pal
nprocs 24
end

* xyz 0 1
S 	 -48.2358 	 24.3394 	 30.702 	 
C 	 -48.9689 	 25.8712 	 30.6838 	 
C 	 -48.003 	 26.8686 	 30.5075 	 
C 	 -46.7619 	 26.3023 	 30.1578 	 
C 	 -46.7037 	 24.9075 	 30.223 	 
H 	 -45.8495 	 26.8799 	 29.881 	 
C 	 -48.313 	 28.3594 	 30.5507 	 
H 	 -49.14 	 28.5125 	 29.8205 	 
H 	 -47.3833 	 28.7745 	 30.1256 	 
C 	 -48.5959 	 29.094 	 31.8676 	 
H 	 -48.5229 	 30.1738 	 31.8248 	 
H 	 -49.6147 	 28.754 	 32.0593 	 
C 	 -47.8195 	 28.4842 	 33.0424 	 
H 	 -48.2228 	 28.9068 	 33.969 	 
H 	 -48.0193 	 27.3867 	 33.025 	 
H 	 -46.7955 	 28.7962 	 32.9769 	 
S 	 -46.0703 	 23.0728 	 28.2736 	 
C 	 -44.419 	 22.4454 	 28.2352 	 
C 	 -43.5596 	 23.1665 	 28.9929 	 
C 	 -44.2402 	 23.9867 	 29.963 	 
C 	 -45.6458 	 24.0407 	 29.7142 	 
H 	 -42.57 	 22.876 	 28.9687 	 
C 	 -43.5307 	 24.5638 	 31.1546 	 
H 	 -43.5304 	 25.6679 	 30.942 	 
H 	 -42.5489 	 24.1854 	 31.1934 	 
C 	 -44.2338 	 24.3263 	 32.4626 	 
H 	 -44.3663 	 23.2804 	 32.6324 	 
H 	 -45.1539 	 24.8686 	 32.4288 	 
C 	 -43.4892 	 24.8424 	 33.6736 	 
H 	 -42.4183 	 24.4289 	 33.8189 	 
H 	 -44.0247 	 24.719 	 34.59 	 
H 	 -43.2443 	 25.8816 	 33.4336 	 
H 	 -50.0113 	 26.0844 	 30.8727 	 
H 	 -44.1792 	 21.6133 	 27.5316 	 
*
