! wB97X-D3 SP def2-SVP
%pal
nprocs 24
end

* xyz 0 1
S 	 -45.0392 	 16.9645 	 26.5168 	 
C 	 -46.465 	 16.4107 	 25.7885 	 
C 	 -47.4892 	 17.3239 	 25.9144 	 
C 	 -46.9683 	 18.6301 	 26.2603 	 
C 	 -45.6041 	 18.5783 	 26.3893 	 
H 	 -47.3618 	 19.6173 	 26.4717 	 
C 	 -48.9002 	 16.9823 	 25.551 	 
H 	 -48.9355 	 16.5529 	 24.5632 	 
H 	 -49.4096 	 17.9552 	 25.6209 	 
C 	 -49.6879 	 15.9569 	 26.405 	 
H 	 -49.2583 	 14.9911 	 26.2731 	 
H 	 -49.6598 	 16.1143 	 27.4709 	 
C 	 -51.0521 	 15.7647 	 25.9889 	 
H 	 -51.0742 	 15.3585 	 24.9772 	 
H 	 -51.599 	 15.0842 	 26.6219 	 
H 	 -51.5316 	 16.6702 	 26.0425 	 
S 	 -43.7179 	 19.8087 	 28.0684 	 
C 	 -43.6619 	 21.5264 	 27.9271 	 
C 	 -44.0823 	 21.9477 	 26.7281 	 
C 	 -44.6771 	 20.9658 	 25.9003 	 
C 	 -44.7435 	 19.7663 	 26.5948 	 
H 	 -43.9169 	 22.9087 	 26.4351 	 
C 	 -45.1907 	 21.2724 	 24.4664 	 
H 	 -44.6865 	 22.1354 	 24.1891 	 
H 	 -46.1795 	 21.5397 	 24.5303 	 
C 	 -44.7253 	 20.275 	 23.4157 	 
H 	 -45.181 	 20.6515 	 22.4722 	 
H 	 -45.0666 	 19.2441 	 23.5848 	 
C 	 -43.1499 	 20.1917 	 23.4033 	 
H 	 -42.7126 	 21.093 	 22.9994 	 
H 	 -42.8495 	 19.5253 	 22.6941 	 
H 	 -42.6071 	 19.9001 	 24.3501 	 
H 	 -46.6819 	 15.4517 	 25.395 	 
H 	 -43.1144 	 22.164 	 28.5734 	 
*
