! wB97X-D3 SP def2-SVP
%pal
nprocs 24
end

* xyz 0 1
S 	 -98.3554 	 12.9773 	 -115.007 	 
C 	 -98.2825 	 14.7716 	 -114.688 	 
C 	 -98.5307 	 15.4179 	 -115.88 	 
C 	 -98.8899 	 14.5587 	 -116.969 	 
C 	 -98.7099 	 13.207 	 -116.72 	 
H 	 -99.2448 	 14.8042 	 -117.957 	 
C 	 -98.5969 	 16.9542 	 -116.149 	 
H 	 -98.8657 	 17.3011 	 -115.149 	 
H 	 -99.5421 	 17.1815 	 -116.593 	 
C 	 -97.3604 	 17.6432 	 -116.746 	 
H 	 -97.6653 	 18.6797 	 -116.862 	 
H 	 -96.5252 	 17.6966 	 -116.064 	 
C 	 -96.8132 	 17.2627 	 -118.165 	 
H 	 -97.5898 	 17.4566 	 -118.886 	 
H 	 -95.8796 	 17.7873 	 -118.518 	 
H 	 -96.615 	 16.1811 	 -118.227 	 
S 	 -100.346 	 11.037 	 -117.209 	 
C 	 -100.283 	 10.3336 	 -118.845 	 
C 	 -99.2825 	 10.9223 	 -119.631 	 
C 	 -98.5424 	 11.9527 	 -118.915 	 
C 	 -98.928 	 12.0553 	 -117.561 	 
H 	 -99.1921 	 10.6218 	 -120.652 	 
C 	 -97.4761 	 12.8374 	 -119.606 	 
H 	 -96.7484 	 12.0722 	 -119.954 	 
H 	 -96.8083 	 13.4557 	 -118.968 	 
C 	 -98.033 	 13.745 	 -120.711 	 
H 	 -98.4954 	 14.6276 	 -120.252 	 
H 	 -98.7847 	 13.2078 	 -121.372 	 
C 	 -96.8271 	 14.2327 	 -121.498 	 
H 	 -96.468 	 13.4156 	 -122.235 	 
H 	 -95.9099 	 14.4181 	 -120.967 	 
H 	 -96.9571 	 15.1361 	 -122.083 	 
H 	 -98.0038 	 15.2499 	 -113.773 	 
H 	 -101.007 	 9.70242 	 -119.263 	 
*
