! wB97X-D3 SP def2-SVP
%pal
nprocs 24
end

* xyz 0 1
S 	 -38.12 	 -8.51387 	 19.2401 	 
C 	 -38.0671 	 -9.50881 	 20.6151 	 
C 	 -38.2655 	 -10.821 	 20.2976 	 
C 	 -38.2734 	 -10.9799 	 18.8797 	 
C 	 -38.0935 	 -9.8183 	 18.1174 	 
H 	 -38.3658 	 -11.9368 	 18.3231 	 
C 	 -38.326 	 -11.996 	 21.3128 	 
H 	 -39.0639 	 -11.8401 	 22.035 	 
H 	 -37.4243 	 -11.8476 	 21.865 	 
C 	 -38.5966 	 -13.4484 	 20.8654 	 
H 	 -38.7089 	 -14.1062 	 21.7293 	 
H 	 -39.5812 	 -13.5038 	 20.4048 	 
C 	 -37.5913 	 -14.0429 	 19.841 	 
H 	 -36.9991 	 -13.244 	 19.3149 	 
H 	 -36.8889 	 -14.7414 	 20.4054 	 
H 	 -38.0541 	 -14.4693 	 18.9464 	 
S 	 -39.4404 	 -9.03036 	 15.9549 	 
C 	 -38.8943 	 -9.55367 	 14.3356 	 
C 	 -37.7011 	 -10.2524 	 14.3809 	 
C 	 -37.1246 	 -10.2692 	 15.7127 	 
C 	 -37.972 	 -9.65312 	 16.6264 	 
H 	 -37.2021 	 -10.5295 	 13.4309 	 
C 	 -35.7364 	 -10.7708 	 15.9797 	 
H 	 -35.5865 	 -11.6724 	 15.347 	 
H 	 -35.5289 	 -11.1339 	 17.0306 	 
C 	 -34.539 	 -9.92056 	 15.6283 	 
H 	 -34.7668 	 -9.38133 	 14.7161 	 
H 	 -33.6744 	 -10.5056 	 15.5614 	 
C 	 -34.3226 	 -8.80788 	 16.801 	 
H 	 -33.9376 	 -9.29073 	 17.6853 	 
H 	 -35.1515 	 -8.23913 	 17.1287 	 
H 	 -33.577 	 -8.06307 	 16.4314 	 
H 	 -37.8189 	 -9.11098 	 21.542 	 
H 	 -39.4454 	 -9.47319 	 13.389 	 
*
