! wB97X-D3 SP def2-SVP
%pal
nprocs 24
end

* xyz 0 1
S 	 -100.123 	 0.141672 	 -119.211 	 
C 	 -100.675 	 0.4096 	 -120.88 	 
C 	 -100.756 	 1.76636 	 -121.187 	 
C 	 -100.157 	 2.53785 	 -120.12 	 
C 	 -99.9652 	 1.84985 	 -119.018 	 
H 	 -100.281 	 3.63917 	 -119.994 	 
C 	 -101.302 	 2.453 	 -122.472 	 
H 	 -101.724 	 1.7646 	 -123.152 	 
H 	 -100.478 	 2.89182 	 -123.11 	 
C 	 -102.428 	 3.45598 	 -122.321 	 
H 	 -102.193 	 4.24708 	 -121.527 	 
H 	 -102.593 	 3.94616 	 -123.26 	 
C 	 -103.688 	 2.81941 	 -121.81 	 
H 	 -104.121 	 2.15961 	 -122.509 	 
H 	 -103.456 	 2.42593 	 -120.849 	 
H 	 -104.395 	 3.57971 	 -121.502 	 
S 	 -98.0314 	 3.01854 	 -117.485 	 
C 	 -98.4257 	 3.8064 	 -115.98 	 
C 	 -99.8118 	 3.7358 	 -115.776 	 
C 	 -100.489 	 2.92951 	 -116.742 	 
C 	 -99.6633 	 2.4776 	 -117.776 	 
H 	 -100.19 	 4.27002 	 -114.991 	 
C 	 -101.976 	 2.70959 	 -116.65 	 
H 	 -102.3 	 3.18086 	 -115.711 	 
H 	 -102.182 	 1.65321 	 -116.505 	 
C 	 -102.931 	 3.3728 	 -117.687 	 
H 	 -102.612 	 3.0693 	 -118.687 	 
H 	 -102.809 	 4.43041 	 -117.71 	 
C 	 -104.373 	 2.85954 	 -117.385 	 
H 	 -104.724 	 3.06899 	 -116.393 	 
H 	 -104.455 	 1.76553 	 -117.552 	 
H 	 -105.153 	 3.28807 	 -118.102 	 
H 	 -100.924 	 -0.35578 	 -121.613 	 
H 	 -97.71 	 4.50071 	 -115.485 	 
*
