! wB97X-D3 SP def2-SVP
%pal
nprocs 24
end

* xyz 0 1
S 	 -110.414 	 59.0116 	 -93.7558 	 
C 	 -109.625 	 59.8552 	 -92.4682 	 
C 	 -108.268 	 59.5986 	 -92.4442 	 
C 	 -107.822 	 58.998 	 -93.6814 	 
C 	 -108.905 	 58.5328 	 -94.479 	 
H 	 -106.775 	 58.8386 	 -93.9418 	 
C 	 -107.33 	 60.1193 	 -91.3879 	 
H 	 -106.498 	 59.4877 	 -91.4531 	 
H 	 -107.692 	 59.9851 	 -90.3251 	 
C 	 -106.879 	 61.5017 	 -91.6841 	 
H 	 -105.965 	 61.7533 	 -91.1575 	 
H 	 -106.634 	 61.5038 	 -92.7204 	 
C 	 -107.965 	 62.5848 	 -91.3358 	 
H 	 -108.732 	 62.4345 	 -92.1229 	 
H 	 -108.442 	 62.5511 	 -90.3463 	 
H 	 -107.646 	 63.6209 	 -91.5566 	 
S 	 -109.416 	 58.7729 	 -97.2208 	 
C 	 -109.235 	 57.3397 	 -98.1788 	 
C 	 -108.895 	 56.2708 	 -97.4325 	 
C 	 -108.784 	 56.4577 	 -95.9911 	 
C 	 -109.001 	 57.8168 	 -95.7223 	 
H 	 -108.714 	 55.3568 	 -97.9771 	 
C 	 -108.282 	 55.3469 	 -94.9946 	 
H 	 -108.86 	 54.3874 	 -95.1355 	 
H 	 -108.634 	 55.5766 	 -93.9886 	 
C 	 -106.8 	 54.993 	 -95.2046 	 
H 	 -106.152 	 55.8817 	 -94.9895 	 
H 	 -106.645 	 54.5016 	 -96.1994 	 
C 	 -106.211 	 54.1873 	 -94.0565 	 
H 	 -105.098 	 54.1193 	 -93.9509 	 
H 	 -106.548 	 53.176 	 -94.0574 	 
H 	 -106.393 	 54.6959 	 -93.0776 	 
H 	 -110.163 	 60.3151 	 -91.6139 	 
H 	 -109.426 	 57.2963 	 -99.1884 	 
*
