! wB97X-D3 SP def2-SVP
%pal
nprocs 24
end

* xyz 0 1
S 	 -72.2951 	 16.3871 	 -75.4198 	 
C 	 -70.694 	 15.8358 	 -75.0939 	 
C 	 -69.7638 	 16.7758 	 -75.3701 	 
C 	 -70.3293 	 17.9658 	 -75.9196 	 
C 	 -71.7243 	 17.9204 	 -75.9552 	 
H 	 -69.8311 	 18.9214 	 -76.3446 	 
C 	 -68.2411 	 16.6592 	 -75.2186 	 
H 	 -67.9967 	 16.5506 	 -76.2426 	 
H 	 -68.1182 	 15.6786 	 -74.714 	 
C 	 -67.4351 	 17.7425 	 -74.4936 	 
H 	 -66.3788 	 17.3688 	 -74.4452 	 
H 	 -67.5187 	 18.6365 	 -75.1724 	 
C 	 -67.9237 	 18.1894 	 -73.1038 	 
H 	 -67.0151 	 18.7969 	 -72.8219 	 
H 	 -68.7536 	 18.89 	 -73.0386 	 
H 	 -67.9622 	 17.3937 	 -72.3391 	 
S 	 -74.2189 	 18.2091 	 -76.9382 	 
C 	 -74.7968 	 19.7963 	 -77.2651 	 
C 	 -73.8157 	 20.7386 	 -77.1047 	 
C 	 -72.576 	 20.2438 	 -76.6112 	 
C 	 -72.6561 	 18.8698 	 -76.4563 	 
H 	 -73.9945 	 21.8257 	 -77.2886 	 
C 	 -71.583 	 21.1982 	 -75.9951 	 
H 	 -71.2434 	 20.5858 	 -75.0849 	 
H 	 -71.9788 	 22.0152 	 -75.4919 	 
C 	 -70.4285 	 21.5625 	 -76.8787 	 
H 	 -70.6466 	 22.3844 	 -77.6491 	 
H 	 -70.1049 	 20.7067 	 -77.6058 	 
C 	 -69.2341 	 22.0541 	 -76.1159 	 
H 	 -68.5596 	 22.4766 	 -76.811 	 
H 	 -68.7932 	 21.2215 	 -75.4964 	 
H 	 -69.4396 	 22.9026 	 -75.4071 	 
H 	 -70.402 	 14.8955 	 -74.6577 	 
H 	 -75.8088 	 20.0861 	 -77.6632 	 
*
