! wB97X-D3 SP def2-SVP
%pal
nprocs 24
end

* xyz 0 1
S 	 -133.605 	 9.52522 	 -1.36793 	 
C 	 -134.213 	 8.77928 	 0.123295 	 
C 	 -135.572 	 8.79912 	 0.204165 	 
C 	 -136.119 	 9.57727 	 -0.868978 	 
C 	 -135.182 	 10.1517 	 -1.74099 	 
H 	 -137.175 	 9.79661 	 -1.02692 	 
C 	 -136.361 	 8.23024 	 1.40663 	 
H 	 -135.864 	 8.64947 	 2.2636 	 
H 	 -136.114 	 7.16386 	 1.36279 	 
C 	 -137.865 	 8.38851 	 1.40274 	 
H 	 -138.257 	 8.19193 	 2.41846 	 
H 	 -138.199 	 9.3909 	 1.24213 	 
C 	 -138.566 	 7.37623 	 0.445526 	 
H 	 -139.708 	 7.36312 	 0.713617 	 
H 	 -138.324 	 7.58516 	 -0.552462 	 
H 	 -138.174 	 6.40339 	 0.899271 	 
S 	 -135.556 	 10.3602 	 -4.57414 	 
C 	 -136.154 	 11.8292 	 -5.18858 	 
C 	 -136.158 	 12.7916 	 -4.26501 	 
C 	 -135.779 	 12.3611 	 -2.94452 	 
C 	 -135.484 	 11.0089 	 -2.88425 	 
H 	 -136.579 	 13.7829 	 -4.55809 	 
C 	 -135.879 	 13.2805 	 -1.72149 	 
H 	 -135.496 	 14.2665 	 -2.00328 	 
H 	 -135.275 	 12.8927 	 -0.973033 	 
C 	 -137.336 	 13.4251 	 -1.22121 	 
H 	 -137.728 	 12.5113 	 -0.943581 	 
H 	 -138 	 13.8458 	 -2.05392 	 
C 	 -137.38 	 14.1114 	 0.117754 	 
H 	 -138.372 	 14.1078 	 0.50361 	 
H 	 -137.199 	 15.1704 	 0.201742 	 
H 	 -136.855 	 13.5726 	 0.892931 	 
H 	 -133.57 	 8.5005 	 0.969739 	 
H 	 -136.537 	 11.9778 	 -6.21958 	 
*
