! wB97X-D3 SP def2-SVP
%pal
nprocs 24
end

* xyz 0 1
S 	 9.83143 	 -18.5933 	 -114.614 	 
C 	 8.81171 	 -18.2107 	 -115.966 	 
C 	 7.62599 	 -18.9247 	 -115.818 	 
C 	 7.56275 	 -19.6142 	 -114.604 	 
C 	 8.69364 	 -19.5903 	 -113.844 	 
H 	 6.79214 	 -20.1886 	 -114.169 	 
C 	 6.45167 	 -18.9131 	 -116.725 	 
H 	 6.79454 	 -18.3463 	 -117.566 	 
H 	 5.66582 	 -18.1533 	 -116.383 	 
C 	 5.98182 	 -20.2672 	 -117.369 	 
H 	 6.7609 	 -20.9941 	 -117.505 	 
H 	 5.38565 	 -20.7757 	 -116.54 	 
C 	 5.31729 	 -20.1614 	 -118.69 	 
H 	 5.09141 	 -21.1305 	 -119.051 	 
H 	 4.41116 	 -19.6734 	 -118.748 	 
H 	 5.91259 	 -19.7171 	 -119.399 	 
S 	 8.60214 	 -21.8204 	 -112.304 	 
C 	 8.91113 	 -21.8148 	 -110.62 	 
C 	 9.35363 	 -20.5902 	 -110.264 	 
C 	 9.26715 	 -19.5557 	 -111.267 	 
C 	 8.88733 	 -20.1449 	 -112.465 	 
H 	 9.49876 	 -20.4917 	 -109.192 	 
C 	 9.52049 	 -18.0161 	 -111.065 	 
H 	 9.79078 	 -17.4006 	 -111.921 	 
H 	 10.2922 	 -17.9152 	 -110.363 	 
C 	 8.28157 	 -17.2251 	 -110.453 	 
H 	 8.62062 	 -16.2797 	 -110.162 	 
H 	 8.09751 	 -17.7914 	 -109.543 	 
C 	 7.0523 	 -17.1153 	 -111.319 	 
H 	 6.58121 	 -18.0403 	 -111.548 	 
H 	 7.274 	 -16.5438 	 -112.24 	 
H 	 6.25343 	 -16.4656 	 -110.819 	 
H 	 8.97704 	 -17.5953 	 -116.907 	 
H 	 8.81528 	 -22.676 	 -109.951 	 
*
