! wB97X-D3 SP def2-SVP
%pal
nprocs 24
end

* xyz 0 1
S 	 -32.7386 	 5.85322 	 17.2258 	 
C 	 -31.8305 	 5.71112 	 15.7915 	 
C 	 -32.4955 	 6.01125 	 14.5796 	 
C 	 -33.8731 	 6.34876 	 14.9089 	 
C 	 -34.1285 	 6.19934 	 16.2539 	 
H 	 -34.6511 	 6.61714 	 14.2334 	 
C 	 -32.0532 	 5.92502 	 13.0865 	 
H 	 -32.6961 	 5.22432 	 12.6573 	 
H 	 -31.062 	 5.33065 	 13.0511 	 
C 	 -31.8486 	 7.18039 	 12.2493 	 
H 	 -32.7136 	 7.7852 	 12.3378 	 
H 	 -31.208 	 7.94189 	 12.6959 	 
C 	 -31.5901 	 6.96232 	 10.7643 	 
H 	 -32.436 	 6.34469 	 10.3421 	 
H 	 -31.6348 	 7.89512 	 10.2088 	 
H 	 -30.6695 	 6.49104 	 10.4623 	 
S 	 -35.619 	 6.40119 	 18.5913 	 
C 	 -37.2727 	 5.78293 	 18.5414 	 
C 	 -37.7263 	 5.7151 	 17.2152 	 
C 	 -36.6909 	 6.03579 	 16.2508 	 
C 	 -35.4534 	 6.26603 	 16.8596 	 
H 	 -38.6839 	 5.3574 	 16.9941 	 
C 	 -37.0041 	 5.7281 	 14.8383 	 
H 	 -37.7727 	 4.95938 	 14.9094 	 
H 	 -36.1832 	 5.24471 	 14.3447 	 
C 	 -37.7537 	 6.75476 	 13.9526 	 
H 	 -37.3329 	 7.73026 	 14.2832 	 
H 	 -38.8885 	 6.68161 	 14.1473 	 
C 	 -37.5834 	 6.49147 	 12.4188 	 
H 	 -36.5166 	 6.49429 	 12.1486 	 
H 	 -38.1218 	 7.15695 	 11.7061 	 
H 	 -37.7694 	 5.47157 	 12.1546 	 
H 	 -30.7949 	 5.41119 	 15.6613 	 
H 	 -37.8906 	 5.67631 	 19.4531 	 
*
