! wB97X-D3 SP def2-SVP
%pal
nprocs 24
end

* xyz 0 1
S 	 -35.7415 	 -41.2934 	 -77.4042 	 
C 	 -36.7643 	 -39.8934 	 -77.134 	 
C 	 -38.1603 	 -40.1685 	 -77.0675 	 
C 	 -38.365 	 -41.5503 	 -77.2285 	 
C 	 -37.1899 	 -42.3149 	 -77.4746 	 
H 	 -39.2957 	 -42.0206 	 -77.4006 	 
C 	 -39.294 	 -39.2273 	 -76.8726 	 
H 	 -40.2847 	 -39.8138 	 -76.7803 	 
H 	 -39.3541 	 -38.556 	 -77.6758 	 
C 	 -39.0595 	 -38.4124 	 -75.5931 	 
H 	 -39.1344 	 -39.0115 	 -74.6761 	 
H 	 -38.0664 	 -37.9533 	 -75.5829 	 
C 	 -40.0381 	 -37.2447 	 -75.5931 	 
H 	 -39.8279 	 -36.586 	 -74.7632 	 
H 	 -40.1094 	 -36.6516 	 -76.5259 	 
H 	 -41.0228 	 -37.7221 	 -75.4914 	 
S 	 -36.8697 	 -45.0006 	 -76.6475 	 
C 	 -36.8131 	 -46.298 	 -77.9124 	 
C 	 -37.2042 	 -45.7523 	 -79.1081 	 
C 	 -37.3824 	 -44.3117 	 -79.0548 	 
C 	 -37.0806 	 -43.7386 	 -77.8334 	 
H 	 -37.3867 	 -46.3993 	 -79.9399 	 
C 	 -37.7081 	 -43.5035 	 -80.3134 	 
H 	 -37.2577 	 -44.0118 	 -81.1814 	 
H 	 -37.1804 	 -42.5666 	 -80.3568 	 
C 	 -39.1997 	 -43.2508 	 -80.5729 	 
H 	 -39.45 	 -42.6754 	 -79.712 	 
H 	 -39.8783 	 -44.0776 	 -80.4497 	 
C 	 -39.6104 	 -42.544 	 -81.8783 	 
H 	 -40.6504 	 -42.2188 	 -82.0262 	 
H 	 -39.4098 	 -43.3461 	 -82.629 	 
H 	 -38.9748 	 -41.6996 	 -82.2086 	 
H 	 -36.2596 	 -38.9594 	 -76.8897 	 
H 	 -36.687 	 -47.3701 	 -77.737 	 
*
