! wB97X-D3 SP def2-SVP
%pal
nprocs 24
end

* xyz 0 1
S 	 -33.1698 	 -49.5433 	 -76.985 	 
C 	 -31.4375 	 -49.6969 	 -77.102 	 
C 	 -30.814 	 -48.911 	 -76.1739 	 
C 	 -31.7181 	 -48.186 	 -75.3165 	 
C 	 -33.0032 	 -48.3872 	 -75.66 	 
H 	 -31.3877 	 -47.4642 	 -74.5881 	 
C 	 -29.3439 	 -48.7846 	 -75.9682 	 
H 	 -28.94 	 -49.7493 	 -76.2971 	 
H 	 -29.1886 	 -48.6269 	 -74.95 	 
C 	 -28.6602 	 -47.6764 	 -76.6824 	 
H 	 -27.6338 	 -47.567 	 -76.3403 	 
H 	 -28.7371 	 -47.8891 	 -77.7782 	 
C 	 -29.3264 	 -46.318 	 -76.5253 	 
H 	 -30.2647 	 -46.1516 	 -76.9538 	 
H 	 -29.3311 	 -46.1074 	 -75.4928 	 
H 	 -28.6051 	 -45.6344 	 -76.9497 	 
S 	 -35.2948 	 -48.8093 	 -74.2293 	 
C 	 -36.3903 	 -47.4521 	 -74.039 	 
C 	 -35.9099 	 -46.2785 	 -74.4564 	 
C 	 -34.6213 	 -46.4236 	 -75.0671 	 
C 	 -34.1763 	 -47.7369 	 -75.0586 	 
H 	 -36.5627 	 -45.4074 	 -74.3623 	 
C 	 -33.8146 	 -45.1718 	 -75.5445 	 
H 	 -34.5052 	 -44.3964 	 -75.8018 	 
H 	 -33.2549 	 -45.5168 	 -76.4868 	 
C 	 -32.6865 	 -44.5668 	 -74.6534 	 
H 	 -31.9985 	 -45.3476 	 -74.32 	 
H 	 -33.1998 	 -44.2077 	 -73.7757 	 
C 	 -31.8961 	 -43.4734 	 -75.3457 	 
H 	 -32.5427 	 -42.848 	 -75.9328 	 
H 	 -31.2743 	 -43.9757 	 -76.0678 	 
H 	 -31.2814 	 -42.8367 	 -74.7675 	 
H 	 -30.9058 	 -50.4834 	 -77.5881 	 
H 	 -37.2904 	 -47.4964 	 -73.4723 	 
*
