! wB97X-D3 SP def2-SVP
%pal
nprocs 24
end

* xyz 0 1
S 	 -34.5023 	 6.50038 	 4.4477 	 
C 	 -34.5565 	 4.80716 	 4.19497 	 
C 	 -34.0037 	 4.05866 	 5.22496 	 
C 	 -33.6719 	 4.87316 	 6.34304 	 
C 	 -33.8089 	 6.27938 	 6.05206 	 
H 	 -33.1848 	 4.5841 	 7.28808 	 
C 	 -33.9499 	 2.48913 	 5.32642 	 
H 	 -34.8319 	 2.26383 	 5.90814 	 
H 	 -33.0337 	 2.29731 	 5.87509 	 
C 	 -33.8883 	 1.59279 	 4.06386 	 
H 	 -34.69 	 1.84732 	 3.36934 	 
H 	 -32.9619 	 2.01322 	 3.59593 	 
C 	 -33.8095 	 0.0653405 	 4.25734 	 
H 	 -34.7939 	 -0.242701 	 4.64213 	 
H 	 -33.563 	 -0.528806 	 3.37211 	 
H 	 -33.0434 	 -0.166517 	 4.99999 	 
S 	 -34.7977 	 8.70826 	 6.93802 	 
C 	 -33.8449 	 9.68442 	 8.04914 	 
C 	 -32.7421 	 8.99219 	 8.40628 	 
C 	 -32.5482 	 7.73468 	 7.77028 	 
C 	 -33.5805 	 7.41494 	 6.90981 	 
H 	 -32.0186 	 9.41415 	 9.07326 	 
C 	 -31.3481 	 6.92079 	 8.14624 	 
H 	 -31.6481 	 5.94231 	 8.05575 	 
H 	 -31.0934 	 7.14604 	 9.24952 	 
C 	 -30.1292 	 7.12818 	 7.30332 	 
H 	 -29.3379 	 6.56437 	 7.66205 	 
H 	 -29.8841 	 8.23697 	 7.29208 	 
C 	 -30.3999 	 6.59018 	 5.90538 	 
H 	 -30.8469 	 5.60145 	 6.10228 	 
H 	 -29.5204 	 6.28267 	 5.26719 	 
H 	 -31.0903 	 7.17747 	 5.29708 	 
H 	 -34.741 	 4.4468 	 3.20827 	 
H 	 -34.2576 	 10.6554 	 8.42299 	 
*
