! wB97X-D3 SP def2-SVP
%pal
nprocs 24
end

* xyz 0 1
S 	 -39.0412 	 18.8934 	 12.6773 	 
C 	 -40.6374 	 19.5562 	 13.1914 	 
C 	 -40.4384 	 20.6442 	 14.0609 	 
C 	 -39.0726 	 21.0753 	 14.0807 	 
C 	 -38.2915 	 20.2355 	 13.2881 	 
H 	 -38.4834 	 21.8981 	 14.6724 	 
C 	 -41.5528 	 21.4292 	 14.7976 	 
H 	 -42.1602 	 21.8669 	 14.0373 	 
H 	 -41.0596 	 22.2196 	 15.3875 	 
C 	 -42.445 	 20.4844 	 15.6476 	 
H 	 -42.8235 	 19.7841 	 14.9897 	 
H 	 -41.8692 	 19.9407 	 16.4174 	 
C 	 -43.5761 	 21.2223 	 16.3427 	 
H 	 -44.0738 	 21.6963 	 15.5026 	 
H 	 -44.2703 	 20.5744 	 16.8503 	 
H 	 -43.1243 	 22.0156 	 16.9268 	 
S 	 -35.8195 	 19.0512 	 13.8282 	 
C 	 -34.3891 	 19.9284 	 13.2454 	 
C 	 -34.7026 	 21.0971 	 12.5837 	 
C 	 -36.1043 	 21.3976 	 12.5491 	 
C 	 -36.8114 	 20.3781 	 13.1362 	 
H 	 -33.7973 	 21.4491 	 12.1455 	 
C 	 -36.7507 	 22.6647 	 12.0233 	 
H 	 -36.104 	 23.4139 	 12.3143 	 
H 	 -37.6409 	 22.9647 	 12.5337 	 
C 	 -36.8437 	 22.7122 	 10.5162 	 
H 	 -35.9305 	 22.8281 	 9.95744 	 
H 	 -37.2176 	 23.7445 	 10.2489 	 
C 	 -37.7662 	 21.6442 	 10.0675 	 
H 	 -37.3488 	 20.6364 	 10.1234 	 
H 	 -38.1057 	 21.93 	 9.05755 	 
H 	 -38.6927 	 21.5407 	 10.7156 	 
H 	 -41.6025 	 19.1697 	 13.0047 	 
H 	 -33.3669 	 19.4569 	 13.3438 	 
*
