! wB97X-D3 SP def2-SVP
%pal
nprocs 24
end

* xyz 0 1
S 	 -30.3178 	 15.5775 	 9.43959 	 
C 	 -30.895 	 13.9918 	 9.71042 	 
C 	 -29.9247 	 13.1545 	 10.2054 	 
C 	 -28.6909 	 13.7947 	 10.4406 	 
C 	 -28.81 	 15.183 	 10.2022 	 
H 	 -27.7601 	 13.3742 	 10.729 	 
C 	 -30.0891 	 11.6768 	 10.4099 	 
H 	 -29.1366 	 11.1561 	 10.6058 	 
H 	 -30.4223 	 11.3102 	 9.43362 	 
C 	 -31.1414 	 11.193 	 11.3633 	 
H 	 -30.9199 	 11.8063 	 12.2451 	 
H 	 -32.1989 	 11.387 	 11.0898 	 
C 	 -31.1772 	 9.67863 	 11.7201 	 
H 	 -30.2235 	 9.55295 	 12.2684 	 
H 	 -32.025 	 9.44534 	 12.3354 	 
H 	 -31.3144 	 9.12028 	 10.8326 	 
S 	 -27.3626 	 17.2539 	 9.43564 	 
C 	 -26.1284 	 17.914 	 10.5094 	 
C 	 -26.206 	 17.3613 	 11.7248 	 
C 	 -27.2584 	 16.4397 	 11.8515 	 
C 	 -27.9251 	 16.2056 	 10.6561 	 
H 	 -25.5165 	 17.7149 	 12.4628 	 
C 	 -27.6017 	 15.8189 	 13.1789 	 
H 	 -26.9008 	 16.2142 	 13.9293 	 
H 	 -27.4381 	 14.7245 	 12.99 	 
C 	 -29.0053 	 16.0684 	 13.7408 	 
H 	 -29.7594 	 15.5601 	 13.064 	 
H 	 -29.3212 	 17.0788 	 13.6985 	 
C 	 -29.1626 	 15.5555 	 15.174 	 
H 	 -29.024 	 14.4741 	 15.1139 	 
H 	 -30.133 	 15.706 	 15.6394 	 
H 	 -28.4675 	 15.9611 	 15.8787 	 
H 	 -31.8502 	 13.6082 	 9.40197 	 
H 	 -25.417 	 18.6435 	 10.3141 	 
*
