! wB97X-D3 SP def2-SVP
%pal
nprocs 24
end

* xyz 0 1
S 	 -67.3748 	 13.449 	 -69.5557 	 
C 	 -67.0168 	 13.7226 	 -67.8788 	 
C 	 -67.364 	 15.0174 	 -67.4737 	 
C 	 -67.8227 	 15.8228 	 -68.554 	 
C 	 -67.8383 	 15.081 	 -69.764 	 
H 	 -68.1488 	 16.8716 	 -68.4106 	 
C 	 -67.2387 	 15.6106 	 -66.0653 	 
H 	 -67.1237 	 14.7827 	 -65.4001 	 
H 	 -68.1882 	 16.0396 	 -65.8129 	 
C 	 -65.9923 	 16.5531 	 -65.934 	 
H 	 -65.8576 	 16.6985 	 -64.8255 	 
H 	 -65.0577 	 16.1821 	 -66.3198 	 
C 	 -66.2766 	 18.0397 	 -66.536 	 
H 	 -66.987 	 18.6366 	 -65.9928 	 
H 	 -65.3812 	 18.6327 	 -66.5814 	 
H 	 -66.5498 	 18.1157 	 -67.5361 	 
S 	 -69.1429 	 14.2514 	 -71.9977 	 
C 	 -69.8933 	 15.4082 	 -73.0806 	 
C 	 -69.455 	 16.6726 	 -72.7611 	 
C 	 -68.5056 	 16.7271 	 -71.6566 	 
C 	 -68.3841 	 15.5116 	 -71.0483 	 
H 	 -69.751 	 17.5023 	 -73.3002 	 
C 	 -67.737 	 18.0362 	 -71.2677 	 
H 	 -66.9609 	 18.186 	 -72.0084 	 
H 	 -67.2088 	 17.9203 	 -70.3495 	 
C 	 -68.6143 	 19.3591 	 -71.1017 	 
H 	 -68.1762 	 20.0529 	 -70.4269 	 
H 	 -69.6089 	 19.2361 	 -70.7511 	 
C 	 -68.7687 	 20.1185 	 -72.4288 	 
H 	 -69.5506 	 19.7799 	 -73.0026 	 
H 	 -67.805 	 20.175 	 -73.0613 	 
H 	 -69.0415 	 21.1403 	 -72.2118 	 
H 	 -66.6118 	 12.9948 	 -67.195 	 
H 	 -70.4527 	 15.1202 	 -73.9743 	 
*
