! wB97X-D3 SP def2-SVP
%pal
nprocs 24
end

* xyz 0 1
S 	 -50.1946 	 12.0686 	 -106.14 	 
C 	 -51.1193 	 10.6284 	 -105.865 	 
C 	 -52.3269 	 10.9447 	 -105.311 	 
C 	 -52.6187 	 12.3357 	 -105.434 	 
C 	 -51.537 	 13.0867 	 -105.94 	 
H 	 -53.5269 	 12.7484 	 -105.111 	 
C 	 -53.2557 	 10.0197 	 -104.549 	 
H 	 -53.6596 	 10.5478 	 -103.71 	 
H 	 -52.5439 	 9.31932 	 -104.114 	 
C 	 -54.3924 	 9.25651 	 -105.342 	 
H 	 -55.1581 	 10.0074 	 -105.701 	 
H 	 -54.0401 	 8.7606 	 -106.259 	 
C 	 -55.0486 	 8.17186 	 -104.438 	 
H 	 -55.2778 	 8.59748 	 -103.473 	 
H 	 -56.0334 	 7.92048 	 -104.804 	 
H 	 -54.4624 	 7.25561 	 -104.274 	 
S 	 -50.6844 	 15.4878 	 -104.741 	 
C 	 -50.9564 	 16.9283 	 -105.576 	 
C 	 -51.6863 	 16.7184 	 -106.698 	 
C 	 -52.0773 	 15.3534 	 -106.924 	 
C 	 -51.4378 	 14.5428 	 -106.014 	 
H 	 -52.0797 	 17.5559 	 -107.23 	 
C 	 -52.9232 	 14.843 	 -108.076 	 
H 	 -53.1138 	 13.7579 	 -107.794 	 
H 	 -52.4049 	 14.7293 	 -109.047 	 
C 	 -54.2993 	 15.432 	 -108.254 	 
H 	 -54.8106 	 14.9129 	 -109.069 	 
H 	 -54.1683 	 16.4475 	 -108.653 	 
C 	 -55.0723 	 15.469 	 -106.947 	 
H 	 -55.0393 	 14.462 	 -106.488 	 
H 	 -56.1246 	 15.7891 	 -107.104 	 
H 	 -54.5975 	 16.1683 	 -106.276 	 
H 	 -50.6916 	 9.65232 	 -105.692 	 
H 	 -50.6457 	 17.8731 	 -105.153 	 
*
