! wB97X-D3 SP def2-SVP
%pal
nprocs 24
end

* xyz 0 1
S 	 -70.3107 	 17.7486 	 -72.776 	 
C 	 -68.8689 	 17.45 	 -71.8355 	 
C 	 -67.7147 	 17.652 	 -72.5513 	 
C 	 -68.0214 	 17.594 	 -73.9296 	 
C 	 -69.3871 	 17.5962 	 -74.2221 	 
H 	 -67.2702 	 17.5227 	 -74.7644 	 
C 	 -66.2986 	 17.6526 	 -72.0359 	 
H 	 -65.9098 	 16.6797 	 -72.1841 	 
H 	 -66.2877 	 17.9252 	 -70.9808 	 
C 	 -65.3653 	 18.5939 	 -72.8249 	 
H 	 -64.397 	 18.3434 	 -72.5013 	 
H 	 -65.4062 	 18.4685 	 -73.9406 	 
C 	 -65.675 	 20.1159 	 -72.673 	 
H 	 -65.0744 	 20.508 	 -71.8834 	 
H 	 -65.4155 	 20.604 	 -73.6082 	 
H 	 -66.7324 	 20.2184 	 -72.4103 	 
S 	 -70.6576 	 15.8404 	 -75.8794 	 
C 	 -71.1286 	 16.4607 	 -77.4268 	 
C 	 -70.7029 	 17.7091 	 -77.6892 	 
C 	 -69.98 	 18.2735 	 -76.5706 	 
C 	 -69.8887 	 17.3626 	 -75.5398 	 
H 	 -70.9806 	 18.1232 	 -78.6531 	 
C 	 -69.3973 	 19.6542 	 -76.5701 	 
H 	 -69.1092 	 19.8324 	 -75.4883 	 
H 	 -70.1591 	 20.3987 	 -76.8763 	 
C 	 -68.1415 	 19.7145 	 -77.4672 	 
H 	 -68.6221 	 19.6019 	 -78.478 	 
H 	 -67.5266 	 18.8035 	 -77.2603 	 
C 	 -67.334 	 20.9646 	 -77.3597 	 
H 	 -67.8144 	 21.7996 	 -77.953 	 
H 	 -66.3525 	 20.7035 	 -77.8388 	 
H 	 -67.0436 	 21.2234 	 -76.3693 	 
H 	 -68.7769 	 17.3837 	 -70.7938 	 
H 	 -71.6865 	 15.963 	 -78.1657 	 
*
