! wB97X-D3 SP def2-SVP
%pal
nprocs 24
end

* xyz 0 1
S 	 3.18113 	 -18.8597 	 -114.447 	 
C 	 2.07942 	 -17.5128 	 -114.714 	 
C 	 0.765365 	 -17.918 	 -114.556 	 
C 	 0.654247 	 -19.2171 	 -113.995 	 
C 	 1.87316 	 -19.8559 	 -113.758 	 
H 	 -0.255374 	 -19.7508 	 -113.715 	 
C 	 -0.407712 	 -16.9619 	 -114.684 	 
H 	 0.00965934 	 -15.9528 	 -114.715 	 
H 	 -0.939671 	 -17.0102 	 -113.781 	 
C 	 -1.45918 	 -17.2146 	 -115.741 	 
H 	 -2.10979 	 -18.015 	 -115.476 	 
H 	 -2.0831 	 -16.3375 	 -115.832 	 
C 	 -0.733647 	 -17.4423 	 -117.106 	 
H 	 -0.188578 	 -18.3771 	 -117.09 	 
H 	 -1.37969 	 -17.2762 	 -117.975 	 
H 	 0.0264084 	 -16.6437 	 -117.208 	 
S 	 3.11335 	 -20.9785 	 -111.58 	 
C 	 2.74165 	 -22.6301 	 -111.152 	 
C 	 2.08566 	 -23.2848 	 -112.153 	 
C 	 1.65082 	 -22.3709 	 -113.189 	 
C 	 2.13142 	 -21.1054 	 -113.038 	 
H 	 1.89099 	 -24.2908 	 -112.094 	 
C 	 0.645766 	 -22.8664 	 -114.251 	 
H 	 0.021213 	 -22.0514 	 -114.492 	 
H 	 -0.0507548 	 -23.4933 	 -113.771 	 
C 	 1.21264 	 -23.6153 	 -115.464 	 
H 	 0.40344 	 -23.9709 	 -116.1 	 
H 	 1.72337 	 -24.5268 	 -115.129 	 
C 	 2.24466 	 -22.6983 	 -116.257 	 
H 	 3.16336 	 -22.5405 	 -115.672 	 
H 	 1.78941 	 -21.7618 	 -116.424 	 
H 	 2.39452 	 -23.2044 	 -117.233 	 
H 	 2.3626 	 -16.515 	 -114.99 	 
H 	 3.14479 	 -23.1288 	 -110.254 	 
*
