! wB97X-D3 SP def2-SVP
%pal
nprocs 24
end

* xyz 0 1
S 	 -104.133 	 -1.38558 	 -107.052 	 
C 	 -104.302 	 -0.287702 	 -108.399 	 
C 	 -104.955 	 0.839012 	 -108.023 	 
C 	 -105.47 	 0.777938 	 -106.722 	 
C 	 -105.039 	 -0.319773 	 -106.02 	 
H 	 -106.118 	 1.52679 	 -106.246 	 
C 	 -105.355 	 1.97207 	 -109.015 	 
H 	 -104.52 	 1.91878 	 -109.707 	 
H 	 -105.361 	 2.97163 	 -108.481 	 
C 	 -106.708 	 1.66124 	 -109.706 	 
H 	 -106.609 	 0.724304 	 -110.1 	 
H 	 -107.557 	 1.52876 	 -109.02 	 
C 	 -107.101 	 2.72243 	 -110.692 	 
H 	 -107.869 	 2.35561 	 -111.374 	 
H 	 -107.54 	 3.54056 	 -110.126 	 
H 	 -106.28 	 3.08618 	 -111.31 	 
S 	 -105.99 	 -2.33101 	 -104.429 	 
C 	 -106.395 	 -2.0498 	 -102.82 	 
C 	 -106.252 	 -0.717874 	 -102.476 	 
C 	 -105.577 	 0.0360279 	 -103.526 	 
C 	 -105.439 	 -0.705431 	 -104.677 	 
H 	 -106.423 	 -0.35572 	 -101.445 	 
C 	 -105.175 	 1.43615 	 -103.369 	 
H 	 -106.153 	 1.83156 	 -103.214 	 
H 	 -104.784 	 1.98773 	 -104.263 	 
C 	 -104.235 	 1.64211 	 -102.188 	 
H 	 -104.664 	 1.13503 	 -101.306 	 
H 	 -104.052 	 2.67406 	 -101.865 	 
C 	 -102.795 	 1.00079 	 -102.344 	 
H 	 -102.839 	 0.074251 	 -102.841 	 
H 	 -102.368 	 0.892386 	 -101.374 	 
H 	 -102.187 	 1.62263 	 -102.933 	 
H 	 -103.903 	 -0.508221 	 -109.448 	 
H 	 -106.835 	 -2.85681 	 -102.227 	 
*
