! wB97X-D3 SP def2-SVP
%pal
nprocs 24
end

* xyz 0 1
S 	 -37.9128 	 8.01189 	 -0.162358 	 
C 	 -38.7066 	 6.62472 	 -0.906691 	 
C 	 -38.2625 	 5.42279 	 -0.326451 	 
C 	 -37.1864 	 5.66452 	 0.598629 	 
C 	 -36.8172 	 7.00211 	 0.769805 	 
H 	 -36.6711 	 4.94156 	 1.11529 	 
C 	 -38.8927 	 4.04874 	 -0.528527 	 
H 	 -39.6887 	 4.23325 	 -1.24813 	 
H 	 -39.4986 	 3.8131 	 0.369241 	 
C 	 -37.9441 	 2.94605 	 -1.09821 	 
H 	 -37.1666 	 2.7027 	 -0.314316 	 
H 	 -38.4471 	 2.01971 	 -1.00586 	 
C 	 -37.3651 	 3.09478 	 -2.48546 	 
H 	 -36.7296 	 2.23317 	 -2.74743 	 
H 	 -38.1169 	 3.23643 	 -3.22726 	 
H 	 -36.7398 	 4.04866 	 -2.47 	 
S 	 -34.3745 	 8.22555 	 1.21116 	 
C 	 -34.1257 	 8.86843 	 2.83594 	 
C 	 -35.0955 	 8.45276 	 3.70882 	 
C 	 -36.0855 	 7.59071 	 3.13901 	 
C 	 -35.9591 	 7.55788 	 1.77782 	 
H 	 -34.9872 	 8.80619 	 4.67554 	 
C 	 -37.2322 	 6.94146 	 3.88259 	 
H 	 -37.8718 	 6.33028 	 3.25159 	 
H 	 -37.8808 	 7.69221 	 4.22473 	 
C 	 -36.6446 	 6.0395 	 5.07301 	 
H 	 -37.3492 	 5.96663 	 5.87053 	 
H 	 -35.7862 	 6.5812 	 5.45635 	 
C 	 -36.2662 	 4.57443 	 4.65393 	 
H 	 -35.4795 	 4.61218 	 3.90092 	 
H 	 -37.0728 	 4.10277 	 4.13817 	 
H 	 -36.0277 	 3.95603 	 5.48593 	 
H 	 -39.624 	 6.77016 	 -1.504 	 
H 	 -33.2585 	 9.41345 	 3.08142 	 
*
