! wB97X-D3 SP def2-SVP
%pal
nprocs 24
end

* xyz 0 1
S 	 -100.784 	 4.39087 	 -106.06 	 
C 	 -99.6651 	 4.09467 	 -107.375 	 
C 	 -98.7295 	 3.11302 	 -107.059 	 
C 	 -98.9238 	 2.65342 	 -105.706 	 
C 	 -100.021 	 3.14904 	 -105.06 	 
H 	 -98.3145 	 1.89791 	 -105.243 	 
C 	 -97.5708 	 2.68616 	 -107.896 	 
H 	 -97.7888 	 2.65096 	 -108.95 	 
H 	 -97.4899 	 1.58526 	 -107.719 	 
C 	 -96.3409 	 3.42098 	 -107.556 	 
H 	 -96.5722 	 4.49859 	 -107.44 	 
H 	 -95.9459 	 3.02181 	 -106.681 	 
C 	 -95.2688 	 3.26944 	 -108.558 	 
H 	 -94.7643 	 2.28486 	 -108.376 	 
H 	 -95.6725 	 3.38962 	 -109.594 	 
H 	 -94.473 	 3.90601 	 -108.426 	 
S 	 -101.915 	 2.25277 	 -103.32 	 
C 	 -101.429 	 2.15973 	 -101.618 	 
C 	 -100.132 	 2.49047 	 -101.41 	 
C 	 -99.5162 	 2.95957 	 -102.59 	 
C 	 -100.341 	 2.93208 	 -103.699 	 
H 	 -99.6449 	 2.54765 	 -100.425 	 
C 	 -98.1734 	 3.59141 	 -102.575 	 
H 	 -98.1459 	 4.25666 	 -101.706 	 
H 	 -98.0699 	 4.39088 	 -103.356 	 
C 	 -96.9749 	 2.67558 	 -102.592 	 
H 	 -97.0663 	 2.03737 	 -103.502 	 
H 	 -97.1249 	 1.91945 	 -101.808 	 
C 	 -95.6999 	 3.47939 	 -102.43 	 
H 	 -95.5375 	 3.97036 	 -103.363 	 
H 	 -94.8922 	 2.77733 	 -102.42 	 
H 	 -95.806 	 4.16474 	 -101.596 	 
H 	 -99.7448 	 4.67919 	 -108.28 	 
H 	 -102.032 	 1.71995 	 -100.766 	 
*
