! wB97X-D3 SP def2-SVP
%pal
nprocs 24
end

* xyz 0 1
S 	 -104.253 	 19.6757 	 -119.459 	 
C 	 -102.639 	 20.2275 	 -119.239 	 
C 	 -101.98 	 20.2642 	 -120.491 	 
C 	 -102.9 	 20.012 	 -121.576 	 
C 	 -104.208 	 19.7787 	 -121.219 	 
H 	 -102.527 	 20.0323 	 -122.639 	 
C 	 -100.524 	 20.5652 	 -120.662 	 
H 	 -100.167 	 20.7865 	 -119.691 	 
H 	 -100.361 	 21.4585 	 -121.274 	 
C 	 -99.7662 	 19.4144 	 -121.352 	 
H 	 -100.163 	 19.2003 	 -122.309 	 
H 	 -98.6923 	 19.6002 	 -121.402 	 
C 	 -99.7256 	 18.0051 	 -120.653 	 
H 	 -100.679 	 17.4187 	 -120.623 	 
H 	 -99.0685 	 17.3505 	 -121.234 	 
H 	 -99.2461 	 18.1387 	 -119.689 	 
S 	 -106.438 	 20.6762 	 -122.55 	 
C 	 -107.2 	 19.6232 	 -123.706 	 
C 	 -106.826 	 18.2862 	 -123.505 	 
C 	 -105.661 	 18.1762 	 -122.667 	 
C 	 -105.297 	 19.4117 	 -122.095 	 
H 	 -107.235 	 17.444 	 -124.104 	 
C 	 -105.006 	 16.7787 	 -122.472 	 
H 	 -104.151 	 16.8303 	 -121.808 	 
H 	 -104.471 	 16.6579 	 -123.456 	 
C 	 -105.982 	 15.6233 	 -122.17 	 
H 	 -106.781 	 15.4222 	 -122.926 	 
H 	 -106.525 	 15.889 	 -121.155 	 
C 	 -105.234 	 14.287 	 -121.967 	 
H 	 -106.006 	 13.5727 	 -121.722 	 
H 	 -104.504 	 14.2885 	 -121.148 	 
H 	 -104.654 	 13.9436 	 -122.795 	 
H 	 -102.11 	 20.392 	 -118.343 	 
H 	 -107.835 	 19.9433 	 -124.497 	 
*
