! wB97X-D3 SP def2-SVP
%pal
nprocs 24
end

* xyz 0 1
S 	 -132.831 	 65.1622 	 -59.4727 	 
C 	 -134.256 	 66.2144 	 -59.7961 	 
C 	 -134.618 	 66.2128 	 -61.0854 	 
C 	 -133.699 	 65.4231 	 -61.8628 	 
C 	 -132.72 	 64.749 	 -61.1576 	 
H 	 -133.706 	 65.2647 	 -62.9173 	 
C 	 -135.688 	 67.098 	 -61.7201 	 
H 	 -136.449 	 67.3742 	 -60.987 	 
H 	 -136.357 	 66.5288 	 -62.4322 	 
C 	 -135.207 	 68.4053 	 -62.2632 	 
H 	 -134.772 	 68.181 	 -63.1829 	 
H 	 -136.004 	 69.0765 	 -62.4603 	 
C 	 -134.224 	 69.1616 	 -61.2428 	 
H 	 -134.608 	 69.1398 	 -60.2422 	 
H 	 -133.293 	 68.6951 	 -61.1736 	 
H 	 -134.268 	 70.232 	 -61.5379 	 
S 	 -131.703 	 63.4163 	 -63.3273 	 
C 	 -130.002 	 62.9281 	 -63.2648 	 
C 	 -129.561 	 62.8555 	 -62.0014 	 
C 	 -130.394 	 63.5659 	 -61.1002 	 
C 	 -131.6 	 63.9701 	 -61.6796 	 
H 	 -128.609 	 62.4792 	 -61.6906 	 
C 	 -130.169 	 63.6378 	 -59.6373 	 
H 	 -131.048 	 63.5433 	 -59.047 	 
H 	 -129.95 	 64.6579 	 -59.4703 	 
C 	 -129.202 	 62.709 	 -58.8764 	 
H 	 -128.202 	 63.1736 	 -58.9413 	 
H 	 -129.204 	 61.8328 	 -59.5486 	 
C 	 -129.521 	 62.364 	 -57.419 	 
H 	 -128.579 	 62.3511 	 -56.8458 	 
H 	 -129.736 	 61.3228 	 -57.387 	 
H 	 -130.364 	 62.9625 	 -57.0364 	 
H 	 -134.766 	 66.7981 	 -59.0736 	 
H 	 -129.432 	 62.594 	 -64.1275 	 
*
