! wB97X-D3 SP def2-SVP
%pal
nprocs 24
end

* xyz 0 1
S 	 -80.412 	 -0.117135 	 6.95571 	 
C 	 -81.1752 	 0.946296 	 8.11166 	 
C 	 -80.8796 	 2.28878 	 7.85709 	 
C 	 -80.0871 	 2.38913 	 6.65181 	 
C 	 -79.7061 	 1.22657 	 6.01482 	 
H 	 -79.8242 	 3.24102 	 5.99429 	 
C 	 -81.1538 	 3.51187 	 8.66629 	 
H 	 -82.1158 	 3.94755 	 8.28879 	 
H 	 -80.4618 	 4.26631 	 8.41717 	 
C 	 -81.187 	 3.20612 	 10.1866 	 
H 	 -81.5947 	 4.0902 	 10.6462 	 
H 	 -81.8481 	 2.42355 	 10.5034 	 
C 	 -79.8141 	 3.01192 	 10.8146 	 
H 	 -79.2323 	 2.14587 	 10.4152 	 
H 	 -79.1634 	 3.8993 	 10.656 	 
H 	 -79.925 	 3.05508 	 11.8811 	 
S 	 -77.6583 	 2.00795 	 4.3903 	 
C 	 -77.4903 	 1.29196 	 2.76164 	 
C 	 -78.4169 	 0.255115 	 2.59369 	 
C 	 -79.4115 	 0.227528 	 3.61099 	 
C 	 -79.0757 	 1.0465 	 4.74144 	 
H 	 -78.5011 	 -0.277537 	 1.6654 	 
C 	 -80.3703 	 -0.899897 	 3.5403 	 
H 	 -80.4523 	 -1.38367 	 4.41828 	 
H 	 -80 	 -1.66587 	 2.86787 	 
C 	 -81.7885 	 -0.504962 	 2.99285 	 
H 	 -81.7075 	 -0.411348 	 1.94227 	 
H 	 -81.9693 	 0.488264 	 3.35688 	 
C 	 -82.9173 	 -1.50163 	 3.48919 	 
H 	 -82.8706 	 -2.49432 	 3.10061 	 
H 	 -83.8855 	 -1.02918 	 3.25073 	 
H 	 -82.9165 	 -1.50438 	 4.57234 	 
H 	 -81.73 	 0.678723 	 8.95945 	 
H 	 -76.779 	 1.5411 	 2.01316 	 
*
