! wB97X-D3 SP def2-SVP
%pal
nprocs 24
end

* xyz 0 1
S 	 -75.4321 	 11.1288 	 -109.626 	 
C 	 -77.0107 	 11.7082 	 -109.233 	 
C 	 -77.8348 	 10.6499 	 -108.957 	 
C 	 -77.1837 	 9.39966 	 -109.043 	 
C 	 -75.8579 	 9.4725 	 -109.313 	 
H 	 -77.7095 	 8.49456 	 -108.696 	 
C 	 -79.3501 	 10.6618 	 -108.646 	 
H 	 -79.6308 	 10.0059 	 -107.835 	 
H 	 -79.7122 	 10.1492 	 -109.539 	 
C 	 -80.0488 	 12.0674 	 -108.507 	 
H 	 -79.6223 	 12.6903 	 -107.607 	 
H 	 -79.6164 	 12.5894 	 -109.328 	 
C 	 -81.5625 	 12.1618 	 -108.385 	 
H 	 -82.0389 	 11.7727 	 -107.492 	 
H 	 -82.1025 	 13.1688 	 -108.445 	 
H 	 -81.8949 	 11.5015 	 -109.17 	 
S 	 -73.3919 	 8.39958 	 -109.758 	 
C 	 -73.0891 	 6.7029 	 -109.797 	 
C 	 -74.2709 	 6.07036 	 -109.999 	 
C 	 -75.4038 	 6.91586 	 -109.972 	 
C 	 -75.0914 	 8.27147 	 -109.697 	 
H 	 -74.2441 	 5.04106 	 -110.309 	 
C 	 -76.8243 	 6.32346 	 -110.177 	 
H 	 -76.7886 	 5.77292 	 -111.061 	 
H 	 -77.5869 	 7.11272 	 -110.439 	 
C 	 -77.4166 	 5.54299 	 -108.99 	 
H 	 -77.4848 	 6.09021 	 -108.081 	 
H 	 -76.6822 	 4.6909 	 -108.816 	 
C 	 -78.7563 	 4.99908 	 -109.472 	 
H 	 -79.4705 	 5.84762 	 -109.559 	 
H 	 -79.2213 	 4.25785 	 -108.845 	 
H 	 -78.744 	 4.53415 	 -110.38 	 
H 	 -77.3113 	 12.7485 	 -109.114 	 
H 	 -72.1382 	 6.293 	 -109.974 	 
*
