! wB97X-D3 SP def2-SVP
%pal
nprocs 24
end

* xyz 0 1
S 	 19.9087 	 -20.8081 	 -122.558 	 
C 	 20.772 	 -21.0172 	 -123.963 	 
C 	 21.8533 	 -20.1543 	 -124.083 	 
C 	 21.9738 	 -19.3664 	 -122.921 	 
C 	 21.0883 	 -19.6211 	 -121.969 	 
H 	 22.7999 	 -18.6665 	 -122.774 	 
C 	 22.8668 	 -20.0584 	 -125.143 	 
H 	 23.8322 	 -19.7653 	 -124.724 	 
H 	 22.7183 	 -19.1966 	 -125.742 	 
C 	 23.0249 	 -21.3208 	 -125.972 	 
H 	 23.0865 	 -22.1635 	 -125.262 	 
H 	 22.1055 	 -21.6009 	 -126.539 	 
C 	 24.1917 	 -21.4012 	 -126.96 	 
H 	 24.2399 	 -20.4956 	 -127.634 	 
H 	 25.1891 	 -21.3881 	 -126.541 	 
H 	 24.0177 	 -22.2421 	 -127.628 	 
S 	 20.7955 	 -20.1583 	 -119.298 	 
C 	 20.8156 	 -18.939 	 -118.086 	 
C 	 21.1317 	 -17.7165 	 -118.658 	 
C 	 21.329 	 -17.7632 	 -120.112 	 
C 	 21.0547 	 -19.0135 	 -120.657 	 
H 	 21.2049 	 -16.8868 	 -118.02 	 
C 	 21.7062 	 -16.5133 	 -120.895 	 
H 	 20.7514 	 -16.0018 	 -121.035 	 
H 	 22.0293 	 -16.6745 	 -121.908 	 
C 	 22.7682 	 -15.5658 	 -120.243 	 
H 	 23.7784 	 -16.0242 	 -120.388 	 
H 	 22.5261 	 -15.3953 	 -119.187 	 
C 	 22.8303 	 -14.139 	 -120.937 	 
H 	 23.4654 	 -13.461 	 -120.371 	 
H 	 21.7907 	 -13.7039 	 -120.866 	 
H 	 23.1431 	 -14.1989 	 -121.968 	 
H 	 20.2913 	 -21.4668 	 -124.816 	 
H 	 20.6627 	 -19.0035 	 -117.03 	 
*
