! wB97X-D3 SP def2-SVP
%pal
nprocs 24
end

* xyz 0 1
S 	 28.2967 	 -7.29816 	 -120.769 	 
C 	 26.5908 	 -7.68272 	 -120.941 	 
C 	 26.1392 	 -8.48135 	 -119.93 	 
C 	 27.0975 	 -8.5216 	 -118.865 	 
C 	 28.3038 	 -7.89505 	 -119.148 	 
H 	 26.9966 	 -9.08175 	 -117.96 	 
C 	 24.6903 	 -8.95664 	 -119.904 	 
H 	 23.9772 	 -8.31486 	 -120.46 	 
H 	 24.4093 	 -8.95835 	 -118.839 	 
C 	 24.5136 	 -10.4241 	 -120.177 	 
H 	 24.9069 	 -11.0721 	 -119.383 	 
H 	 23.4988 	 -10.6757 	 -120.088 	 
C 	 24.9765 	 -10.8348 	 -121.537 	 
H 	 24.5091 	 -11.8543 	 -121.687 	 
H 	 24.5755 	 -10.1655 	 -122.296 	 
H 	 26.061 	 -11.0191 	 -121.555 	 
S 	 30.9349 	 -8.68416 	 -118.947 	 
C 	 31.5907 	 -8.79087 	 -117.328 	 
C 	 30.7018 	 -8.4549 	 -116.343 	 
C 	 29.4934 	 -8.03095 	 -116.848 	 
C 	 29.448 	 -8.05921 	 -118.255 	 
H 	 31.0571 	 -8.50369 	 -115.369 	 
C 	 28.3097 	 -7.57607 	 -115.978 	 
H 	 27.5361 	 -8.30351 	 -116.057 	 
H 	 27.9289 	 -6.67765 	 -116.525 	 
C 	 28.356 	 -7.10647 	 -114.467 	 
H 	 29.2787 	 -6.5097 	 -114.229 	 
H 	 28.3468 	 -7.97986 	 -113.812 	 
C 	 27.0791 	 -6.27253 	 -114.15 	 
H 	 26.9338 	 -6.05852 	 -113.067 	 
H 	 26.2382 	 -6.90004 	 -114.48 	 
H 	 27.0527 	 -5.4287 	 -114.824 	 
H 	 26.0999 	 -7.65625 	 -121.936 	 
H 	 32.6333 	 -9.05228 	 -116.985 	 
*
