! wB97X-D3 SP def2-SVP
%pal
nprocs 24
end

* xyz 0 1
S 	 -129.346 	 64.1605 	 -58.4279 	 
C 	 -129.539 	 64.8101 	 -59.9972 	 
C 	 -130.224 	 64.0048 	 -60.8946 	 
C 	 -130.665 	 62.8005 	 -60.2568 	 
C 	 -130.347 	 62.7738 	 -58.8958 	 
H 	 -131.252 	 61.9221 	 -60.526 	 
C 	 -130.635 	 64.3362 	 -62.3178 	 
H 	 -129.906 	 65.1953 	 -62.466 	 
H 	 -131.659 	 64.6765 	 -62.2622 	 
C 	 -130.495 	 63.2984 	 -63.4185 	 
H 	 -129.409 	 63.0406 	 -63.6088 	 
H 	 -130.989 	 62.3539 	 -63.2855 	 
C 	 -131.135 	 63.8806 	 -64.7305 	 
H 	 -130.59 	 64.7405 	 -65.0244 	 
H 	 -131.125 	 63.123 	 -65.5187 	 
H 	 -132.207 	 64.1248 	 -64.6461 	 
S 	 -129.419 	 61.0068 	 -57.0646 	 
C 	 -130.546 	 59.9674 	 -56.2091 	 
C 	 -131.868 	 60.2854 	 -56.5754 	 
C 	 -132.017 	 61.2696 	 -57.5715 	 
C 	 -130.745 	 61.7104 	 -57.9727 	 
H 	 -132.656 	 59.8561 	 -55.9794 	 
C 	 -133.381 	 61.7894 	 -58.0672 	 
H 	 -133.149 	 62.3835 	 -58.8907 	 
H 	 -133.827 	 62.5296 	 -57.4111 	 
C 	 -134.395 	 60.7484 	 -58.6892 	 
H 	 -135.005 	 60.2068 	 -57.9169 	 
H 	 -133.917 	 59.9393 	 -59.2136 	 
C 	 -135.402 	 61.5727 	 -59.5685 	 
H 	 -134.91 	 61.9518 	 -60.4143 	 
H 	 -135.839 	 62.3855 	 -59.0222 	 
H 	 -136.214 	 60.9149 	 -59.9619 	 
H 	 -129.287 	 65.8273 	 -60.2498 	 
H 	 -130.241 	 59.2704 	 -55.4298 	 
*
