! wB97X-D3 SP def2-SVP
%pal
nprocs 24
end

* xyz 0 1
S 	 -42.0555 	 -52.5265 	 -73.2105 	 
C 	 -42.8347 	 -54.1128 	 -73.2566 	 
C 	 -43.5429 	 -54.3003 	 -72.0912 	 
C 	 -43.4834 	 -53.1576 	 -71.2045 	 
C 	 -42.5911 	 -52.2064 	 -71.5903 	 
H 	 -44.0123 	 -53.1137 	 -70.2774 	 
C 	 -44.3473 	 -55.5091 	 -71.6607 	 
H 	 -44.7762 	 -55.2798 	 -70.6938 	 
H 	 -43.7265 	 -56.3208 	 -71.4862 	 
C 	 -45.529 	 -55.8135 	 -72.5255 	 
H 	 -45.1415 	 -55.8144 	 -73.5446 	 
H 	 -45.818 	 -56.8493 	 -72.3152 	 
C 	 -46.694 	 -54.8395 	 -72.2407 	 
H 	 -47.5453 	 -54.9284 	 -72.9579 	 
H 	 -47.2012 	 -54.9972 	 -71.2825 	 
H 	 -46.3714 	 -53.8225 	 -72.3934 	 
S 	 -42.4735 	 -49.5355 	 -72.0174 	 
C 	 -41.8971 	 -48.4594 	 -70.7473 	 
C 	 -41.8441 	 -49.1183 	 -69.561 	 
C 	 -42.085 	 -50.5467 	 -69.7108 	 
C 	 -42.3634 	 -50.8876 	 -71.0133 	 
H 	 -41.5939 	 -48.564 	 -68.7247 	 
C 	 -41.729 	 -51.6061 	 -68.6441 	 
H 	 -42.2943 	 -52.4273 	 -68.984 	 
H 	 -42.0959 	 -51.2493 	 -67.6406 	 
C 	 -40.1743 	 -51.9047 	 -68.564 	 
H 	 -39.7328 	 -50.9424 	 -68.2768 	 
H 	 -39.9176 	 -52.1766 	 -69.5974 	 
C 	 -39.8243 	 -52.9287 	 -67.4143 	 
H 	 -40.1329 	 -53.8532 	 -67.6672 	 
H 	 -40.2606 	 -52.7912 	 -66.4814 	 
H 	 -38.7778 	 -53.1527 	 -67.3074 	 
H 	 -42.5513 	 -54.9127 	 -73.9265 	 
H 	 -41.9014 	 -47.4211 	 -70.9455 	 
*
