! wB97X-D3 SP def2-SVP
%pal
nprocs 24
end

* xyz 0 1
S 	 -55.0096 	 15.8118 	 -89.978 	 
C 	 -54.4997 	 16.9236 	 -88.7582 	 
C 	 -54.6933 	 16.4037 	 -87.4912 	 
C 	 -55.1069 	 15.0047 	 -87.5227 	 
C 	 -55.4236 	 14.5486 	 -88.7889 	 
H 	 -55.2362 	 14.3859 	 -86.6315 	 
C 	 -54.5277 	 17.2734 	 -86.2364 	 
H 	 -55.176 	 17.1875 	 -85.3373 	 
H 	 -54.6944 	 18.2577 	 -86.5815 	 
C 	 -53.1036 	 17.235 	 -85.7769 	 
H 	 -52.4919 	 17.6398 	 -86.6035 	 
H 	 -53.0082 	 17.9597 	 -84.9266 	 
C 	 -52.6103 	 15.8348 	 -85.4625 	 
H 	 -53.2885 	 15.3129 	 -84.7601 	 
H 	 -52.524 	 15.2348 	 -86.4038 	 
H 	 -51.6342 	 15.9127 	 -84.9676 	 
S 	 -57.4302 	 13.3724 	 -90.3494 	 
C 	 -57.4996 	 11.6503 	 -90.4038 	 
C 	 -56.3881 	 11.0819 	 -89.8462 	 
C 	 -55.6421 	 11.9585 	 -89.0203 	 
C 	 -55.9808 	 13.2778 	 -89.2896 	 
H 	 -56.3031 	 9.97874 	 -89.741 	 
C 	 -54.4162 	 11.6133 	 -88.239 	 
H 	 -54.6534 	 10.8033 	 -87.5354 	 
H 	 -54.1029 	 12.3769 	 -87.5792 	 
C 	 -53.2862 	 11.0978 	 -89.1425 	 
H 	 -52.9241 	 12.0174 	 -89.7426 	 
H 	 -53.7864 	 10.4861 	 -89.9251 	 
C 	 -52.1534 	 10.4819 	 -88.4037 	 
H 	 -51.8017 	 10.9877 	 -87.4665 	 
H 	 -51.2877 	 10.3733 	 -89.0695 	 
H 	 -52.4181 	 9.47198 	 -87.9949 	 
H 	 -54.049 	 17.8825 	 -88.949 	 
H 	 -57.9532 	 11.0692 	 -91.2053 	 
*
