! wB97X-D3 SP def2-SVP
%pal
nprocs 24
end

* xyz 0 1
S 	 -51.8166 	 -45.5668 	 -76.9948 	 
C 	 -52.5264 	 -45.1255 	 -75.5011 	 
C 	 -52.6617 	 -43.7371 	 -75.4298 	 
C 	 -52.2725 	 -43.094 	 -76.643 	 
C 	 -51.6984 	 -43.89 	 -77.5902 	 
H 	 -52.4109 	 -42.0713 	 -76.8135 	 
C 	 -53.2065 	 -43.0057 	 -74.2143 	 
H 	 -54.2467 	 -42.8666 	 -74.5764 	 
H 	 -52.7931 	 -41.9939 	 -74.0798 	 
C 	 -53.2289 	 -43.7227 	 -72.8623 	 
H 	 -53.7961 	 -44.6686 	 -72.972 	 
H 	 -52.1977 	 -44.0013 	 -72.5893 	 
C 	 -53.8323 	 -42.785 	 -71.694 	 
H 	 -54.9495 	 -42.7026 	 -71.8608 	 
H 	 -53.5734 	 -43.1809 	 -70.7574 	 
H 	 -53.4583 	 -41.7704 	 -71.7465 	 
S 	 -50.9397 	 -44.9394 	 -79.997 	 
C 	 -50.0927 	 -43.8863 	 -81.1668 	 
C 	 -49.9867 	 -42.56 	 -80.7338 	 
C 	 -50.4856 	 -42.4454 	 -79.3708 	 
C 	 -51.0871 	 -43.5755 	 -78.8361 	 
H 	 -49.4349 	 -41.8276 	 -81.3451 	 
C 	 -50.3171 	 -41.1084 	 -78.6251 	 
H 	 -51.2787 	 -40.9106 	 -78.1538 	 
H 	 -50.2714 	 -40.3557 	 -79.3185 	 
C 	 -49.239 	 -41.067 	 -77.5582 	 
H 	 -49.4659 	 -41.7158 	 -76.754 	 
H 	 -49.2605 	 -40.1193 	 -77.2239 	 
C 	 -47.8318 	 -41.3565 	 -78.181 	 
H 	 -46.9961 	 -41.3172 	 -77.4726 	 
H 	 -47.6371 	 -40.7267 	 -79.0744 	 
H 	 -47.7982 	 -42.4232 	 -78.4957 	 
H 	 -52.7029 	 -45.7374 	 -74.6484 	 
H 	 -49.5934 	 -44.239 	 -82.0858 	 
*
