! wB97X-D3 SP def2-SVP
%pal
nprocs 24
end

* xyz 0 1
S 	 -38.7944 	 -43.6228 	 -74.4093 	 
C 	 -40.3614 	 -42.8509 	 -74.021 	 
C 	 -40.5292 	 -41.6994 	 -74.7791 	 
C 	 -39.4517 	 -41.5728 	 -75.7382 	 
C 	 -38.4118 	 -42.4634 	 -75.5827 	 
H 	 -39.4241 	 -40.7921 	 -76.4689 	 
C 	 -41.7276 	 -40.722 	 -74.6706 	 
H 	 -41.9277 	 -40.5966 	 -75.7564 	 
H 	 -41.3537 	 -39.7746 	 -74.2852 	 
C 	 -43.015 	 -41.2147 	 -74.0576 	 
H 	 -43.3578 	 -42.1833 	 -74.4656 	 
H 	 -42.9157 	 -41.4122 	 -73.0366 	 
C 	 -44.1169 	 -40.1664 	 -74.0405 	 
H 	 -45.0541 	 -40.5342 	 -73.6732 	 
H 	 -43.818 	 -39.3093 	 -73.4723 	 
H 	 -44.2798 	 -39.7925 	 -75.0578 	 
S 	 -35.7027 	 -42.4606 	 -75.2677 	 
C 	 -34.7007 	 -42.4026 	 -76.7032 	 
C 	 -35.3907 	 -42.1368 	 -77.8312 	 
C 	 -36.7861 	 -42.1899 	 -77.6282 	 
C 	 -37.0993 	 -42.4132 	 -76.3074 	 
H 	 -34.769 	 -41.9752 	 -78.7061 	 
C 	 -37.6415 	 -41.824 	 -78.8184 	 
H 	 -37.5657 	 -40.7279 	 -79.0258 	 
H 	 -38.7158 	 -42.0083 	 -78.6344 	 
C 	 -37.3627 	 -42.7275 	 -80.1254 	 
H 	 -37.7799 	 -43.697 	 -79.9842 	 
H 	 -36.2943 	 -42.9159 	 -80.2381 	 
C 	 -37.9674 	 -42.0564 	 -81.4438 	 
H 	 -39.0718 	 -42.1288 	 -81.4703 	 
H 	 -37.5881 	 -42.6003 	 -82.3404 	 
H 	 -37.5795 	 -41.0468 	 -81.5606 	 
H 	 -40.9803 	 -43.298 	 -73.3681 	 
H 	 -33.618 	 -42.5131 	 -76.7086 	 
*
