! wB97X-D3 SP def2-SVP
%pal
nprocs 24
end

* xyz 0 1
S 	 -58.1821 	 7.06288 	 -16.1807 	 
C 	 -57.6254 	 5.40535 	 -16.1947 	 
C 	 -58.6467 	 4.4494 	 -16.005 	 
C 	 -59.9262 	 5.09699 	 -15.8729 	 
C 	 -59.8134 	 6.47826 	 -16.0207 	 
H 	 -60.9443 	 4.64991 	 -15.7584 	 
C 	 -58.4468 	 2.96992 	 -15.9318 	 
H 	 -58.896 	 2.58071 	 -15.0242 	 
H 	 -57.4187 	 2.75424 	 -15.9865 	 
C 	 -59.1112 	 2.27093 	 -17.1648 	 
H 	 -60.1947 	 2.47654 	 -17.1413 	 
H 	 -58.7192 	 2.69759 	 -18.1017 	 
C 	 -58.9607 	 0.734801 	 -17.1652 	 
H 	 -57.9644 	 0.312221 	 -16.9195 	 
H 	 -59.7044 	 0.396362 	 -16.5104 	 
H 	 -59.1151 	 0.334937 	 -18.208 	 
S 	 -61.496 	 7.85445 	 -14.5145 	 
C 	 -62.5089 	 9.08743 	 -15.2247 	 
C 	 -62.4158 	 9.13983 	 -16.5929 	 
C 	 -61.5354 	 8.14862 	 -17.0746 	 
C 	 -60.9243 	 7.43347 	 -16.0651 	 
H 	 -62.9819 	 10.025 	 -17.0164 	 
C 	 -61.1151 	 8.12553 	 -18.5132 	 
H 	 -60.1738 	 7.51911 	 -18.5106 	 
H 	 -60.7877 	 9.05361 	 -18.9259 	 
C 	 -62.0104 	 7.37745 	 -19.4967 	 
H 	 -61.768 	 7.54858 	 -20.4989 	 
H 	 -63.0096 	 7.8551 	 -19.4455 	 
C 	 -62.1916 	 5.77733 	 -19.3233 	 
H 	 -61.1992 	 5.34845 	 -19.5121 	 
H 	 -62.8104 	 5.47145 	 -20.1898 	 
H 	 -62.5423 	 5.46988 	 -18.2959 	 
H 	 -56.6071 	 5.15631 	 -16.3874 	 
H 	 -63.2891 	 9.68914 	 -14.7044 	 
*
