! wB97X-D3 SP def2-SVP
%pal
nprocs 24
end

* xyz 0 1
S 	 -95.5946 	 6.574 	 1.03093 	 
C 	 -96.9355 	 6.33442 	 -0.0305121 	 
C 	 -98.1312 	 5.9889 	 0.655463 	 
C 	 -97.894 	 5.78857 	 2.02779 	 
C 	 -96.5522 	 6.05361 	 2.4705 	 
H 	 -98.634 	 5.65269 	 2.80099 	 
C 	 -99.4527 	 5.87428 	 -0.00115566 	 
H 	 -99.8257 	 4.85688 	 0.0768586 	 
H 	 -99.2319 	 5.7081 	 -1.07662 	 
C 	 -100.614 	 6.90287 	 0.379855 	 
H 	 -100.647 	 6.9767 	 1.45473 	 
H 	 -100.436 	 7.90533 	 0.0504796 	 
C 	 -102.125 	 6.66331 	 -0.143492 	 
H 	 -102.505 	 5.90466 	 0.53658 	 
H 	 -102.796 	 7.5126 	 -0.064866 	 
H 	 -102.125 	 6.35835 	 -1.13294 	 
S 	 -95.1722 	 7.77331 	 4.23815 	 
C 	 -95.2619 	 7.21033 	 5.92287 	 
C 	 -96.0611 	 6.17413 	 6.12838 	 
C 	 -96.5864 	 5.55296 	 4.95593 	 
C 	 -96.1572 	 6.31069 	 3.84532 	 
H 	 -96.0112 	 5.73947 	 7.10478 	 
C 	 -97.4721 	 4.32323 	 4.97982 	 
H 	 -97.0274 	 3.68241 	 5.69985 	 
H 	 -97.3474 	 3.77537 	 4.05633 	 
C 	 -98.8713 	 4.54194 	 5.50524 	 
H 	 -99.2654 	 3.57173 	 5.47886 	 
H 	 -99.372 	 5.18147 	 4.74047 	 
C 	 -99.1503 	 5.20469 	 6.77694 	 
H 	 -98.8361 	 4.60483 	 7.62736 	 
H 	 -100.225 	 5.31729 	 6.84406 	 
H 	 -98.751 	 6.25579 	 6.79602 	 
H 	 -96.9463 	 6.62398 	 -1.10761 	 
H 	 -94.567 	 7.59974 	 6.71462 	 
*
