! wB97X-D3 SP def2-SVP
%pal
nprocs 24
end

* xyz 0 1
S 	 38.406 	 -13.4276 	 -123.142 	 
C 	 38.5181 	 -11.8897 	 -122.212 	 
C 	 39.6379 	 -12.0584 	 -121.332 	 
C 	 40.3429 	 -13.2961 	 -121.473 	 
C 	 39.8774 	 -14.1015 	 -122.527 	 
H 	 41.0974 	 -13.6813 	 -120.807 	 
C 	 39.9731 	 -11.1048 	 -120.237 	 
H 	 39.7373 	 -11.4492 	 -119.23 	 
H 	 39.3405 	 -10.2398 	 -120.547 	 
C 	 41.3007 	 -10.3923 	 -120.407 	 
H 	 41.6311 	 -10.3771 	 -121.502 	 
H 	 41.3145 	 -9.26276 	 -120.19 	 
C 	 42.3961 	 -11.0286 	 -119.643 	 
H 	 42.3497 	 -12.0987 	 -119.722 	 
H 	 43.4561 	 -10.7518 	 -119.921 	 
H 	 42.3207 	 -10.7442 	 -118.589 	 
S 	 39.2075 	 -16.7537 	 -122.277 	 
C 	 40.353 	 -17.985 	 -122.723 	 
C 	 41.5524 	 -17.4781 	 -123.138 	 
C 	 41.5107 	 -16.0498 	 -123.182 	 
C 	 40.2568 	 -15.479 	 -122.84 	 
H 	 42.4124 	 -18.0709 	 -123.422 	 
C 	 42.6651 	 -15.3267 	 -123.747 	 
H 	 42.378 	 -14.2883 	 -123.922 	 
H 	 43.0086 	 -15.6532 	 -124.762 	 
C 	 43.8914 	 -15.2194 	 -122.844 	 
H 	 44.18 	 -16.2034 	 -122.432 	 
H 	 43.5666 	 -14.7623 	 -121.895 	 
C 	 44.9732 	 -14.324 	 -123.507 	 
H 	 44.5527 	 -13.343 	 -123.777 	 
H 	 45.2632 	 -14.821 	 -124.429 	 
H 	 45.9472 	 -14.1821 	 -122.971 	 
H 	 37.8623 	 -10.9843 	 -122.305 	 
H 	 40.0408 	 -19.0099 	 -122.46 	 
*
