! wB97X-D3 SP def2-SVP
%pal
nprocs 24
end

* xyz 0 1
S 	 -101.722 	 -3.76838 	 -103.255 	 
C 	 -100.734 	 -5.14413 	 -103.834 	 
C 	 -101.506 	 -5.80767 	 -104.756 	 
C 	 -102.713 	 -5.16488 	 -105.118 	 
C 	 -102.924 	 -3.92458 	 -104.492 	 
H 	 -103.382 	 -5.36352 	 -106.029 	 
C 	 -101.073 	 -7.15132 	 -105.398 	 
H 	 -99.9967 	 -7.19685 	 -105.368 	 
H 	 -101.236 	 -7.10857 	 -106.501 	 
C 	 -101.672 	 -8.46942 	 -104.86 	 
H 	 -102.772 	 -8.46419 	 -104.951 	 
H 	 -101.322 	 -9.3453 	 -105.499 	 
C 	 -101.158 	 -8.76699 	 -103.482 	 
H 	 -101.609 	 -9.68409 	 -103.058 	 
H 	 -100.108 	 -9.06678 	 -103.615 	 
H 	 -101.258 	 -7.94704 	 -102.8 	 
S 	 -103.166 	 -1.24712 	 -105.215 	 
C 	 -104.736 	 -0.647183 	 -105.553 	 
C 	 -105.683 	 -1.5908 	 -105.341 	 
C 	 -105.169 	 -2.8699 	 -105.083 	 
C 	 -103.814 	 -2.84517 	 -104.897 	 
H 	 -106.738 	 -1.35567 	 -105.491 	 
C 	 -106.034 	 -4.0636 	 -104.974 	 
H 	 -106.896 	 -3.83892 	 -104.389 	 
H 	 -105.587 	 -4.77141 	 -104.319 	 
C 	 -106.521 	 -4.71368 	 -106.322 	 
H 	 -105.667 	 -4.87538 	 -107.01 	 
H 	 -107.231 	 -3.97922 	 -106.715 	 
C 	 -107.134 	 -6.16908 	 -106.164 	 
H 	 -106.529 	 -6.94861 	 -105.831 	 
H 	 -107.5 	 -6.48261 	 -107.148 	 
H 	 -107.937 	 -6.21143 	 -105.48 	 
H 	 -99.7471 	 -5.51123 	 -103.582 	 
H 	 -105.021 	 0.39084 	 -105.791 	 
*
