! wB97X-D3 SP def2-SVP
%pal
nprocs 24
end

* xyz 0 1
S 	 -119.574 	 66.073 	 -64.9276 	 
C 	 -119.628 	 64.4748 	 -65.5891 	 
C 	 -119.31 	 63.5169 	 -64.6207 	 
C 	 -118.901 	 64.0294 	 -63.3848 	 
C 	 -119.055 	 65.4008 	 -63.3657 	 
H 	 -118.664 	 63.5509 	 -62.4214 	 
C 	 -119.421 	 62.0297 	 -64.7756 	 
H 	 -119.257 	 61.6148 	 -63.7681 	 
H 	 -118.654 	 61.6344 	 -65.3769 	 
C 	 -120.762 	 61.4862 	 -65.369 	 
H 	 -121.548 	 62.0993 	 -64.9585 	 
H 	 -120.866 	 61.4947 	 -66.4263 	 
C 	 -121.071 	 60.0336 	 -65.0167 	 
H 	 -122.017 	 59.8203 	 -65.4398 	 
H 	 -120.324 	 59.3687 	 -65.5037 	 
H 	 -121.175 	 59.7331 	 -63.9838 	 
S 	 -116.972 	 66.3047 	 -61.8379 	 
C 	 -117.334 	 66.8827 	 -60.2098 	 
C 	 -118.683 	 67.0876 	 -60.033 	 
C 	 -119.466 	 66.6607 	 -61.1499 	 
C 	 -118.689 	 66.2011 	 -62.2128 	 
H 	 -119.154 	 67.652 	 -59.251 	 
C 	 -120.983 	 66.7238 	 -61.1116 	 
H 	 -121.408 	 66.8009 	 -62.0975 	 
H 	 -121.292 	 67.5736 	 -60.5866 	 
C 	 -121.738 	 65.4933 	 -60.5353 	 
H 	 -121.29 	 64.5866 	 -60.9488 	 
H 	 -122.799 	 65.5706 	 -60.7922 	 
C 	 -121.548 	 65.2679 	 -59.0712 	 
H 	 -121.74 	 66.2094 	 -58.5639 	 
H 	 -120.408 	 65.2572 	 -58.8277 	 
H 	 -121.898 	 64.3718 	 -58.69 	 
H 	 -119.952 	 64.1145 	 -66.5264 	 
H 	 -116.668 	 67.2684 	 -59.4234 	 
*
