! wB97X-D3 SP def2-SVP
%pal
nprocs 24
end

* xyz 0 1
S 	 29.226 	 0.574756 	 -119.217 	 
C 	 30.7995 	 0.647407 	 -120.093 	 
C 	 31.3611 	 1.90812 	 -119.878 	 
C 	 30.6888 	 2.63906 	 -118.852 	 
C 	 29.5451 	 2.02037 	 -118.313 	 
H 	 31.0439 	 3.65894 	 -118.369 	 
C 	 32.6503 	 2.38544 	 -120.456 	 
H 	 32.9106 	 3.37853 	 -120.099 	 
H 	 32.3666 	 2.58 	 -121.492 	 
C 	 33.9727 	 1.56083 	 -120.307 	 
H 	 34.3332 	 1.59942 	 -119.297 	 
H 	 33.7783 	 0.522304 	 -120.533 	 
C 	 35.0925 	 2.07747 	 -121.199 	 
H 	 35.9449 	 1.47693 	 -121.039 	 
H 	 34.7946 	 2.08915 	 -122.224 	 
H 	 35.266 	 3.16899 	 -120.982 	 
S 	 27.9527 	 4.10941 	 -117.256 	 
C 	 27.0781 	 3.8055 	 -115.78 	 
C 	 27.7088 	 2.82821 	 -115.104 	 
C 	 28.7096 	 2.07657 	 -115.807 	 
C 	 28.7953 	 2.50674 	 -117.14 	 
H 	 27.4017 	 2.52005 	 -114.125 	 
C 	 29.2675 	 0.757657 	 -115.243 	 
H 	 28.966 	 -0.0818816 	 -115.828 	 
H 	 28.8411 	 0.557028 	 -114.283 	 
C 	 30.7703 	 0.663521 	 -115.257 	 
H 	 31.1562 	 0.706321 	 -116.318 	 
H 	 31.0553 	 -0.369532 	 -114.908 	 
C 	 31.5307 	 1.79465 	 -114.575 	 
H 	 32.1396 	 1.40362 	 -113.732 	 
H 	 30.9168 	 2.57676 	 -114.208 	 
H 	 32.2777 	 2.28581 	 -115.295 	 
H 	 31.0189 	 0.0825905 	 -121.012 	 
H 	 26.2003 	 4.41717 	 -115.475 	 
*
