! wB97X-D3 SP def2-SVP
%pal
nprocs 24
end

* xyz 0 1
S 	 -141.163 	 8.61778 	 3.04148 	 
C 	 -142.067 	 8.29201 	 1.61549 	 
C 	 -141.392 	 8.73607 	 0.510379 	 
C 	 -140.046 	 9.22059 	 0.897049 	 
C 	 -139.798 	 9.34117 	 2.2778 	 
H 	 -139.272 	 9.43862 	 0.163262 	 
C 	 -141.799 	 8.5924 	 -0.944108 	 
H 	 -141.59 	 9.5843 	 -1.32281 	 
H 	 -142.91 	 8.4144 	 -0.953623 	 
C 	 -141.263 	 7.41351 	 -1.76871 	 
H 	 -140.17 	 7.53533 	 -1.98064 	 
H 	 -141.394 	 6.48205 	 -1.16364 	 
C 	 -142.117 	 7.27389 	 -3.03265 	 
H 	 -142.136 	 8.26354 	 -3.48153 	 
H 	 -141.779 	 6.49659 	 -3.69161 	 
H 	 -143.102 	 7.03367 	 -2.8035 	 
S 	 -138.795 	 11.1329 	 4.18853 	 
C 	 -137.09 	 11.0743 	 4.53928 	 
C 	 -136.46 	 10.1356 	 3.75706 	 
C 	 -137.295 	 9.38549 	 2.86236 	 
C 	 -138.623 	 9.79764 	 3.0267 	 
H 	 -135.401 	 9.94762 	 3.86571 	 
C 	 -136.645 	 8.43481 	 1.87493 	 
H 	 -135.704 	 8.71326 	 1.58796 	 
H 	 -137.235 	 8.42776 	 0.935267 	 
C 	 -136.458 	 7.08052 	 2.48759 	 
H 	 -135.983 	 7.06099 	 3.40867 	 
H 	 -135.916 	 6.48688 	 1.77658 	 
C 	 -137.779 	 6.51338 	 2.85807 	 
H 	 -138.567 	 6.5899 	 2.1418 	 
H 	 -138.183 	 6.97875 	 3.73354 	 
H 	 -137.679 	 5.46031 	 3.05428 	 
H 	 -142.951 	 7.75509 	 1.46617 	 
H 	 -136.529 	 11.5849 	 5.34812 	 
*
