! wB97X-D3 SP def2-SVP
%pal
nprocs 24
end

* xyz 0 1
S 	 -47.9401 	 16.4111 	 -86.665 	 
C 	 -48.6689 	 17.8938 	 -86.209 	 
C 	 -49.4274 	 18.3951 	 -87.1968 	 
C 	 -49.5441 	 17.4274 	 -88.2776 	 
C 	 -48.8952 	 16.2493 	 -88.0891 	 
H 	 -50.0662 	 17.5611 	 -89.2028 	 
C 	 -50.1265 	 19.7175 	 -87.1181 	 
H 	 -50.3041 	 20.0431 	 -86.0951 	 
H 	 -51.1208 	 19.4481 	 -87.4529 	 
C 	 -49.5614 	 20.8265 	 -87.9946 	 
H 	 -49.359 	 20.3389 	 -88.9979 	 
H 	 -50.4318 	 21.4933 	 -88.2029 	 
C 	 -48.3263 	 21.5687 	 -87.4377 	 
H 	 -48.6287 	 22.4083 	 -86.7885 	 
H 	 -47.7398 	 20.9272 	 -86.7879 	 
H 	 -47.6202 	 21.9885 	 -88.2324 	 
S 	 -50.5284 	 14.3532 	 -89.2651 	 
C 	 -50.0195 	 13.5357 	 -90.759 	 
C 	 -48.6699 	 13.8315 	 -90.9688 	 
C 	 -48.0735 	 14.7467 	 -90.0464 	 
C 	 -49.0075 	 15.1331 	 -89.0787 	 
H 	 -48.2565 	 13.5512 	 -91.912 	 
C 	 -46.6673 	 15.2506 	 -90.1421 	 
H 	 -45.9785 	 14.7769 	 -89.4669 	 
H 	 -46.7762 	 16.2351 	 -89.7405 	 
C 	 -45.9461 	 15.2087 	 -91.5185 	 
H 	 -46.6515 	 15.7122 	 -92.219 	 
H 	 -45.8367 	 14.2858 	 -91.9556 	 
C 	 -44.6575 	 16.092 	 -91.6769 	 
H 	 -44.7568 	 17.1074 	 -91.2422 	 
H 	 -44.3561 	 16.206 	 -92.6576 	 
H 	 -43.8458 	 15.5013 	 -91.145 	 
H 	 -48.4886 	 18.3726 	 -85.2855 	 
H 	 -50.6302 	 12.9589 	 -91.4556 	 
*
