! wB97X-D3 SP def2-SVP
%pal
nprocs 24
end

* xyz 0 1
S 	 17.4543 	 -9.04626 	 -115.324 	 
C 	 17.8483 	 -8.23956 	 -113.813 	 
C 	 17.2593 	 -6.95775 	 -113.861 	 
C 	 16.4268 	 -6.75983 	 -115.027 	 
C 	 16.4177 	 -7.81025 	 -115.88 	 
H 	 16.1129 	 -5.84953 	 -115.385 	 
C 	 17.3967 	 -5.9379 	 -112.745 	 
H 	 18.1698 	 -6.27236 	 -112.093 	 
H 	 16.5193 	 -5.99774 	 -112.098 	 
C 	 17.6412 	 -4.47941 	 -113.208 	 
H 	 16.9565 	 -4.10379 	 -113.953 	 
H 	 17.6919 	 -3.84963 	 -112.316 	 
C 	 19.009 	 -4.48355 	 -113.918 	 
H 	 19.7696 	 -4.76542 	 -113.235 	 
H 	 19.1309 	 -5.1647 	 -114.797 	 
H 	 19.1365 	 -3.43214 	 -114.165 	 
S 	 16.992 	 -8.59687 	 -118.464 	 
C 	 15.9389 	 -8.12935 	 -119.776 	 
C 	 14.7746 	 -7.50864 	 -119.318 	 
C 	 14.8147 	 -7.27724 	 -117.877 	 
C 	 16.0126 	 -7.7633 	 -117.266 	 
H 	 13.9548 	 -7.29646 	 -119.929 	 
C 	 13.6364 	 -6.68089 	 -117.117 	 
H 	 13.2579 	 -5.81161 	 -117.661 	 
H 	 13.8967 	 -6.17084 	 -116.178 	 
C 	 12.4006 	 -7.49512 	 -116.941 	 
H 	 12.7058 	 -8.32562 	 -116.373 	 
H 	 12.1957 	 -7.89176 	 -117.944 	 
C 	 11.264 	 -6.57501 	 -116.327 	 
H 	 10.4985 	 -7.21723 	 -116.141 	 
H 	 10.8841 	 -5.80316 	 -117.019 	 
H 	 11.6217 	 -6.14599 	 -115.336 	 
H 	 18.5447 	 -8.47716 	 -113.019 	 
H 	 16.1476 	 -8.45695 	 -120.845 	 
*
