! wB97X-D3 SP def2-SVP
%pal
nprocs 24
end

* xyz 0 1
S 	 -62.3317 	 13.405 	 -109.716 	 
C 	 -63.9515 	 12.7803 	 -109.507 	 
C 	 -64.7744 	 13.3044 	 -110.458 	 
C 	 -64.1496 	 14.3673 	 -111.152 	 
C 	 -62.8088 	 14.6258 	 -110.834 	 
H 	 -64.6651 	 15.017 	 -111.862 	 
C 	 -66.1948 	 12.8677 	 -110.801 	 
H 	 -66.8678 	 13.3555 	 -110.126 	 
H 	 -66.115 	 11.8565 	 -110.53 	 
C 	 -66.5919 	 12.9264 	 -112.245 	 
H 	 -66.7524 	 13.9408 	 -112.605 	 
H 	 -65.9355 	 12.5074 	 -112.942 	 
C 	 -67.9529 	 12.1767 	 -112.487 	 
H 	 -68.7332 	 12.7215 	 -111.958 	 
H 	 -68.2282 	 12.2976 	 -113.578 	 
H 	 -68.2863 	 11.1995 	 -112.113 	 
S 	 -60.1185 	 15.068 	 -111.47 	 
C 	 -59.6709 	 16.7092 	 -112.004 	 
C 	 -60.7452 	 17.5817 	 -112.078 	 
C 	 -61.9508 	 16.9665 	 -111.674 	 
C 	 -61.8478 	 15.5587 	 -111.421 	 
H 	 -60.5715 	 18.6482 	 -112.118 	 
C 	 -63.1856 	 17.8846 	 -111.427 	 
H 	 -62.895 	 18.6646 	 -110.68 	 
H 	 -63.8569 	 17.1246 	 -110.967 	 
C 	 -63.7393 	 18.5341 	 -112.691 	 
H 	 -64.0364 	 17.7795 	 -113.374 	 
H 	 -62.9578 	 19.0537 	 -113.218 	 
C 	 -64.94 	 19.4695 	 -112.55 	 
H 	 -65.3384 	 19.7859 	 -113.531 	 
H 	 -64.6452 	 20.3829 	 -111.999 	 
H 	 -65.7449 	 19.0731 	 -111.96 	 
H 	 -64.2996 	 11.9047 	 -108.932 	 
H 	 -58.6319 	 17.1226 	 -112.147 	 
*
