! wB97X-D3 SP def2-SVP
%pal
nprocs 24
end

* xyz 0 1
S 	 -47.1175 	 27.8025 	 24.7033 	 
C 	 -47.6898 	 28.375 	 26.2519 	 
C 	 -47.4015 	 27.4572 	 27.261 	 
C 	 -46.7482 	 26.2992 	 26.6814 	 
C 	 -46.395 	 26.4003 	 25.3451 	 
H 	 -46.477 	 25.3587 	 27.1539 	 
C 	 -47.7864 	 27.5479 	 28.7243 	 
H 	 -48.8231 	 27.1058 	 28.9647 	 
H 	 -47.8572 	 28.6176 	 28.9449 	 
C 	 -46.6811 	 26.8613 	 29.5838 	 
H 	 -46.2956 	 25.9434 	 29.173 	 
H 	 -45.748 	 27.5213 	 29.5585 	 
C 	 -47.0508 	 26.4012 	 31.0602 	 
H 	 -48.0427 	 26.0071 	 31.0352 	 
H 	 -46.3732 	 25.6083 	 31.2693 	 
H 	 -46.9243 	 27.1682 	 31.7948 	 
S 	 -44.0746 	 26.2872 	 23.7404 	 
C 	 -43.3936 	 24.6979 	 23.4529 	 
C 	 -44.2353 	 23.6817 	 23.8833 	 
C 	 -45.3693 	 24.193 	 24.5804 	 
C 	 -45.4848 	 25.6001 	 24.556 	 
H 	 -43.9698 	 22.6917 	 23.7739 	 
C 	 -46.4147 	 23.2882 	 25.2363 	 
H 	 -47.1422 	 23.8608 	 25.8297 	 
H 	 -45.8541 	 22.657 	 25.9816 	 
C 	 -47.1514 	 22.3995 	 24.2339 	 
H 	 -46.5047 	 21.5506 	 24.0108 	 
H 	 -47.289 	 22.9832 	 23.3459 	 
C 	 -48.542 	 21.865 	 24.557 	 
H 	 -48.7519 	 21.0185 	 23.8799 	 
H 	 -49.4334 	 22.5757 	 24.5501 	 
H 	 -48.5693 	 21.4582 	 25.5292 	 
H 	 -48.4962 	 29.179 	 26.3324 	 
H 	 -42.5294 	 24.4819 	 22.8327 	 
*
