! wB97X-D3 SP def2-SVP
%pal
nprocs 24
end

* xyz 0 1
S 	 -36.089 	 -49.7859 	 -75.7598 	 
C 	 -34.5133 	 -50.5226 	 -76.0624 	 
C 	 -33.4818 	 -49.5345 	 -75.9717 	 
C 	 -34.0133 	 -48.2813 	 -75.7096 	 
C 	 -35.3605 	 -48.2184 	 -75.6025 	 
H 	 -33.2107 	 -47.4779 	 -75.6455 	 
C 	 -31.9451 	 -49.8789 	 -76.1123 	 
H 	 -31.8481 	 -50.4775 	 -77.0433 	 
H 	 -31.7752 	 -50.5314 	 -75.3409 	 
C 	 -30.9036 	 -48.7314 	 -76.1801 	 
H 	 -29.9176 	 -48.9222 	 -76.563 	 
H 	 -31.3724 	 -47.9131 	 -76.767 	 
C 	 -30.6236 	 -48.1213 	 -74.7627 	 
H 	 -31.4824 	 -47.5105 	 -74.3718 	 
H 	 -30.2444 	 -48.796 	 -74.0168 	 
H 	 -29.794 	 -47.4296 	 -74.9593 	 
S 	 -37.5941 	 -47.2229 	 -74.2823 	 
C 	 -37.8207 	 -45.4612 	 -74.1379 	 
C 	 -36.8333 	 -44.8007 	 -74.8201 	 
C 	 -35.7959 	 -45.6744 	 -75.2695 	 
C 	 -36.1105 	 -47.0061 	 -75.1788 	 
H 	 -36.7959 	 -43.7303 	 -74.809 	 
C 	 -34.6619 	 -45.1048 	 -76.1485 	 
H 	 -33.6928 	 -45.2569 	 -75.7207 	 
H 	 -34.7092 	 -43.9646 	 -76.1766 	 
C 	 -34.5967 	 -45.5304 	 -77.6531 	 
H 	 -35.4128 	 -45.1453 	 -78.2853 	 
H 	 -34.4827 	 -46.6532 	 -77.755 	 
C 	 -33.2516 	 -44.9232 	 -78.3388 	 
H 	 -33.3184 	 -45.0875 	 -79.3731 	 
H 	 -32.4129 	 -45.5147 	 -77.9933 	 
H 	 -33.1968 	 -43.8562 	 -77.9959 	 
H 	 -34.3103 	 -51.5628 	 -76.1735 	 
H 	 -38.5839 	 -45.043 	 -73.4673 	 
*
