! wB97X-D3 SP def2-SVP
%pal
nprocs 24
end

* xyz 0 1
S 	 -33.4798 	 -14.0748 	 14.171 	 
C 	 -34.0834 	 -13.0866 	 15.4676 	 
C 	 -35.3031 	 -12.4506 	 15.1156 	 
C 	 -35.5724 	 -12.6182 	 13.7264 	 
C 	 -34.756 	 -13.5477 	 13.0807 	 
H 	 -36.4582 	 -12.3436 	 13.1638 	 
C 	 -35.978 	 -11.5244 	 16.0548 	 
H 	 -36.0407 	 -10.5242 	 15.6157 	 
H 	 -35.3755 	 -11.3963 	 16.9417 	 
C 	 -37.4449 	 -12.0107 	 16.4251 	 
H 	 -37.9527 	 -11.1999 	 17.065 	 
H 	 -37.9769 	 -12.2927 	 15.5733 	 
C 	 -37.3932 	 -13.0747 	 17.5236 	 
H 	 -38.2728 	 -13.1731 	 18.1408 	 
H 	 -36.9153 	 -13.9381 	 17.1818 	 
H 	 -36.6726 	 -12.6213 	 18.2488 	 
S 	 -35.3608 	 -15.6422 	 11.2903 	 
C 	 -35.3241 	 -15.2516 	 9.60102 	 
C 	 -34.8253 	 -14.0126 	 9.38108 	 
C 	 -34.6106 	 -13.2609 	 10.5808 	 
C 	 -34.8845 	 -13.9611 	 11.6642 	 
H 	 -34.5616 	 -13.7272 	 8.35265 	 
C 	 -34.1869 	 -11.8001 	 10.5135 	 
H 	 -33.9293 	 -11.4214 	 11.4791 	 
H 	 -35.02 	 -11.2597 	 10.1722 	 
C 	 -32.8281 	 -11.5115 	 9.79739 	 
H 	 -32.76 	 -11.9359 	 8.75744 	 
H 	 -31.9087 	 -12.1077 	 10.2164 	 
C 	 -32.5325 	 -10.0106 	 9.76386 	 
H 	 -31.6552 	 -9.86878 	 9.17946 	 
H 	 -32.2878 	 -9.50306 	 10.7183 	 
H 	 -33.348 	 -9.55135 	 9.33634 	 
H 	 -33.6303 	 -13.0906 	 16.4237 	 
H 	 -35.5078 	 -15.9189 	 8.77208 	 
*
