! wB97X-D3 SP def2-SVP
%pal
nprocs 24
end

* xyz 0 1
S 	 -47.7304 	 0.105627 	 14.4266 	 
C 	 -47.7745 	 0.402568 	 16.125 	 
C 	 -46.5471 	 0.342656 	 16.6817 	 
C 	 -45.5233 	 -0.196187 	 15.8057 	 
C 	 -45.9899 	 -0.335033 	 14.4455 	 
H 	 -44.4852 	 -0.442203 	 15.9325 	 
C 	 -46.3894 	 0.636723 	 18.129 	 
H 	 -45.6999 	 -0.117542 	 18.5619 	 
H 	 -47.3676 	 0.637834 	 18.5355 	 
C 	 -45.6057 	 1.89729 	 18.364 	 
H 	 -44.6895 	 1.91676 	 17.7545 	 
H 	 -46.135 	 2.76904 	 18.0058 	 
C 	 -45.316 	 2.07406 	 19.8742 	 
H 	 -44.7066 	 2.97858 	 20.119 	 
H 	 -46.3323 	 2.12253 	 20.338 	 
H 	 -44.8031 	 1.2346 	 20.4199 	 
S 	 -43.4656 	 -0.640675 	 13.3474 	 
C 	 -43.2994 	 -0.909226 	 11.589 	 
C 	 -44.5076 	 -1.33019 	 11.123 	 
C 	 -45.638 	 -1.07154 	 12.0239 	 
C 	 -45.2397 	 -0.688382 	 13.2794 	 
H 	 -44.6096 	 -1.66024 	 10.1173 	 
C 	 -47.0129 	 -1.25016 	 11.4971 	 
H 	 -47.0947 	 -0.890668 	 10.4925 	 
H 	 -47.6984 	 -0.522113 	 12.0379 	 
C 	 -47.5101 	 -2.73694 	 11.4448 	 
H 	 -47.393 	 -3.23699 	 12.4326 	 
H 	 -46.8432 	 -3.31058 	 10.8336 	 
C 	 -48.9211 	 -2.91258 	 10.8613 	 
H 	 -49.2092 	 -3.91875 	 10.7313 	 
H 	 -49.0589 	 -2.29557 	 9.91396 	 
H 	 -49.729 	 -2.54872 	 11.5227 	 
H 	 -48.5098 	 0.961578 	 16.5954 	 
H 	 -42.3046 	 -1.14607 	 11.0781 	 
*
