! wB97X-D3 SP def2-SVP
%pal
nprocs 24
end

* xyz 0 1
S 	 -144.845 	 31.225 	 -16.7456 	 
C 	 -144.299 	 29.5873 	 -17.0671 	 
C 	 -144.883 	 28.7686 	 -16.0742 	 
C 	 -145.441 	 29.4831 	 -14.98 	 
C 	 -145.41 	 30.8518 	 -15.145 	 
H 	 -145.94 	 29.0466 	 -14.1864 	 
C 	 -144.72 	 27.3278 	 -16.1566 	 
H 	 -144.185 	 27.0369 	 -15.2673 	 
H 	 -144.015 	 27.0709 	 -16.9042 	 
C 	 -146.04 	 26.6176 	 -16.3782 	 
H 	 -146.764 	 27.0057 	 -15.6522 	 
H 	 -146.44 	 26.9153 	 -17.352 	 
C 	 -145.818 	 25.1031 	 -16.2282 	 
H 	 -146.746 	 24.6085 	 -16.476 	 
H 	 -145.057 	 24.9028 	 -16.9705 	 
H 	 -145.406 	 24.8513 	 -15.2806 	 
S 	 -147.251 	 32.7438 	 -14.4592 	 
C 	 -147.166 	 33.4443 	 -12.8606 	 
C 	 -146.145 	 32.9562 	 -12.1268 	 
C 	 -145.336 	 32.0659 	 -12.8702 	 
C 	 -145.799 	 31.8247 	 -14.1408 	 
H 	 -146.022 	 33.2909 	 -11.0879 	 
C 	 -144.09 	 31.4636 	 -12.3217 	 
H 	 -143.72 	 30.7823 	 -13.076 	 
H 	 -144.257 	 30.9234 	 -11.4305 	 
C 	 -142.962 	 32.4217 	 -11.9375 	 
H 	 -142.275 	 31.7987 	 -11.3943 	 
H 	 -143.272 	 33.2758 	 -11.2645 	 
C 	 -142.236 	 33.0717 	 -13.1604 	 
H 	 -141.664 	 32.2829 	 -13.7028 	 
H 	 -141.465 	 33.7974 	 -12.8769 	 
H 	 -142.906 	 33.5504 	 -13.8724 	 
H 	 -143.816 	 29.1861 	 -17.9771 	 
H 	 -147.886 	 34.1297 	 -12.4289 	 
*
