! wB97X-D3 SP def2-SVP
%pal
nprocs 24
end

* xyz 0 1
S 	 -119.682 	 61.6718 	 -32.9991 	 
C 	 -120.045 	 63.0636 	 -33.9821 	 
C 	 -120.265 	 62.7041 	 -35.2819 	 
C 	 -120.034 	 61.2822 	 -35.5131 	 
C 	 -119.689 	 60.5945 	 -34.3942 	 
H 	 -120.172 	 60.7253 	 -36.4754 	 
C 	 -120.69 	 63.5843 	 -36.4671 	 
H 	 -121.364 	 64.2819 	 -36.0013 	 
H 	 -121.307 	 63.0693 	 -37.1782 	 
C 	 -119.573 	 64.4504 	 -37.0653 	 
H 	 -120.02 	 65.0402 	 -37.8421 	 
H 	 -119.18 	 65.1416 	 -36.3929 	 
C 	 -118.501 	 63.5271 	 -37.6868 	 
H 	 -118.123 	 62.7245 	 -37.0282 	 
H 	 -118.718 	 63.1384 	 -38.6784 	 
H 	 -117.562 	 64.1406 	 -37.8123 	 
S 	 -119.791 	 57.9888 	 -35.3011 	 
C 	 -118.882 	 56.7627 	 -34.5173 	 
C 	 -118.159 	 57.2418 	 -33.4672 	 
C 	 -118.28 	 58.6834 	 -33.3289 	 
C 	 -119.13 	 59.2481 	 -34.277 	 
H 	 -117.661 	 56.5661 	 -32.8463 	 
C 	 -117.537 	 59.3809 	 -32.1687 	 
H 	 -117.205 	 58.6242 	 -31.4779 	 
H 	 -118.231 	 59.9362 	 -31.5487 	 
C 	 -116.386 	 60.3056 	 -32.4659 	 
H 	 -116.061 	 60.8541 	 -31.5366 	 
H 	 -116.618 	 61.1531 	 -33.079 	 
C 	 -115.171 	 59.4595 	 -32.9396 	 
H 	 -114.358 	 60.2408 	 -32.9707 	 
H 	 -115.272 	 58.8529 	 -33.8555 	 
H 	 -114.87 	 58.7339 	 -32.1068 	 
H 	 -120.142 	 64.046 	 -33.5598 	 
H 	 -119.029 	 55.6722 	 -34.6417 	 
*
