! wB97X-D3 SP def2-SVP
%pal
nprocs 24
end

* xyz 0 1
S 	 -116.312 	 17.9688 	 -111.081 	 
C 	 -116.994 	 19.2683 	 -110.24 	 
C 	 -118.351 	 19.075 	 -109.976 	 
C 	 -118.886 	 17.9264 	 -110.537 	 
C 	 -117.89 	 17.1284 	 -111.125 	 
H 	 -119.854 	 17.4486 	 -110.444 	 
C 	 -119.207 	 20.0945 	 -109.184 	 
H 	 -120.245 	 20.1334 	 -109.518 	 
H 	 -118.779 	 21.0774 	 -109.432 	 
C 	 -119.004 	 19.9131 	 -107.676 	 
H 	 -119.293 	 18.8328 	 -107.463 	 
H 	 -117.964 	 19.9305 	 -107.31 	 
C 	 -119.801 	 20.9315 	 -106.841 	 
H 	 -119.763 	 20.7524 	 -105.747 	 
H 	 -119.392 	 21.9067 	 -107.019 	 
H 	 -120.796 	 20.8687 	 -107.217 	 
S 	 -119.244 	 14.6704 	 -110.995 	 
C 	 -118.767 	 13.4215 	 -112.029 	 
C 	 -117.806 	 13.8202 	 -112.96 	 
C 	 -117.363 	 15.1839 	 -112.76 	 
C 	 -118.081 	 15.8397 	 -111.75 	 
H 	 -117.413 	 13.0567 	 -113.682 	 
C 	 -116.22 	 15.801 	 -113.611 	 
H 	 -116.291 	 16.8673 	 -113.659 	 
H 	 -116.379 	 15.4511 	 -114.611 	 
C 	 -114.803 	 15.4886 	 -113.173 	 
H 	 -114.707 	 14.4277 	 -112.995 	 
H 	 -114.584 	 15.9783 	 -112.239 	 
C 	 -113.83 	 16.0619 	 -114.155 	 
H 	 -113.873 	 15.5321 	 -115.126 	 
H 	 -112.756 	 16.0656 	 -113.842 	 
H 	 -114.022 	 17.1373 	 -114.37 	 
H 	 -116.507 	 20.2416 	 -110.069 	 
H 	 -119.013 	 12.4331 	 -111.953 	 
*
