! wB97X-D3 SP def2-SVP
%pal
nprocs 24
end

* xyz 0 1
S 	 -53.3547 	 -56.5321 	 -81.4015 	 
C 	 -55.0433 	 -55.9651 	 -81.138 	 
C 	 -55.9415 	 -56.8984 	 -81.6847 	 
C 	 -55.315 	 -57.9689 	 -82.3963 	 
C 	 -53.9293 	 -57.9449 	 -82.2331 	 
H 	 -55.7975 	 -58.7416 	 -82.9371 	 
C 	 -57.4391 	 -56.7088 	 -81.656 	 
H 	 -57.6543 	 -56.0899 	 -80.7041 	 
H 	 -57.8908 	 -57.6511 	 -81.5807 	 
C 	 -58.1378 	 -55.965 	 -82.8626 	 
H 	 -57.7262 	 -54.963 	 -83.0297 	 
H 	 -57.8892 	 -56.5306 	 -83.7981 	 
C 	 -59.661 	 -56.0842 	 -82.6155 	 
H 	 -59.834 	 -56.1298 	 -81.5603 	 
H 	 -60.346 	 -55.2864 	 -83.1151 	 
H 	 -59.9494 	 -57.1658 	 -82.9057 	 
S 	 -51.9785 	 -59.6559 	 -81.2748 	 
C 	 -50.8889 	 -60.4353 	 -82.4479 	 
C 	 -51.2312 	 -60.1924 	 -83.7957 	 
C 	 -52.3566 	 -59.2937 	 -83.8791 	 
C 	 -52.8841 	 -58.8687 	 -82.6238 	 
H 	 -50.5692 	 -60.499 	 -84.5557 	 
C 	 -52.971 	 -58.8042 	 -85.1746 	 
H 	 -53.7866 	 -58.1998 	 -84.7585 	 
H 	 -53.4409 	 -59.7066 	 -85.5591 	 
C 	 -52.0454 	 -58.0964 	 -86.2046 	 
H 	 -52.7168 	 -57.5963 	 -86.9621 	 
H 	 -51.3944 	 -58.7445 	 -86.6793 	 
C 	 -51.2966 	 -57.0668 	 -85.3989 	 
H 	 -50.7958 	 -57.4077 	 -84.5333 	 
H 	 -51.9567 	 -56.3036 	 -84.9089 	 
H 	 -50.555 	 -56.3947 	 -85.875 	 
H 	 -55.3388 	 -55.1341 	 -80.6208 	 
H 	 -50.0038 	 -60.9924 	 -82.2547 	 
*
