! wB97X-D3 SP def2-SVP
%pal
nprocs 24
end

* xyz 0 1
S 	 -137.555 	 67.4442 	 -65.2474 	 
C 	 -136.405 	 68.7132 	 -65.597 	 
C 	 -136.343 	 69.6623 	 -64.5932 	 
C 	 -137.228 	 69.331 	 -63.5199 	 
C 	 -137.979 	 68.1436 	 -63.6752 	 
H 	 -137.373 	 70.0002 	 -62.7117 	 
C 	 -135.586 	 70.9901 	 -64.5844 	 
H 	 -134.639 	 70.7488 	 -65.1049 	 
H 	 -135.331 	 71.0324 	 -63.4865 	 
C 	 -136.296 	 72.2506 	 -65.0532 	 
H 	 -137.213 	 72.4603 	 -64.5204 	 
H 	 -135.619 	 73.1825 	 -64.8306 	 
C 	 -136.667 	 72.2362 	 -66.5232 	 
H 	 -137.262 	 71.324 	 -66.8341 	 
H 	 -137.154 	 73.1685 	 -66.8025 	 
H 	 -135.77 	 72.1986 	 -67.1083 	 
S 	 -140.633 	 67.3505 	 -63.3731 	 
C 	 -141.286 	 66.6759 	 -61.8077 	 
C 	 -140.304 	 66.783 	 -60.8435 	 
C 	 -139.078 	 67.3616 	 -61.3787 	 
C 	 -139.02 	 67.5202 	 -62.7896 	 
H 	 -140.565 	 66.4654 	 -59.8154 	 
C 	 -137.815 	 67.5695 	 -60.6086 	 
H 	 -138.036 	 67.7354 	 -59.5945 	 
H 	 -137.369 	 68.4544 	 -61.021 	 
C 	 -136.812 	 66.3885 	 -60.6695 	 
H 	 -135.813 	 66.7393 	 -60.3151 	 
H 	 -136.683 	 66.0763 	 -61.7229 	 
C 	 -137.141 	 65.0581 	 -59.9264 	 
H 	 -137.045 	 65.0814 	 -58.878 	 
H 	 -136.234 	 64.3927 	 -60.2279 	 
H 	 -138.023 	 64.5911 	 -60.1643 	 
H 	 -135.651 	 68.6444 	 -66.354 	 
H 	 -142.287 	 66.1578 	 -61.6714 	 
*
