! wB97X-D3 SP def2-SVP
%pal
nprocs 24
end

* xyz 0 1
S 	 -41.839 	 -51.9504 	 -72.8993 	 
C 	 -40.5149 	 -53.006 	 -73.4358 	 
C 	 -40.2496 	 -52.8086 	 -74.774 	 
C 	 -41.1184 	 -51.8172 	 -75.3081 	 
C 	 -41.9435 	 -51.2167 	 -74.3903 	 
H 	 -41.1122 	 -51.4723 	 -76.3706 	 
C 	 -39.267 	 -53.4725 	 -75.6559 	 
H 	 -39.2193 	 -52.9666 	 -76.6478 	 
H 	 -39.694 	 -54.4287 	 -75.8832 	 
C 	 -37.886 	 -53.6774 	 -75.0227 	 
H 	 -37.8558 	 -54.3417 	 -74.0628 	 
H 	 -37.303 	 -54.2095 	 -75.7058 	 
C 	 -37.0927 	 -52.4622 	 -74.69 	 
H 	 -37.5559 	 -51.811 	 -73.874 	 
H 	 -36.118 	 -52.745 	 -74.2747 	 
H 	 -36.7718 	 -51.9077 	 -75.5541 	 
S 	 -44.3059 	 -50.2081 	 -75.3133 	 
C 	 -44.8628 	 -48.7038 	 -74.6474 	 
C 	 -43.906 	 -48.154 	 -73.831 	 
C 	 -42.6286 	 -48.8364 	 -73.8148 	 
C 	 -42.7151 	 -50.0376 	 -74.5185 	 
H 	 -44.0703 	 -47.2489 	 -73.197 	 
C 	 -41.4179 	 -48.3782 	 -72.9338 	 
H 	 -41.1627 	 -49.2308 	 -72.1612 	 
H 	 -41.8371 	 -47.544 	 -72.32 	 
C 	 -40.1937 	 -47.9336 	 -73.7773 	 
H 	 -40.6023 	 -47.2021 	 -74.5398 	 
H 	 -39.8082 	 -48.821 	 -74.1941 	 
C 	 -39.0183 	 -47.4577 	 -72.9593 	 
H 	 -38.1739 	 -47.3882 	 -73.5995 	 
H 	 -38.7971 	 -48.2115 	 -72.1466 	 
H 	 -39.2167 	 -46.4758 	 -72.5162 	 
H 	 -40.0713 	 -53.8115 	 -72.8883 	 
H 	 -45.8771 	 -48.2847 	 -74.7325 	 
*
