! wB97X-D3 SP def2-SVP
%pal
nprocs 24
end

* xyz 0 1
S 	 -127.744 	 68.1455 	 -58.9711 	 
C 	 -127.254 	 69.8382 	 -58.9503 	 
C 	 -128.254 	 70.6367 	 -59.5402 	 
C 	 -129.41 	 69.8407 	 -59.7862 	 
C 	 -129.211 	 68.4808 	 -59.8198 	 
H 	 -130.464 	 70.1757 	 -60.1824 	 
C 	 -128.091 	 72.126 	 -59.8085 	 
H 	 -128.708 	 72.3533 	 -60.6445 	 
H 	 -127.052 	 72.259 	 -60.1248 	 
C 	 -128.507 	 73.0592 	 -58.7196 	 
H 	 -129.5 	 72.8291 	 -58.5254 	 
H 	 -127.927 	 72.7991 	 -57.8131 	 
C 	 -128.187 	 74.5371 	 -58.8217 	 
H 	 -128.584 	 74.9933 	 -59.7363 	 
H 	 -128.665 	 75.1295 	 -57.9942 	 
H 	 -127.081 	 74.7018 	 -58.7519 	 
S 	 -131.438 	 66.8706 	 -59.4322 	 
C 	 -131.827 	 65.6472 	 -60.542 	 
C 	 -130.997 	 65.759 	 -61.7102 	 
C 	 -129.955 	 66.7274 	 -61.5797 	 
C 	 -130.046 	 67.4222 	 -60.3927 	 
H 	 -131.301 	 65.1644 	 -62.5678 	 
C 	 -129.005 	 67.1043 	 -62.76 	 
H 	 -127.978 	 66.8102 	 -62.5408 	 
H 	 -129.028 	 68.1949 	 -62.9023 	 
C 	 -129.345 	 66.4723 	 -64.1502 	 
H 	 -128.899 	 67.0468 	 -64.9247 	 
H 	 -130.402 	 66.7242 	 -64.3574 	 
C 	 -128.843 	 65.024 	 -64.4471 	 
H 	 -127.734 	 64.9827 	 -64.3804 	 
H 	 -129.164 	 64.5771 	 -65.3845 	 
H 	 -129.145 	 64.284 	 -63.7177 	 
H 	 -126.224 	 70.1339 	 -58.6919 	 
H 	 -132.669 	 65.0197 	 -60.4856 	 
*
