! wB97X-D3 SP def2-SVP
%pal
nprocs 24
end

* xyz 0 1
S 	 -43.1369 	 22.3455 	 22.475 	 
C 	 -43.8418 	 21.0456 	 23.2554 	 
C 	 -43.2664 	 20.7493 	 24.4991 	 
C 	 -42.4242 	 21.8252 	 24.8979 	 
C 	 -42.2148 	 22.7623 	 23.8591 	 
H 	 -41.8211 	 21.9083 	 25.8433 	 
C 	 -43.644 	 19.5942 	 25.3506 	 
H 	 -43.6716 	 18.7504 	 24.6329 	 
H 	 -44.6775 	 19.9524 	 25.6745 	 
C 	 -42.7482 	 19.3844 	 26.6008 	 
H 	 -41.7169 	 19.2218 	 26.3199 	 
H 	 -42.7786 	 20.2375 	 27.2627 	 
C 	 -43.2637 	 18.1823 	 27.4532 	 
H 	 -43.1543 	 17.2625 	 26.8928 	 
H 	 -42.7135 	 18.106 	 28.3621 	 
H 	 -44.3289 	 18.4041 	 27.6435 	 
S 	 -41.9067 	 25.3428 	 24.7884 	 
C 	 -40.4944 	 26.3046 	 24.5449 	 
C 	 -39.7524 	 25.6609 	 23.5327 	 
C 	 -40.1724 	 24.3215 	 23.1898 	 
C 	 -41.341 	 23.9189 	 23.9309 	 
H 	 -38.9021 	 26.1833 	 23.0892 	 
C 	 -39.2952 	 23.5114 	 22.3394 	 
H 	 -38.9162 	 24.2587 	 21.6964 	 
H 	 -40.0085 	 22.9991 	 21.667 	 
C 	 -38.1024 	 22.7416 	 22.9671 	 
H 	 -37.3945 	 23.4333 	 23.5217 	 
H 	 -37.5583 	 22.228 	 22.2125 	 
C 	 -38.6174 	 21.7538 	 23.9578 	 
H 	 -38.9575 	 22.2758 	 24.8614 	 
H 	 -37.8389 	 21.1058 	 24.3033 	 
H 	 -39.356 	 21.1425 	 23.4812 	 
H 	 -44.713 	 20.4677 	 22.9016 	 
H 	 -40.2949 	 27.3112 	 24.8273 	 
*
