! wB97X-D3 SP def2-SVP
%pal
nprocs 24
end

* xyz 0 1
S 	 -102.555 	 1.27031 	 -108.974 	 
C 	 -101.7 	 -0.245769 	 -109.119 	 
C 	 -101.944 	 -1.06265 	 -108.02 	 
C 	 -102.874 	 -0.496177 	 -107.114 	 
C 	 -103.271 	 0.781909 	 -107.451 	 
H 	 -103.23 	 -0.909374 	 -106.233 	 
C 	 -101.397 	 -2.43985 	 -107.727 	 
H 	 -101.338 	 -2.93346 	 -108.679 	 
H 	 -102.156 	 -3.10301 	 -107.252 	 
C 	 -100.061 	 -2.54845 	 -107.043 	 
H 	 -99.2716 	 -2.22346 	 -107.682 	 
H 	 -100.087 	 -1.82678 	 -106.206 	 
C 	 -99.6655 	 -3.95764 	 -106.535 	 
H 	 -100.474 	 -4.2837 	 -105.878 	 
H 	 -99.4993 	 -4.53595 	 -107.477 	 
H 	 -98.731 	 -3.93679 	 -105.915 	 
S 	 -103.582 	 3.33678 	 -106.719 	 
C 	 -104.944 	 3.80097 	 -105.776 	 
C 	 -105.519 	 2.73551 	 -105.17 	 
C 	 -105.083 	 1.4511 	 -105.722 	 
C 	 -104.028 	 1.67028 	 -106.64 	 
H 	 -106.279 	 3.01024 	 -104.417 	 
C 	 -105.585 	 0.156448 	 -105.27 	 
H 	 -105.013 	 -0.277513 	 -104.386 	 
H 	 -105.405 	 -0.521784 	 -106.125 	 
C 	 -107.102 	 0.165619 	 -104.942 	 
H 	 -107.811 	 0.432737 	 -105.766 	 
H 	 -107.294 	 0.897264 	 -104.175 	 
C 	 -107.551 	 -1.18296 	 -104.38 	 
H 	 -107.396 	 -1.95948 	 -105.157 	 
H 	 -108.63 	 -1.20721 	 -104.092 	 
H 	 -106.941 	 -1.45136 	 -103.51 	 
H 	 -100.994 	 -0.451706 	 -109.914 	 
H 	 -105.14 	 4.80835 	 -105.468 	 
*
