! wB97X-D3 SP def2-SVP
%pal
nprocs 24
end

* xyz 0 1
S 	 41.0313 	 -22.2008 	 -123.414 	 
C 	 39.352 	 -21.877 	 -123.738 	 
C 	 38.528 	 -22.7008 	 -123.04 	 
C 	 39.2571 	 -23.6469 	 -122.229 	 
C 	 40.6633 	 -23.4887 	 -122.27 	 
H 	 38.8057 	 -24.4259 	 -121.577 	 
C 	 36.9897 	 -22.6268 	 -123.091 	 
H 	 36.6224 	 -21.5742 	 -122.874 	 
H 	 36.5219 	 -23.1738 	 -122.273 	 
C 	 36.2612 	 -23.2701 	 -124.361 	 
H 	 36.4051 	 -24.3384 	 -124.4 	 
H 	 35.1678 	 -23.1435 	 -124.243 	 
C 	 36.5762 	 -22.6878 	 -125.732 	 
H 	 35.9519 	 -23.0569 	 -126.539 	 
H 	 36.4936 	 -21.6169 	 -125.656 	 
H 	 37.6557 	 -22.9246 	 -125.967 	 
S 	 42.5576 	 -23.4252 	 -120.323 	 
C 	 43.5579 	 -24.8072 	 -120.006 	 
C 	 43.2797 	 -25.8377 	 -120.835 	 
C 	 42.2798 	 -25.5516 	 -121.807 	 
C 	 41.6964 	 -24.263 	 -121.615 	 
H 	 43.9636 	 -26.6994 	 -120.804 	 
C 	 41.6562 	 -26.5197 	 -122.806 	 
H 	 41.6775 	 -26.1014 	 -123.821 	 
H 	 40.5904 	 -26.6977 	 -122.522 	 
C 	 42.2837 	 -28.0014 	 -122.887 	 
H 	 42.2987 	 -28.5594 	 -121.947 	 
H 	 43.3762 	 -28.0236 	 -123.121 	 
C 	 41.4667 	 -28.7862 	 -123.939 	 
H 	 41.9753 	 -29.7629 	 -124.091 	 
H 	 41.5788 	 -28.3226 	 -124.903 	 
H 	 40.3774 	 -28.8342 	 -123.829 	 
H 	 38.9834 	 -21.1235 	 -124.371 	 
H 	 44.237 	 -24.8692 	 -119.223 	 
*
