! wB97X-D3 SP def2-SVP
%pal
nprocs 24
end

* xyz 0 1
S 	 -131.799 	 57.1076 	 -60.7472 	 
C 	 -133.078 	 56.6398 	 -59.6778 	 
C 	 -132.62 	 56.1358 	 -58.4691 	 
C 	 -131.169 	 55.9845 	 -58.4348 	 
C 	 -130.579 	 56.4771 	 -59.5521 	 
H 	 -130.514 	 55.597 	 -57.644 	 
C 	 -133.466 	 55.9928 	 -57.2086 	 
H 	 -133.062 	 55.1799 	 -56.6033 	 
H 	 -134.459 	 55.5948 	 -57.4966 	 
C 	 -133.534 	 57.2533 	 -56.359 	 
H 	 -132.496 	 57.6282 	 -56.1905 	 
H 	 -133.877 	 58.0933 	 -56.9065 	 
C 	 -134.194 	 57.1039 	 -55.0273 	 
H 	 -135.146 	 56.5919 	 -55.1784 	 
H 	 -133.488 	 56.5893 	 -54.3903 	 
H 	 -134.392 	 58.0479 	 -54.5713 	 
S 	 -128.617 	 56.0296 	 -61.3575 	 
C 	 -127.001 	 56.7262 	 -61.128 	 
C 	 -126.862 	 57.2966 	 -59.8805 	 
C 	 -128.05 	 57.1656 	 -59.0884 	 
C 	 -129.144 	 56.5614 	 -59.803 	 
H 	 -125.98 	 57.7644 	 -59.6165 	 
C 	 -128.016 	 57.8214 	 -57.795 	 
H 	 -127.224 	 57.5011 	 -57.1028 	 
H 	 -128.995 	 57.4339 	 -57.385 	 
C 	 -128.093 	 59.3809 	 -57.8781 	 
H 	 -128.761 	 59.7768 	 -58.6956 	 
H 	 -127.14 	 59.7762 	 -58.1949 	 
C 	 -128.492 	 59.9218 	 -56.4644 	 
H 	 -128.589 	 61.012 	 -56.5915 	 
H 	 -127.808 	 59.6828 	 -55.6138 	 
H 	 -129.419 	 59.5643 	 -56.2812 	 
H 	 -134.194 	 56.8625 	 -59.8329 	 
H 	 -126.255 	 56.4774 	 -61.8409 	 
*
