! wB97X-D3 SP def2-SVP
%pal
nprocs 24
end

* xyz 0 1
S 	 -135.276 	 31.3948 	 -18.7751 	 
C 	 -133.636 	 32.1086 	 -18.616 	 
C 	 -132.894 	 31.8978 	 -19.7092 	 
C 	 -133.589 	 31.0105 	 -20.6222 	 
C 	 -134.917 	 30.7371 	 -20.3455 	 
H 	 -133.239 	 30.5577 	 -21.5156 	 
C 	 -131.47 	 32.4575 	 -19.9574 	 
H 	 -131.623 	 33.545 	 -19.8152 	 
H 	 -131.264 	 32.2506 	 -21.066 	 
C 	 -130.347 	 31.9355 	 -19.1524 	 
H 	 -129.35 	 32.531 	 -19.3634 	 
H 	 -130.547 	 32.1603 	 -18.0551 	 
C 	 -130.076 	 30.4723 	 -19.1001 	 
H 	 -129.163 	 30.202 	 -18.4514 	 
H 	 -130.87 	 29.93 	 -18.686 	 
H 	 -129.805 	 29.9741 	 -20.0731 	 
S 	 -136.854 	 28.7538 	 -20.4135 	 
C 	 -137.39 	 28.2571 	 -22.0142 	 
C 	 -136.941 	 29.0615 	 -23.0249 	 
C 	 -136.009 	 30.0104 	 -22.57 	 
C 	 -135.821 	 29.9481 	 -21.1962 	 
H 	 -137.268 	 28.8901 	 -24.0622 	 
C 	 -135.196 	 30.8556 	 -23.4772 	 
H 	 -134.847 	 31.7897 	 -22.9701 	 
H 	 -135.915 	 31.2238 	 -24.1999 	 
C 	 -134.136 	 30.1463 	 -24.3154 	 
H 	 -134.471 	 29.5902 	 -25.1423 	 
H 	 -133.622 	 29.3816 	 -23.7065 	 
C 	 -133.011 	 31.1231 	 -24.7922 	 
H 	 -133.304 	 31.7315 	 -25.6823 	 
H 	 -132.233 	 30.5054 	 -25.2122 	 
H 	 -132.461 	 31.73 	 -23.9931 	 
H 	 -133.346 	 32.6895 	 -17.7451 	 
H 	 -137.948 	 27.3773 	 -22.2102 	 
*
