! wB97X-D3 SP def2-SVP
%pal
nprocs 24
end

* xyz 0 1
S 	 -100.374 	 12.4944 	 -118.078 	 
C 	 -98.8818 	 13.4366 	 -117.739 	 
C 	 -99.2542 	 14.8005 	 -117.593 	 
C 	 -100.601 	 15.0787 	 -118.061 	 
C 	 -101.34 	 13.9508 	 -118.352 	 
H 	 -100.978 	 16.0487 	 -118.058 	 
C 	 -98.2329 	 15.8866 	 -117.216 	 
H 	 -98.7373 	 16.6922 	 -116.786 	 
H 	 -97.793 	 16.3103 	 -118.098 	 
C 	 -97.1003 	 15.4276 	 -116.253 	 
H 	 -97.5146 	 15.2188 	 -115.23 	 
H 	 -96.6726 	 14.5569 	 -116.728 	 
C 	 -95.9407 	 16.4522 	 -116.188 	 
H 	 -96.2262 	 17.4247 	 -115.822 	 
H 	 -95.1447 	 16.1082 	 -115.469 	 
H 	 -95.633 	 16.5687 	 -117.198 	 
S 	 -103.103 	 15.1007 	 -120.163 	 
C 	 -104.687 	 14.3217 	 -120.261 	 
C 	 -104.89 	 13.3277 	 -119.321 	 
C 	 -103.729 	 13.1545 	 -118.478 	 
C 	 -102.648 	 13.871 	 -118.927 	 
H 	 -105.843 	 12.8486 	 -119.167 	 
C 	 -103.811 	 12.2321 	 -117.297 	 
H 	 -102.828 	 12.1696 	 -116.965 	 
H 	 -104.136 	 11.2948 	 -117.618 	 
C 	 -104.709 	 12.5824 	 -116.089 	 
H 	 -105.807 	 12.5835 	 -116.269 	 
H 	 -104.367 	 13.5674 	 -115.739 	 
C 	 -104.69 	 11.6033 	 -114.85 	 
H 	 -103.697 	 11.5204 	 -114.511 	 
H 	 -104.862 	 10.5672 	 -115.216 	 
H 	 -105.345 	 11.8674 	 -114.012 	 
H 	 -97.9699 	 13.0206 	 -117.217 	 
H 	 -105.438 	 14.5282 	 -120.99 	 
*
