! wB97X-D3 SP def2-SVP
%pal
nprocs 24
end

* xyz 0 1
S 	 -105.876 	 23.4721 	 -116.919 	 
C 	 -105.815 	 23.9897 	 -115.165 	 
C 	 -106.345 	 23.0147 	 -114.347 	 
C 	 -106.814 	 21.8868 	 -115.072 	 
C 	 -106.688 	 22.0163 	 -116.465 	 
H 	 -107.325 	 21.0182 	 -114.672 	 
C 	 -106.498 	 23.1248 	 -112.849 	 
H 	 -107.529 	 22.8001 	 -112.601 	 
H 	 -106.567 	 24.1402 	 -112.646 	 
C 	 -105.486 	 22.4021 	 -111.988 	 
H 	 -104.461 	 22.3979 	 -112.405 	 
H 	 -105.52 	 22.9812 	 -111.062 	 
C 	 -105.872 	 20.8907 	 -111.713 	 
H 	 -105.674 	 20.2763 	 -112.571 	 
H 	 -105.182 	 20.5176 	 -110.944 	 
H 	 -106.872 	 20.792 	 -111.357 	 
S 	 -108.501 	 21.0883 	 -118.159 	 
C 	 -108.371 	 19.4162 	 -118.698 	 
C 	 -107.267 	 18.754 	 -118.209 	 
C 	 -106.408 	 19.6683 	 -117.475 	 
C 	 -106.922 	 20.9307 	 -117.419 	 
H 	 -107.297 	 17.6605 	 -118.357 	 
C 	 -105.049 	 19.1323 	 -116.887 	 
H 	 -104.434 	 20.0113 	 -116.653 	 
H 	 -104.506 	 18.6334 	 -117.643 	 
C 	 -105.18 	 18.0874 	 -115.743 	 
H 	 -105.383 	 17.1685 	 -116.263 	 
H 	 -105.973 	 18.205 	 -114.985 	 
C 	 -103.898 	 17.9268 	 -115.035 	 
H 	 -103.845 	 18.672 	 -114.283 	 
H 	 -102.973 	 18.2007 	 -115.59 	 
H 	 -103.928 	 16.9417 	 -114.6 	 
H 	 -105.426 	 24.9303 	 -114.73 	 
H 	 -109.029 	 19.0022 	 -119.376 	 
*
