! wB97X-D3 SP def2-SVP
%pal
nprocs 24
end

* xyz 0 1
S 	 -63.0602 	 9.95767 	 -74.594 	 
C 	 -63.1682 	 8.96061 	 -73.1364 	 
C 	 -62.9052 	 7.62198 	 -73.5329 	 
C 	 -62.8214 	 7.41041 	 -74.9837 	 
C 	 -62.8516 	 8.64113 	 -75.6395 	 
H 	 -62.6787 	 6.53135 	 -75.5061 	 
C 	 -62.9971 	 6.48925 	 -72.5255 	 
H 	 -62.3469 	 6.52271 	 -71.6854 	 
H 	 -62.7841 	 5.62071 	 -73.1531 	 
C 	 -64.3937 	 6.1621 	 -71.9852 	 
H 	 -64.3041 	 5.28181 	 -71.266 	 
H 	 -64.5404 	 7.03682 	 -71.3467 	 
C 	 -65.4335 	 5.87394 	 -73.06 	 
H 	 -66.3193 	 5.45728 	 -72.546 	 
H 	 -65.6826 	 6.74591 	 -73.6652 	 
H 	 -65.0978 	 5.10385 	 -73.7614 	 
S 	 -61.1143 	 8.70233 	 -77.7896 	 
C 	 -61.6745 	 8.47201 	 -79.3857 	 
C 	 -63.0528 	 8.49544 	 -79.3738 	 
C 	 -63.6392 	 8.67596 	 -78.1347 	 
C 	 -62.7054 	 8.81736 	 -77.1108 	 
H 	 -63.498 	 8.41683 	 -80.3332 	 
C 	 -65.1558 	 8.67132 	 -78.0016 	 
H 	 -65.311 	 9.07908 	 -77.0121 	 
H 	 -65.6733 	 7.67924 	 -77.9897 	 
C 	 -65.9884 	 9.51959 	 -79.0199 	 
H 	 -65.7443 	 9.38216 	 -80.0508 	 
H 	 -66.0031 	 10.6424 	 -78.8059 	 
C 	 -67.4597 	 9.16237 	 -78.8529 	 
H 	 -68.0095 	 9.61595 	 -79.6721 	 
H 	 -67.9026 	 9.63836 	 -77.9591 	 
H 	 -67.7283 	 8.13866 	 -78.9626 	 
H 	 -63.5689 	 9.31811 	 -72.2238 	 
H 	 -61.0068 	 8.23132 	 -80.2055 	 
*
