! wB97X-D3 SP def2-SVP
%pal
nprocs 24
end

* xyz 0 1
S 	 -99.4211 	 1.6893 	 -105.432 	 
C 	 -100.015 	 2.53121 	 -106.857 	 
C 	 -101.351 	 2.8124 	 -106.78 	 
C 	 -101.907 	 2.20858 	 -105.59 	 
C 	 -100.969 	 1.48808 	 -104.815 	 
H 	 -102.989 	 2.17972 	 -105.309 	 
C 	 -102.286 	 3.33795 	 -107.85 	 
H 	 -103.331 	 3.2113 	 -107.524 	 
H 	 -102.376 	 2.74192 	 -108.711 	 
C 	 -101.906 	 4.76822 	 -108.26 	 
H 	 -101.866 	 5.32176 	 -107.384 	 
H 	 -100.792 	 4.73602 	 -108.602 	 
C 	 -102.732 	 5.40513 	 -109.488 	 
H 	 -102.578 	 6.50734 	 -109.623 	 
H 	 -102.403 	 4.9325 	 -110.433 	 
H 	 -103.827 	 5.27198 	 -109.293 	 
S 	 -100.3 	 1.30509 	 -102.112 	 
C 	 -101.243 	 0.256707 	 -101.197 	 
C 	 -101.898 	 -0.7104 	 -101.897 	 
C 	 -101.963 	 -0.377319 	 -103.255 	 
C 	 -101.144 	 0.727489 	 -103.588 	 
H 	 -102.403 	 -1.55206 	 -101.304 	 
C 	 -102.934 	 -1.0263 	 -104.183 	 
H 	 -102.468 	 -1.92468 	 -104.66 	 
H 	 -103.133 	 -0.368285 	 -104.974 	 
C 	 -104.386 	 -1.27658 	 -103.733 	 
H 	 -104.946 	 -0.315197 	 -103.492 	 
H 	 -104.353 	 -1.76414 	 -102.754 	 
C 	 -105.19 	 -2.16836 	 -104.685 	 
H 	 -105.625 	 -1.68566 	 -105.545 	 
H 	 -105.951 	 -2.71862 	 -104.133 	 
H 	 -104.505 	 -2.93414 	 -105.093 	 
H 	 -99.4051 	 2.95701 	 -107.69 	 
H 	 -101.025 	 0.0494047 	 -100.187 	 
*
