! wB97X-D3 SP def2-SVP
%pal
nprocs 24
end

* xyz 0 1
S 	 -85.8089 	 -29.1507 	 -78.9819 	 
C 	 -85.1202 	 -29.2189 	 -80.5763 	 
C 	 -85.9102 	 -29.8667 	 -81.5034 	 
C 	 -86.922 	 -30.6321 	 -80.8239 	 
C 	 -87.0431 	 -30.3478 	 -79.4394 	 
H 	 -87.5949 	 -31.2128 	 -81.3788 	 
C 	 -85.5794 	 -30.1806 	 -83.0036 	 
H 	 -85.8472 	 -31.2019 	 -83.2292 	 
H 	 -84.5446 	 -30.1572 	 -83.1925 	 
C 	 -86.3191 	 -29.3227 	 -84.092 	 
H 	 -86.1013 	 -29.8229 	 -85.0345 	 
H 	 -87.356 	 -29.2983 	 -83.9366 	 
C 	 -85.7509 	 -27.8564 	 -84.1573 	 
H 	 -86.4111 	 -27.3287 	 -84.8934 	 
H 	 -85.7994 	 -27.4152 	 -83.1622 	 
H 	 -84.709 	 -27.8227 	 -84.5164 	 
S 	 -87.2456 	 -31.6621 	 -77.0434 	 
C 	 -88.9064 	 -31.8519 	 -76.4757 	 
C 	 -89.9386 	 -31.4256 	 -77.2582 	 
C 	 -89.3867 	 -30.9172 	 -78.5327 	 
C 	 -87.9628 	 -30.972 	 -78.5211 	 
H 	 -90.9859 	 -31.4953 	 -76.9265 	 
C 	 -90.2888 	 -30.2826 	 -79.5613 	 
H 	 -89.7406 	 -29.9172 	 -80.4461 	 
H 	 -90.6101 	 -29.3574 	 -79.09 	 
C 	 -91.5496 	 -31.0168 	 -79.882 	 
H 	 -92.3078 	 -30.9072 	 -79.1097 	 
H 	 -91.2731 	 -32.0623 	 -79.8991 	 
C 	 -92.1163 	 -30.6147 	 -81.2159 	 
H 	 -92.5468 	 -29.5727 	 -81.0989 	 
H 	 -92.8912 	 -31.2757 	 -81.5083 	 
H 	 -91.344 	 -30.6865 	 -81.9726 	 
H 	 -84.2615 	 -28.6204 	 -80.8487 	 
H 	 -89.0235 	 -32.1547 	 -75.486 	 
*
