! wB97X-D3 SP def2-SVP
%pal
nprocs 24
end

* xyz 0 1
S 	 28.8236 	 0.782024 	 -114.835 	 
C 	 27.0867 	 0.787431 	 -114.86 	 
C 	 26.5752 	 0.16557 	 -113.738 	 
C 	 27.6215 	 -0.483672 	 -113.021 	 
C 	 28.9197 	 -0.205668 	 -113.436 	 
H 	 27.4386 	 -1.14495 	 -112.217 	 
C 	 25.1294 	 0.257571 	 -113.244 	 
H 	 25.0363 	 -0.5467 	 -112.496 	 
H 	 24.4612 	 -0.199392 	 -113.96 	 
C 	 24.7259 	 1.59591 	 -112.639 	 
H 	 25.2702 	 1.73636 	 -111.677 	 
H 	 24.9922 	 2.35876 	 -113.263 	 
C 	 23.1907 	 1.76656 	 -112.333 	 
H 	 22.5889 	 0.924339 	 -111.828 	 
H 	 23.0265 	 2.58883 	 -111.675 	 
H 	 22.6475 	 1.85595 	 -113.27 	 
S 	 31.107 	 -1.61007 	 -114.121 	 
C 	 32.1896 	 -2.22691 	 -112.915 	 
C 	 31.7612 	 -1.84126 	 -111.661 	 
C 	 30.5296 	 -1.10999 	 -111.647 	 
C 	 30.0658 	 -0.863017 	 -112.933 	 
H 	 32.239 	 -2.10219 	 -110.647 	 
C 	 29.8835 	 -0.621788 	 -110.335 	 
H 	 30.4729 	 -0.976192 	 -109.507 	 
H 	 28.8891 	 -1.14605 	 -110.196 	 
C 	 29.7061 	 0.909947 	 -110.326 	 
H 	 29.0582 	 1.15495 	 -111.227 	 
H 	 30.6287 	 1.40928 	 -110.466 	 
C 	 28.9446 	 1.43042 	 -109.084 	 
H 	 28.0282 	 0.874987 	 -108.939 	 
H 	 28.656 	 2.50986 	 -109.155 	 
H 	 29.5957 	 1.24825 	 -108.214 	 
H 	 26.4272 	 1.32058 	 -115.603 	 
H 	 32.9962 	 -2.85693 	 -113.066 	 
*
