! wB97X-D3 SP def2-SVP
%pal
nprocs 24
end

* xyz 0 1
S 	 -40.1808 	 -49.5724 	 -69.8474 	 
C 	 -38.6927 	 -49.3014 	 -68.8818 	 
C 	 -38.4311 	 -50.4216 	 -68.1671 	 
C 	 -39.2659 	 -51.5338 	 -68.5463 	 
C 	 -40.2169 	 -51.2797 	 -69.485 	 
H 	 -39.2217 	 -52.5982 	 -68.2551 	 
C 	 -37.3256 	 -50.4661 	 -67.1182 	 
H 	 -36.4309 	 -49.9559 	 -67.4515 	 
H 	 -37.1594 	 -51.5412 	 -67.041 	 
C 	 -37.8258 	 -49.8549 	 -65.7341 	 
H 	 -38.8794 	 -50.1144 	 -65.5553 	 
H 	 -37.3333 	 -50.2451 	 -64.8012 	 
C 	 -37.779 	 -48.2971 	 -65.6881 	 
H 	 -38.5654 	 -47.7334 	 -66.1688 	 
H 	 -37.893 	 -47.97 	 -64.6353 	 
H 	 -36.7987 	 -47.9838 	 -66.0084 	 
S 	 -42.8912 	 -51.534 	 -70.1089 	 
C 	 -43.5501 	 -53.126 	 -70.543 	 
C 	 -42.5482 	 -54.0248 	 -70.6463 	 
C 	 -41.26 	 -53.4978 	 -70.5441 	 
C 	 -41.2689 	 -52.1672 	 -70.0076 	 
H 	 -42.7632 	 -55.075 	 -70.7739 	 
C 	 -39.9841 	 -54.353 	 -70.6909 	 
H 	 -39.4419 	 -54.2577 	 -69.7902 	 
H 	 -39.4496 	 -54.0726 	 -71.6032 	 
C 	 -40.2081 	 -55.8507 	 -70.8875 	 
H 	 -40.8213 	 -55.9743 	 -71.8099 	 
H 	 -40.6646 	 -56.3296 	 -69.9595 	 
C 	 -38.9156 	 -56.5609 	 -71.3041 	 
H 	 -39.1657 	 -57.5085 	 -71.7748 	 
H 	 -38.2091 	 -56.6984 	 -70.4969 	 
H 	 -38.3786 	 -56.0424 	 -72.12 	 
H 	 -38.1902 	 -48.2774 	 -68.7076 	 
H 	 -44.6758 	 -53.353 	 -70.5601 	 
*
