! wB97X-D3 SP def2-SVP
%pal
nprocs 24
end

* xyz 0 1
S 	 -78.6886 	 -6.59793 	 -58.8322 	 
C 	 -78.5888 	 -7.46094 	 -57.2612 	 
C 	 -79.727 	 -7.20832 	 -56.5314 	 
C 	 -80.7514 	 -6.56461 	 -57.2912 	 
C 	 -80.3399 	 -6.12086 	 -58.5345 	 
H 	 -81.7567 	 -6.27653 	 -56.9931 	 
C 	 -79.8801 	 -7.73121 	 -55.0889 	 
H 	 -78.869 	 -7.65068 	 -54.6861 	 
H 	 -80.2247 	 -8.79244 	 -55.0541 	 
C 	 -80.7531 	 -6.96536 	 -54.0618 	 
H 	 -80.2683 	 -6.0198 	 -53.9426 	 
H 	 -81.6861 	 -6.79574 	 -54.5041 	 
C 	 -80.7988 	 -7.8217 	 -52.7713 	 
H 	 -80.7973 	 -7.24362 	 -51.8622 	 
H 	 -81.7339 	 -8.34563 	 -52.7182 	 
H 	 -80.0706 	 -8.66165 	 -52.7357 	 
S 	 -80.1508 	 -3.8332 	 -60.0825 	 
C 	 -81.4353 	 -3.34951 	 -61.0632 	 
C 	 -82.524 	 -4.17838 	 -60.928 	 
C 	 -82.309 	 -5.33816 	 -60.1269 	 
C 	 -81.0445 	 -5.26638 	 -59.5447 	 
H 	 -83.3946 	 -4.0308 	 -61.5591 	 
C 	 -83.2906 	 -6.37697 	 -59.7358 	 
H 	 -82.7282 	 -6.97053 	 -59.1009 	 
H 	 -83.4932 	 -6.85259 	 -60.7278 	 
C 	 -84.5611 	 -6.04206 	 -59.0846 	 
H 	 -85.1193 	 -5.42317 	 -59.7854 	 
H 	 -84.2723 	 -5.33981 	 -58.2942 	 
C 	 -85.2133 	 -7.18754 	 -58.3388 	 
H 	 -86.2105 	 -6.90468 	 -58.0039 	 
H 	 -84.5275 	 -7.3314 	 -57.5044 	 
H 	 -85.3142 	 -8.09361 	 -58.8936 	 
H 	 -77.7033 	 -7.88188 	 -56.7479 	 
H 	 -81.3429 	 -2.54512 	 -61.8385 	 
*
