! wB97X-D3 SP def2-SVP
%pal
nprocs 24
end

* xyz 0 1
S 	 -110.489 	 -0.187195 	 -106.138 	 
C 	 -111.455 	 1.03762 	 -105.262 	 
C 	 -111.477 	 2.24593 	 -105.853 	 
C 	 -110.66 	 2.20707 	 -107.029 	 
C 	 -110.094 	 1.01846 	 -107.313 	 
H 	 -110.401 	 3.03429 	 -107.655 	 
C 	 -112.141 	 3.50773 	 -105.31 	 
H 	 -111.461 	 4.07564 	 -104.791 	 
H 	 -112.922 	 3.32373 	 -104.588 	 
C 	 -112.902 	 4.28984 	 -106.352 	 
H 	 -113.408 	 5.05029 	 -105.816 	 
H 	 -112.121 	 4.72339 	 -106.953 	 
C 	 -113.858 	 3.47787 	 -107.113 	 
H 	 -113.406 	 2.92308 	 -107.899 	 
H 	 -114.427 	 2.74541 	 -106.536 	 
H 	 -114.648 	 4.13561 	 -107.573 	 
S 	 -107.529 	 0.863108 	 -108.371 	 
C 	 -107.302 	 0.188343 	 -109.982 	 
C 	 -108.524 	 0.172546 	 -110.565 	 
C 	 -109.624 	 0.510017 	 -109.798 	 
C 	 -109.287 	 0.733424 	 -108.459 	 
H 	 -108.549 	 -0.0700484 	 -111.63 	 
C 	 -110.966 	 0.556188 	 -110.437 	 
H 	 -111.711 	 0.571586 	 -109.646 	 
H 	 -111.038 	 -0.374313 	 -111.012 	 
C 	 -111.279 	 1.58502 	 -111.578 	 
H 	 -112.343 	 1.34431 	 -111.84 	 
H 	 -110.601 	 1.562 	 -112.442 	 
C 	 -111.25 	 3.02597 	 -111.126 	 
H 	 -110.317 	 3.31121 	 -110.652 	 
H 	 -112.074 	 3.19072 	 -110.406 	 
H 	 -111.48 	 3.78332 	 -111.912 	 
H 	 -112.089 	 0.778985 	 -104.403 	 
H 	 -106.314 	 -0.0426549 	 -110.436 	 
*
