! wB97X-D3 SP def2-SVP
%pal
nprocs 24
end

* xyz 0 1
S 	 3.52512 	 -23.5246 	 -112.559 	 
C 	 4.16256 	 -22.4618 	 -111.408 	 
C 	 3.7153 	 -21.1671 	 -111.478 	 
C 	 3.08391 	 -21.0633 	 -112.786 	 
C 	 2.82974 	 -22.2502 	 -113.356 	 
H 	 2.76594 	 -20.2113 	 -113.334 	 
C 	 4.16543 	 -19.9713 	 -110.675 	 
H 	 3.99564 	 -19.0277 	 -111.313 	 
H 	 5.27544 	 -20.0694 	 -110.564 	 
C 	 3.62773 	 -19.8168 	 -109.27 	 
H 	 3.90707 	 -20.7576 	 -108.691 	 
H 	 4.12266 	 -18.9802 	 -108.875 	 
C 	 2.15615 	 -19.6065 	 -109.063 	 
H 	 1.91208 	 -19.6308 	 -107.952 	 
H 	 1.76237 	 -18.5957 	 -109.358 	 
H 	 1.57212 	 -20.3263 	 -109.606 	 
S 	 0.431478 	 -22.2548 	 -114.497 	 
C 	 0.20224 	 -22.853 	 -116.111 	 
C 	 1.37904 	 -23.3449 	 -116.649 	 
C 	 2.46797 	 -23.0496 	 -115.757 	 
C 	 2.15643 	 -22.421 	 -114.586 	 
H 	 1.54282 	 -23.9036 	 -117.511 	 
C 	 3.91501 	 -23.3728 	 -116.129 	 
H 	 4.59552 	 -22.9531 	 -115.407 	 
H 	 4.13354 	 -22.7298 	 -117.034 	 
C 	 4.27708 	 -24.7616 	 -116.518 	 
H 	 5.26257 	 -24.9084 	 -117.004 	 
H 	 3.59293 	 -25.0891 	 -117.216 	 
C 	 4.32681 	 -25.6634 	 -115.196 	 
H 	 4.32 	 -26.716 	 -115.556 	 
H 	 3.48928 	 -25.5874 	 -114.565 	 
H 	 5.24783 	 -25.5233 	 -114.634 	 
H 	 4.78858 	 -22.6732 	 -110.558 	 
H 	 -0.769358 	 -23.0825 	 -116.506 	 
*
