! wB97X-D3 SP def2-SVP
%pal
nprocs 24
end

* xyz 0 1
S 	 -114.222 	 30.1926 	 -13.0204 	 
C 	 -114.017 	 28.4746 	 -13.4899 	 
C 	 -115.249 	 27.831 	 -13.667 	 
C 	 -116.336 	 28.7195 	 -13.5074 	 
C 	 -115.973 	 30.0186 	 -13.2002 	 
H 	 -117.383 	 28.5273 	 -13.4755 	 
C 	 -115.474 	 26.3782 	 -14.01 	 
H 	 -116.448 	 25.9798 	 -13.6653 	 
H 	 -114.718 	 25.7948 	 -13.3954 	 
C 	 -115.136 	 26.0384 	 -15.4407 	 
H 	 -115.647 	 26.6083 	 -16.2744 	 
H 	 -114.056 	 26.0984 	 -15.6115 	 
C 	 -115.51 	 24.627 	 -15.8803 	 
H 	 -116.469 	 24.3125 	 -15.632 	 
H 	 -115.388 	 24.3992 	 -16.9318 	 
H 	 -114.801 	 23.8889 	 -15.4094 	 
S 	 -117.072 	 31.8788 	 -11.4261 	 
C 	 -118.314 	 32.8988 	 -11.9676 	 
C 	 -118.789 	 32.5904 	 -13.265 	 
C 	 -118.012 	 31.5841 	 -13.8957 	 
C 	 -116.951 	 31.162 	 -13.0493 	 
H 	 -119.726 	 33.0878 	 -13.5868 	 
C 	 -118.392 	 31.0219 	 -15.2741 	 
H 	 -119.503 	 30.9214 	 -15.2246 	 
H 	 -117.874 	 30.0883 	 -15.471 	 
C 	 -118.166 	 31.9887 	 -16.4208 	 
H 	 -117.161 	 32.3452 	 -16.4598 	 
H 	 -118.75 	 32.8672 	 -16.1718 	 
C 	 -118.427 	 31.3702 	 -17.8531 	 
H 	 -117.733 	 30.5698 	 -18.0688 	 
H 	 -118.246 	 32.1968 	 -18.6031 	 
H 	 -119.428 	 31.0488 	 -17.8854 	 
H 	 -113.041 	 28.0187 	 -13.465 	 
H 	 -118.836 	 33.582 	 -11.3636 	 
*
