! wB97X-D3 SP def2-SVP
%pal
nprocs 24
end

* xyz 0 1
S 	 -37.0294 	 16.0367 	 13.256 	 
C 	 -37.9194 	 17.1575 	 14.2082 	 
C 	 -37.3841 	 18.4564 	 14.1841 	 
C 	 -36.2997 	 18.5581 	 13.2169 	 
C 	 -35.9985 	 17.3855 	 12.6717 	 
H 	 -35.699 	 19.3912 	 13.0352 	 
C 	 -37.8578 	 19.6532 	 14.9548 	 
H 	 -36.9114 	 20.085 	 15.3475 	 
H 	 -38.4441 	 19.4414 	 15.8251 	 
C 	 -38.4579 	 20.8541 	 14.1262 	 
H 	 -37.7386 	 21.3115 	 13.522 	 
H 	 -39.2777 	 20.5507 	 13.4174 	 
C 	 -39.0594 	 21.8966 	 15.0187 	 
H 	 -38.4117 	 22.0895 	 15.8074 	 
H 	 -39.2315 	 22.864 	 14.5599 	 
H 	 -39.9228 	 21.4788 	 15.5483 	 
S 	 -33.8897 	 15.6862 	 12.0084 	 
C 	 -32.7029 	 16.2051 	 10.88 	 
C 	 -33.1044 	 17.3188 	 10.2586 	 
C 	 -34.3639 	 17.8262 	 10.6757 	 
C 	 -34.9265 	 17.1089 	 11.7395 	 
H 	 -32.4988 	 17.7561 	 9.48479 	 
C 	 -34.8413 	 19.115 	 10.0713 	 
H 	 -34.1367 	 19.8803 	 10.2643 	 
H 	 -35.682 	 19.3995 	 10.7649 	 
C 	 -35.2389 	 19.0361 	 8.59221 	 
H 	 -34.3988 	 18.7368 	 7.9583 	 
H 	 -35.5979 	 19.9818 	 8.20596 	 
C 	 -36.5328 	 18.296 	 8.42458 	 
H 	 -37.3019 	 18.4424 	 9.21578 	 
H 	 -36.3524 	 17.2126 	 8.48 	 
H 	 -37.0105 	 18.6169 	 7.53403 	 
H 	 -38.852 	 16.9849 	 14.7678 	 
H 	 -31.8731 	 15.5728 	 10.6387 	 
*
