! wB97X-D3 SP def2-SVP
%pal
nprocs 24
end

* xyz 0 1
S 	 -119.35 	 26.2566 	 -18.3413 	 
C 	 -119.071 	 25.8229 	 -20.0239 	 
C 	 -117.767 	 26.0725 	 -20.4184 	 
C 	 -117.024 	 26.7474 	 -19.4408 	 
C 	 -117.67 	 26.8812 	 -18.2516 	 
H 	 -116.049 	 27.1094 	 -19.5694 	 
C 	 -117.146 	 25.7553 	 -21.7301 	 
H 	 -116.168 	 26.2509 	 -21.8074 	 
H 	 -117.712 	 26.21 	 -22.6058 	 
C 	 -116.925 	 24.3715 	 -22.0611 	 
H 	 -116.409 	 23.9173 	 -21.2413 	 
H 	 -117.928 	 24.0048 	 -22.2639 	 
C 	 -116.09 	 24.1775 	 -23.2612 	 
H 	 -116.374 	 24.8108 	 -24.0556 	 
H 	 -114.997 	 24.2599 	 -23.1235 	 
H 	 -116.187 	 23.2116 	 -23.6907 	 
S 	 -117.491 	 26.7098 	 -15.4407 	 
C 	 -116.277 	 27.6597 	 -14.6748 	 
C 	 -115.703 	 28.5834 	 -15.5206 	 
C 	 -116.25 	 28.5759 	 -16.864 	 
C 	 -117.188 	 27.5096 	 -17.0372 	 
H 	 -114.888 	 29.2089 	 -15.2142 	 
C 	 -115.616 	 29.5332 	 -17.8267 	 
H 	 -116.307 	 29.6538 	 -18.6591 	 
H 	 -114.821 	 28.9363 	 -18.225 	 
C 	 -115.013 	 30.9137 	 -17.3397 	 
H 	 -114.597 	 31.1868 	 -18.3401 	 
H 	 -114.092 	 30.9075 	 -16.6869 	 
C 	 -116.108 	 31.85 	 -16.7499 	 
H 	 -115.722 	 32.8399 	 -16.7606 	 
H 	 -116.406 	 31.5072 	 -15.7014 	 
H 	 -117.082 	 31.8391 	 -17.0706 	 
H 	 -119.796 	 25.3378 	 -20.6601 	 
H 	 -115.884 	 27.5728 	 -13.6293 	 
*
