! wB97X-D3 SP def2-SVP
%pal
nprocs 24
end

* xyz 0 1
S 	 -64.728 	 17.9997 	 -114.512 	 
C 	 -63.3312 	 17.6673 	 -115.495 	 
C 	 -63.3786 	 18.3891 	 -116.681 	 
C 	 -64.6186 	 19.0808 	 -116.889 	 
C 	 -65.4876 	 18.9034 	 -115.829 	 
H 	 -64.8617 	 19.6949 	 -117.737 	 
C 	 -62.3268 	 18.5133 	 -117.699 	 
H 	 -61.7335 	 19.4484 	 -117.483 	 
H 	 -62.8963 	 18.6759 	 -118.659 	 
C 	 -61.3584 	 17.3439 	 -117.893 	 
H 	 -60.685 	 17.2241 	 -117.066 	 
H 	 -61.9782 	 16.4578 	 -117.989 	 
C 	 -60.6226 	 17.5631 	 -119.159 	 
H 	 -61.3073 	 17.5072 	 -120.069 	 
H 	 -60.254 	 18.6125 	 -119.173 	 
H 	 -59.8069 	 16.8342 	 -119.279 	 
S 	 -67.2908 	 19.8228 	 -113.941 	 
C 	 -68.8586 	 20.6019 	 -114.398 	 
C 	 -68.9371 	 20.6902 	 -115.75 	 
C 	 -67.8283 	 20.092 	 -116.43 	 
C 	 -66.8072 	 19.5767 	 -115.606 	 
H 	 -69.7951 	 21.1501 	 -116.148 	 
C 	 -67.7914 	 19.9356 	 -117.924 	 
H 	 -68.8078 	 19.5662 	 -118.18 	 
H 	 -67.1345 	 19.1295 	 -118.099 	 
C 	 -67.432 	 21.1923 	 -118.74 	 
H 	 -66.3178 	 21.2484 	 -118.572 	 
H 	 -67.9546 	 22.1028 	 -118.351 	 
C 	 -67.8365 	 21.0122 	 -120.246 	 
H 	 -67.2383 	 20.378 	 -120.864 	 
H 	 -67.7579 	 22.0159 	 -120.721 	 
H 	 -68.9249 	 20.6911 	 -120.337 	 
H 	 -62.4569 	 17.1326 	 -115.151 	 
H 	 -69.6509 	 20.9422 	 -113.78 	 
*
