! wB97X-D3 SP def2-SVP
%pal
nprocs 24
end

* xyz 0 1
S 	 -69.1602 	 7.08364 	 -76.6355 	 
C 	 -68.5927 	 5.9187 	 -77.7452 	 
C 	 -69.5766 	 5.24986 	 -78.5005 	 
C 	 -70.8324 	 5.74149 	 -78.0319 	 
C 	 -70.7846 	 6.82239 	 -77.1994 	 
H 	 -71.7402 	 5.35969 	 -78.4015 	 
C 	 -69.3863 	 4.09591 	 -79.4789 	 
H 	 -68.819 	 4.64128 	 -80.2083 	 
H 	 -70.3133 	 3.7918 	 -79.9917 	 
C 	 -68.4785 	 2.93521 	 -78.9912 	 
H 	 -68.0817 	 2.29076 	 -79.754 	 
H 	 -67.5976 	 3.40824 	 -78.4753 	 
C 	 -69.0706 	 2.06028 	 -77.9243 	 
H 	 -68.3817 	 1.38286 	 -77.4667 	 
H 	 -69.5236 	 2.67629 	 -77.1429 	 
H 	 -69.9969 	 1.58709 	 -78.2615 	 
S 	 -71.4841 	 9.44405 	 -77.3125 	 
C 	 -73.1304 	 9.88813 	 -76.9513 	 
C 	 -73.8815 	 8.76935 	 -76.7307 	 
C 	 -73.1871 	 7.52516 	 -76.7733 	 
C 	 -71.847 	 7.75246 	 -76.9313 	 
H 	 -74.9486 	 9.00638 	 -76.6196 	 
C 	 -73.8194 	 6.14764 	 -76.6268 	 
H 	 -74.5846 	 6.16533 	 -75.7857 	 
H 	 -73.0594 	 5.48408 	 -76.2629 	 
C 	 -74.589 	 5.43272 	 -77.7611 	 
H 	 -74.2201 	 5.60411 	 -78.7804 	 
H 	 -75.5404 	 6.00858 	 -77.7418 	 
C 	 -74.9377 	 3.9541 	 -77.6139 	 
H 	 -75.3108 	 3.6843 	 -76.613 	 
H 	 -74.1302 	 3.3413 	 -77.7087 	 
H 	 -75.6686 	 3.76425 	 -78.4195 	 
H 	 -67.5719 	 5.68838 	 -78.0105 	 
H 	 -73.5736 	 10.7959 	 -77.2693 	 
*
