! wB97X-D3 SP def2-SVP
%pal
nprocs 24
end

* xyz 0 1
S 	 -120.724 	 32.9196 	 -116.448 	 
C 	 -119.728 	 32.5778 	 -117.832 	 
C 	 -118.385 	 32.7997 	 -117.54 	 
C 	 -118.18 	 33.2087 	 -116.161 	 
C 	 -119.372 	 33.3535 	 -115.478 	 
H 	 -117.242 	 33.4602 	 -115.709 	 
C 	 -117.274 	 32.5554 	 -118.568 	 
H 	 -116.375 	 33.1014 	 -118.339 	 
H 	 -117.596 	 32.9343 	 -119.587 	 
C 	 -116.942 	 31.0834 	 -118.853 	 
H 	 -116.458 	 30.6488 	 -117.923 	 
H 	 -117.858 	 30.55 	 -119.041 	 
C 	 -115.853 	 30.8864 	 -119.919 	 
H 	 -114.925 	 31.3698 	 -119.559 	 
H 	 -115.672 	 29.7374 	 -120.034 	 
H 	 -116.039 	 31.3117 	 -120.925 	 
S 	 -120.05 	 32.1416 	 -113.048 	 
C 	 -119.98 	 33.1388 	 -111.653 	 
C 	 -119.609 	 34.4087 	 -111.877 	 
C 	 -119.179 	 34.6524 	 -113.21 	 
C 	 -119.461 	 33.5798 	 -114.013 	 
H 	 -119.531 	 35.0664 	 -111.018 	 
C 	 -118.849 	 35.9711 	 -113.718 	 
H 	 -118.429 	 35.8666 	 -114.804 	 
H 	 -117.937 	 36.2667 	 -113.204 	 
C 	 -119.853 	 37.1329 	 -113.645 	 
H 	 -120.313 	 36.9851 	 -112.661 	 
H 	 -120.563 	 37.034 	 -114.405 	 
C 	 -119.092 	 38.5051 	 -113.852 	 
H 	 -118.073 	 38.4955 	 -113.431 	 
H 	 -119.684 	 39.2839 	 -113.271 	 
H 	 -118.987 	 38.9152 	 -114.794 	 
H 	 -120.111 	 32.1665 	 -118.741 	 
H 	 -120.395 	 32.9041 	 -110.675 	 
*
