! wB97X-D3 SP def2-SVP
%pal
nprocs 24
end

* xyz 0 1
S 	 -116.367 	 44.1943 	 -112.495 	 
C 	 -117.924 	 43.4813 	 -113.102 	 
C 	 -117.959 	 43.2202 	 -114.485 	 
C 	 -116.689 	 43.597 	 -115.064 	 
C 	 -115.806 	 44.0914 	 -114.103 	 
H 	 -116.194 	 43.3547 	 -116.006 	 
C 	 -119.173 	 42.786 	 -115.193 	 
H 	 -119.978 	 43.5095 	 -114.913 	 
H 	 -119.569 	 41.8882 	 -114.849 	 
C 	 -119.152 	 42.7623 	 -116.732 	 
H 	 -119.025 	 43.8452 	 -117.008 	 
H 	 -118.327 	 42.16 	 -117.116 	 
C 	 -120.434 	 42.3218 	 -117.392 	 
H 	 -120.521 	 42.4103 	 -118.506 	 
H 	 -120.574 	 41.2624 	 -117.113 	 
H 	 -121.252 	 42.8975 	 -116.98 	 
S 	 -114.204 	 45.1352 	 -116.128 	 
C 	 -112.507 	 45.4554 	 -115.794 	 
C 	 -112.085 	 45.0395 	 -114.526 	 
C 	 -113.196 	 44.4925 	 -113.737 	 
C 	 -114.444 	 44.5217 	 -114.47 	 
H 	 -111.077 	 45.1719 	 -114.274 	 
C 	 -112.901 	 44.1067 	 -112.3 	 
H 	 -113.765 	 44.2725 	 -111.56 	 
H 	 -112.141 	 44.902 	 -112.075 	 
C 	 -112.348 	 42.7098 	 -112.083 	 
H 	 -112.016 	 42.5526 	 -111.071 	 
H 	 -111.45 	 42.486 	 -112.626 	 
C 	 -113.393 	 41.6895 	 -112.44 	 
H 	 -113.276 	 41.6099 	 -113.46 	 
H 	 -114.396 	 42.0198 	 -112.179 	 
H 	 -113.211 	 40.6505 	 -111.995 	 
H 	 -118.715 	 43.1644 	 -112.474 	 
H 	 -111.809 	 46.011 	 -116.449 	 
*
