! wB97X-D3 SP def2-SVP
%pal
nprocs 24
end

* xyz 0 1
S 	 -124.429 	 17.5097 	 -20.9195 	 
C 	 -123.496 	 17.6309 	 -19.4429 	 
C 	 -122.369 	 18.3941 	 -19.6289 	 
C 	 -122.264 	 18.9044 	 -20.9791 	 
C 	 -123.352 	 18.5989 	 -21.7671 	 
H 	 -121.483 	 19.5938 	 -21.2277 	 
C 	 -121.285 	 18.5574 	 -18.5962 	 
H 	 -120.401 	 17.998 	 -18.8489 	 
H 	 -121.73 	 18.1131 	 -17.7129 	 
C 	 -120.846 	 19.9899 	 -18.1624 	 
H 	 -120.167 	 20.4596 	 -18.9234 	 
H 	 -121.832 	 20.6242 	 -18.0225 	 
C 	 -120.154 	 20.0536 	 -16.8099 	 
H 	 -119.305 	 19.3997 	 -16.7491 	 
H 	 -119.956 	 21.135 	 -16.5468 	 
H 	 -120.78 	 19.6449 	 -16.0078 	 
S 	 -124.003 	 20.7297 	 -23.3767 	 
C 	 -124.204 	 20.4115 	 -25.1415 	 
C 	 -124.021 	 19.0947 	 -25.4451 	 
C 	 -123.665 	 18.3414 	 -24.2889 	 
C 	 -123.672 	 19.0684 	 -23.1281 	 
H 	 -124.171 	 18.7648 	 -26.4769 	 
C 	 -123.488 	 16.8606 	 -24.5589 	 
H 	 -123.441 	 16.6299 	 -25.6653 	 
H 	 -124.437 	 16.3857 	 -24.2976 	 
C 	 -122.4 	 16.0931 	 -23.7155 	 
H 	 -122.263 	 15.0224 	 -23.98 	 
H 	 -122.645 	 16.131 	 -22.6386 	 
C 	 -121.042 	 16.7931 	 -23.8621 	 
H 	 -120.275 	 16.1925 	 -23.4287 	 
H 	 -121.07 	 17.7577 	 -23.4114 	 
H 	 -120.813 	 16.8326 	 -24.8506 	 
H 	 -123.773 	 17.2177 	 -18.4646 	 
H 	 -124.481 	 21.2101 	 -25.7527 	 
*
