! wB97X-D3 SP def2-SVP
%pal
nprocs 24
end

* xyz 0 1
S 	 -52.1798 	 -49.1482 	 -78.0539 	 
C 	 -51.1037 	 -49.3229 	 -79.4069 	 
C 	 -51.6969 	 -49.7249 	 -80.549 	 
C 	 -53.1286 	 -49.7789 	 -80.3777 	 
C 	 -53.5745 	 -49.4094 	 -79.1099 	 
H 	 -53.8216 	 -50.1298 	 -81.099 	 
C 	 -51.0036 	 -49.9778 	 -81.9196 	 
H 	 -51.1025 	 -50.9865 	 -82.2596 	 
H 	 -49.9002 	 -49.8704 	 -81.7485 	 
C 	 -51.4455 	 -49.0872 	 -83.1153 	 
H 	 -52.4949 	 -48.9764 	 -83.0168 	 
H 	 -51.0176 	 -48.0875 	 -82.9394 	 
C 	 -51.0618 	 -49.4268 	 -84.5806 	 
H 	 -50.0171 	 -49.6558 	 -84.5317 	 
H 	 -51.3434 	 -50.3533 	 -84.9201 	 
H 	 -51.3576 	 -48.7105 	 -85.2985 	 
S 	 -55.1013 	 -49.705 	 -76.838 	 
C 	 -56.8201 	 -49.5107 	 -76.9333 	 
C 	 -57.2073 	 -49.3485 	 -78.2241 	 
C 	 -56.1727 	 -49.3006 	 -79.1776 	 
C 	 -54.9286 	 -49.4177 	 -78.5857 	 
H 	 -58.2773 	 -49.2083 	 -78.4554 	 
C 	 -56.4007 	 -49.1064 	 -80.7384 	 
H 	 -56.0262 	 -50.0421 	 -81.1246 	 
H 	 -55.8029 	 -48.2511 	 -80.8468 	 
C 	 -57.8051 	 -48.9413 	 -81.2232 	 
H 	 -58.1099 	 -48.0754 	 -80.6159 	 
H 	 -58.4144 	 -49.852 	 -80.915 	 
C 	 -57.7965 	 -48.7361 	 -82.7368 	 
H 	 -58.7308 	 -48.9541 	 -83.1004 	 
H 	 -56.998 	 -49.2301 	 -83.3721 	 
H 	 -57.7342 	 -47.6555 	 -82.9159 	 
H 	 -49.9977 	 -49.1514 	 -79.3583 	 
H 	 -57.5886 	 -49.6795 	 -76.1863 	 
*
