! wB97X-D3 SP def2-SVP
%pal
nprocs 24
end

* xyz 0 1
S 	 -64.5388 	 8.18186 	 -76.197 	 
C 	 -64.0171 	 7.02705 	 -74.989 	 
C 	 -65.0291 	 6.58297 	 -74.2086 	 
C 	 -66.2164 	 7.32935 	 -74.3505 	 
C 	 -66.0893 	 8.33063 	 -75.3217 	 
H 	 -67.1339 	 7.07941 	 -73.7756 	 
C 	 -64.8729 	 5.49016 	 -73.136 	 
H 	 -64.4949 	 5.88229 	 -72.2276 	 
H 	 -63.9577 	 5.02123 	 -73.5576 	 
C 	 -65.9861 	 4.51794 	 -72.8305 	 
H 	 -65.816 	 4.00867 	 -71.8651 	 
H 	 -66.8154 	 5.18031 	 -72.5355 	 
C 	 -66.465 	 3.78038 	 -74.089 	 
H 	 -67.4934 	 3.5708 	 -73.9504 	 
H 	 -66.3748 	 4.47841 	 -74.9224 	 
H 	 -65.8446 	 2.89417 	 -74.2782 	 
S 	 -67.5385 	 9.72699 	 -77.3667 	 
C 	 -68.6403 	 10.9489 	 -76.8436 	 
C 	 -68.6797 	 11.1318 	 -75.4968 	 
C 	 -67.8996 	 10.1481 	 -74.8153 	 
C 	 -67.0369 	 9.44648 	 -75.6582 	 
H 	 -69.5601 	 11.6129 	 -75.0441 	 
C 	 -68.0245 	 9.9292 	 -73.349 	 
H 	 -67.5697 	 9.01705 	 -73.0419 	 
H 	 -69.1057 	 9.80699 	 -73.0797 	 
C 	 -67.4869 	 11.0574 	 -72.5285 	 
H 	 -68.0349 	 11.9179 	 -72.8824 	 
H 	 -66.4262 	 11.2007 	 -72.6357 	 
C 	 -67.7647 	 10.9034 	 -71.0709 	 
H 	 -68.8665 	 10.8736 	 -70.7488 	 
H 	 -67.2252 	 11.6881 	 -70.5785 	 
H 	 -67.512 	 9.91205 	 -70.6383 	 
H 	 -63.0456 	 6.5247 	 -74.9501 	 
H 	 -69.2571 	 11.5368 	 -77.4988 	 
*
