! wB97X-D3 SP def2-SVP
%pal
nprocs 24
end

* xyz 0 1
S 	 -144.426 	 26.6893 	 -20.0608 	 
C 	 -145.756 	 25.6428 	 -19.6904 	 
C 	 -146.028 	 24.7893 	 -20.7154 	 
C 	 -145.069 	 24.9633 	 -21.7893 	 
C 	 -144.089 	 25.8942 	 -21.5594 	 
H 	 -144.979 	 24.3812 	 -22.7194 	 
C 	 -147.184 	 23.8197 	 -20.6336 	 
H 	 -148.124 	 24.4444 	 -20.7415 	 
H 	 -147.228 	 23.5045 	 -19.6212 	 
C 	 -147.025 	 22.6149 	 -21.5621 	 
H 	 -146.731 	 22.9818 	 -22.5915 	 
H 	 -146.226 	 21.9342 	 -21.2038 	 
C 	 -148.391 	 21.9422 	 -21.533 	 
H 	 -149.097 	 22.6748 	 -22.0421 	 
H 	 -148.366 	 21.0294 	 -22.1633 	 
H 	 -148.726 	 21.5753 	 -20.5094 	 
S 	 -142.822 	 27.2059 	 -23.7377 	 
C 	 -141.123 	 27.2605 	 -23.8487 	 
C 	 -140.583 	 26.501 	 -22.8556 	 
C 	 -141.523 	 26.0029 	 -21.8896 	 
C 	 -142.854 	 26.1393 	 -22.2963 	 
H 	 -139.528 	 26.3475 	 -22.7583 	 
C 	 -141.03 	 25.3821 	 -20.6303 	 
H 	 -140.138 	 24.8011 	 -20.8981 	 
H 	 -141.746 	 24.6545 	 -20.187 	 
C 	 -140.69 	 26.4397 	 -19.5546 	 
H 	 -141.514 	 27.0225 	 -19.2272 	 
H 	 -139.966 	 27.0636 	 -19.9901 	 
C 	 -139.966 	 25.7643 	 -18.4066 	 
H 	 -140 	 26.415 	 -17.5263 	 
H 	 -138.831 	 25.7013 	 -18.6056 	 
H 	 -140.307 	 24.807 	 -17.9777 	 
H 	 -146.401 	 25.5632 	 -18.8112 	 
H 	 -140.528 	 27.7471 	 -24.6045 	 
*
