! wB97X-D3 SP def2-SVP
%pal
nprocs 24
end

* xyz 0 1
S 	 -103.421 	 28.8757 	 -116.845 	 
C 	 -103.845 	 29.602 	 -115.326 	 
C 	 -105.037 	 30.2453 	 -115.404 	 
C 	 -105.786 	 29.863 	 -116.588 	 
C 	 -105.03 	 29.1609 	 -117.556 	 
H 	 -106.816 	 30.1049 	 -116.729 	 
C 	 -105.461 	 31.2014 	 -114.35 	 
H 	 -105.375 	 32.2752 	 -114.672 	 
H 	 -104.746 	 31.1157 	 -113.517 	 
C 	 -106.786 	 30.8998 	 -113.66 	 
H 	 -107.474 	 30.6467 	 -114.409 	 
H 	 -106.661 	 30.0848 	 -112.909 	 
C 	 -107.322 	 32.0978 	 -112.858 	 
H 	 -106.604 	 32.5099 	 -112.173 	 
H 	 -107.622 	 32.9126 	 -113.47 	 
H 	 -108.203 	 31.7983 	 -112.334 	 
S 	 -103.87 	 28.5828 	 -119.899 	 
C 	 -104.82 	 28.4775 	 -121.308 	 
C 	 -106.16 	 28.4827 	 -121.056 	 
C 	 -106.487 	 28.7701 	 -119.698 	 
C 	 -105.311 	 28.8819 	 -118.945 	 
H 	 -106.773 	 28.2131 	 -121.905 	 
C 	 -107.889 	 28.6598 	 -119.198 	 
H 	 -108.44 	 28.7933 	 -120.146 	 
H 	 -108.192 	 29.5239 	 -118.541 	 
C 	 -108.259 	 27.2649 	 -118.625 	 
H 	 -107.899 	 26.4267 	 -119.202 	 
H 	 -109.392 	 27.2217 	 -118.768 	 
C 	 -107.954 	 27.0587 	 -117.148 	 
H 	 -107.983 	 26.0261 	 -116.927 	 
H 	 -108.631 	 27.5624 	 -116.472 	 
H 	 -106.921 	 27.2939 	 -116.839 	 
H 	 -103.156 	 29.9644 	 -114.632 	 
H 	 -104.468 	 28.4869 	 -122.324 	 
*
