! wB97X-D3 SP def2-SVP
%pal
nprocs 24
end

* xyz 0 1
S 	 -120.621 	 54.0627 	 -31.8715 	 
C 	 -120.006 	 53.0163 	 -33.1201 	 
C 	 -120.81 	 51.894 	 -33.2536 	 
C 	 -121.86 	 51.8141 	 -32.2959 	 
C 	 -121.94 	 52.9325 	 -31.4844 	 
H 	 -122.608 	 51.0337 	 -32.2305 	 
C 	 -120.659 	 50.8865 	 -34.3788 	 
H 	 -120.647 	 49.8891 	 -33.8395 	 
H 	 -119.653 	 50.9904 	 -34.7913 	 
C 	 -121.772 	 50.9467 	 -35.4556 	 
H 	 -121.713 	 50.1234 	 -36.1134 	 
H 	 -122.707 	 50.8794 	 -34.8543 	 
C 	 -121.743 	 52.1117 	 -36.4926 	 
H 	 -121.991 	 52.9383 	 -35.9654 	 
H 	 -120.712 	 52.2539 	 -36.8994 	 
H 	 -122.421 	 51.8633 	 -37.3113 	 
S 	 -122.455 	 54.2062 	 -29.0571 	 
C 	 -124.083 	 54.0423 	 -28.3667 	 
C 	 -124.848 	 53.2544 	 -29.1383 	 
C 	 -124.17 	 52.737 	 -30.26 	 
C 	 -122.915 	 53.1833 	 -30.4473 	 
H 	 -125.859 	 52.9882 	 -28.8484 	 
C 	 -125.075 	 51.9714 	 -31.2001 	 
H 	 -125.774 	 51.3512 	 -30.5719 	 
H 	 -124.614 	 51.2423 	 -31.7983 	 
C 	 -125.942 	 52.8765 	 -32.1816 	 
H 	 -125.305 	 53.4519 	 -32.8118 	 
H 	 -126.455 	 53.6477 	 -31.6788 	 
C 	 -126.994 	 52.0467 	 -33.0197 	 
H 	 -127.527 	 52.7282 	 -33.6862 	 
H 	 -127.713 	 51.4977 	 -32.38 	 
H 	 -126.426 	 51.2827 	 -33.6718 	 
H 	 -119.295 	 53.3816 	 -33.8106 	 
H 	 -124.455 	 54.5765 	 -27.5076 	 
*
