! wB97X-D3 SP def2-SVP
%pal
nprocs 24
end

* xyz 0 1
S 	 21.2644 	 0.179604 	 -114.403 	 
C 	 19.798 	 1.24966 	 -114.487 	 
C 	 20.071 	 2.51899 	 -114.001 	 
C 	 21.4459 	 2.61489 	 -113.606 	 
C 	 22.201 	 1.50528 	 -113.777 	 
H 	 21.8725 	 3.51341 	 -113.061 	 
C 	 19.2054 	 3.76083 	 -114.143 	 
H 	 18.4217 	 3.60659 	 -114.889 	 
H 	 19.9106 	 4.52752 	 -114.467 	 
C 	 18.5865 	 4.27946 	 -112.862 	 
H 	 17.9742 	 3.59054 	 -112.333 	 
H 	 19.3138 	 4.54387 	 -112.169 	 
C 	 17.7647 	 5.50189 	 -113.168 	 
H 	 17.8536 	 6.18713 	 -112.319 	 
H 	 18.1817 	 6.03334 	 -114.005 	 
H 	 16.7641 	 5.152 	 -113.247 	 
S 	 24.9933 	 1.99728 	 -113.731 	 
C 	 25.9105 	 1.07471 	 -112.629 	 
C 	 25.2336 	 0.390969 	 -111.756 	 
C 	 23.8017 	 0.418096 	 -112.009 	 
C 	 23.4854 	 1.18179 	 -113.165 	 
H 	 25.7234 	 -0.201315 	 -111.056 	 
C 	 22.8107 	 -0.310395 	 -111.102 	 
H 	 23.3599 	 -1.13224 	 -110.692 	 
H 	 22.023 	 -0.795008 	 -111.786 	 
C 	 22.2191 	 0.539858 	 -109.851 	 
H 	 21.7945 	 1.34843 	 -110.453 	 
H 	 22.9852 	 0.78868 	 -109.12 	 
C 	 21.1194 	 -0.137292 	 -109.029 	 
H 	 20.8478 	 0.572237 	 -108.204 	 
H 	 21.3494 	 -1.13768 	 -108.655 	 
H 	 20.2406 	 -0.290456 	 -109.722 	 
H 	 18.9016 	 0.880675 	 -114.943 	 
H 	 26.9784 	 1.15689 	 -112.608 	 
*
