! wB97X-D3 SP def2-SVP
%pal
nprocs 24
end

* xyz 0 1
S 	 -136.098 	 67.5738 	 -62.9714 	 
C 	 -137.205 	 68.8213 	 -63.3212 	 
C 	 -137.761 	 69.5236 	 -62.2241 	 
C 	 -137.216 	 68.9948 	 -60.9979 	 
C 	 -136.271 	 68.0082 	 -61.265 	 
H 	 -137.375 	 69.2219 	 -59.9366 	 
C 	 -138.728 	 70.774 	 -62.352 	 
H 	 -139.103 	 71.0638 	 -61.3441 	 
H 	 -139.717 	 70.4241 	 -62.7607 	 
C 	 -138.191 	 71.9903 	 -63.0879 	 
H 	 -138.019 	 71.7187 	 -64.109 	 
H 	 -138.991 	 72.6791 	 -63.2181 	 
C 	 -136.862 	 72.545 	 -62.6317 	 
H 	 -136.047 	 71.8217 	 -62.6427 	 
H 	 -136.714 	 73.4389 	 -63.2696 	 
H 	 -136.857 	 72.813 	 -61.5683 	 
S 	 -135.014 	 65.6991 	 -60.6029 	 
C 	 -134.228 	 65.5046 	 -59.0694 	 
C 	 -134.39 	 66.6575 	 -58.351 	 
C 	 -135.115 	 67.7319 	 -59.0051 	 
C 	 -135.513 	 67.3426 	 -60.2582 	 
H 	 -134.114 	 66.7068 	 -57.3107 	 
C 	 -135.268 	 69.0451 	 -58.3385 	 
H 	 -135.714 	 69.7191 	 -59.0892 	 
H 	 -134.243 	 69.4158 	 -58.1989 	 
C 	 -136.063 	 69.0128 	 -57.0274 	 
H 	 -136.181 	 69.9799 	 -56.5959 	 
H 	 -135.398 	 68.4694 	 -56.3533 	 
C 	 -137.328 	 68.1549 	 -57.1096 	 
H 	 -137.027 	 67.1685 	 -57.526 	 
H 	 -138.017 	 68.5744 	 -57.8604 	 
H 	 -137.798 	 68.0534 	 -56.0604 	 
H 	 -137.595 	 69.0238 	 -64.3236 	 
H 	 -133.827 	 64.6188 	 -58.6454 	 
*
