! wB97X-D3 SP def2-SVP
%pal
nprocs 24
end

* xyz 0 1
S 	 -49.8811 	 13.7915 	 24.9005 	 
C 	 -50.2913 	 12.2188 	 24.2439 	 
C 	 -49.2631 	 11.3243 	 24.37 	 
C 	 -48.1304 	 11.9271 	 24.9489 	 
C 	 -48.2552 	 13.2868 	 25.3319 	 
H 	 -47.2127 	 11.3982 	 25.2474 	 
C 	 -49.3915 	 9.81332 	 24.106 	 
H 	 -49.2398 	 9.6938 	 23.0676 	 
H 	 -50.4432 	 9.42 	 24.2953 	 
C 	 -48.3268 	 8.90228 	 24.7759 	 
H 	 -47.3201 	 9.31289 	 24.8625 	 
H 	 -48.8247 	 8.64626 	 25.7046 	 
C 	 -48.0124 	 7.62407 	 24.0238 	 
H 	 -48.9115 	 6.93633 	 24.0936 	 
H 	 -47.7017 	 7.96027 	 23.0445 	 
H 	 -47.3133 	 7.14763 	 24.5489 	 
S 	 -47.9809 	 14.7501 	 27.6335 	 
C 	 -46.4205 	 15.2244 	 28.1709 	 
C 	 -45.4758 	 14.9288 	 27.2142 	 
C 	 -45.9514 	 14.148 	 26.0821 	 
C 	 -47.3041 	 13.9392 	 26.2593 	 
H 	 -44.4636 	 15.1666 	 27.3296 	 
C 	 -45.1056 	 13.6106 	 24.9611 	 
H 	 -44.2729 	 14.3175 	 24.716 	 
H 	 -45.5961 	 13.3011 	 24.1337 	 
C 	 -44.1947 	 12.3485 	 25.3053 	 
H 	 -43.5242 	 12.1846 	 24.4581 	 
H 	 -44.7471 	 11.3842 	 25.4352 	 
C 	 -43.3635 	 12.4596 	 26.5488 	 
H 	 -42.7414 	 11.5837 	 26.6124 	 
H 	 -43.91 	 12.5546 	 27.4134 	 
H 	 -42.6623 	 13.3 	 26.5092 	 
H 	 -51.2744 	 12.0679 	 23.8347 	 
H 	 -46.1874 	 15.6502 	 29.185 	 
*
