! wB97X-D3 SP def2-SVP
%pal
nprocs 24
end

* xyz 0 1
S 	 31.419 	 -33.5978 	 -113.972 	 
C 	 31.2739 	 -32.5361 	 -112.634 	 
C 	 32.1841 	 -31.5062 	 -112.763 	 
C 	 33.0925 	 -31.6848 	 -113.809 	 
C 	 32.86 	 -32.8089 	 -114.574 	 
H 	 33.8431 	 -30.9436 	 -114.062 	 
C 	 32.3219 	 -30.4686 	 -111.646 	 
H 	 31.8489 	 -30.9453 	 -110.779 	 
H 	 31.7686 	 -29.5939 	 -112.028 	 
C 	 33.6538 	 -29.9365 	 -111.289 	 
H 	 34.1518 	 -29.3715 	 -112.115 	 
H 	 33.4401 	 -29.2306 	 -110.483 	 
C 	 34.5315 	 -31.0589 	 -110.669 	 
H 	 33.953 	 -31.5649 	 -110.012 	 
H 	 34.6969 	 -31.7819 	 -111.481 	 
H 	 35.3606 	 -30.6029 	 -110.135 	 
S 	 32.7419 	 -33.1826 	 -117.276 	 
C 	 34.1317 	 -33.6149 	 -118.146 	 
C 	 35.1812 	 -33.8551 	 -117.371 	 
C 	 34.9141 	 -33.5682 	 -115.992 	 
C 	 33.5711 	 -33.251 	 -115.786 	 
H 	 36.1567 	 -34.2331 	 -117.8 	 
C 	 35.8871 	 -33.8733 	 -114.837 	 
H 	 35.9207 	 -33.0592 	 -114.127 	 
H 	 36.8802 	 -33.802 	 -115.185 	 
C 	 35.6367 	 -35.295 	 -114.167 	 
H 	 35.555 	 -36.0215 	 -114.99 	 
H 	 34.6203 	 -35.2779 	 -113.774 	 
C 	 36.672 	 -35.7223 	 -113.077 	 
H 	 37.6837 	 -35.6826 	 -113.349 	 
H 	 36.3647 	 -36.8162 	 -112.778 	 
H 	 36.6859 	 -35.0249 	 -112.222 	 
H 	 30.6137 	 -32.6119 	 -111.876 	 
H 	 33.999 	 -33.8941 	 -119.162 	 
*
