! wB97X-D3 SP def2-SVP
%pal
nprocs 24
end

* xyz 0 1
S 	 -95.4938 	 8.58231 	 -1.36361 	 
C 	 -94.2174 	 8.80393 	 -2.54402 	 
C 	 -94.7401 	 8.42926 	 -3.78514 	 
C 	 -96.0186 	 7.79502 	 -3.69838 	 
C 	 -96.588 	 7.8724 	 -2.50539 	 
H 	 -96.719 	 7.47984 	 -4.48068 	 
C 	 -94.0589 	 8.46087 	 -5.14932 	 
H 	 -94.3191 	 7.5851 	 -5.80965 	 
H 	 -92.9916 	 8.26106 	 -5.07029 	 
C 	 -94.2359 	 9.75735 	 -5.98069 	 
H 	 -94.1002 	 10.6564 	 -5.41422 	 
H 	 -93.6177 	 9.723 	 -6.80307 	 
C 	 -95.6916 	 10.0264 	 -6.40298 	 
H 	 -95.8585 	 10.9331 	 -6.97468 	 
H 	 -95.9973 	 9.17834 	 -7.07491 	 
H 	 -96.4699 	 10.1689 	 -5.63603 	 
S 	 -98.1039 	 5.86243 	 -1.34603 	 
C 	 -99.8067 	 5.98598 	 -1.31867 	 
C 	 -100.229 	 7.11514 	 -1.96863 	 
C 	 -99.2013 	 8.017 	 -2.42423 	 
C 	 -97.9379 	 7.45361 	 -2.15767 	 
H 	 -101.288 	 7.39171 	 -1.92639 	 
C 	 -99.454 	 9.37333 	 -3.04768 	 
H 	 -98.5128 	 9.94797 	 -2.88285 	 
H 	 -100.263 	 9.85 	 -2.5453 	 
C 	 -99.6629 	 9.18573 	 -4.56271 	 
H 	 -100.038 	 8.21485 	 -4.82126 	 
H 	 -98.7508 	 9.42422 	 -5.13727 	 
C 	 -100.765 	 10.1641 	 -4.98829 	 
H 	 -101.765 	 10.0961 	 -4.5013 	 
H 	 -100.86 	 9.97858 	 -6.03028 	 
H 	 -100.411 	 11.1984 	 -4.8201 	 
H 	 -93.1723 	 9.11699 	 -2.43826 	 
H 	 -100.484 	 5.17703 	 -1.01813 	 
*
