! wB97X-D3 SP def2-SVP
%pal
nprocs 24
end

* xyz 0 1
S 	 -91.4618 	 14.772 	 -115.607 	 
C 	 -89.7488 	 15.1182 	 -115.631 	 
C 	 -89.0135 	 14.1504 	 -116.336 	 
C 	 -89.8987 	 13.1626 	 -116.924 	 
C 	 -91.2134 	 13.3484 	 -116.663 	 
H 	 -89.6188 	 12.2895 	 -117.563 	 
C 	 -87.5399 	 14.1794 	 -116.447 	 
H 	 -87.2398 	 14.718 	 -117.381 	 
H 	 -87.098 	 13.2009 	 -116.491 	 
C 	 -86.7759 	 14.953 	 -115.302 	 
H 	 -85.6806 	 15.0242 	 -115.503 	 
H 	 -87.0432 	 15.9958 	 -115.302 	 
C 	 -87.0416 	 14.3446 	 -113.903 	 
H 	 -86.2466 	 13.688 	 -113.621 	 
H 	 -87.1409 	 15.24 	 -113.257 	 
H 	 -87.9847 	 13.7886 	 -113.766 	 
S 	 -93.5805 	 12.2376 	 -115.991 	 
C 	 -94.6565 	 11.5608 	 -117.236 	 
C 	 -93.9778 	 11.4849 	 -118.421 	 
C 	 -92.6473 	 12.0056 	 -118.369 	 
C 	 -92.3029 	 12.4727 	 -117.138 	 
H 	 -94.4431 	 11.1043 	 -119.339 	 
C 	 -91.9037 	 12.2302 	 -119.626 	 
H 	 -91.298 	 11.3776 	 -119.85 	 
H 	 -91.1584 	 12.9119 	 -119.333 	 
C 	 -92.6615 	 12.8013 	 -120.827 	 
H 	 -93.1177 	 13.7351 	 -120.555 	 
H 	 -93.4301 	 12.1562 	 -121.241 	 
C 	 -91.7832 	 13.0826 	 -122.028 	 
H 	 -92.4079 	 13.5055 	 -122.794 	 
H 	 -91.4154 	 12.1871 	 -122.486 	 
H 	 -90.9678 	 13.8394 	 -121.912 	 
H 	 -89.2783 	 15.9195 	 -115.139 	 
H 	 -95.7 	 11.2637 	 -117.217 	 
*
