! wB97X-D3 SP def2-SVP
%pal
nprocs 24
end

* xyz 0 1
S 	 -89.2997 	 -47.687 	 -83.1633 	 
C 	 -90.7858 	 -47.4478 	 -82.2683 	 
C 	 -90.5156 	 -47.7953 	 -80.9484 	 
C 	 -89.1523 	 -48.2902 	 -80.7167 	 
C 	 -88.3295 	 -48.2807 	 -81.8049 	 
H 	 -88.8458 	 -48.6018 	 -79.7047 	 
C 	 -91.5192 	 -47.7429 	 -79.908 	 
H 	 -92.3906 	 -47.224 	 -80.2505 	 
H 	 -91.0188 	 -47.0568 	 -79.2309 	 
C 	 -91.8456 	 -49.0749 	 -79.2576 	 
H 	 -92.1238 	 -49.7815 	 -80.0272 	 
H 	 -91.0292 	 -49.4703 	 -78.6969 	 
C 	 -92.9189 	 -48.9496 	 -78.1852 	 
H 	 -93.1196 	 -49.8975 	 -77.7919 	 
H 	 -92.642 	 -48.212 	 -77.4823 	 
H 	 -93.8956 	 -48.5822 	 -78.5356 	 
S 	 -85.8675 	 -47.4069 	 -82.7164 	 
C 	 -84.378 	 -48.1668 	 -81.9287 	 
C 	 -84.7668 	 -49.2599 	 -81.2591 	 
C 	 -86.1409 	 -49.4979 	 -81.2065 	 
C 	 -86.918 	 -48.6019 	 -81.9062 	 
H 	 -84.0443 	 -49.7866 	 -80.6515 	 
C 	 -86.6168 	 -50.6382 	 -80.2699 	 
H 	 -87.1406 	 -50.3216 	 -79.3452 	 
H 	 -85.7339 	 -51.0013 	 -79.7135 	 
C 	 -87.5228 	 -51.6734 	 -80.9743 	 
H 	 -86.9069 	 -52.3013 	 -81.6306 	 
H 	 -88.1423 	 -51.0772 	 -81.5947 	 
C 	 -88.4147 	 -52.4473 	 -79.9831 	 
H 	 -88.0944 	 -53.2134 	 -79.3217 	 
H 	 -89.0906 	 -52.8959 	 -80.6553 	 
H 	 -88.999 	 -51.7572 	 -79.3549 	 
H 	 -91.7335 	 -46.9428 	 -82.5617 	 
H 	 -83.3872 	 -47.7994 	 -82.0832 	 
*
