! wB97X-D3 SP def2-SVP
%pal
nprocs 24
end

* xyz 0 1
S 	 -77.906 	 -5.62407 	 5.48577 	 
C 	 -76.2166 	 -5.16555 	 5.50992 	 
C 	 -75.505 	 -5.93439 	 4.61752 	 
C 	 -76.3041 	 -6.9302 	 3.99081 	 
C 	 -77.6208 	 -7.01298 	 4.46122 	 
H 	 -75.9373 	 -7.65607 	 3.21291 	 
C 	 -74.0368 	 -5.66102 	 4.28405 	 
H 	 -74.0339 	 -4.7084 	 3.85446 	 
H 	 -73.8008 	 -6.45441 	 3.52446 	 
C 	 -73.0826 	 -5.78875 	 5.50566 	 
H 	 -72.1221 	 -5.48455 	 5.17025 	 
H 	 -73.4725 	 -5.00415 	 6.14969 	 
C 	 -73.2342 	 -7.16831 	 6.24546 	 
H 	 -74.213 	 -7.23156 	 6.69366 	 
H 	 -72.9711 	 -8.00949 	 5.59712 	 
H 	 -72.5114 	 -7.15778 	 7.03242 	 
S 	 -80.2958 	 -7.34614 	 3.83721 	 
C 	 -80.8705 	 -8.82685 	 3.11822 	 
C 	 -79.8698 	 -9.75561 	 3.01487 	 
C 	 -78.585 	 -9.26372 	 3.5529 	 
C 	 -78.7069 	 -7.94618 	 4.03724 	 
H 	 -80.083 	 -10.6998 	 2.51043 	 
C 	 -77.3979 	 -10.103 	 3.57385 	 
H 	 -77.7792 	 -11.0394 	 4.04197 	 
H 	 -76.6999 	 -9.68346 	 4.26208 	 
C 	 -76.7251 	 -10.3156 	 2.20311 	 
H 	 -76.3632 	 -9.42536 	 1.65157 	 
H 	 -77.3399 	 -10.9099 	 1.52606 	 
C 	 -75.3976 	 -11.1691 	 2.38499 	 
H 	 -75.6859 	 -12.1044 	 2.82019 	 
H 	 -74.7669 	 -10.6869 	 3.15059 	 
H 	 -74.9197 	 -11.564 	 1.46724 	 
H 	 -75.8354 	 -4.16896 	 5.79058 	 
H 	 -81.9044 	 -9.0588 	 2.85229 	 
*
