! wB97X-D3 SP def2-SVP
%pal
nprocs 24
end

* xyz 0 1
S 	 -99.7673 	 14.7284 	 -124.301 	 
C 	 -101.06 	 15.927 	 -124.171 	 
C 	 -102.347 	 15.3322 	 -123.976 	 
C 	 -102.213 	 14.0039 	 -123.579 	 
C 	 -100.931 	 13.5088 	 -123.693 	 
H 	 -103.08 	 13.3915 	 -123.248 	 
C 	 -103.607 	 16.0335 	 -123.842 	 
H 	 -104.421 	 15.3999 	 -124.085 	 
H 	 -103.667 	 16.7736 	 -124.656 	 
C 	 -103.892 	 16.7666 	 -122.524 	 
H 	 -103.122 	 17.4784 	 -122.215 	 
H 	 -104.718 	 17.4957 	 -122.6 	 
C 	 -104.004 	 15.9285 	 -121.253 	 
H 	 -104.25 	 16.6743 	 -120.432 	 
H 	 -104.846 	 15.2712 	 -121.322 	 
H 	 -103.139 	 15.238 	 -121.059 	 
S 	 -98.9388 	 12.2903 	 -122.339 	 
C 	 -98.7565 	 10.5405 	 -122.348 	 
C 	 -99.8264 	 9.93013 	 -123.014 	 
C 	 -100.772 	 10.8818 	 -123.548 	 
C 	 -100.44 	 12.2252 	 -123.241 	 
H 	 -99.827 	 8.87868 	 -123.252 	 
C 	 -101.996 	 10.4412 	 -124.397 	 
H 	 -101.466 	 9.9226 	 -125.146 	 
H 	 -102.567 	 11.233 	 -124.835 	 
C 	 -103.011 	 9.55788 	 -123.696 	 
H 	 -102.515 	 8.64223 	 -123.457 	 
H 	 -103.885 	 9.42803 	 -124.309 	 
C 	 -103.589 	 10.0555 	 -122.378 	 
H 	 -104.085 	 10.98 	 -122.556 	 
H 	 -102.782 	 10.1711 	 -121.664 	 
H 	 -104.29 	 9.34785 	 -122.008 	 
H 	 -100.926 	 16.9089 	 -124.529 	 
H 	 -97.8716 	 9.96674 	 -121.918 	 
*
