! wB97X-D3 SP def2-SVP
%pal
nprocs 24
end

* xyz 0 1
S 	 -70.2109 	 -40.2433 	 -92.9937 	 
C 	 -69.0182 	 -39.8353 	 -94.1942 	 
C 	 -68.6711 	 -40.9318 	 -94.9974 	 
C 	 -69.2712 	 -42.1223 	 -94.5377 	 
C 	 -70.093 	 -41.9203 	 -93.4402 	 
H 	 -69.1239 	 -43.0775 	 -94.9591 	 
C 	 -67.8556 	 -40.8507 	 -96.2717 	 
H 	 -68.0047 	 -39.8483 	 -96.7312 	 
H 	 -68.4086 	 -41.6102 	 -96.8227 	 
C 	 -66.4319 	 -41.2197 	 -96.0583 	 
H 	 -65.9503 	 -41.22 	 -97.0138 	 
H 	 -65.9372 	 -40.4412 	 -95.5205 	 
C 	 -66.0112 	 -42.6677 	 -95.5085 	 
H 	 -65.0134 	 -42.7879 	 -95.7288 	 
H 	 -66.258 	 -42.73 	 -94.3867 	 
H 	 -66.5137 	 -43.5306 	 -95.9332 	 
S 	 -70.6372 	 -43.0584 	 -91.0945 	 
C 	 -71.9126 	 -44.2559 	 -90.9862 	 
C 	 -72.4525 	 -44.4859 	 -92.2174 	 
C 	 -71.8347 	 -43.8268 	 -93.309 	 
C 	 -70.854 	 -42.9104 	 -92.7771 	 
H 	 -73.2326 	 -45.2307 	 -92.2167 	 
C 	 -72.1937 	 -44.1081 	 -94.7498 	 
H 	 -71.8872 	 -43.1994 	 -95.2542 	 
H 	 -73.2141 	 -44.4024 	 -94.7657 	 
C 	 -71.4349 	 -45.3482 	 -95.3 	 
H 	 -71.8727 	 -46.1924 	 -94.8625 	 
H 	 -70.4232 	 -45.3278 	 -94.8286 	 
C 	 -71.2402 	 -45.5005 	 -96.8397 	 
H 	 -72.2972 	 -45.4315 	 -97.1241 	 
H 	 -70.8723 	 -46.5198 	 -97.189 	 
H 	 -70.5461 	 -44.7745 	 -97.2974 	 
H 	 -68.6134 	 -38.8693 	 -94.3274 	 
H 	 -72.3666 	 -44.6154 	 -90.055 	 
*
