! wB97X-D3 SP def2-SVP
%pal
nprocs 24
end

* xyz 0 1
S 	 -44.4198 	 -4.09084 	 -23.707 	 
C 	 -45.6269 	 -5.18263 	 -24.4165 	 
C 	 -45.0903 	 -5.978 	 -25.4182 	 
C 	 -43.7066 	 -5.67332 	 -25.6274 	 
C 	 -43.1936 	 -4.67284 	 -24.822 	 
H 	 -42.911 	 -6.11444 	 -26.2402 	 
C 	 -45.848 	 -7.00851 	 -26.2349 	 
H 	 -46.3616 	 -7.6147 	 -25.401 	 
H 	 -45.1207 	 -7.62459 	 -26.6896 	 
C 	 -46.9057 	 -6.48065 	 -27.2224 	 
H 	 -47.6298 	 -7.28495 	 -27.5908 	 
H 	 -47.5601 	 -5.81475 	 -26.664 	 
C 	 -46.2001 	 -5.77562 	 -28.4183 	 
H 	 -45.7594 	 -4.86957 	 -27.9984 	 
H 	 -45.4058 	 -6.31232 	 -28.8817 	 
H 	 -46.9422 	 -5.32092 	 -29.1525 	 
S 	 -41.7433 	 -2.36715 	 -24.749 	 
C 	 -40.0289 	 -2.27825 	 -24.7971 	 
C 	 -39.569 	 -3.58639 	 -24.4928 	 
C 	 -40.5704 	 -4.60201 	 -24.6386 	 
C 	 -41.8179 	 -4.11317 	 -24.7682 	 
H 	 -38.5041 	 -3.69075 	 -24.2991 	 
C 	 -40.1761 	 -6.00493 	 -24.7254 	 
H 	 -39.4185 	 -6.18718 	 -25.4344 	 
H 	 -41.022 	 -6.5734 	 -25.1094 	 
C 	 -39.6443 	 -6.68979 	 -23.4771 	 
H 	 -40.0518 	 -6.17071 	 -22.6171 	 
H 	 -38.5269 	 -6.58305 	 -23.3313 	 
C 	 -40.1205 	 -8.15243 	 -23.2951 	 
H 	 -41.1702 	 -8.10013 	 -23.1521 	 
H 	 -39.6761 	 -8.74683 	 -22.4547 	 
H 	 -39.8524 	 -8.8533 	 -24.0805 	 
H 	 -46.5871 	 -5.24331 	 -24.1623 	 
H 	 -39.4657 	 -1.31435 	 -24.6867 	 
*
