! wB97X-D3 SP def2-SVP
%pal
nprocs 24
end

* xyz 0 1
S 	 -109.221 	 3.81638 	 -106.239 	 
C 	 -108.528 	 5.08465 	 -107.277 	 
C 	 -107.21 	 5.32822 	 -107.046 	 
C 	 -106.686 	 4.48217 	 -106.008 	 
C 	 -107.592 	 3.55906 	 -105.606 	 
H 	 -105.674 	 4.45383 	 -105.611 	 
C 	 -106.322 	 6.34862 	 -107.842 	 
H 	 -105.746 	 6.86654 	 -107.086 	 
H 	 -107.028 	 7.14681 	 -108.274 	 
C 	 -105.346 	 5.80931 	 -108.924 	 
H 	 -104.522 	 5.39849 	 -108.406 	 
H 	 -105.741 	 4.98835 	 -109.548 	 
C 	 -104.836 	 6.89744 	 -109.898 	 
H 	 -104.555 	 7.74592 	 -109.305 	 
H 	 -103.991 	 6.46442 	 -110.421 	 
H 	 -105.472 	 7.31656 	 -110.647 	 
S 	 -106.48 	 1.07751 	 -105.19 	 
C 	 -106.383 	 0.418376 	 -103.582 	 
C 	 -107.025 	 1.26548 	 -102.663 	 
C 	 -107.574 	 2.44834 	 -103.287 	 
C 	 -107.371 	 2.48162 	 -104.659 	 
H 	 -106.972 	 0.996709 	 -101.634 	 
C 	 -108.309 	 3.48475 	 -102.495 	 
H 	 -108.277 	 4.43703 	 -103.129 	 
H 	 -107.797 	 3.70819 	 -101.534 	 
C 	 -109.686 	 3.09605 	 -102.038 	 
H 	 -110.278 	 3.91926 	 -101.528 	 
H 	 -109.529 	 2.37051 	 -101.283 	 
C 	 -110.654 	 2.37642 	 -103.089 	 
H 	 -111.606 	 2.26151 	 -102.659 	 
H 	 -110.508 	 1.37419 	 -103.278 	 
H 	 -110.89 	 2.93519 	 -104.048 	 
H 	 -109.017 	 5.56893 	 -108.068 	 
H 	 -105.933 	 -0.509289 	 -103.339 	 
*
