! wB97X-D3 SP def2-SVP
%pal
nprocs 24
end

* xyz 0 1
S 	 -64.2476 	 14.0456 	 -88.3253 	 
C 	 -64.6788 	 14.787 	 -89.7919 	 
C 	 -64.2736 	 16.097 	 -89.8622 	 
C 	 -63.501 	 16.4268 	 -88.6968 	 
C 	 -63.4181 	 15.384 	 -87.817 	 
H 	 -63.0556 	 17.3675 	 -88.5211 	 
C 	 -64.416 	 17.0388 	 -91.0245 	 
H 	 -63.7033 	 16.7109 	 -91.7397 	 
H 	 -63.7604 	 17.8553 	 -90.7843 	 
C 	 -65.8147 	 17.4004 	 -91.5525 	 
H 	 -66.4122 	 17.4133 	 -90.5984 	 
H 	 -65.7742 	 18.4012 	 -92.0002 	 
C 	 -66.392 	 16.4562 	 -92.6309 	 
H 	 -65.8066 	 16.4401 	 -93.5425 	 
H 	 -66.5622 	 15.5141 	 -92.0142 	 
H 	 -67.3608 	 16.7563 	 -92.9247 	 
S 	 -64.3754 	 15.1966 	 -85.3071 	 
C 	 -63.2638 	 15.3369 	 -83.9356 	 
C 	 -62.0009 	 15.6585 	 -84.3321 	 
C 	 -61.812 	 15.5165 	 -85.7658 	 
C 	 -63.068 	 15.4305 	 -86.3769 	 
H 	 -61.2225 	 15.733 	 -83.5667 	 
C 	 -60.4398 	 15.7165 	 -86.3683 	 
H 	 -59.6825 	 16.4327 	 -85.8511 	 
H 	 -60.6748 	 16.2523 	 -87.3358 	 
C 	 -59.6969 	 14.4095 	 -86.6576 	 
H 	 -58.9039 	 14.4405 	 -87.4086 	 
H 	 -60.3708 	 13.7212 	 -87.1628 	 
C 	 -59.1546 	 13.8821 	 -85.3113 	 
H 	 -58.3938 	 14.4975 	 -84.9341 	 
H 	 -58.7788 	 12.8887 	 -85.5501 	 
H 	 -59.9603 	 13.7937 	 -84.6693 	 
H 	 -65.3052 	 14.2451 	 -90.4865 	 
H 	 -63.4647 	 15.135 	 -82.8887 	 
*
