! wB97X-D3 SP def2-SVP
%pal
nprocs 24
end

* xyz 0 1
S 	 2.1228 	 -18.1527 	 -105.186 	 
C 	 3.66844 	 -18.7146 	 -104.699 	 
C 	 4.37913 	 -17.831 	 -103.898 	 
C 	 3.82416 	 -16.5701 	 -103.999 	 
C 	 2.62824 	 -16.497 	 -104.67 	 
H 	 4.17645 	 -15.6453 	 -103.548 	 
C 	 5.70201 	 -18.0413 	 -103.222 	 
H 	 5.53015 	 -18.691 	 -102.389 	 
H 	 5.94376 	 -17.0718 	 -102.814 	 
C 	 6.82553 	 -18.6107 	 -104.154 	 
H 	 6.5998 	 -19.6408 	 -104.309 	 
H 	 6.81219 	 -18.1861 	 -105.15 	 
C 	 8.25199 	 -18.511 	 -103.576 	 
H 	 8.30587 	 -19.0296 	 -102.604 	 
H 	 9.03163 	 -19.0011 	 -104.167 	 
H 	 8.46331 	 -17.4401 	 -103.392 	 
S 	 1.58781 	 -14.5444 	 -106.419 	 
C 	 0.824024 	 -13.191 	 -105.686 	 
C 	 0.905733 	 -13.156 	 -104.296 	 
C 	 1.53617 	 -14.3595 	 -103.789 	 
C 	 1.92339 	 -15.2204 	 -104.819 	 
H 	 0.581163 	 -12.2408 	 -103.783 	 
C 	 1.87947 	 -14.4509 	 -102.304 	 
H 	 2.29345 	 -15.4424 	 -102.074 	 
H 	 1.02567 	 -14.2324 	 -101.565 	 
C 	 2.96999 	 -13.443 	 -102.015 	 
H 	 2.51962 	 -12.4922 	 -102.396 	 
H 	 3.87765 	 -13.5926 	 -102.606 	 
C 	 3.18824 	 -13.2497 	 -100.571 	 
H 	 3.84672 	 -12.3649 	 -100.345 	 
H 	 3.6696 	 -14.1034 	 -100.182 	 
H 	 2.25449 	 -13.109 	 -100.041 	 
H 	 3.79678 	 -19.7897 	 -104.736 	 
H 	 0.415531 	 -12.3152 	 -106.2 	 
*
