! wB97X-D3 SP def2-SVP
%pal
nprocs 24
end

* xyz 0 1
S 	 49.038 	 -36.1914 	 -120.196 	 
C 	 48.2545 	 -35.1179 	 -121.32 	 
C 	 47.9546 	 -33.93 	 -120.749 	 
C 	 48.3625 	 -33.8681 	 -119.395 	 
C 	 48.8921 	 -35.0291 	 -118.903 	 
H 	 48.2071 	 -33.1233 	 -118.698 	 
C 	 47.5384 	 -32.6791 	 -121.479 	 
H 	 48.3117 	 -32.4101 	 -122.172 	 
H 	 47.6592 	 -31.9591 	 -120.709 	 
C 	 46.1227 	 -32.7406 	 -122.059 	 
H 	 46.057 	 -31.7642 	 -122.571 	 
H 	 46.0942 	 -33.6545 	 -122.75 	 
C 	 45.1174 	 -32.9416 	 -120.899 	 
H 	 45.285 	 -33.8188 	 -120.286 	 
H 	 45.3268 	 -32.0155 	 -120.29 	 
H 	 43.9634 	 -32.988 	 -121.21 	 
S 	 50.813 	 -35.0965 	 -116.794 	 
C 	 50.2751 	 -35.5607 	 -115.217 	 
C 	 48.8863 	 -35.6702 	 -115.216 	 
C 	 48.286 	 -35.5708 	 -116.484 	 
C 	 49.2032 	 -35.3713 	 -117.511 	 
H 	 48.3339 	 -35.8237 	 -114.298 	 
C 	 46.7825 	 -35.7149 	 -116.609 	 
H 	 46.4682 	 -36.6964 	 -116.117 	 
H 	 46.5425 	 -35.8269 	 -117.652 	 
C 	 45.8945 	 -34.6461 	 -115.967 	 
H 	 45.9474 	 -34.6221 	 -114.909 	 
H 	 44.86 	 -34.7862 	 -116.173 	 
C 	 46.3747 	 -33.2062 	 -116.295 	 
H 	 47.415 	 -33 	 -115.919 	 
H 	 45.8238 	 -32.4678 	 -115.718 	 
H 	 46.4466 	 -32.9538 	 -117.335 	 
H 	 48.1128 	 -35.2999 	 -122.419 	 
H 	 50.8077 	 -35.5788 	 -114.251 	 
*
