! wB97X-D3 SP def2-SVP
%pal
nprocs 24
end

* xyz 0 1
S 	 -43.5889 	 -1.87717 	 -23.015 	 
C 	 -45.134 	 -2.43355 	 -23.4695 	 
C 	 -45.4497 	 -3.57756 	 -22.7032 	 
C 	 -44.5245 	 -3.89635 	 -21.7435 	 
C 	 -43.4036 	 -3.06769 	 -21.7368 	 
H 	 -44.6047 	 -4.77691 	 -21.0966 	 
C 	 -46.7428 	 -4.43728 	 -22.8544 	 
H 	 -47.5888 	 -3.72768 	 -23.1006 	 
H 	 -47.0448 	 -4.82146 	 -21.8534 	 
C 	 -46.64 	 -5.56578 	 -23.9253 	 
H 	 -47.5785 	 -6.14594 	 -24.0007 	 
H 	 -46.3672 	 -5.17177 	 -24.913 	 
C 	 -45.6285 	 -6.692 	 -23.5078 	 
H 	 -45.7449 	 -6.95464 	 -22.503 	 
H 	 -45.77 	 -7.58693 	 -24.1346 	 
H 	 -44.5916 	 -6.31542 	 -23.6696 	 
S 	 -40.6623 	 -3.24142 	 -21.9282 	 
C 	 -39.7807 	 -4.03966 	 -20.6361 	 
C 	 -40.5973 	 -4.29477 	 -19.5308 	 
C 	 -41.973 	 -3.8556 	 -19.7589 	 
C 	 -42.1509 	 -3.27337 	 -21.011 	 
H 	 -40.1345 	 -4.77675 	 -18.6091 	 
C 	 -43.0232 	 -4.12392 	 -18.6786 	 
H 	 -43.7565 	 -4.82528 	 -19.1592 	 
H 	 -43.5753 	 -3.2351 	 -18.5052 	 
C 	 -42.6345 	 -4.73714 	 -17.2862 	 
H 	 -42.0818 	 -4.03357 	 -16.6829 	 
H 	 -42.1249 	 -5.62107 	 -17.3637 	 
C 	 -43.9759 	 -5.02939 	 -16.479 	 
H 	 -44.5791 	 -4.15909 	 -16.2813 	 
H 	 -43.7714 	 -5.57558 	 -15.6235 	 
H 	 -44.6381 	 -5.67409 	 -17.0027 	 
H 	 -45.7806 	 -2.08859 	 -24.2957 	 
H 	 -38.7401 	 -4.03405 	 -20.5706 	 
*
