! wB97X-D3 SP def2-SVP
%pal
nprocs 24
end

* xyz 0 1
S 	 -56.0279 	 19.4789 	 24.6123 	 
C 	 -56.6949 	 18.8199 	 26.0855 	 
C 	 -57.5558 	 17.7489 	 25.7012 	 
C 	 -57.6001 	 17.4981 	 24.2838 	 
C 	 -56.7212 	 18.2851 	 23.6037 	 
H 	 -58.1318 	 16.823 	 23.6761 	 
C 	 -58.307 	 16.8348 	 26.6458 	 
H 	 -59.2385 	 16.544 	 26.196 	 
H 	 -58.5961 	 17.3766 	 27.5857 	 
C 	 -57.5812 	 15.506 	 27.0034 	 
H 	 -57.4297 	 15.0017 	 26.0417 	 
H 	 -56.6112 	 15.7565 	 27.4614 	 
C 	 -58.3793 	 14.6996 	 28.0213 	 
H 	 -58.0215 	 13.6959 	 28.0676 	 
H 	 -58.1822 	 15.0763 	 29.0409 	 
H 	 -59.4738 	 14.7518 	 27.9427 	 
S 	 -56.7137 	 19.6669 	 21.2801 	 
C 	 -56.233 	 18.84 	 19.7465 	 
C 	 -56.0843 	 17.4939 	 19.913 	 
C 	 -56.3027 	 17.0837 	 21.2856 	 
C 	 -56.4616 	 18.1705 	 22.1476 	 
H 	 -56.0157 	 16.921 	 18.9688 	 
C 	 -56.2329 	 15.5458 	 21.6888 	 
H 	 -56.6757 	 14.8697 	 20.9511 	 
H 	 -56.9149 	 15.3322 	 22.4863 	 
C 	 -54.741 	 15.1191 	 22.1164 	 
H 	 -53.9494 	 15.5334 	 21.5176 	 
H 	 -54.5034 	 14.1211 	 21.8899 	 
C 	 -54.5913 	 15.4662 	 23.597 	 
H 	 -53.5772 	 15.3024 	 23.996 	 
H 	 -55.2643 	 14.8073 	 24.1955 	 
H 	 -54.7623 	 16.5355 	 23.891 	 
H 	 -56.6088 	 19.2051 	 27.0954 	 
H 	 -56.1239 	 19.409 	 18.8314 	 
*
