! wB97X-D3 SP def2-SVP
%pal
nprocs 24
end

* xyz 0 1
S 	 -1.23619 	 -27.1874 	 -116.299 	 
C 	 -0.520085 	 -25.5854 	 -116.231 	 
C 	 -1.25291 	 -24.7124 	 -115.412 	 
C 	 -2.37048 	 -25.345 	 -114.811 	 
C 	 -2.53459 	 -26.677 	 -115.184 	 
H 	 -3.07013 	 -24.9466 	 -114.092 	 
C 	 -1.19535 	 -23.1833 	 -115.276 	 
H 	 -0.240775 	 -22.8758 	 -114.79 	 
H 	 -1.99303 	 -22.9213 	 -114.543 	 
C 	 -1.36802 	 -22.4435 	 -116.62 	 
H 	 -1.39627 	 -21.4 	 -116.509 	 
H 	 -0.376326 	 -22.6103 	 -117.07 	 
C 	 -2.48012 	 -23.0644 	 -117.568 	 
H 	 -3.44601 	 -22.9157 	 -117.09 	 
H 	 -2.49076 	 -22.5068 	 -118.474 	 
H 	 -2.43135 	 -24.1105 	 -117.785 	 
S 	 -3.00456 	 -29.1311 	 -114.204 	 
C 	 -4.59727 	 -29.6877 	 -113.82 	 
C 	 -5.49808 	 -28.6284 	 -113.871 	 
C 	 -4.95916 	 -27.492 	 -114.464 	 
C 	 -3.61865 	 -27.6614 	 -114.701 	 
H 	 -6.45381 	 -28.9243 	 -113.665 	 
C 	 -5.82605 	 -26.2052 	 -114.664 	 
H 	 -5.24616 	 -25.3356 	 -114.495 	 
H 	 -6.57469 	 -26.0961 	 -113.825 	 
C 	 -6.59759 	 -26.0969 	 -116.034 	 
H 	 -7.20836 	 -25.1961 	 -115.929 	 
H 	 -7.32587 	 -26.9033 	 -116.125 	 
C 	 -5.5013 	 -25.974 	 -117.163 	 
H 	 -4.87615 	 -26.8859 	 -117.146 	 
H 	 -4.90036 	 -25.0977 	 -116.972 	 
H 	 -5.87284 	 -25.9421 	 -118.138 	 
H 	 0.330222 	 -25.2648 	 -116.816 	 
H 	 -4.9095 	 -30.6871 	 -113.452 	 
*
