! wB97X-D3 SP def2-SVP
%pal
nprocs 24
end

* xyz 0 1
S 	 32.8542 	 2.09092 	 -115.809 	 
C 	 32.5981 	 3.64711 	 -116.513 	 
C 	 31.5749 	 4.34768 	 -115.865 	 
C 	 30.9051 	 3.55571 	 -114.87 	 
C 	 31.5712 	 2.36379 	 -114.663 	 
H 	 29.91 	 3.77854 	 -114.322 	 
C 	 30.9735 	 5.65646 	 -116.33 	 
H 	 31.705 	 6.47011 	 -116.523 	 
H 	 30.3321 	 6.00578 	 -115.549 	 
C 	 30.0788 	 5.49441 	 -117.606 	 
H 	 30.6097 	 5.32942 	 -118.563 	 
H 	 29.5191 	 4.60204 	 -117.39 	 
C 	 29.0321 	 6.58993 	 -117.863 	 
H 	 28.1716 	 6.23935 	 -118.449 	 
H 	 28.5536 	 6.88733 	 -116.89 	 
H 	 29.5539 	 7.38116 	 -118.411 	 
S 	 30.5798 	 -0.308275 	 -114.799 	 
C 	 30.1069 	 -1.08997 	 -113.321 	 
C 	 30.2246 	 -0.203729 	 -112.222 	 
C 	 30.8304 	 1.04406 	 -112.557 	 
C 	 31.0837 	 1.19613 	 -113.917 	 
H 	 29.8286 	 -0.516882 	 -111.263 	 
C 	 30.9538 	 2.18106 	 -111.518 	 
H 	 29.9177 	 2.72098 	 -111.541 	 
H 	 31.749 	 2.92145 	 -111.81 	 
C 	 31.2579 	 1.74858 	 -110.077 	 
H 	 30.4203 	 1.07467 	 -109.782 	 
H 	 31.1938 	 2.67064 	 -109.511 	 
C 	 32.6205 	 1.04691 	 -109.986 	 
H 	 33.4093 	 1.80087 	 -110.069 	 
H 	 32.8274 	 0.199001 	 -110.612 	 
H 	 32.7498 	 0.830298 	 -108.923 	 
H 	 33.177 	 4.13055 	 -117.266 	 
H 	 29.6169 	 -2.02393 	 -113.157 	 
*
