! wB97X-D3 SP def2-SVP
%pal
nprocs 24
end

* xyz 0 1
S 	 -123.145 	 34.1867 	 -114.37 	 
C 	 -121.611 	 33.596 	 -114.71 	 
C 	 -120.87 	 33.5093 	 -113.577 	 
C 	 -121.652 	 33.7353 	 -112.369 	 
C 	 -122.964 	 33.9742 	 -112.67 	 
H 	 -121.291 	 33.7894 	 -111.315 	 
C 	 -119.398 	 33.2319 	 -113.586 	 
H 	 -119.103 	 33.4953 	 -112.6 	 
H 	 -118.886 	 34.035 	 -114.105 	 
C 	 -118.856 	 31.8839 	 -113.886 	 
H 	 -119.143 	 31.8675 	 -114.977 	 
H 	 -117.805 	 31.8774 	 -113.855 	 
C 	 -119.358 	 30.7809 	 -112.987 	 
H 	 -118.796 	 30.7306 	 -112.075 	 
H 	 -120.422 	 30.8294 	 -112.706 	 
H 	 -119.145 	 29.8271 	 -113.474 	 
S 	 -125.613 	 33.3445 	 -112.578 	 
C 	 -126.578 	 33.7129 	 -111.177 	 
C 	 -125.846 	 34.361 	 -110.191 	 
C 	 -124.472 	 34.4966 	 -110.531 	 
C 	 -124.165 	 33.9982 	 -111.794 	 
H 	 -126.336 	 34.5763 	 -109.261 	 
C 	 -123.522 	 34.956 	 -109.499 	 
H 	 -123.849 	 35.8107 	 -109.012 	 
H 	 -122.686 	 35.2642 	 -110.045 	 
C 	 -123.159 	 33.7173 	 -108.621 	 
H 	 -122.128 	 33.8688 	 -108.282 	 
H 	 -123.291 	 32.8073 	 -109.202 	 
C 	 -124.085 	 33.6246 	 -107.407 	 
H 	 -123.906 	 32.6683 	 -106.818 	 
H 	 -125.126 	 33.7428 	 -107.626 	 
H 	 -123.805 	 34.4718 	 -106.66 	 
H 	 -121.097 	 33.6277 	 -115.698 	 
H 	 -127.658 	 33.444 	 -111.083 	 
*
