! wB97X-D3 SP def2-SVP
%pal
nprocs 24
end

* xyz 0 1
S 	 -146.868 	 7.40388 	 7.8601 	 
C 	 -147.26 	 8.93335 	 7.07481 	 
C 	 -147.785 	 9.8653 	 8.03048 	 
C 	 -147.796 	 9.31311 	 9.32184 	 
C 	 -147.098 	 8.13786 	 9.50179 	 
H 	 -148.188 	 9.84593 	 10.2055 	 
C 	 -148.408 	 11.1829 	 7.76072 	 
H 	 -148.275 	 11.7467 	 8.64656 	 
H 	 -149.529 	 11.002 	 7.66607 	 
C 	 -147.807 	 12.0464 	 6.63916 	 
H 	 -146.717 	 12.1576 	 6.74941 	 
H 	 -148.034 	 11.5772 	 5.67857 	 
C 	 -148.237 	 13.5291 	 6.45669 	 
H 	 -147.751 	 14.1409 	 7.15947 	 
H 	 -148.017 	 13.9192 	 5.45721 	 
H 	 -149.313 	 13.5852 	 6.58246 	 
S 	 -147.447 	 5.73726 	 10.9289 	 
C 	 -146.831 	 5.5878 	 12.5086 	 
C 	 -146.445 	 6.8143 	 12.9778 	 
C 	 -146.545 	 7.85696 	 12.0717 	 
C 	 -146.915 	 7.38839 	 10.7764 	 
H 	 -146.234 	 6.92452 	 14.0061 	 
C 	 -146.091 	 9.19057 	 12.448 	 
H 	 -145.916 	 9.75935 	 11.5967 	 
H 	 -145.098 	 9.26266 	 13.03 	 
C 	 -147.099 	 9.93679 	 13.3498 	 
H 	 -146.944 	 9.68111 	 14.4026 	 
H 	 -148.079 	 9.58317 	 13.2659 	 
C 	 -146.984 	 11.4938 	 13.2405 	 
H 	 -147.758 	 12.0042 	 13.8717 	 
H 	 -147.212 	 11.8388 	 12.2625 	 
H 	 -146.062 	 11.9656 	 13.5262 	 
H 	 -147.005 	 9.1386 	 6.02962 	 
H 	 -146.861 	 4.71852 	 13.1436 	 
*
