! wB97X-D3 SP def2-SVP
%pal
nprocs 24
end

* xyz 0 1
S 	 -114.982 	 56.2586 	 -77.657 	 
C 	 -116.332 	 57.3319 	 -77.7801 	 
C 	 -116.423 	 57.8583 	 -79.0998 	 
C 	 -115.348 	 57.4455 	 -79.9091 	 
C 	 -114.426 	 56.6333 	 -79.2804 	 
H 	 -115.072 	 57.6813 	 -80.8993 	 
C 	 -117.428 	 58.8876 	 -79.4868 	 
H 	 -118.289 	 58.6094 	 -78.9042 	 
H 	 -117.804 	 58.7613 	 -80.5053 	 
C 	 -117.067 	 60.3752 	 -79.1875 	 
H 	 -117.83 	 61.1168 	 -79.4643 	 
H 	 -116.783 	 60.5014 	 -78.1172 	 
C 	 -115.919 	 60.876 	 -80.0029 	 
H 	 -115.58 	 61.9203 	 -79.6848 	 
H 	 -115.109 	 60.1323 	 -80.0423 	 
H 	 -116.253 	 60.9261 	 -81.0607 	 
S 	 -113.062 	 54.5565 	 -80.6759 	 
C 	 -111.333 	 54.7735 	 -81.028 	 
C 	 -110.86 	 55.9839 	 -80.474 	 
C 	 -111.862 	 56.7397 	 -79.7965 	 
C 	 -113.134 	 56.1634 	 -79.8119 	 
H 	 -109.811 	 56.1373 	 -80.617 	 
C 	 -111.549 	 58.1405 	 -79.1842 	 
H 	 -112.458 	 58.7528 	 -79.2611 	 
H 	 -110.9 	 58.5661 	 -79.9594 	 
C 	 -110.671 	 58.2178 	 -77.8956 	 
H 	 -110.002 	 57.45 	 -77.9413 	 
H 	 -111.303 	 57.9304 	 -77.0673 	 
C 	 -109.981 	 59.5915 	 -77.5175 	 
H 	 -109.528 	 60.1055 	 -78.3586 	 
H 	 -109.274 	 59.5209 	 -76.6805 	 
H 	 -110.776 	 60.2864 	 -77.1677 	 
H 	 -117.021 	 57.7019 	 -76.9793 	 
H 	 -110.738 	 54.0304 	 -81.4728 	 
*
