! wB97X-D3 SP def2-SVP
%pal
nprocs 24
end

* xyz 0 1
S 	 -50.7294 	 -45.6416 	 -76.8915 	 
C 	 -51.3464 	 -44.6965 	 -75.5131 	 
C 	 -52.5826 	 -44.0992 	 -75.798 	 
C 	 -53.0138 	 -44.3057 	 -77.1754 	 
C 	 -52.0014 	 -44.8727 	 -77.9198 	 
H 	 -53.9181 	 -44.0434 	 -77.5676 	 
C 	 -53.4076 	 -43.456 	 -74.7011 	 
H 	 -54.0335 	 -42.7301 	 -75.1582 	 
H 	 -52.7419 	 -42.9689 	 -74.0147 	 
C 	 -54.2506 	 -44.3393 	 -73.8771 	 
H 	 -54.855 	 -44.8412 	 -74.5958 	 
H 	 -53.617 	 -44.9564 	 -73.2908 	 
C 	 -55.2883 	 -43.6909 	 -72.9548 	 
H 	 -55.9584 	 -43.0964 	 -73.5744 	 
H 	 -55.702 	 -44.4976 	 -72.3065 	 
H 	 -54.8357 	 -43.037 	 -72.2752 	 
S 	 -52.304 	 -46.973 	 -79.6622 	 
C 	 -52.2774 	 -46.618 	 -81.3669 	 
C 	 -52.1735 	 -45.256 	 -81.648 	 
C 	 -52.0452 	 -44.5196 	 -80.4391 	 
C 	 -52.0639 	 -45.2964 	 -79.2813 	 
H 	 -52.1505 	 -44.9394 	 -82.6535 	 
C 	 -51.7974 	 -43.0271 	 -80.5025 	 
H 	 -52.6028 	 -42.6357 	 -79.9718 	 
H 	 -51.8758 	 -42.5737 	 -81.5043 	 
C 	 -50.4516 	 -42.4238 	 -79.9285 	 
H 	 -50.5986 	 -42.3641 	 -78.8706 	 
H 	 -50.4289 	 -41.3579 	 -80.3057 	 
C 	 -49.1238 	 -43.1636 	 -80.3157 	 
H 	 -48.9577 	 -43.0933 	 -81.4187 	 
H 	 -49.2243 	 -44.2326 	 -80.1863 	 
H 	 -48.1984 	 -42.7706 	 -79.8392 	 
H 	 -50.9489 	 -44.8186 	 -74.4667 	 
H 	 -52.551 	 -47.2702 	 -82.1227 	 
*
