! wB97X-D3 SP def2-SVP
%pal
nprocs 24
end

* xyz 0 1
S 	 -142.203 	 10.3124 	 -3.12519 	 
C 	 -142.749 	 11.754 	 -3.89569 	 
C 	 -141.923 	 12.0353 	 -4.97673 	 
C 	 -140.855 	 11.1119 	 -5.21655 	 
C 	 -140.863 	 10.0817 	 -4.26027 	 
H 	 -140.051 	 11.1372 	 -5.95264 	 
C 	 -142.149 	 13.2272 	 -5.93093 	 
H 	 -141.21 	 13.7595 	 -6.04289 	 
H 	 -142.72 	 14.0868 	 -5.56369 	 
C 	 -142.752 	 12.8164 	 -7.23838 	 
H 	 -142.083 	 12.0803 	 -7.75096 	 
H 	 -143.694 	 12.3145 	 -6.96859 	 
C 	 -143.139 	 13.9463 	 -8.14608 	 
H 	 -142.249 	 14.4371 	 -8.53897 	 
H 	 -143.868 	 13.7982 	 -8.93149 	 
H 	 -143.707 	 14.7036 	 -7.56306 	 
S 	 -138.316 	 9.23768 	 -3.77768 	 
C 	 -137.991 	 7.51095 	 -3.82846 	 
C 	 -139.087 	 6.80027 	 -4.09547 	 
C 	 -140.246 	 7.6053 	 -4.35416 	 
C 	 -139.984 	 8.97802 	 -4.22915 	 
H 	 -138.954 	 5.78263 	 -3.97297 	 
C 	 -141.544 	 6.9992 	 -4.64259 	 
H 	 -141.432 	 6.3612 	 -5.55093 	 
H 	 -142.207 	 7.76151 	 -4.95872 	 
C 	 -142.153 	 6.1446 	 -3.53533 	 
H 	 -142.015 	 6.58898 	 -2.58969 	 
H 	 -141.534 	 5.21047 	 -3.49018 	 
C 	 -143.623 	 5.92656 	 -3.88801 	 
H 	 -143.767 	 5.66781 	 -4.97943 	 
H 	 -144.267 	 6.75714 	 -3.56692 	 
H 	 -143.911 	 5.0823 	 -3.2277 	 
H 	 -143.637 	 12.2606 	 -3.64564 	 
H 	 -137.033 	 7.10612 	 -3.60647 	 
*
