! wB97X-D3 SP def2-SVP
%pal
nprocs 24
end

* xyz 0 1
S 	 -89.0423 	 -6.96631 	 -117.305 	 
C 	 -90.5802 	 -7.71682 	 -117.525 	 
C 	 -91.5402 	 -6.90653 	 -118.019 	 
C 	 -90.9656 	 -5.67496 	 -118.505 	 
C 	 -89.6351 	 -5.56006 	 -118.152 	 
H 	 -91.4489 	 -4.86257 	 -118.977 	 
C 	 -92.9443 	 -7.26043 	 -118.327 	 
H 	 -93.0776 	 -8.35461 	 -118.163 	 
H 	 -93.0935 	 -6.90339 	 -119.361 	 
C 	 -94.0166 	 -6.50612 	 -117.499 	 
H 	 -93.7949 	 -5.46092 	 -117.627 	 
H 	 -95.0101 	 -6.67218 	 -118.007 	 
C 	 -94.1274 	 -6.69559 	 -115.971 	 
H 	 -94.3036 	 -7.73156 	 -115.778 	 
H 	 -93.1096 	 -6.33646 	 -115.599 	 
H 	 -94.9507 	 -6.20891 	 -115.426 	 
S 	 -87.4374 	 -5.07281 	 -119.603 	 
C 	 -87.0762 	 -3.42168 	 -120.047 	 
C 	 -87.5785 	 -2.53939 	 -119.153 	 
C 	 -88.6387 	 -3.12645 	 -118.321 	 
C 	 -88.7338 	 -4.4869 	 -118.58 	 
H 	 -87.2785 	 -1.51471 	 -119.115 	 
C 	 -89.4904 	 -2.36396 	 -117.318 	 
H 	 -90.4841 	 -2.67178 	 -117.439 	 
H 	 -89.4744 	 -1.32643 	 -117.401 	 
C 	 -89.1483 	 -2.52291 	 -115.785 	 
H 	 -89.3091 	 -3.60897 	 -115.629 	 
H 	 -89.8397 	 -1.97319 	 -115.145 	 
C 	 -87.7409 	 -2.28794 	 -115.419 	 
H 	 -87.0192 	 -2.90655 	 -116.046 	 
H 	 -87.3825 	 -2.36556 	 -114.377 	 
H 	 -87.5811 	 -1.25904 	 -115.654 	 
H 	 -90.7555 	 -8.63485 	 -116.915 	 
H 	 -86.3277 	 -3.30391 	 -120.788 	 
*
