! wB97X-D3 SP def2-SVP
%pal
nprocs 24
end

* xyz 0 1
S 	 -85.0576 	 -46.1517 	 -71.0904 	 
C 	 -84.5352 	 -45.8093 	 -69.5066 	 
C 	 -85.6007 	 -45.7752 	 -68.6146 	 
C 	 -86.8381 	 -46.0135 	 -69.2629 	 
C 	 -86.7157 	 -46.1161 	 -70.6473 	 
H 	 -87.7699 	 -46.0277 	 -68.8463 	 
C 	 -85.3243 	 -45.5697 	 -67.1554 	 
H 	 -84.6578 	 -44.6908 	 -67.2054 	 
H 	 -84.6669 	 -46.2899 	 -66.8156 	 
C 	 -86.3762 	 -45.334 	 -66.0934 	 
H 	 -85.7384 	 -45.0662 	 -65.2353 	 
H 	 -86.9871 	 -44.4621 	 -66.3987 	 
C 	 -87.3112 	 -46.4198 	 -65.7252 	 
H 	 -88.0431 	 -46.2727 	 -66.4898 	 
H 	 -86.8357 	 -47.4097 	 -65.8881 	 
H 	 -87.7719 	 -46.258 	 -64.7419 	 
S 	 -88.0824 	 -44.5677 	 -72.393 	 
C 	 -89.4833 	 -45.1928 	 -73.2689 	 
C 	 -89.7046 	 -46.5216 	 -72.8708 	 
C 	 -88.7537 	 -47.0068 	 -71.8964 	 
C 	 -87.7542 	 -46.0823 	 -71.5837 	 
H 	 -90.4037 	 -47.1629 	 -73.4336 	 
C 	 -88.7262 	 -48.4692 	 -71.3585 	 
H 	 -89.6996 	 -48.8798 	 -71.3469 	 
H 	 -88.4756 	 -48.5945 	 -70.3263 	 
C 	 -87.7564 	 -49.378 	 -72.1446 	 
H 	 -87.8588 	 -50.423 	 -71.8391 	 
H 	 -86.7215 	 -49.0532 	 -71.8948 	 
C 	 -87.9716 	 -49.3149 	 -73.6479 	 
H 	 -87.9216 	 -48.3107 	 -74.0826 	 
H 	 -88.9199 	 -49.7689 	 -73.9323 	 
H 	 -87.1589 	 -49.9434 	 -74.1112 	 
H 	 -83.4873 	 -45.7017 	 -69.184 	 
H 	 -89.9552 	 -44.844 	 -74.1899 	 
*
