! wB97X-D3 SP def2-SVP
%pal
nprocs 24
end

* xyz 0 1
S 	 46.0514 	 -15.7434 	 -107.908 	 
C 	 46.1923 	 -17.0169 	 -109.14 	 
C 	 46.6425 	 -16.534 	 -110.34 	 
C 	 47.0156 	 -15.1733 	 -110.182 	 
C 	 46.917 	 -14.6066 	 -108.912 	 
H 	 47.3688 	 -14.5085 	 -110.993 	 
C 	 46.7231 	 -17.267 	 -111.673 	 
H 	 46.4564 	 -18.3571 	 -111.659 	 
H 	 47.7666 	 -17.0665 	 -111.86 	 
C 	 45.9358 	 -16.6273 	 -112.832 	 
H 	 44.8854 	 -16.4986 	 -112.591 	 
H 	 46.2564 	 -15.5542 	 -112.908 	 
C 	 46.3329 	 -17.2997 	 -114.113 	 
H 	 45.9988 	 -18.3055 	 -114.213 	 
H 	 45.8609 	 -16.8232 	 -115.009 	 
H 	 47.4393 	 -17.338 	 -114.199 	 
S 	 46.1992 	 -12.4938 	 -107.132 	 
C 	 47.0044 	 -10.9442 	 -107.376 	 
C 	 47.9927 	 -10.9678 	 -108.358 	 
C 	 47.9967 	 -12.2659 	 -109.023 	 
C 	 47.2265 	 -13.2474 	 -108.419 	 
H 	 48.4905 	 -10.0047 	 -108.485 	 
C 	 48.9328 	 -12.4362 	 -110.225 	 
H 	 49.1929 	 -13.4664 	 -110.411 	 
H 	 49.8728 	 -11.9951 	 -110.045 	 
C 	 48.4643 	 -11.8593 	 -111.63 	 
H 	 47.4493 	 -12.1002 	 -111.758 	 
H 	 49.0036 	 -12.2534 	 -112.442 	 
C 	 48.4649 	 -10.3269 	 -111.73 	 
H 	 47.6374 	 -9.94477 	 -111.089 	 
H 	 48.5697 	 -9.94796 	 -112.739 	 
H 	 49.3847 	 -10.0919 	 -111.277 	 
H 	 45.6801 	 -17.9967 	 -109.147 	 
H 	 46.6989 	 -10.0656 	 -106.9 	 
*
