! wB97X-D3 SP def2-SVP
%pal
nprocs 24
end

* xyz 0 1
S 	 18.7135 	 -6.63689 	 -117.472 	 
C 	 18.2846 	 -7.58822 	 -116.071 	 
C 	 17.0897 	 -7.23853 	 -115.464 	 
C 	 16.3926 	 -6.33029 	 -116.32 	 
C 	 17.085 	 -5.91806 	 -117.485 	 
H 	 15.3644 	 -5.95815 	 -116.066 	 
C 	 16.51 	 -7.82561 	 -114.188 	 
H 	 17.1865 	 -8.56167 	 -113.797 	 
H 	 15.6197 	 -8.35285 	 -114.493 	 
C 	 16.2659 	 -6.83645 	 -113.022 	 
H 	 15.506 	 -6.06596 	 -113.234 	 
H 	 15.8246 	 -7.42047 	 -112.138 	 
C 	 17.5597 	 -6.12622 	 -112.552 	 
H 	 18.3691 	 -6.77757 	 -112.177 	 
H 	 17.8734 	 -5.45622 	 -113.351 	 
H 	 17.3885 	 -5.35049 	 -111.793 	 
S 	 18.0987 	 -3.57416 	 -118.335 	 
C 	 16.9605 	 -2.39687 	 -119.003 	 
C 	 15.7789 	 -2.93059 	 -119.353 	 
C 	 15.6599 	 -4.24682 	 -118.836 	 
C 	 16.8183 	 -4.74495 	 -118.269 	 
H 	 15.1058 	 -2.24855 	 -119.827 	 
C 	 14.3385 	 -4.9869 	 -119.025 	 
H 	 13.6102 	 -4.34117 	 -119.37 	 
H 	 13.9501 	 -5.40706 	 -118.004 	 
C 	 14.5316 	 -6.10562 	 -119.984 	 
H 	 14.9123 	 -6.93337 	 -119.464 	 
H 	 15.152 	 -5.92936 	 -120.842 	 
C 	 13.1452 	 -6.55887 	 -120.559 	 
H 	 13.1737 	 -7.45538 	 -121.27 	 
H 	 12.5948 	 -5.70857 	 -120.942 	 
H 	 12.5479 	 -6.86041 	 -119.656 	 
H 	 18.9937 	 -8.25104 	 -115.621 	 
H 	 17.2288 	 -1.40929 	 -119.314 	 
*
