! wB97X-D3 SP def2-SVP
%pal
nprocs 24
end

* xyz 0 1
S 	 -145.605 	 29.3343 	 -15.7959 	 
C 	 -144.314 	 28.5548 	 -16.6604 	 
C 	 -144.209 	 27.2431 	 -16.2918 	 
C 	 -145.097 	 26.8987 	 -15.231 	 
C 	 -145.877 	 27.9272 	 -14.8308 	 
H 	 -145.223 	 25.9939 	 -14.6158 	 
C 	 -143.153 	 26.3313 	 -16.8644 	 
H 	 -142.595 	 25.9523 	 -15.9489 	 
H 	 -142.469 	 26.9846 	 -17.4735 	 
C 	 -143.699 	 25.2689 	 -17.8102 	 
H 	 -144.424 	 24.7262 	 -17.2747 	 
H 	 -144.124 	 25.6934 	 -18.6627 	 
C 	 -142.547 	 24.3642 	 -18.2732 	 
H 	 -142.948 	 23.3889 	 -18.6474 	 
H 	 -141.954 	 24.7451 	 -19.1043 	 
H 	 -141.897 	 24.0138 	 -17.4528 	 
S 	 -148.662 	 28.146 	 -14.1534 	 
C 	 -148.963 	 28.2584 	 -12.4714 	 
C 	 -147.902 	 28.1089 	 -11.6395 	 
C 	 -146.715 	 27.9753 	 -12.3967 	 
C 	 -146.947 	 27.9882 	 -13.7785 	 
H 	 -147.923 	 28.2838 	 -10.5711 	 
C 	 -145.387 	 27.9888 	 -11.7066 	 
H 	 -144.6 	 28.0029 	 -12.4723 	 
H 	 -145.314 	 27.0037 	 -11.1745 	 
C 	 -145.145 	 29.1933 	 -10.796 	 
H 	 -144.087 	 29.2019 	 -10.4354 	 
H 	 -145.779 	 29.0505 	 -9.90463 	 
C 	 -145.537 	 30.4995 	 -11.5679 	 
H 	 -144.789 	 30.703 	 -12.3927 	 
H 	 -145.388 	 31.343 	 -10.9464 	 
H 	 -146.595 	 30.5323 	 -11.9207 	 
H 	 -143.748 	 29.1393 	 -17.3926 	 
H 	 -149.916 	 28.6105 	 -12.0621 	 
*
