! wB97X-D3 SP def2-SVP
%pal
nprocs 24
end

* xyz 0 1
S 	 -40.7756 	 0.182624 	 -7.79883 	 
C 	 -40.2662 	 0.786164 	 -6.19821 	 
C 	 -41.2832 	 1.60903 	 -5.70926 	 
C 	 -42.4993 	 1.55932 	 -6.52265 	 
C 	 -42.3474 	 0.8775 	 -7.67105 	 
H 	 -43.3909 	 2.11178 	 -6.47156 	 
C 	 -41.264 	 2.27038 	 -4.3496 	 
H 	 -40.8779 	 1.53811 	 -3.63281 	 
H 	 -42.3092 	 2.47356 	 -4.09279 	 
C 	 -40.3786 	 3.50469 	 -4.22572 	 
H 	 -39.3733 	 3.14815 	 -4.34711 	 
H 	 -40.4308 	 4.18141 	 -5.06311 	 
C 	 -40.5201 	 4.15413 	 -2.8342 	 
H 	 -40.8458 	 3.41085 	 -2.11574 	 
H 	 -39.5811 	 4.58801 	 -2.57415 	 
H 	 -41.3511 	 4.84322 	 -2.87094 	 
S 	 -42.4391 	 0.578909 	 -10.4649 	 
C 	 -44.0795 	 0.316308 	 -11.1116 	 
C 	 -45.0305 	 0.455959 	 -10.209 	 
C 	 -44.6001 	 0.664449 	 -8.90566 	 
C 	 -43.2191 	 0.865072 	 -8.83393 	 
H 	 -46.1312 	 0.389283 	 -10.3967 	 
C 	 -45.6408 	 0.518124 	 -7.76992 	 
H 	 -45.0383 	 0.375893 	 -6.88547 	 
H 	 -46.1778 	 -0.458569 	 -7.90566 	 
C 	 -46.5882 	 1.67446 	 -7.78155 	 
H 	 -47.1979 	 1.67721 	 -8.6978 	 
H 	 -46.2097 	 2.73569 	 -7.94931 	 
C 	 -47.6185 	 1.58309 	 -6.67891 	 
H 	 -47.4853 	 0.719431 	 -6.03313 	 
H 	 -48.5932 	 1.67304 	 -6.99409 	 
H 	 -47.4952 	 2.44945 	 -6.09731 	 
H 	 -39.3758 	 0.675266 	 -5.62215 	 
H 	 -44.2592 	 0.175519 	 -12.1867 	 
*
