! wB97X-D3 SP def2-SVP
%pal
nprocs 24
end

* xyz 0 1
S 	 -45.0236 	 8.66942 	 -24.5899 	 
C 	 -45.914 	 7.62885 	 -23.5797 	 
C 	 -46.9962 	 8.28646 	 -23.0008 	 
C 	 -47.0096 	 9.67894 	 -23.2873 	 
C 	 -45.9449 	 10.0456 	 -24.0966 	 
H 	 -47.6637 	 10.3807 	 -22.8387 	 
C 	 -48.1114 	 7.5979 	 -22.1837 	 
H 	 -47.6466 	 6.90452 	 -21.4932 	 
H 	 -48.7379 	 6.9932 	 -22.8162 	 
C 	 -48.9283 	 8.5103 	 -21.2175 	 
H 	 -48.2648 	 9.09924 	 -20.5726 	 
H 	 -49.6185 	 9.16856 	 -21.7011 	 
C 	 -49.8448 	 7.70955 	 -20.2598 	 
H 	 -50.6481 	 8.39189 	 -19.9486 	 
H 	 -50.3636 	 6.85974 	 -20.7407 	 
H 	 -49.2639 	 7.35293 	 -19.3402 	 
S 	 -45.6989 	 11.5317 	 -26.3564 	 
C 	 -45.8553 	 13.228 	 -26.3369 	 
C 	 -45.8722 	 13.6605 	 -25.0067 	 
C 	 -45.7785 	 12.6351 	 -23.9993 	 
C 	 -45.6559 	 11.4034 	 -24.6355 	 
H 	 -45.893 	 14.7596 	 -24.7867 	 
C 	 -45.6861 	 12.8273 	 -22.5052 	 
H 	 -45.4894 	 11.9433 	 -21.9121 	 
H 	 -46.7198 	 13.2005 	 -22.1881 	 
C 	 -44.6605 	 13.9337 	 -22.1828 	 
H 	 -45.0126 	 14.9074 	 -22.6499 	 
H 	 -43.6676 	 13.6953 	 -22.6099 	 
C 	 -44.5183 	 14.3146 	 -20.6632 	 
H 	 -44.1589 	 13.3752 	 -20.129 	 
H 	 -45.4977 	 14.5734 	 -20.2588 	 
H 	 -43.808 	 15.1129 	 -20.4407 	 
H 	 -45.7176 	 6.62145 	 -23.2824 	 
H 	 -45.6991 	 13.9709 	 -27.157 	 
*
