! wB97X-D3 SP def2-SVP
%pal
nprocs 24
end

* xyz 0 1
S 	 -42.3218 	 16.5827 	 32.1357 	 
C 	 -41.374 	 16.7025 	 30.6771 	 
C 	 -42.0543 	 16.3287 	 29.5173 	 
C 	 -43.378 	 15.9511 	 29.8707 	 
C 	 -43.7609 	 16.1805 	 31.199 	 
H 	 -44.119 	 15.691 	 29.1113 	 
C 	 -41.646 	 16.4944 	 28.0654 	 
H 	 -42.0377 	 15.6401 	 27.5202 	 
H 	 -40.5316 	 16.4064 	 27.9769 	 
C 	 -42.0626 	 17.7983 	 27.3796 	 
H 	 -41.8478 	 18.5689 	 28.0868 	 
H 	 -41.597 	 17.9166 	 26.4069 	 
C 	 -43.6173 	 17.889 	 27.1834 	 
H 	 -44.1263 	 18.4019 	 28.0198 	 
H 	 -43.845 	 18.4639 	 26.2711 	 
H 	 -44.1509 	 16.9217 	 26.9888 	 
S 	 -45.1092 	 14.9712 	 33.2369 	 
C 	 -46.8862 	 15.0358 	 33.3641 	 
C 	 -47.3889 	 15.7729 	 32.3589 	 
C 	 -46.3839 	 16.3143 	 31.3672 	 
C 	 -45.0656 	 16.0522 	 31.8444 	 
H 	 -48.4115 	 16.0488 	 32.3281 	 
C 	 -46.6711 	 17.2504 	 30.1944 	 
H 	 -45.7461 	 17.4456 	 29.6965 	 
H 	 -46.8351 	 18.2409 	 30.5001 	 
C 	 -47.6981 	 16.7548 	 29.1539 	 
H 	 -47.8991 	 17.5243 	 28.4165 	 
H 	 -48.715 	 16.6704 	 29.4653 	 
C 	 -47.3284 	 15.449 	 28.459 	 
H 	 -46.3839 	 15.5042 	 27.9703 	 
H 	 -47.9722 	 15.1825 	 27.5969 	 
H 	 -47.3202 	 14.6422 	 29.1563 	 
H 	 -40.3598 	 17.1153 	 30.6042 	 
H 	 -47.5152 	 14.7028 	 34.1624 	 
*
