! wB97X-D3 SP def2-SVP
%pal
nprocs 24
end

* xyz 0 1
S 	 -33.9569 	 -36.6344 	 -93.8456 	 
C 	 -33.7277 	 -34.9901 	 -94.307 	 
C 	 -32.8045 	 -34.2284 	 -93.5876 	 
C 	 -32.2477 	 -35.0681 	 -92.5417 	 
C 	 -32.7639 	 -36.4134 	 -92.5772 	 
H 	 -31.4409 	 -34.7703 	 -91.8402 	 
C 	 -32.3469 	 -32.7916 	 -93.8558 	 
H 	 -32.4578 	 -32.4447 	 -92.8736 	 
H 	 -33.0688 	 -32.1619 	 -94.382 	 
C 	 -30.9366 	 -32.4003 	 -94.418 	 
H 	 -30.9569 	 -31.3057 	 -94.5554 	 
H 	 -30.3004 	 -32.6086 	 -93.5649 	 
C 	 -30.3528 	 -33.2792 	 -95.52 	 
H 	 -30.0537 	 -34.2141 	 -95.0594 	 
H 	 -31.0143 	 -33.3187 	 -96.3811 	 
H 	 -29.4065 	 -32.8991 	 -95.9459 	 
S 	 -32.5761 	 -39.0648 	 -92.3613 	 
C 	 -31.645 	 -39.7407 	 -91.0616 	 
C 	 -31.3884 	 -38.8989 	 -90.0376 	 
C 	 -31.7224 	 -37.5565 	 -90.4652 	 
C 	 -32.3892 	 -37.5126 	 -91.6936 	 
H 	 -31.0074 	 -39.0794 	 -89.0576 	 
C 	 -31.5246 	 -36.417 	 -89.5097 	 
H 	 -31.5997 	 -36.8251 	 -88.5317 	 
H 	 -32.3197 	 -35.7326 	 -89.5909 	 
C 	 -30.1781 	 -35.6169 	 -89.535 	 
H 	 -30.1963 	 -35.1214 	 -90.4985 	 
H 	 -29.3436 	 -36.3297 	 -89.4901 	 
C 	 -29.9928 	 -34.545 	 -88.3946 	 
H 	 -29.0684 	 -34.1338 	 -88.5955 	 
H 	 -30.0698 	 -34.874 	 -87.3599 	 
H 	 -30.8028 	 -33.7576 	 -88.4706 	 
H 	 -34.1259 	 -34.5354 	 -95.2753 	 
H 	 -31.5474 	 -40.8547 	 -90.9733 	 
*
