! wB97X-D3 SP def2-SVP
%pal
nprocs 24
end

* xyz 0 1
S 	 -107.8 	 40.4747 	 -9.50096 	 
C 	 -107.439 	 39.9957 	 -7.91552 	 
C 	 -108.456 	 40.2316 	 -7.02766 	 
C 	 -109.629 	 40.7055 	 -7.72807 	 
C 	 -109.426 	 40.9007 	 -9.07083 	 
H 	 -110.51 	 40.9593 	 -7.24089 	 
C 	 -108.359 	 40.0704 	 -5.53846 	 
H 	 -107.889 	 39.1154 	 -5.33467 	 
H 	 -109.373 	 39.8254 	 -5.19958 	 
C 	 -107.859 	 41.1781 	 -4.66327 	 
H 	 -107.526 	 40.7797 	 -3.71801 	 
H 	 -106.887 	 41.4996 	 -5.04845 	 
C 	 -108.971 	 42.2665 	 -4.54997 	 
H 	 -109.065 	 42.8662 	 -5.46025 	 
H 	 -109.97 	 41.856 	 -4.38595 	 
H 	 -108.708 	 43.02 	 -3.7646 	 
S 	 -110.458 	 40.6366 	 -11.5196 	 
C 	 -111.607 	 41.8087 	 -12.1785 	 
C 	 -111.844 	 42.8075 	 -11.2552 	 
C 	 -111.11 	 42.7352 	 -10.0735 	 
C 	 -110.301 	 41.579 	 -10.023 	 
H 	 -112.476 	 43.6669 	 -11.5688 	 
C 	 -111.313 	 43.723 	 -8.9094 	 
H 	 -110.599 	 44.5889 	 -9.06117 	 
H 	 -111.103 	 43.2794 	 -7.93534 	 
C 	 -112.656 	 44.3747 	 -8.86412 	 
H 	 -113.494 	 43.7377 	 -8.9395 	 
H 	 -112.718 	 44.9778 	 -9.74074 	 
C 	 -112.834 	 45.3335 	 -7.63799 	 
H 	 -111.994 	 45.9808 	 -7.5284 	 
H 	 -112.966 	 44.7889 	 -6.66743 	 
H 	 -113.67 	 45.9981 	 -7.78072 	 
H 	 -106.451 	 39.6711 	 -7.60032 	 
H 	 -112.057 	 41.8026 	 -13.1437 	 
*
