! wB97X-D3 SP def2-SVP
%pal
nprocs 24
end

* xyz 0 1
S 	 44.1425 	 -29.312 	 -122.019 	 
C 	 43.2603 	 -29.8477 	 -123.358 	 
C 	 42.8631 	 -31.1952 	 -123.078 	 
C 	 43.1941 	 -31.6298 	 -121.788 	 
C 	 43.7137 	 -30.644 	 -121.015 	 
H 	 42.9489 	 -32.5384 	 -121.48 	 
C 	 42.3518 	 -32.1627 	 -124.126 	 
H 	 42.8182 	 -31.7134 	 -124.979 	 
H 	 41.3044 	 -32.0195 	 -124.154 	 
C 	 42.7148 	 -33.63 	 -124.015 	 
H 	 42.2345 	 -34.1372 	 -123.098 	 
H 	 42.2447 	 -33.948 	 -124.967 	 
C 	 44.1891 	 -33.9488 	 -123.944 	 
H 	 44.7008 	 -33.1013 	 -123.498 	 
H 	 44.3646 	 -34.9077 	 -123.401 	 
H 	 44.5739 	 -34.0027 	 -124.938 	 
S 	 45.271 	 -29.696 	 -119.002 	 
C 	 45.2967 	 -30.4625 	 -117.488 	 
C 	 44.6846 	 -31.6973 	 -117.479 	 
C 	 43.8603 	 -31.8364 	 -118.677 	 
C 	 44.0948 	 -30.815 	 -119.636 	 
H 	 44.6899 	 -32.376 	 -116.645 	 
C 	 42.8531 	 -32.9865 	 -118.776 	 
H 	 43.2981 	 -33.7623 	 -119.449 	 
H 	 42.0314 	 -32.6305 	 -119.336 	 
C 	 42.4857 	 -33.703 	 -117.479 	 
H 	 42.0312 	 -32.9807 	 -116.798 	 
H 	 43.3608 	 -34.1824 	 -117.05 	 
C 	 41.4136 	 -34.8592 	 -117.704 	 
H 	 40.5301 	 -34.5366 	 -118.295 	 
H 	 41.0815 	 -35.1489 	 -116.721 	 
H 	 41.8565 	 -35.6926 	 -118.216 	 
H 	 43.3037 	 -29.5467 	 -124.435 	 
H 	 45.9423 	 -30.2525 	 -116.699 	 
*
