! wB97X-D3 SP def2-SVP
%pal
nprocs 24
end

* xyz 0 1
S 	 -49.6282 	 13.8178 	 25.8036 	 
C 	 -51.0933 	 12.8831 	 25.6885 	 
C 	 -51.3801 	 12.3889 	 24.4001 	 
C 	 -50.44 	 12.9551 	 23.5157 	 
C 	 -49.4774 	 13.7593 	 24.0328 	 
H 	 -50.4752 	 12.8884 	 22.4303 	 
C 	 -52.6952 	 11.8302 	 24.0294 	 
H 	 -52.653 	 11.6506 	 22.9495 	 
H 	 -53.521 	 12.4953 	 24.1835 	 
C 	 -52.9853 	 10.464 	 24.6572 	 
H 	 -52.2935 	 9.71492 	 24.3482 	 
H 	 -52.8346 	 10.4334 	 25.7388 	 
C 	 -54.441 	 9.9982 	 24.4173 	 
H 	 -54.6938 	 10.5001 	 23.4892 	 
H 	 -54.6037 	 8.91137 	 24.4305 	 
H 	 -55.0454 	 10.4744 	 25.2018 	 
S 	 -48.9798 	 15.4657 	 21.8554 	 
C 	 -47.3529 	 16.1491 	 21.7308 	 
C 	 -46.5274 	 15.762 	 22.7654 	 
C 	 -47.172 	 14.856 	 23.6748 	 
C 	 -48.5153 	 14.5726 	 23.3115 	 
H 	 -45.5242 	 16.094 	 22.7996 	 
C 	 -46.5144 	 14.2336 	 24.9089 	 
H 	 -45.9905 	 13.4513 	 24.4608 	 
H 	 -47.2633 	 13.6305 	 25.4822 	 
C 	 -45.6207 	 15.198 	 25.8161 	 
H 	 -45.4279 	 14.8842 	 26.8819 	 
H 	 -46.01 	 16.2138 	 26.015 	 
C 	 -44.1971 	 15.3084 	 25.2175 	 
H 	 -44.1139 	 16.1615 	 24.5393 	 
H 	 -43.9479 	 14.3389 	 24.7325 	 
H 	 -43.4061 	 15.4461 	 25.9409 	 
H 	 -51.7541 	 12.6238 	 26.4477 	 
H 	 -46.9478 	 16.55 	 20.8346 	 
*
