! wB97X-D3 SP def2-SVP
%pal
nprocs 24
end

* xyz 0 1
S 	 -128.392 	 73.3925 	 -50.9634 	 
C 	 -128.351 	 72.1551 	 -52.1423 	 
C 	 -127.036 	 71.8096 	 -52.5091 	 
C 	 -126.105 	 72.4455 	 -51.6215 	 
C 	 -126.689 	 73.317 	 -50.7603 	 
H 	 -125.014 	 72.2194 	 -51.5628 	 
C 	 -126.736 	 70.7295 	 -53.5568 	 
H 	 -125.668 	 70.5478 	 -53.5207 	 
H 	 -127.001 	 71.0448 	 -54.578 	 
C 	 -127.387 	 69.365 	 -53.2835 	 
H 	 -128.437 	 69.4264 	 -53.3256 	 
H 	 -127.059 	 68.6139 	 -54.0629 	 
C 	 -127.076 	 68.8204 	 -51.8722 	 
H 	 -127.399 	 69.5436 	 -51.2031 	 
H 	 -127.602 	 67.8852 	 -51.7356 	 
H 	 -126.021 	 68.7468 	 -51.7046 	 
S 	 -125.868 	 75.8216 	 -49.9915 	 
C 	 -125.022 	 76.0492 	 -48.53 	 
C 	 -124.551 	 74.8358 	 -48.0254 	 
C 	 -125.068 	 73.7555 	 -48.7675 	 
C 	 -125.941 	 74.1299 	 -49.773 	 
H 	 -123.81 	 74.812 	 -47.2541 	 
C 	 -124.662 	 72.2811 	 -48.4142 	 
H 	 -123.732 	 72.242 	 -47.831 	 
H 	 -124.453 	 71.621 	 -49.2955 	 
C 	 -125.627 	 71.5369 	 -47.5398 	 
H 	 -126.589 	 71.4395 	 -48.0457 	 
H 	 -125.742 	 72.0285 	 -46.5441 	 
C 	 -125.01 	 70.1467 	 -47.2225 	 
H 	 -125.625 	 69.6043 	 -46.5138 	 
H 	 -124.074 	 70.2639 	 -46.7358 	 
H 	 -124.951 	 69.5518 	 -48.167 	 
H 	 -129.307 	 71.7793 	 -52.5784 	 
H 	 -124.624 	 76.9747 	 -48.1438 	 
*
