! wB97X-D3 SP def2-SVP
%pal
nprocs 24
end

* xyz 0 1
S 	 -48.0377 	 2.85023 	 -17.5729 	 
C 	 -48.4146 	 1.21116 	 -18.2538 	 
C 	 -49.7566 	 0.891108 	 -18.1391 	 
C 	 -50.487 	 1.97874 	 -17.565 	 
C 	 -49.7409 	 3.0599 	 -17.1683 	 
H 	 -51.5301 	 1.88845 	 -17.2515 	 
C 	 -50.3628 	 -0.435779 	 -18.3956 	 
H 	 -51.242 	 -0.462997 	 -17.7909 	 
H 	 -49.5673 	 -1.12817 	 -18.0129 	 
C 	 -50.8444 	 -0.717347 	 -19.8054 	 
H 	 -51.5309 	 0.0949759 	 -20.0944 	 
H 	 -49.9045 	 -0.638618 	 -20.3815 	 
C 	 -51.6106 	 -2.05307 	 -19.8569 	 
H 	 -51.784 	 -2.41076 	 -20.8689 	 
H 	 -51.0835 	 -2.8959 	 -19.4476 	 
H 	 -52.5628 	 -2.04597 	 -19.2631 	 
S 	 -51.4798 	 5.08403 	 -16.9851 	 
C 	 -51.2316 	 6.42607 	 -15.8883 	 
C 	 -50.2976 	 6.11913 	 -14.9241 	 
C 	 -49.7383 	 4.82156 	 -15.1394 	 
C 	 -50.1977 	 4.20068 	 -16.3533 	 
H 	 -50.0212 	 6.71652 	 -14.0657 	 
C 	 -48.7646 	 4.17095 	 -14.2036 	 
H 	 -47.7949 	 4.57462 	 -14.5044 	 
H 	 -48.5715 	 3.1736 	 -14.3802 	 
C 	 -49.0243 	 4.37151 	 -12.6625 	 
H 	 -49.2469 	 5.44783 	 -12.5074 	 
H 	 -48.1413 	 4.19339 	 -12.1345 	 
C 	 -50.2699 	 3.64736 	 -12.1046 	 
H 	 -51.2377 	 3.88624 	 -12.4955 	 
H 	 -50.2945 	 3.76494 	 -11.0446 	 
H 	 -50.1383 	 2.58911 	 -12.2304 	 
H 	 -47.7237 	 0.416171 	 -18.6308 	 
H 	 -51.7429 	 7.37057 	 -15.8958 	 
*
