! wB97X-D3 SP def2-SVP
%pal
nprocs 24
end

* xyz 0 1
S 	 -37.2156 	 -45.827 	 -74.634 	 
C 	 -38.5007 	 -44.6986 	 -75.087 	 
C 	 -38.0503 	 -43.4107 	 -74.9717 	 
C 	 -36.669 	 -43.3253 	 -74.6175 	 
C 	 -36.0866 	 -44.5318 	 -74.2305 	 
H 	 -36.1087 	 -42.3935 	 -74.5951 	 
C 	 -38.8914 	 -42.1818 	 -75.4186 	 
H 	 -38.0864 	 -41.4248 	 -75.5839 	 
H 	 -39.365 	 -41.6566 	 -74.6014 	 
C 	 -39.7663 	 -42.4616 	 -76.7662 	 
H 	 -40.4317 	 -43.2911 	 -76.6531 	 
H 	 -40.3363 	 -41.5178 	 -76.8574 	 
C 	 -38.8856 	 -42.6865 	 -77.9975 	 
H 	 -39.4326 	 -42.6194 	 -78.9618 	 
H 	 -38.1978 	 -41.795 	 -78.0594 	 
H 	 -38.3745 	 -43.6576 	 -78.0717 	 
S 	 -33.5509 	 -44.719 	 -75.0864 	 
C 	 -32.2629 	 -44.9823 	 -74.0614 	 
C 	 -32.7606 	 -45.1118 	 -72.748 	 
C 	 -34.1559 	 -44.9235 	 -72.5901 	 
C 	 -34.679 	 -44.6802 	 -73.8388 	 
H 	 -32.0932 	 -45.3972 	 -71.9088 	 
C 	 -34.878 	 -45.0982 	 -71.3164 	 
H 	 -35.8755 	 -44.6873 	 -71.443 	 
H 	 -34.3784 	 -44.515 	 -70.5219 	 
C 	 -35.1093 	 -46.5843 	 -70.9399 	 
H 	 -34.1889 	 -46.9197 	 -70.5662 	 
H 	 -35.2824 	 -46.9988 	 -71.9815 	 
C 	 -36.2886 	 -46.8566 	 -70.0429 	 
H 	 -36.024 	 -46.968 	 -69.0309 	 
H 	 -36.8043 	 -47.7348 	 -70.2608 	 
H 	 -36.9833 	 -46.06 	 -70.0924 	 
H 	 -39.4595 	 -44.9702 	 -75.5087 	 
H 	 -31.2675 	 -45.2731 	 -74.2951 	 
*
