! wB97X-D3 SP def2-SVP
%pal
nprocs 24
end

* xyz 0 1
S 	 -39.8147 	 18.9772 	 11.8082 	 
C 	 -39.9253 	 17.5641 	 12.7151 	 
C 	 -40.0953 	 17.844 	 14.0832 	 
C 	 -40.0522 	 19.266 	 14.3631 	 
C 	 -39.9471 	 19.9987 	 13.1655 	 
H 	 -40.205 	 19.7215 	 15.3389 	 
C 	 -40.5187 	 16.7948 	 15.1413 	 
H 	 -40.1066 	 15.7692 	 14.9631 	 
H 	 -41.6062 	 16.6552 	 15.03 	 
C 	 -40.2137 	 17.0784 	 16.6033 	 
H 	 -39.1145 	 17.1206 	 16.7077 	 
H 	 -40.7151 	 18.0267 	 16.9433 	 
C 	 -40.7813 	 16.0438 	 17.5769 	 
H 	 -40.6403 	 16.3932 	 18.5849 	 
H 	 -41.9054 	 15.9656 	 17.3791 	 
H 	 -40.1657 	 15.1188 	 17.4017 	 
S 	 -40.9256 	 22.4878 	 13.1423 	 
C 	 -39.867 	 23.7912 	 12.6273 	 
C 	 -38.5423 	 23.4892 	 12.8128 	 
C 	 -38.3858 	 22.0387 	 13.0106 	 
C 	 -39.6073 	 21.3781 	 13.1476 	 
H 	 -37.8221 	 24.3333 	 12.8535 	 
C 	 -36.9855 	 21.4018 	 13.1545 	 
H 	 -36.4298 	 21.6359 	 12.2702 	 
H 	 -37.2435 	 20.2912 	 13.1267 	 
C 	 -36.3294 	 21.6534 	 14.4636 	 
H 	 -36.0432 	 22.6646 	 14.5687 	 
H 	 -35.3511 	 21.2796 	 14.4248 	 
C 	 -37.0692 	 21.1432 	 15.696 	 
H 	 -36.7298 	 21.814 	 16.4835 	 
H 	 -36.8602 	 20.1298 	 15.8907 	 
H 	 -38.1382 	 21.396 	 15.7247 	 
H 	 -40.0541 	 16.5333 	 12.2905 	 
H 	 -40.2616 	 24.7892 	 12.5681 	 
*
