! wB97X-D3 SP def2-SVP
%pal
nprocs 24
end

* xyz 0 1
S 	 -60.813 	 12.5049 	 -92.9836 	 
C 	 -61.8264 	 13.6887 	 -93.7803 	 
C 	 -61.8147 	 14.8365 	 -93.0729 	 
C 	 -61.3582 	 14.6396 	 -91.714 	 
C 	 -60.8236 	 13.3906 	 -91.4593 	 
H 	 -61.4344 	 15.3335 	 -90.9159 	 
C 	 -62.3643 	 16.1919 	 -93.522 	 
H 	 -63.2199 	 16.5269 	 -92.9499 	 
H 	 -62.9329 	 15.9724 	 -94.4045 	 
C 	 -61.2407 	 17.2505 	 -93.8441 	 
H 	 -60.6063 	 16.8029 	 -94.517 	 
H 	 -61.6937 	 18.0585 	 -94.3773 	 
C 	 -60.3019 	 17.6802 	 -92.6886 	 
H 	 -59.5054 	 18.4202 	 -92.9893 	 
H 	 -60.9127 	 18.2258 	 -91.9633 	 
H 	 -59.9692 	 16.8699 	 -92.0944 	 
S 	 -60.9524 	 11.9049 	 -89.1912 	 
C 	 -59.611 	 11.9527 	 -88.0784 	 
C 	 -58.6784 	 12.9178 	 -88.4726 	 
C 	 -58.9517 	 13.5907 	 -89.7012 	 
C 	 -60.157 	 13.0829 	 -90.2365 	 
H 	 -57.7841 	 13.0208 	 -87.8972 	 
C 	 -58.1589 	 14.7833 	 -90.1767 	 
H 	 -58.355 	 15.6952 	 -89.6143 	 
H 	 -58.6864 	 15.1344 	 -91.1092 	 
C 	 -56.7648 	 14.3471 	 -90.6286 	 
H 	 -56.7964 	 13.5416 	 -91.3116 	 
H 	 -56.2487 	 14.0479 	 -89.763 	 
C 	 -55.8389 	 15.4497 	 -91.1473 	 
H 	 -56.4274 	 16.0167 	 -91.8679 	 
H 	 -54.9902 	 14.8821 	 -91.6481 	 
H 	 -55.4454 	 16.077 	 -90.4182 	 
H 	 -62.1034 	 13.6868 	 -94.8848 	 
H 	 -59.5151 	 11.5088 	 -87.1064 	 
*
