! wB97X-D3 SP def2-SVP
%pal
nprocs 24
end

* xyz 0 1
S 	 -32.1339 	 -36.7106 	 -93.5221 	 
C 	 -30.995 	 -36.0741 	 -92.4424 	 
C 	 -31.636 	 -35.7409 	 -91.2298 	 
C 	 -33.0053 	 -36.0618 	 -91.1906 	 
C 	 -33.4578 	 -36.5824 	 -92.3849 	 
H 	 -33.7444 	 -35.8966 	 -90.4412 	 
C 	 -31.0226 	 -34.7987 	 -90.1926 	 
H 	 -31.5547 	 -34.8461 	 -89.2906 	 
H 	 -31.3456 	 -33.8073 	 -90.5599 	 
C 	 -29.5261 	 -35.0277 	 -89.8382 	 
H 	 -28.9189 	 -34.7806 	 -90.6634 	 
H 	 -29.1921 	 -34.3223 	 -89.1013 	 
C 	 -29.1751 	 -36.4133 	 -89.4055 	 
H 	 -29.8359 	 -36.5767 	 -88.5645 	 
H 	 -29.4725 	 -37.0978 	 -90.1606 	 
H 	 -28.1661 	 -36.5469 	 -89.0945 	 
S 	 -35.7004 	 -37.8547 	 -91.2565 	 
C 	 -37.1172 	 -38.0805 	 -92.2279 	 
C 	 -36.9387 	 -37.4685 	 -93.4169 	 
C 	 -35.7238 	 -36.8016 	 -93.6449 	 
C 	 -34.8506 	 -36.9828 	 -92.5571 	 
H 	 -37.7097 	 -37.481 	 -94.195 	 
C 	 -35.4306 	 -36.1325 	 -95.0209 	 
H 	 -34.5058 	 -35.5803 	 -94.9608 	 
H 	 -36.2509 	 -35.3375 	 -95.0456 	 
C 	 -35.3599 	 -37.0778 	 -96.1762 	 
H 	 -36.138 	 -37.8556 	 -96.0515 	 
H 	 -34.3551 	 -37.6188 	 -96.1437 	 
C 	 -35.4809 	 -36.3403 	 -97.4795 	 
H 	 -35.3606 	 -37.0273 	 -98.3744 	 
H 	 -34.886 	 -35.4149 	 -97.5532 	 
H 	 -36.4822 	 -36.054 	 -97.6425 	 
H 	 -29.963 	 -35.8294 	 -92.6654 	 
H 	 -37.995 	 -38.6825 	 -91.9992 	 
*
