! wB97X-D3 SP def2-SVP
%pal
nprocs 24
end

* xyz 0 1
S 	 -65.1478 	 11.6728 	 -101.145 	 
C 	 -64.3319 	 13.0096 	 -100.419 	 
C 	 -63.0222 	 12.7467 	 -100.157 	 
C 	 -62.7486 	 11.3489 	 -100.396 	 
C 	 -63.8063 	 10.5803 	 -100.84 	 
H 	 -61.8675 	 10.7862 	 -100.22 	 
C 	 -61.9862 	 13.6726 	 -99.5875 	 
H 	 -61.798 	 13.3196 	 -98.5804 	 
H 	 -62.4188 	 14.6108 	 -99.3634 	 
C 	 -60.735 	 14.0188 	 -100.38 	 
H 	 -61.007 	 14.3046 	 -101.448 	 
H 	 -60.2295 	 14.8305 	 -99.8481 	 
C 	 -59.6492 	 12.9999 	 -100.44 	 
H 	 -59.6886 	 12.3337 	 -99.527 	 
H 	 -59.7904 	 12.2563 	 -101.264 	 
H 	 -58.6426 	 13.5045 	 -100.576 	 
S 	 -64.7647 	 8.20472 	 -100.009 	 
C 	 -64.1773 	 6.72023 	 -100.707 	 
C 	 -63.2787 	 6.93642 	 -101.686 	 
C 	 -63.0475 	 8.29208 	 -101.89 	 
C 	 -63.8493 	 9.15065 	 -101.126 	 
H 	 -62.9558 	 6.06208 	 -102.256 	 
C 	 -61.9949 	 8.86003 	 -102.897 	 
H 	 -62.152 	 9.9285 	 -103.146 	 
H 	 -62.3058 	 8.33758 	 -103.893 	 
C 	 -60.4683 	 8.63364 	 -102.755 	 
H 	 -60.0157 	 9.20779 	 -103.541 	 
H 	 -60.3202 	 7.55329 	 -102.874 	 
C 	 -59.8615 	 8.99108 	 -101.36 	 
H 	 -59.9619 	 10.0287 	 -101.24 	 
H 	 -58.7924 	 8.75243 	 -101.348 	 
H 	 -60.2709 	 8.48111 	 -100.43 	 
H 	 -64.7868 	 13.949 	 -100.355 	 
H 	 -64.4445 	 5.77132 	 -100.346 	 
*
