! wB97X-D3 SP def2-SVP
%pal
nprocs 24
end

* xyz 0 1
S 	 -93.9914 	 3.0439 	 -0.64145 	 
C 	 -92.2845 	 3.28352 	 -0.185209 	 
C 	 -91.9172 	 4.56822 	 -0.372149 	 
C 	 -93.0219 	 5.4124 	 -0.761393 	 
C 	 -94.208 	 4.72904 	 -1.00907 	 
H 	 -92.9206 	 6.53075 	 -0.875974 	 
C 	 -90.5925 	 5.15808 	 -0.0542423 	 
H 	 -90.6733 	 6.29118 	 -0.0537366 	 
H 	 -90.0583 	 4.94641 	 -0.909027 	 
C 	 -89.8734 	 4.51507 	 1.13372 	 
H 	 -90.4741 	 4.72837 	 2.06611 	 
H 	 -89.7788 	 3.43153 	 1.19495 	 
C 	 -88.3521 	 4.90083 	 1.26645 	 
H 	 -88.2706 	 6.01503 	 1.28862 	 
H 	 -87.9035 	 4.50397 	 2.16389 	 
H 	 -87.7453 	 4.58635 	 0.399528 	 
S 	 -96.3878 	 4.62037 	 -2.60223 	 
C 	 -97.7897 	 5.68603 	 -2.28241 	 
C 	 -97.5097 	 6.6378 	 -1.30606 	 
C 	 -96.2152 	 6.4313 	 -0.711168 	 
C 	 -95.5003 	 5.37098 	 -1.28615 	 
H 	 -98.2802 	 7.28631 	 -1.11021 	 
C 	 -95.679 	 7.44296 	 0.253183 	 
H 	 -96.0334 	 8.42827 	 0.0748258 	 
H 	 -94.6055 	 7.60034 	 0.0656871 	 
C 	 -95.7965 	 7.07027 	 1.74728 	 
H 	 -96.6969 	 6.64538 	 2.04604 	 
H 	 -95.9891 	 7.99222 	 2.33932 	 
C 	 -94.7117 	 6.23513 	 2.35767 	 
H 	 -93.6758 	 6.59263 	 2.38781 	 
H 	 -94.7425 	 5.30418 	 1.8517 	 
H 	 -94.8577 	 5.97472 	 3.39789 	 
H 	 -91.5466 	 2.5774 	 0.146812 	 
H 	 -98.7843 	 5.5874 	 -2.54031 	 
*
