! wB97X-D3 SP def2-SVP
%pal
nprocs 24
end

* xyz 0 1
S 	 -63.5362 	 -56.945 	 -76.1229 	 
C 	 -65.2425 	 -57.2531 	 -76.2805 	 
C 	 -65.5496 	 -57.9505 	 -77.4849 	 
C 	 -64.3482 	 -58.4826 	 -78.0955 	 
C 	 -63.1475 	 -58.0463 	 -77.4543 	 
H 	 -64.2176 	 -59.1272 	 -78.9667 	 
C 	 -66.9259 	 -58.2119 	 -78.0631 	 
H 	 -67.6573 	 -58.2933 	 -77.2204 	 
H 	 -66.9008 	 -59.2031 	 -78.5801 	 
C 	 -67.4853 	 -57.1152 	 -78.9532 	 
H 	 -67.1079 	 -57.2047 	 -79.9207 	 
H 	 -68.5851 	 -57.2926 	 -79.0653 	 
C 	 -67.3681 	 -55.6492 	 -78.4865 	 
H 	 -67.4409 	 -55.6676 	 -77.3768 	 
H 	 -66.3904 	 -55.187 	 -78.7071 	 
H 	 -68.166 	 -54.9412 	 -78.7778 	 
S 	 -60.9455 	 -59.4196 	 -76.4553 	 
C 	 -59.6732 	 -59.8987 	 -77.5847 	 
C 	 -59.8437 	 -59.2536 	 -78.7914 	 
C 	 -61.0309 	 -58.4726 	 -78.8716 	 
C 	 -61.7804 	 -58.5505 	 -77.7222 	 
H 	 -59.2397 	 -59.4207 	 -79.6722 	 
C 	 -61.4868 	 -57.715 	 -80.1512 	 
H 	 -62.6187 	 -57.9369 	 -80.1328 	 
H 	 -61.0437 	 -58.1381 	 -81.064 	 
C 	 -61.3299 	 -56.2404 	 -80.106 	 
H 	 -61.456 	 -55.764 	 -81.1178 	 
H 	 -60.2944 	 -55.94 	 -79.903 	 
C 	 -62.1937 	 -55.3566 	 -79.169 	 
H 	 -63.2466 	 -55.4122 	 -79.4099 	 
H 	 -61.7908 	 -54.3234 	 -79.1023 	 
H 	 -61.8997 	 -55.6491 	 -78.0484 	 
H 	 -65.9693 	 -56.8286 	 -75.6128 	 
H 	 -58.9364 	 -60.6579 	 -77.308 	 
*
