! wB97X-D3 SP def2-SVP
%pal
nprocs 24
end

* xyz 0 1
S 	 -129.257 	 70.3517 	 -63.1275 	 
C 	 -128.863 	 71.7219 	 -62.1378 	 
C 	 -128.646 	 72.8853 	 -62.9105 	 
C 	 -128.981 	 72.6867 	 -64.3086 	 
C 	 -129.205 	 71.3291 	 -64.5809 	 
H 	 -128.945 	 73.3625 	 -65.213 	 
C 	 -128.218 	 74.2147 	 -62.3986 	 
H 	 -127.814 	 73.8959 	 -61.4544 	 
H 	 -129.09 	 74.8393 	 -62.2157 	 
C 	 -127.184 	 75.0244 	 -63.1423 	 
H 	 -127.518 	 75.6415 	 -63.9388 	 
H 	 -126.898 	 75.7673 	 -62.3929 	 
C 	 -125.978 	 74.1994 	 -63.4072 	 
H 	 -125.937 	 73.5683 	 -64.247 	 
H 	 -125.025 	 74.7914 	 -63.3847 	 
H 	 -125.808 	 73.4867 	 -62.5742 	 
S 	 -131.268 	 70.3407 	 -66.0164 	 
C 	 -131.011 	 70.0658 	 -67.7052 	 
C 	 -129.737 	 70.3218 	 -68.1269 	 
C 	 -128.931 	 70.8476 	 -67.0773 	 
C 	 -129.593 	 70.8294 	 -65.8738 	 
H 	 -129.476 	 70.3239 	 -69.1834 	 
C 	 -127.493 	 71.1649 	 -67.2523 	 
H 	 -127.145 	 72.1148 	 -66.7275 	 
H 	 -127.493 	 71.5157 	 -68.2962 	 
C 	 -126.51 	 70.0048 	 -67.1584 	 
H 	 -125.548 	 70.4233 	 -67.0064 	 
H 	 -126.474 	 69.5078 	 -68.1654 	 
C 	 -126.709 	 69.0234 	 -65.9858 	 
H 	 -127.028 	 69.5713 	 -65.0659 	 
H 	 -125.745 	 68.5342 	 -65.8949 	 
H 	 -127.305 	 68.1672 	 -66.2134 	 
H 	 -128.552 	 71.6581 	 -61.1054 	 
H 	 -131.856 	 69.9037 	 -68.2886 	 
*
