! wB97X-D3 SP def2-SVP
%pal
nprocs 24
end

* xyz 0 1
S 	 -100.316 	 1.17425 	 -105.666 	 
C 	 -99.0773 	 2.33822 	 -106.143 	 
C 	 -99.6769 	 3.38143 	 -106.701 	 
C 	 -101.102 	 3.2542 	 -106.856 	 
C 	 -101.614 	 2.14059 	 -106.246 	 
H 	 -101.701 	 3.9504 	 -107.344 	 
C 	 -98.8442 	 4.56638 	 -107.144 	 
H 	 -98.9825 	 4.66472 	 -108.217 	 
H 	 -97.7768 	 4.30981 	 -106.841 	 
C 	 -99.1455 	 5.94679 	 -106.555 	 
H 	 -98.6203 	 6.76382 	 -107.221 	 
H 	 -100.224 	 6.26959 	 -106.651 	 
C 	 -98.6207 	 6.21944 	 -105.152 	 
H 	 -97.6176 	 6.11735 	 -105.068 	 
H 	 -98.9016 	 7.15873 	 -104.741 	 
H 	 -99.0117 	 5.60267 	 -104.43 	 
S 	 -103.232 	 0.251179 	 -107.056 	 
C 	 -104.899 	 0.433287 	 -107.217 	 
C 	 -105.292 	 1.4781 	 -106.391 	 
C 	 -104.179 	 2.27407 	 -105.934 	 
C 	 -102.966 	 1.7262 	 -106.197 	 
H 	 -106.341 	 1.67885 	 -106.256 	 
C 	 -104.344 	 3.58704 	 -105.251 	 
H 	 -103.987 	 4.37617 	 -105.909 	 
H 	 -103.645 	 3.5132 	 -104.427 	 
C 	 -105.784 	 3.86004 	 -104.728 	 
H 	 -106.388 	 3.01556 	 -104.506 	 
H 	 -106.434 	 4.21684 	 -105.554 	 
C 	 -105.659 	 4.95201 	 -103.562 	 
H 	 -106.605 	 5.28579 	 -103.147 	 
H 	 -105.122 	 5.87129 	 -103.941 	 
H 	 -105.004 	 4.40633 	 -102.837 	 
H 	 -98.0753 	 2.3062 	 -105.915 	 
H 	 -105.554 	 -0.283915 	 -107.756 	 
*
