! wB97X-D3 SP def2-SVP
%pal
nprocs 24
end

* xyz 0 1
S 	 -50.7371 	 -45.6754 	 -78.9741 	 
C 	 -52.2783 	 -44.8852 	 -79.2977 	 
C 	 -52.1391 	 -43.5165 	 -79.1074 	 
C 	 -50.8993 	 -43.1352 	 -78.4263 	 
C 	 -50.0035 	 -44.2072 	 -78.367 	 
H 	 -50.6682 	 -42.1745 	 -78.0497 	 
C 	 -53.2884 	 -42.4705 	 -79.334 	 
H 	 -53.5055 	 -41.7238 	 -78.4932 	 
H 	 -54.1278 	 -43.0336 	 -79.4035 	 
C 	 -53.1686 	 -41.6205 	 -80.5755 	 
H 	 -53.2037 	 -42.2767 	 -81.3853 	 
H 	 -54.0544 	 -40.9395 	 -80.5544 	 
C 	 -51.8682 	 -40.7927 	 -80.5634 	 
H 	 -51.0367 	 -41.4949 	 -80.6954 	 
H 	 -51.888 	 -40.0922 	 -81.3404 	 
H 	 -51.8675 	 -40.2655 	 -79.6781 	 
S 	 -48.5581 	 -44.7673 	 -76.0232 	 
C 	 -46.7884 	 -44.7465 	 -76.0779 	 
C 	 -46.3886 	 -44.1101 	 -77.2748 	 
C 	 -47.4715 	 -43.7574 	 -78.112 	 
C 	 -48.7472 	 -44.1061 	 -77.6349 	 
H 	 -45.3305 	 -43.8473 	 -77.3322 	 
C 	 -47.0605 	 -43.1736 	 -79.4694 	 
H 	 -47.0608 	 -44.001 	 -80.228 	 
H 	 -46.0404 	 -42.843 	 -79.2412 	 
C 	 -47.7847 	 -41.8379 	 -79.9125 	 
H 	 -48.8094 	 -41.9497 	 -79.9724 	 
H 	 -47.3376 	 -41.599 	 -80.8382 	 
C 	 -47.4735 	 -40.6948 	 -78.9111 	 
H 	 -46.3873 	 -40.4204 	 -78.7632 	 
H 	 -47.8675 	 -40.9806 	 -77.9089 	 
H 	 -47.9729 	 -39.8428 	 -79.347 	 
H 	 -53.01 	 -45.3246 	 -79.8845 	 
H 	 -46.0663 	 -45.0069 	 -75.3049 	 
*
