! wB97X-D3 SP def2-SVP
%pal
nprocs 24
end

* xyz 0 1
S 	 -110.273 	 61.3039 	 -6.16122 	 
C 	 -109.534 	 62.0846 	 -4.75722 	 
C 	 -110.379 	 63.1376 	 -4.29188 	 
C 	 -111.615 	 63.2202 	 -5.02489 	 
C 	 -111.802 	 62.2562 	 -5.9359 	 
H 	 -112.427 	 63.8992 	 -4.82102 	 
C 	 -110.129 	 63.9743 	 -3.07425 	 
H 	 -111.053 	 64.073 	 -2.58553 	 
H 	 -109.794 	 64.968 	 -3.31547 	 
C 	 -109.041 	 63.4171 	 -2.14577 	 
H 	 -109.199 	 62.388 	 -1.80368 	 
H 	 -108.138 	 63.2881 	 -2.75704 	 
C 	 -108.649 	 64.2837 	 -0.965054 	 
H 	 -108.292 	 65.3202 	 -1.18372 	 
H 	 -109.456 	 64.2557 	 -0.278627 	 
H 	 -107.96 	 63.7738 	 -0.376786 	 
S 	 -112.728 	 61.8538 	 -8.45326 	 
C 	 -114.384 	 61.7247 	 -8.82137 	 
C 	 -115.182 	 61.7379 	 -7.68536 	 
C 	 -114.38 	 62.0314 	 -6.50539 	 
C 	 -113.025 	 62.1304 	 -6.77875 	 
H 	 -116.23 	 61.5955 	 -7.8236 	 
C 	 -114.937 	 61.9553 	 -5.07816 	 
H 	 -115.981 	 61.8577 	 -5.15349 	 
H 	 -115.093 	 62.9505 	 -4.66767 	 
C 	 -114.332 	 60.985 	 -4.06067 	 
H 	 -113.257 	 61.1519 	 -4.01648 	 
H 	 -114.464 	 59.9827 	 -4.38577 	 
C 	 -115.023 	 61.416 	 -2.70088 	 
H 	 -116.121 	 61.328 	 -2.70091 	 
H 	 -114.881 	 62.4523 	 -2.43741 	 
H 	 -114.638 	 60.718 	 -1.93565 	 
H 	 -108.595 	 61.8268 	 -4.31089 	 
H 	 -114.611 	 61.6612 	 -9.84397 	 
*
