! wB97X-D3 SP def2-SVP
%pal
nprocs 24
end

* xyz 0 1
S 	 24.1014 	 -8.46303 	 -110.213 	 
C 	 23.5939 	 -8.63559 	 -111.882 	 
C 	 23.4222 	 -7.34306 	 -112.479 	 
C 	 23.3007 	 -6.36163 	 -111.485 	 
C 	 23.5244 	 -6.81977 	 -110.197 	 
H 	 23.1128 	 -5.3175 	 -111.658 	 
C 	 23.0796 	 -7.08896 	 -113.876 	 
H 	 23.9755 	 -6.86282 	 -114.431 	 
H 	 22.4292 	 -6.17733 	 -113.839 	 
C 	 22.2743 	 -8.1811 	 -114.568 	 
H 	 22.933 	 -9.01481 	 -114.567 	 
H 	 21.4245 	 -8.44762 	 -113.951 	 
C 	 21.9093 	 -7.88059 	 -116.027 	 
H 	 22.8085 	 -7.65828 	 -116.549 	 
H 	 21.4504 	 -8.72927 	 -116.543 	 
H 	 21.3185 	 -6.96038 	 -116.014 	 
S 	 24.9871 	 -6.02564 	 -108.175 	 
C 	 24.2671 	 -4.98296 	 -106.901 	 
C 	 22.9632 	 -4.74326 	 -107.221 	 
C 	 22.5427 	 -5.23283 	 -108.44 	 
C 	 23.5308 	 -5.97979 	 -109.045 	 
H 	 22.4026 	 -4.22896 	 -106.466 	 
C 	 21.1828 	 -5.05134 	 -108.98 	 
H 	 21.2207 	 -4.7827 	 -110.078 	 
H 	 20.7081 	 -4.18083 	 -108.519 	 
C 	 20.3375 	 -6.3317 	 -108.891 	 
H 	 20.6182 	 -6.94851 	 -108.032 	 
H 	 20.6363 	 -7.17858 	 -109.596 	 
C 	 18.7826 	 -6.11228 	 -108.956 	 
H 	 18.2571 	 -7.12038 	 -109.072 	 
H 	 18.5153 	 -5.54273 	 -109.83 	 
H 	 18.3524 	 -5.80065 	 -107.998 	 
H 	 23.6653 	 -9.47566 	 -112.563 	 
H 	 24.78 	 -4.70016 	 -106.043 	 
*
