! wB97X-D3 SP def2-SVP
%pal
nprocs 24
end

* xyz 0 1
S 	 -122.391 	 56.0308 	 -58.9697 	 
C 	 -122.541 	 56.2058 	 -60.7106 	 
C 	 -123.646 	 55.5851 	 -61.2528 	 
C 	 -124.637 	 55.4171 	 -60.2378 	 
C 	 -124.152 	 55.8116 	 -58.9945 	 
H 	 -125.64 	 55.1007 	 -60.4692 	 
C 	 -123.942 	 55.1618 	 -62.6647 	 
H 	 -124.333 	 55.8748 	 -63.3408 	 
H 	 -124.899 	 54.5834 	 -62.6533 	 
C 	 -122.861 	 54.5288 	 -63.5148 	 
H 	 -122.241 	 53.8705 	 -62.8894 	 
H 	 -123.254 	 53.968 	 -64.3868 	 
C 	 -121.975 	 55.4312 	 -64.3877 	 
H 	 -121.543 	 54.8292 	 -65.2349 	 
H 	 -122.5 	 56.2851 	 -64.7937 	 
H 	 -121.333 	 55.8651 	 -63.6988 	 
S 	 -124.052 	 57.0811 	 -56.5605 	 
C 	 -125.372 	 56.9365 	 -55.4414 	 
C 	 -126.349 	 56.0758 	 -55.875 	 
C 	 -126.02 	 55.4756 	 -57.1344 	 
C 	 -124.809 	 55.9414 	 -57.6594 	 
H 	 -127.19 	 55.9432 	 -55.1717 	 
C 	 -126.802 	 54.309 	 -57.6189 	 
H 	 -126.879 	 54.3591 	 -58.7181 	 
H 	 -127.836 	 54.3671 	 -57.2184 	 
C 	 -126.247 	 52.8819 	 -57.5139 	 
H 	 -125.225 	 52.9056 	 -57.8622 	 
H 	 -126.751 	 52.2191 	 -58.24 	 
C 	 -126.367 	 52.2904 	 -56.0621 	 
H 	 -125.805 	 51.3597 	 -55.9758 	 
H 	 -127.367 	 52.0561 	 -55.7996 	 
H 	 -125.961 	 52.9366 	 -55.2552 	 
H 	 -121.741 	 56.5962 	 -61.3706 	 
H 	 -125.53 	 57.5831 	 -54.5703 	 
*
