! wB97X-D3 SP def2-SVP
%pal
nprocs 24
end

* xyz 0 1
S 	 -74.7742 	 -1.60171 	 -62.1034 	 
C 	 -74.9368 	 0.166504 	 -62.3158 	 
C 	 -75.8177 	 0.780633 	 -61.4205 	 
C 	 -76.3893 	 -0.233858 	 -60.6635 	 
C 	 -75.9826 	 -1.54308 	 -60.881 	 
H 	 -77.1312 	 -0.110181 	 -59.8542 	 
C 	 -76.2316 	 2.25956 	 -61.3383 	 
H 	 -75.7487 	 2.82556 	 -62.1137 	 
H 	 -75.662 	 2.58849 	 -60.4803 	 
C 	 -77.6958 	 2.51499 	 -61.1644 	 
H 	 -78.3006 	 1.73034 	 -61.6564 	 
H 	 -77.7936 	 2.3569 	 -60.0976 	 
C 	 -78.2047 	 3.91582 	 -61.6202 	 
H 	 -77.9041 	 4.79046 	 -61.0326 	 
H 	 -77.8242 	 4.12787 	 -62.6013 	 
H 	 -79.2853 	 3.9138 	 -61.6949 	 
S 	 -75.1674 	 -3.65327 	 -59.4126 	 
C 	 -76.2375 	 -4.42413 	 -58.2866 	 
C 	 -77.5485 	 -4.11717 	 -58.6001 	 
C 	 -77.6799 	 -3.25832 	 -59.7591 	 
C 	 -76.4291 	 -2.70916 	 -60.1159 	 
H 	 -78.3065 	 -4.57363 	 -58.006 	 
C 	 -78.9651 	 -2.81861 	 -60.4013 	 
H 	 -79.5845 	 -3.68647 	 -60.729 	 
H 	 -78.729 	 -2.07505 	 -61.125 	 
C 	 -79.7229 	 -2.04114 	 -59.2891 	 
H 	 -79.1149 	 -1.4214 	 -58.7093 	 
H 	 -80.2357 	 -2.77541 	 -58.6231 	 
C 	 -80.8081 	 -1.11017 	 -59.7604 	 
H 	 -81.1525 	 -1.45225 	 -60.7552 	 
H 	 -80.5544 	 -0.0533843 	 -59.7176 	 
H 	 -81.6368 	 -1.30164 	 -59.1243 	 
H 	 -74.2452 	 0.650014 	 -62.9726 	 
H 	 -75.983 	 -5.13859 	 -57.6051 	 
*
