! wB97X-D3 SP def2-SVP
%pal
nprocs 24
end

* xyz 0 1
S 	 -37.8196 	 -10.7185 	 20.6017 	 
C 	 -36.9152 	 -10.9927 	 22.0473 	 
C 	 -36.1487 	 -12.2064 	 21.9744 	 
C 	 -36.4969 	 -12.8654 	 20.7571 	 
C 	 -37.2626 	 -12.1473 	 19.8287 	 
H 	 -36.0525 	 -13.8258 	 20.4735 	 
C 	 -35.115 	 -12.6836 	 22.9651 	 
H 	 -35.565 	 -13.4926 	 23.5587 	 
H 	 -35.0899 	 -11.8286 	 23.6994 	 
C 	 -33.7347 	 -13.1348 	 22.4445 	 
H 	 -33.0019 	 -13.256 	 23.3256 	 
H 	 -33.7567 	 -14.1202 	 21.9547 	 
C 	 -33.1454 	 -12.1796 	 21.4347 	 
H 	 -32.1788 	 -12.5518 	 21.128 	 
H 	 -33.745 	 -12.1612 	 20.5489 	 
H 	 -33.036 	 -11.1414 	 21.8078 	 
S 	 -39.3743 	 -12.3816 	 17.9956 	 
C 	 -39.0386 	 -13.0781 	 16.4278 	 
C 	 -37.7545 	 -13.4293 	 16.2688 	 
C 	 -36.9746 	 -13.1214 	 17.4369 	 
C 	 -37.6857 	 -12.5216 	 18.4691 	 
H 	 -37.5113 	 -13.8897 	 15.3874 	 
C 	 -35.4758 	 -13.3677 	 17.4831 	 
H 	 -35.2688 	 -14.084 	 16.692 	 
H 	 -35.2768 	 -13.6844 	 18.4879 	 
C 	 -34.5368 	 -12.156 	 17.2445 	 
H 	 -34.9288 	 -11.3732 	 17.9287 	 
H 	 -34.5532 	 -11.6867 	 16.2288 	 
C 	 -33.0615 	 -12.5659 	 17.5527 	 
H 	 -32.6209 	 -13.2909 	 16.8685 	 
H 	 -33.0525 	 -13.182 	 18.4453 	 
H 	 -32.3412 	 -11.7319 	 17.7176 	 
H 	 -36.9136 	 -10.2217 	 22.8072 	 
H 	 -39.834 	 -13.241 	 15.7695 	 
*
