! wB97X-D3 SP def2-SVP
%pal
nprocs 24
end

* xyz 0 1
S 	 -132.326 	 61.2592 	 -59.6875 	 
C 	 -131.692 	 62.9087 	 -59.7815 	 
C 	 -132.398 	 63.7733 	 -58.9897 	 
C 	 -133.395 	 63.1744 	 -58.2398 	 
C 	 -133.397 	 61.7673 	 -58.3785 	 
H 	 -134 	 63.6272 	 -57.4655 	 
C 	 -131.976 	 65.2295 	 -58.8321 	 
H 	 -131.791 	 65.683 	 -59.8229 	 
H 	 -131.09 	 65.2159 	 -58.115 	 
C 	 -133.02 	 66.138 	 -58.1149 	 
H 	 -133.155 	 65.8076 	 -57.0829 	 
H 	 -132.566 	 67.0762 	 -58.0954 	 
C 	 -134.304 	 66.2738 	 -58.9085 	 
H 	 -134.317 	 66.0376 	 -59.9779 	 
H 	 -135.156 	 65.7558 	 -58.5204 	 
H 	 -134.641 	 67.33 	 -58.7918 	 
S 	 -135.866 	 60.8986 	 -58.9989 	 
C 	 -136.754 	 59.9942 	 -57.7877 	 
C 	 -136.09 	 59.7847 	 -56.6049 	 
C 	 -134.808 	 60.3031 	 -56.6571 	 
C 	 -134.526 	 60.9506 	 -57.9123 	 
H 	 -136.559 	 59.3611 	 -55.7517 	 
C 	 -133.753 	 60.2791 	 -55.5319 	 
H 	 -133.819 	 61.31 	 -55.1177 	 
H 	 -132.739 	 60.2036 	 -55.9457 	 
C 	 -133.878 	 59.2384 	 -54.5029 	 
H 	 -134.845 	 59.2252 	 -53.9256 	 
H 	 -133.073 	 59.4296 	 -53.8397 	 
C 	 -133.629 	 57.7569 	 -54.8911 	 
H 	 -133.205 	 57.1062 	 -54.0874 	 
H 	 -132.967 	 57.8075 	 -55.8049 	 
H 	 -134.598 	 57.333 	 -55.1205 	 
H 	 -130.852 	 63.1887 	 -60.2936 	 
H 	 -137.766 	 59.7125 	 -57.8869 	 
*
