! wB97X-D3 SP def2-SVP
%pal
nprocs 24
end

* xyz 0 1
S 	 -30.3622 	 4.86029 	 6.38804 	 
C 	 -29.7667 	 6.45059 	 6.65102 	 
C 	 -30.7796 	 7.20296 	 7.27777 	 
C 	 -32.0405 	 6.47919 	 7.37075 	 
C 	 -31.9595 	 5.15293 	 6.94379 	 
H 	 -32.9606 	 6.82092 	 7.76763 	 
C 	 -30.6252 	 8.64918 	 7.69046 	 
H 	 -29.678 	 8.78961 	 8.23813 	 
H 	 -31.3886 	 8.72592 	 8.50033 	 
C 	 -30.8324 	 9.69765 	 6.58049 	 
H 	 -31.7878 	 9.47455 	 6.05336 	 
H 	 -31.1033 	 10.5984 	 7.20963 	 
C 	 -29.6649 	 9.92727 	 5.64595 	 
H 	 -29.5382 	 9.14076 	 4.87763 	 
H 	 -29.7703 	 10.8262 	 5.0907 	 
H 	 -28.7251 	 9.88916 	 6.18281 	 
S 	 -32.5709 	 2.50412 	 7.60412 	 
C 	 -34.2631 	 1.95958 	 7.39081 	 
C 	 -34.9552 	 2.95883 	 6.76361 	 
C 	 -34.282 	 4.20224 	 6.55445 	 
C 	 -32.957 	 4.13638 	 6.9537 	 
H 	 -35.9876 	 2.83293 	 6.44491 	 
C 	 -35.0769 	 5.34569 	 5.9164 	 
H 	 -34.65 	 6.23625 	 6.11562 	 
H 	 -36.0431 	 5.37866 	 6.41491 	 
C 	 -35.2814 	 5.1321 	 4.36292 	 
H 	 -35.832 	 6.04761 	 3.99628 	 
H 	 -35.979 	 4.35645 	 4.10893 	 
C 	 -33.9908 	 4.9287 	 3.52984 	 
H 	 -33.4614 	 4.07888 	 3.81027 	 
H 	 -33.2678 	 5.74373 	 3.67431 	 
H 	 -34.0087 	 4.95773 	 2.44719 	 
H 	 -28.8385 	 6.92339 	 6.2925 	 
H 	 -34.6047 	 0.896959 	 7.42227 	 
*
