! wB97X-D3 SP def2-SVP
%pal
nprocs 24
end

* xyz 0 1
S 	 44.7774 	 -20.8819 	 -111.994 	 
C 	 44.6942 	 -19.7296 	 -110.769 	 
C 	 44.2452 	 -20.2302 	 -109.516 	 
C 	 43.9621 	 -21.6411 	 -109.573 	 
C 	 44.0846 	 -22.1145 	 -110.854 	 
H 	 43.5206 	 -22.2105 	 -108.795 	 
C 	 44.1974 	 -19.3941 	 -108.285 	 
H 	 43.5695 	 -19.9281 	 -107.643 	 
H 	 43.6966 	 -18.5129 	 -108.555 	 
C 	 45.5104 	 -19.1727 	 -107.523 	 
H 	 45.7525 	 -20.2451 	 -107.221 	 
H 	 46.4246 	 -18.7562 	 -108.058 	 
C 	 45.1602 	 -18.4537 	 -106.237 	 
H 	 44.4546 	 -19.0298 	 -105.586 	 
H 	 45.973 	 -18.1398 	 -105.686 	 
H 	 44.6251 	 -17.5769 	 -106.526 	 
S 	 45.3656 	 -24.2905 	 -111.997 	 
C 	 44.5134 	 -25.7943 	 -112.134 	 
C 	 43.3603 	 -25.7353 	 -111.51 	 
C 	 42.9836 	 -24.4585 	 -110.976 	 
C 	 43.9437 	 -23.4985 	 -111.219 	 
H 	 42.7936 	 -26.6995 	 -111.541 	 
C 	 41.6316 	 -24.266 	 -110.327 	 
H 	 40.9707 	 -24.3401 	 -111.129 	 
H 	 41.594 	 -23.3191 	 -109.896 	 
C 	 41.2572 	 -25.3629 	 -109.261 	 
H 	 42.0872 	 -25.4849 	 -108.587 	 
H 	 41.0812 	 -26.3123 	 -109.699 	 
C 	 39.92 	 -24.8248 	 -108.635 	 
H 	 39.1268 	 -24.9352 	 -109.406 	 
H 	 40.0644 	 -23.7973 	 -108.28 	 
H 	 39.564 	 -25.4044 	 -107.774 	 
H 	 44.9095 	 -18.6291 	 -110.881 	 
H 	 44.8609 	 -26.7064 	 -112.535 	 
*
