! wB97X-D3 SP def2-SVP
%pal
nprocs 24
end

* xyz 0 1
S 	 -23.8393 	 -32.4959 	 -94.6689 	 
C 	 -23.6239 	 -34.0428 	 -95.4752 	 
C 	 -22.7375 	 -33.9415 	 -96.5686 	 
C 	 -22.3997 	 -32.5721 	 -96.7319 	 
C 	 -23.1008 	 -31.7095 	 -95.9287 	 
H 	 -21.7044 	 -32.2028 	 -97.4577 	 
C 	 -22.1527 	 -35.0858 	 -97.3899 	 
H 	 -22.529 	 -35.9461 	 -96.9066 	 
H 	 -21.0622 	 -34.9654 	 -97.1958 	 
C 	 -22.4218 	 -34.9819 	 -98.8826 	 
H 	 -23.4603 	 -34.9158 	 -98.9603 	 
H 	 -22.0002 	 -34.1867 	 -99.3968 	 
C 	 -21.907 	 -36.2759 	 -99.469 	 
H 	 -22.4298 	 -37.1896 	 -99.158 	 
H 	 -21.9533 	 -36.138 	 -100.526 	 
H 	 -20.8808 	 -36.3752 	 -99.3325 	 
S 	 -24.0526 	 -29.4209 	 -97.1623 	 
C 	 -23.7836 	 -27.8722 	 -96.4945 	 
C 	 -22.9816 	 -27.9777 	 -95.3774 	 
C 	 -22.5775 	 -29.3173 	 -95.0914 	 
C 	 -23.0444 	 -30.2433 	 -96.005 	 
H 	 -22.6932 	 -27.118 	 -94.8067 	 
C 	 -21.6822 	 -29.5847 	 -93.8919 	 
H 	 -21.5204 	 -30.6633 	 -93.814 	 
H 	 -22.1605 	 -29.1899 	 -93.0783 	 
C 	 -20.3238 	 -28.7692 	 -94.0105 	 
H 	 -20.4351 	 -27.6974 	 -94.1809 	 
H 	 -19.9246 	 -29.1238 	 -94.9436 	 
C 	 -19.4923 	 -28.9293 	 -92.7258 	 
H 	 -18.5272 	 -28.4894 	 -92.8371 	 
H 	 -19.3281 	 -29.972 	 -92.556 	 
H 	 -19.9816 	 -28.4963 	 -91.8548 	 
H 	 -24.0378 	 -34.9776 	 -95.2457 	 
H 	 -24.2112 	 -26.9825 	 -96.8382 	 
*
