! wB97X-D3 SP def2-SVP
%pal
nprocs 24
end

* xyz 0 1
S 	 -43.9194 	 28.5477 	 29.3964 	 
C 	 -44.4446 	 27.5479 	 28.0483 	 
C 	 -45.435 	 26.6523 	 28.4004 	 
C 	 -45.6627 	 26.7302 	 29.823 	 
C 	 -44.7403 	 27.5565 	 30.4927 	 
H 	 -46.4868 	 26.2272 	 30.3362 	 
C 	 -46.137 	 25.6949 	 27.4358 	 
H 	 -46.6664 	 26.2796 	 26.7536 	 
H 	 -46.8241 	 25.2207 	 28.0718 	 
C 	 -45.2245 	 24.6037 	 26.7945 	 
H 	 -44.3761 	 25.2139 	 26.2813 	 
H 	 -44.7609 	 24.0547 	 27.5713 	 
C 	 -45.9221 	 23.4822 	 26.0528 	 
H 	 -46.6597 	 22.9758 	 26.6915 	 
H 	 -46.2548 	 23.8319 	 25.0684 	 
H 	 -45.1653 	 22.7561 	 25.8018 	 
S 	 -45.8402 	 29.0023 	 32.623 	 
C 	 -45.383 	 28.6361 	 34.2544 	 
C 	 -44.5696 	 27.4778 	 34.2637 	 
C 	 -44.1591 	 27.07 	 32.9446 	 
C 	 -44.7412 	 27.8168 	 31.9155 	 
H 	 -44.2092 	 27.0866 	 35.2161 	 
C 	 -43.2913 	 25.8155 	 32.7587 	 
H 	 -43.1218 	 25.6535 	 33.8017 	 
H 	 -42.3467 	 26.0353 	 32.3582 	 
C 	 -44.0359 	 24.5409 	 32.1625 	 
H 	 -44.3628 	 24.6701 	 31.1246 	 
H 	 -44.8898 	 24.283 	 32.6888 	 
C 	 -43.1691 	 23.296 	 32.0943 	 
H 	 -42.8458 	 22.854 	 33.0283 	 
H 	 -42.3302 	 23.5552 	 31.4504 	 
H 	 -43.7806 	 22.4981 	 31.565 	 
H 	 -44.1372 	 27.7451 	 27.034 	 
H 	 -45.7897 	 29.137 	 35.15 	 
*
