! wB97X-D3 SP def2-SVP
%pal
nprocs 24
end

* xyz 0 1
S 	 -45.5251 	 -1.52086 	 12.1346 	 
C 	 -45.6696 	 -0.267522 	 13.3576 	 
C 	 -45.6477 	 -0.815317 	 14.6434 	 
C 	 -45.5356 	 -2.22442 	 14.5883 	 
C 	 -45.5064 	 -2.80715 	 13.3292 	 
H 	 -45.49 	 -2.88164 	 15.4264 	 
C 	 -45.649 	 0.00879096 	 15.9219 	 
H 	 -45.145 	 0.938834 	 15.6623 	 
H 	 -45.0951 	 -0.47245 	 16.748 	 
C 	 -47.0198 	 0.394027 	 16.5159 	 
H 	 -47.5377 	 0.990627 	 15.8227 	 
H 	 -47.5393 	 -0.521898 	 16.6226 	 
C 	 -46.9012 	 1.11611 	 17.8196 	 
H 	 -46.2343 	 0.640144 	 18.4579 	 
H 	 -46.4856 	 2.07568 	 17.5059 	 
H 	 -47.8508 	 1.15877 	 18.2745 	 
S 	 -43.8956 	 -4.71388 	 12.324 	 
C 	 -44.5627 	 -6.3474 	 12.0303 	 
C 	 -45.8335 	 -6.41885 	 12.5026 	 
C 	 -46.2874 	 -5.25041 	 13.1626 	 
C 	 -45.3636 	 -4.22398 	 13.0755 	 
H 	 -46.3544 	 -7.3388 	 12.3415 	 
C 	 -47.6674 	 -5.19848 	 13.7771 	 
H 	 -48.3284 	 -5.67149 	 12.9268 	 
H 	 -48.0912 	 -4.14637 	 13.78 	 
C 	 -47.938 	 -6.06737 	 14.9938 	 
H 	 -47.1661 	 -5.90865 	 15.7646 	 
H 	 -47.7924 	 -7.12648 	 14.7236 	 
C 	 -49.3669 	 -5.83005 	 15.5246 	 
H 	 -50.1157 	 -6.23145 	 14.8526 	 
H 	 -49.64 	 -4.79247 	 15.8337 	 
H 	 -49.4621 	 -6.52657 	 16.3608 	 
H 	 -45.8154 	 0.754339 	 13.1747 	 
H 	 -44.1105 	 -7.0569 	 11.4211 	 
*
