! wB97X-D3 SP def2-SVP
%pal
nprocs 24
end

* xyz 0 1
S 	 -127.478 	 10.145 	 -10.3737 	 
C 	 -125.856 	 10.5182 	 -9.77396 	 
C 	 -125.247 	 11.4652 	 -10.623 	 
C 	 -126.264 	 12.1367 	 -11.4059 	 
C 	 -127.565 	 11.5754 	 -11.3858 	 
H 	 -126.027 	 12.9078 	 -12.0929 	 
C 	 -123.775 	 11.9781 	 -10.4962 	 
H 	 -123.37 	 11.8687 	 -11.5068 	 
H 	 -123.084 	 11.331 	 -9.94244 	 
C 	 -123.517 	 13.3506 	 -9.89054 	 
H 	 -122.465 	 13.4256 	 -9.66827 	 
H 	 -123.691 	 14.0093 	 -10.8033 	 
C 	 -124.596 	 13.8661 	 -8.83854 	 
H 	 -124.537 	 13.2519 	 -7.95956 	 
H 	 -124.448 	 14.9117 	 -8.53191 	 
H 	 -125.622 	 13.8057 	 -9.20114 	 
S 	 -129.402 	 13.6447 	 -11.8077 	 
C 	 -130.708 	 13.3306 	 -12.9304 	 
C 	 -130.767 	 12.046 	 -13.3991 	 
C 	 -129.596 	 11.28 	 -12.9261 	 
C 	 -128.742 	 12.0186 	 -12.0629 	 
H 	 -131.625 	 11.7299 	 -13.9843 	 
C 	 -129.275 	 9.89847 	 -13.3015 	 
H 	 -128.212 	 9.62655 	 -13.246 	 
H 	 -129.634 	 9.79688 	 -14.351 	 
C 	 -130.094 	 8.96446 	 -12.4037 	 
H 	 -131.092 	 9.09311 	 -12.7969 	 
H 	 -130.17 	 9.38624 	 -11.3631 	 
C 	 -129.455 	 7.55525 	 -12.361 	 
H 	 -130.084 	 6.80825 	 -11.9117 	 
H 	 -128.459 	 7.57296 	 -11.9294 	 
H 	 -129.2 	 7.1693 	 -13.2925 	 
H 	 -125.351 	 9.83508 	 -9.16309 	 
H 	 -131.518 	 13.9772 	 -13.0225 	 
*
