! wB97X-D3 SP def2-SVP
%pal
nprocs 24
end

* xyz 0 1
S 	 -59.4834 	 -53.2734 	 -86.477 	 
C 	 -60.5753 	 -52.3818 	 -85.404 	 
C 	 -60.4476 	 -52.9209 	 -84.1274 	 
C 	 -59.8056 	 -54.1771 	 -84.0502 	 
C 	 -59.3383 	 -54.5377 	 -85.3328 	 
H 	 -59.6219 	 -54.7922 	 -83.2272 	 
C 	 -61.0037 	 -52.337 	 -82.8632 	 
H 	 -61.2318 	 -53.1285 	 -82.1319 	 
H 	 -62.0447 	 -51.9356 	 -82.9785 	 
C 	 -60.0315 	 -51.2661 	 -82.2527 	 
H 	 -59.025 	 -51.5744 	 -82.4314 	 
H 	 -60.0917 	 -50.3372 	 -82.7921 	 
C 	 -60.3906 	 -50.9148 	 -80.8267 	 
H 	 -61.4655 	 -50.6491 	 -80.9105 	 
H 	 -60.129 	 -51.7426 	 -80.1858 	 
H 	 -59.9307 	 -50.0099 	 -80.4083 	 
S 	 -56.8004 	 -55.5986 	 -85.5448 	 
C 	 -56.5887 	 -57.2615 	 -85.6669 	 
C 	 -57.7737 	 -57.9202 	 -85.3557 	 
C 	 -58.9027 	 -57.0657 	 -85.3267 	 
C 	 -58.5714 	 -55.7708 	 -85.5965 	 
H 	 -57.7596 	 -58.9757 	 -85.1658 	 
C 	 -60.376 	 -57.4466 	 -85.0591 	 
H 	 -61.1199 	 -56.6848 	 -84.8705 	 
H 	 -60.1969 	 -57.7831 	 -83.9757 	 
C 	 -60.8325 	 -58.6393 	 -85.9006 	 
H 	 -61.6676 	 -59.2056 	 -85.4849 	 
H 	 -59.9908 	 -59.3596 	 -86.004 	 
C 	 -61.2318 	 -58.2991 	 -87.293 	 
H 	 -62.0462 	 -57.5677 	 -87.378 	 
H 	 -61.3868 	 -59.2338 	 -87.8931 	 
H 	 -60.3758 	 -57.7357 	 -87.6928 	 
H 	 -61.0301 	 -51.4517 	 -85.6771 	 
H 	 -55.5809 	 -57.7523 	 -85.8488 	 
*
