! wB97X-D3 SP def2-SVP
%pal
nprocs 24
end

* xyz 0 1
S 	 -111.955 	 56.4954 	 -80.1922 	 
C 	 -113.251 	 56.9477 	 -81.2516 	 
C 	 -113.647 	 58.2798 	 -81.0348 	 
C 	 -113.032 	 58.8482 	 -79.8662 	 
C 	 -112.13 	 58.0144 	 -79.2246 	 
H 	 -113.33 	 59.8189 	 -79.4449 	 
C 	 -114.604 	 59.069 	 -81.8694 	 
H 	 -114.648 	 58.6372 	 -82.8511 	 
H 	 -114.155 	 60.0089 	 -82.0702 	 
C 	 -116.055 	 59.0513 	 -81.3963 	 
H 	 -116.697 	 59.3085 	 -82.2405 	 
H 	 -116.377 	 58.1199 	 -81 	 
C 	 -116.432 	 60.0257 	 -80.2768 	 
H 	 -115.823 	 59.8628 	 -79.3782 	 
H 	 -116.263 	 61.0687 	 -80.609 	 
H 	 -117.445 	 59.9691 	 -79.8552 	 
S 	 -111.443 	 57.0305 	 -76.8398 	 
C 	 -111.006 	 58.0653 	 -75.5434 	 
C 	 -110.628 	 59.2815 	 -75.9976 	 
C 	 -110.995 	 59.4848 	 -77.3365 	 
C 	 -111.488 	 58.325 	 -77.9618 	 
H 	 -110.17 	 59.9741 	 -75.29 	 
C 	 -110.696 	 60.7567 	 -78.1045 	 
H 	 -111.047 	 60.6086 	 -79.1191 	 
H 	 -109.571 	 60.6088 	 -78.1014 	 
C 	 -111.159 	 62.0715 	 -77.3564 	 
H 	 -110.467 	 62.1952 	 -76.5114 	 
H 	 -112.173 	 61.8984 	 -77.0699 	 
C 	 -111.143 	 63.4228 	 -78.0338 	 
H 	 -110.328 	 63.5362 	 -78.6966 	 
H 	 -111.213 	 64.1942 	 -77.364 	 
H 	 -112.034 	 63.4639 	 -78.6449 	 
H 	 -113.762 	 56.1627 	 -81.8389 	 
H 	 -110.85 	 57.7203 	 -74.4847 	 
*
