! wB97X-D3 SP def2-SVP
%pal
nprocs 24
end

* xyz 0 1
S 	 -147.564 	 4.69262 	 9.90193 	 
C 	 -147.483 	 3.12482 	 9.11791 	 
C 	 -146.183 	 2.99284 	 8.57949 	 
C 	 -145.336 	 4.11523 	 8.80335 	 
C 	 -145.964 	 5.21012 	 9.43468 	 
H 	 -144.404 	 4.22662 	 8.27223 	 
C 	 -145.656 	 1.90404 	 7.59405 	 
H 	 -145.625 	 2.38748 	 6.62413 	 
H 	 -146.451 	 1.17301 	 7.47839 	 
C 	 -144.304 	 1.14164 	 7.85097 	 
H 	 -143.412 	 1.80827 	 7.75106 	 
H 	 -144.222 	 0.874308 	 8.86729 	 
C 	 -144.008 	 -0.124867 	 7.02515 	 
H 	 -144.722 	 -0.902032 	 7.29251 	 
H 	 -144.004 	 0.200164 	 5.95996 	 
H 	 -143.02 	 -0.576328 	 7.11509 	 
S 	 -143.991 	 6.47026 	 10.8147 	 
C 	 -143.905 	 8.19622 	 10.8688 	 
C 	 -145.009 	 8.82339 	 10.2382 	 
C 	 -145.861 	 7.7975 	 9.61941 	 
C 	 -145.462 	 6.5 	 9.86902 	 
H 	 -145.07 	 9.86408 	 10.2436 	 
C 	 -147.091 	 8.25493 	 8.87696 	 
H 	 -147.686 	 7.43772 	 8.57051 	 
H 	 -146.769 	 8.83015 	 8.04918 	 
C 	 -148.051 	 9.12117 	 9.69016 	 
H 	 -147.581 	 9.85847 	 10.3698 	 
H 	 -148.619 	 8.57913 	 10.5209 	 
C 	 -149.077 	 9.77685 	 8.78552 	 
H 	 -149.843 	 10.1887 	 9.46954 	 
H 	 -149.513 	 8.96631 	 8.14499 	 
H 	 -148.679 	 10.5756 	 8.2402 	 
H 	 -148.266 	 2.38122 	 9.06698 	 
H 	 -143.233 	 8.71852 	 11.4514 	 
*
