! wB97X-D3 SP def2-SVP
%pal
nprocs 24
end

* xyz 0 1
S 	 -34.514 	 0.195219 	 10.3681 	 
C 	 -33.2501 	 -0.687374 	 11.2078 	 
C 	 -33.6531 	 -0.854337 	 12.5823 	 
C 	 -34.8632 	 -0.120981 	 12.9275 	 
C 	 -35.4724 	 0.511642 	 11.8676 	 
H 	 -35.2807 	 -0.00950174 	 13.892 	 
C 	 -32.7411 	 -1.58094 	 13.5795 	 
H 	 -32.3503 	 -2.53372 	 13.078 	 
H 	 -33.4391 	 -1.76847 	 14.3663 	 
C 	 -31.633 	 -0.779677 	 14.288 	 
H 	 -31.2882 	 -1.27196 	 15.164 	 
H 	 -30.8157 	 -0.697455 	 13.5325 	 
C 	 -32.0634 	 0.60021 	 14.7227 	 
H 	 -32.3688 	 1.12501 	 13.8239 	 
H 	 -32.8718 	 0.574023 	 15.4816 	 
H 	 -31.3044 	 1.2257 	 15.1521 	 
S 	 -37.8755 	 1.54746 	 10.8698 	 
C 	 -38.6357 	 2.90727 	 11.7362 	 
C 	 -37.7851 	 3.40448 	 12.6662 	 
C 	 -36.6132 	 2.55815 	 12.8679 	 
C 	 -36.5254 	 1.4826 	 12.029 	 
H 	 -38.0342 	 4.33921 	 13.0825 	 
C 	 -35.5806 	 2.92998 	 13.9132 	 
H 	 -35.307 	 3.92607 	 13.7227 	 
H 	 -34.6478 	 2.39276 	 13.7662 	 
C 	 -36.0264 	 2.7689 	 15.3502 	 
H 	 -36.417 	 1.81346 	 15.5327 	 
H 	 -36.8588 	 3.47788 	 15.5943 	 
C 	 -34.9748 	 3.30624 	 16.3069 	 
H 	 -35.2824 	 3.12741 	 17.3396 	 
H 	 -34.7573 	 4.396 	 16.2014 	 
H 	 -34.1074 	 2.74665 	 16.1808 	 
H 	 -32.3409 	 -1.13594 	 10.8518 	 
H 	 -39.5751 	 3.33394 	 11.4947 	 
*
