! wB97X-D3 SP def2-SVP
%pal
nprocs 24
end

* xyz 0 1
S 	 -45.0317 	 -4.66474 	 -11.4706 	 
C 	 -46.153 	 -4.64884 	 -10.1671 	 
C 	 -46.7318 	 -3.39697 	 -10.0101 	 
C 	 -46.1645 	 -2.38931 	 -10.8115 	 
C 	 -45.219 	 -2.87516 	 -11.6728 	 
H 	 -46.516 	 -1.32645 	 -10.6961 	 
C 	 -47.8049 	 -2.99134 	 -9.00574 	 
H 	 -47.7552 	 -1.87814 	 -8.74363 	 
H 	 -47.4109 	 -3.41166 	 -8.09112 	 
C 	 -49.171 	 -3.53036 	 -9.29661 	 
H 	 -49.1207 	 -4.61467 	 -9.36683 	 
H 	 -49.746 	 -3.26084 	 -8.35959 	 
C 	 -49.8374 	 -3.09712 	 -10.6054 	 
H 	 -49.2876 	 -3.44658 	 -11.4836 	 
H 	 -50.8782 	 -3.42068 	 -10.7531 	 
H 	 -49.9648 	 -2.02452 	 -10.7985 	 
S 	 -43.3386 	 -0.839211 	 -11.8299 	 
C 	 -42.6077 	 -0.401178 	 -13.3075 	 
C 	 -43.0013 	 -1.25849 	 -14.3301 	 
C 	 -44.1269 	 -2.06282 	 -13.9284 	 
C 	 -44.3674 	 -2.08054 	 -12.5561 	 
H 	 -42.5065 	 -1.25823 	 -15.3122 	 
C 	 -44.7174 	 -3.07733 	 -14.8573 	 
H 	 -45.0323 	 -3.93945 	 -14.257 	 
H 	 -43.9549 	 -3.49219 	 -15.4606 	 
C 	 -45.9942 	 -2.5903 	 -15.6284 	 
H 	 -46.7411 	 -2.16628 	 -14.9506 	 
H 	 -46.4258 	 -3.40463 	 -16.1274 	 
C 	 -45.7309 	 -1.58804 	 -16.7215 	 
H 	 -46.5729 	 -1.28161 	 -17.1418 	 
H 	 -45.1576 	 -2.05915 	 -17.5384 	 
H 	 -45.2526 	 -0.734265 	 -16.317 	 
H 	 -46.2874 	 -5.43573 	 -9.44461 	 
H 	 -41.7347 	 0.224793 	 -13.4342 	 
*
