! wB97X-D3 SP def2-SVP
%pal
nprocs 24
end

* xyz 0 1
S 	 -2.94104 	 -20.6518 	 -106.172 	 
C 	 -2.64893 	 -22.3939 	 -106.004 	 
C 	 -3.61616 	 -23.0382 	 -105.183 	 
C 	 -4.66217 	 -22.1245 	 -104.867 	 
C 	 -4.39195 	 -20.8239 	 -105.248 	 
H 	 -5.54836 	 -22.3933 	 -104.412 	 
C 	 -3.67094 	 -24.4972 	 -104.859 	 
H 	 -3.52976 	 -24.9728 	 -105.862 	 
H 	 -4.63375 	 -24.8541 	 -104.45 	 
C 	 -2.52091 	 -24.9436 	 -103.972 	 
H 	 -1.56746 	 -24.7191 	 -104.456 	 
H 	 -2.65107 	 -24.377 	 -103.005 	 
C 	 -2.57673 	 -26.4413 	 -103.727 	 
H 	 -1.89335 	 -26.6743 	 -102.935 	 
H 	 -3.61227 	 -26.7539 	 -103.514 	 
H 	 -2.22054 	 -26.7929 	 -104.722 	 
S 	 -5.28093 	 -18.5258 	 -106.384 	 
C 	 -6.24956 	 -17.4622 	 -105.475 	 
C 	 -6.70531 	 -18.0715 	 -104.31 	 
C 	 -6.22979 	 -19.3665 	 -104.075 	 
C 	 -5.28107 	 -19.6529 	 -105.097 	 
H 	 -7.31813 	 -17.4965 	 -103.647 	 
C 	 -6.68172 	 -20.158 	 -102.879 	 
H 	 -6.90509 	 -21.1792 	 -103.205 	 
H 	 -7.62785 	 -19.8275 	 -102.472 	 
C 	 -5.58009 	 -20.1256 	 -101.786 	 
H 	 -4.713 	 -20.6418 	 -102.121 	 
H 	 -5.93933 	 -20.7724 	 -100.97 	 
C 	 -5.22479 	 -18.7792 	 -101.135 	 
H 	 -4.24504 	 -18.9439 	 -100.572 	 
H 	 -6.04299 	 -18.4039 	 -100.475 	 
H 	 -4.92861 	 -18.0323 	 -101.822 	 
H 	 -1.6894 	 -22.9249 	 -106.138 	 
H 	 -6.56171 	 -16.4731 	 -105.765 	 
*
