! wB97X-D3 SP def2-SVP
%pal
nprocs 24
end

* xyz 0 1
S 	 -133.004 	 26.9885 	 -16.4859 	 
C 	 -133.877 	 25.5406 	 -16.8289 	 
C 	 -134.838 	 25.6895 	 -17.8059 	 
C 	 -135.041 	 27.0883 	 -18.0536 	 
C 	 -134.043 	 27.923 	 -17.5166 	 
H 	 -135.839 	 27.4732 	 -18.6056 	 
C 	 -135.558 	 24.5464 	 -18.5474 	 
H 	 -136.545 	 24.7197 	 -18.2222 	 
H 	 -135.165 	 23.5158 	 -18.2232 	 
C 	 -135.515 	 24.6238 	 -20.0696 	 
H 	 -136.071 	 25.4994 	 -20.2583 	 
H 	 -134.509 	 24.916 	 -20.2822 	 
C 	 -136.027 	 23.3552 	 -20.8076 	 
H 	 -135.396 	 22.5771 	 -20.6082 	 
H 	 -137.077 	 23.1921 	 -20.6249 	 
H 	 -136.004 	 23.6293 	 -21.8835 	 
S 	 -134.566 	 30.2704 	 -16.1328 	 
C 	 -134.31 	 31.8296 	 -16.9287 	 
C 	 -133.743 	 31.6336 	 -18.2024 	 
C 	 -133.494 	 30.2759 	 -18.5398 	 
C 	 -133.948 	 29.4092 	 -17.5266 	 
H 	 -133.548 	 32.5262 	 -18.8229 	 
C 	 -132.935 	 29.8657 	 -19.8612 	 
H 	 -132.293 	 28.9255 	 -19.6728 	 
H 	 -132.327 	 30.6537 	 -20.1906 	 
C 	 -133.936 	 29.56 	 -20.9771 	 
H 	 -134.381 	 30.5797 	 -21.2162 	 
H 	 -134.647 	 28.9275 	 -20.471 	 
C 	 -133.435 	 28.8044 	 -22.1745 	 
H 	 -133.033 	 27.7784 	 -21.9698 	 
H 	 -132.714 	 29.474 	 -22.7091 	 
H 	 -134.151 	 28.6906 	 -22.9403 	 
H 	 -133.587 	 24.5587 	 -16.3497 	 
H 	 -134.547 	 32.8229 	 -16.6089 	 
*
