! wB97X-D3 SP def2-SVP
%pal
nprocs 24
end

* xyz 0 1
S 	 -98.3191 	 -23.9702 	 -66.0906 	 
C 	 -99.7559 	 -23.1835 	 -65.6571 	 
C 	 -99.5585 	 -22.2991 	 -64.6035 	 
C 	 -98.2279 	 -22.3042 	 -64.0999 	 
C 	 -97.4744 	 -23.2738 	 -64.6481 	 
H 	 -97.6885 	 -21.6824 	 -63.3494 	 
C 	 -100.741 	 -21.4345 	 -64.0674 	 
H 	 -101.547 	 -21.5046 	 -64.8129 	 
H 	 -100.34 	 -20.395 	 -64.0721 	 
C 	 -101.306 	 -21.8652 	 -62.7191 	 
H 	 -101.518 	 -22.8826 	 -62.6581 	 
H 	 -100.59 	 -21.5656 	 -62.0416 	 
C 	 -102.56 	 -21.0024 	 -62.5473 	 
H 	 -103.103 	 -21.3153 	 -61.6373 	 
H 	 -102.418 	 -19.9768 	 -62.428 	 
H 	 -103.267 	 -21.1576 	 -63.3497 	 
S 	 -95.0023 	 -23.8384 	 -65.7126 	 
C 	 -93.6894 	 -24.1625 	 -64.6609 	 
C 	 -94.0027 	 -23.9118 	 -63.3383 	 
C 	 -95.3823 	 -23.4951 	 -63.1826 	 
C 	 -96.0996 	 -23.5292 	 -64.3965 	 
H 	 -93.2765 	 -23.9508 	 -62.539 	 
C 	 -96.0299 	 -23.3426 	 -61.7996 	 
H 	 -95.7288 	 -24.1796 	 -61.2057 	 
H 	 -97.1284 	 -23.4504 	 -61.951 	 
C 	 -95.7113 	 -22.0138 	 -61.0538 	 
H 	 -96.0569 	 -21.1311 	 -61.5415 	 
H 	 -94.6389 	 -21.9251 	 -61.1004 	 
C 	 -96.1399 	 -21.915 	 -59.6202 	 
H 	 -97.1727 	 -21.7136 	 -59.45 	 
H 	 -95.5618 	 -21.1348 	 -59.1199 	 
H 	 -95.9023 	 -22.8046 	 -59.0565 	 
H 	 -100.691 	 -23.1605 	 -66.2476 	 
H 	 -92.736 	 -24.3517 	 -65.0324 	 
*
