! wB97X-D3 SP def2-SVP
%pal
nprocs 24
end

* xyz 0 1
S 	 27.2379 	 -5.76694 	 -117.512 	 
C 	 26.2211 	 -7.21014 	 -117.251 	 
C 	 26.7198 	 -8.27636 	 -118.034 	 
C 	 28.035 	 -8.02235 	 -118.575 	 
C 	 28.4956 	 -6.74922 	 -118.319 	 
H 	 28.6575 	 -8.80469 	 -118.862 	 
C 	 26.1407 	 -9.6942 	 -118.075 	 
H 	 25.034 	 -9.48364 	 -117.808 	 
H 	 26.695 	 -10.2246 	 -117.251 	 
C 	 26.2317 	 -10.3967 	 -119.446 	 
H 	 27.2847 	 -10.4984 	 -119.709 	 
H 	 25.8075 	 -11.4337 	 -119.381 	 
C 	 25.434 	 -9.62879 	 -120.48 	 
H 	 25.812 	 -8.60176 	 -120.756 	 
H 	 25.5402 	 -10.0822 	 -121.493 	 
H 	 24.3881 	 -9.52102 	 -120.318 	 
S 	 29.637 	 -4.73642 	 -119.773 	 
C 	 31.382 	 -4.66483 	 -119.946 	 
C 	 31.9617 	 -5.6445 	 -119.155 	 
C 	 31.0654 	 -6.45941 	 -118.437 	 
C 	 29.7335 	 -6.09472 	 -118.65 	 
H 	 33.0176 	 -5.52915 	 -118.937 	 
C 	 31.4788 	 -7.68177 	 -117.595 	 
H 	 30.5257 	 -8.1171 	 -117.159 	 
H 	 32.0351 	 -7.33618 	 -116.749 	 
C 	 32.1001 	 -8.80953 	 -118.437 	 
H 	 32.9448 	 -8.36991 	 -119.002 	 
H 	 31.3514 	 -9.13221 	 -119.182 	 
C 	 32.508 	 -9.99181 	 -117.492 	 
H 	 32.4831 	 -10.884 	 -118.057 	 
H 	 31.7929 	 -10.1508 	 -116.649 	 
H 	 33.4339 	 -9.59297 	 -117.006 	 
H 	 25.3151 	 -7.2832 	 -116.806 	 
H 	 31.9376 	 -4.10692 	 -120.686 	 
*
