! wB97X-D3 SP def2-SVP
%pal
nprocs 24
end

* xyz 0 1
S 	 -84.8465 	 3.14666 	 -112.916 	 
C 	 -84.2987 	 4.79038 	 -112.752 	 
C 	 -84.4691 	 5.45569 	 -113.954 	 
C 	 -85.0039 	 4.57965 	 -115.011 	 
C 	 -85.231 	 3.30848 	 -114.6 	 
H 	 -85.2038 	 4.97969 	 -115.959 	 
C 	 -84.0291 	 6.91727 	 -114.292 	 
H 	 -84.1742 	 7.37335 	 -113.331 	 
H 	 -84.8207 	 7.36283 	 -114.945 	 
C 	 -82.6494 	 7.04094 	 -114.932 	 
H 	 -82.5004 	 8.06694 	 -114.756 	 
H 	 -81.9521 	 6.33924 	 -114.403 	 
C 	 -82.6773 	 6.95372 	 -116.455 	 
H 	 -83.0725 	 7.86282 	 -116.907 	 
H 	 -81.6733 	 6.69361 	 -116.853 	 
H 	 -83.4315 	 6.19785 	 -116.802 	 
S 	 -86.6142 	 1.05402 	 -114.341 	 
C 	 -87.0595 	 0.187823 	 -115.707 	 
C 	 -86.5713 	 0.665916 	 -116.837 	 
C 	 -85.7185 	 1.78071 	 -116.599 	 
C 	 -85.7954 	 2.18632 	 -115.3 	 
H 	 -86.5257 	 0.114009 	 -117.795 	 
C 	 -84.9698 	 2.42671 	 -117.733 	 
H 	 -84.2918 	 1.60552 	 -118.138 	 
H 	 -84.2962 	 3.11333 	 -117.349 	 
C 	 -85.7527 	 3.19387 	 -118.82 	 
H 	 -86.1628 	 4.17039 	 -118.493 	 
H 	 -86.5706 	 2.54894 	 -119.06 	 
C 	 -85.0307 	 3.45949 	 -120.131 	 
H 	 -84.2053 	 4.26285 	 -119.988 	 
H 	 -85.6936 	 3.81312 	 -120.862 	 
H 	 -84.7464 	 2.5155 	 -120.525 	 
H 	 -83.7115 	 5.17021 	 -111.955 	 
H 	 -87.6116 	 -0.771172 	 -115.603 	 
*
