! wB97X-D3 SP def2-SVP
%pal
nprocs 24
end

* xyz 0 1
S 	 -85.7518 	 -5.65783 	 -63.8453 	 
C 	 -87.2854 	 -6.20677 	 -64.3696 	 
C 	 -88.1415 	 -6.44382 	 -63.3246 	 
C 	 -87.4716 	 -6.35909 	 -62.0703 	 
C 	 -86.201 	 -5.84406 	 -62.1865 	 
H 	 -87.8732 	 -6.61826 	 -61.0932 	 
C 	 -89.5726 	 -6.9621 	 -63.4217 	 
H 	 -89.5789 	 -8.05755 	 -63.124 	 
H 	 -89.822 	 -7.07046 	 -64.4921 	 
C 	 -90.601 	 -6.12687 	 -62.7561 	 
H 	 -90.4473 	 -6.25971 	 -61.6039 	 
H 	 -90.3795 	 -5.12149 	 -63.0848 	 
C 	 -92.0837 	 -6.28276 	 -63.2114 	 
H 	 -92.1002 	 -6.20143 	 -64.3039 	 
H 	 -92.4572 	 -7.27947 	 -62.9521 	 
H 	 -92.7773 	 -5.45172 	 -62.8903 	 
S 	 -84.3234 	 -7.07555 	 -60.5861 	 
C 	 -83.4658 	 -6.01715 	 -59.4123 	 
C 	 -83.8564 	 -4.69686 	 -59.4993 	 
C 	 -84.8507 	 -4.47865 	 -60.4777 	 
C 	 -85.2385 	 -5.6513 	 -61.0754 	 
H 	 -83.45 	 -4.01633 	 -58.8279 	 
C 	 -85.5516 	 -3.10207 	 -60.7568 	 
H 	 -85.7828 	 -2.54741 	 -59.8273 	 
H 	 -86.4593 	 -3.26659 	 -61.2843 	 
C 	 -84.6082 	 -2.13299 	 -61.5713 	 
H 	 -84.3035 	 -2.59337 	 -62.4237 	 
H 	 -83.7215 	 -2.00513 	 -60.9319 	 
C 	 -85.293 	 -0.785995 	 -61.8932 	 
H 	 -84.5351 	 -0.163007 	 -62.4651 	 
H 	 -85.8188 	 -0.196529 	 -61.0769 	 
H 	 -86.0436 	 -1.00055 	 -62.6639 	 
H 	 -87.5513 	 -6.45568 	 -65.4034 	 
H 	 -82.803 	 -6.46623 	 -58.7576 	 
*
