! wB97X-D3 SP def2-SVP
%pal
nprocs 24
end

* xyz 0 1
S 	 -42.5102 	 18.03 	 -94.983 	 
C 	 -41.997 	 19.0079 	 -93.6143 	 
C 	 -41.5324 	 18.2098 	 -92.5826 	 
C 	 -41.7571 	 16.8137 	 -92.8622 	 
C 	 -42.3162 	 16.5674 	 -94.1018 	 
H 	 -41.6596 	 15.9167 	 -92.1815 	 
C 	 -41.0497 	 18.7245 	 -91.1738 	 
H 	 -40.8881 	 17.8754 	 -90.4803 	 
H 	 -41.8436 	 19.3765 	 -90.6519 	 
C 	 -39.5754 	 19.2731 	 -91.1727 	 
H 	 -39.5229 	 20.3153 	 -91.5006 	 
H 	 -39.2917 	 19.4399 	 -90.0765 	 
C 	 -38.4391 	 18.401 	 -91.8356 	 
H 	 -38.3004 	 17.4064 	 -91.324 	 
H 	 -38.6869 	 18.3222 	 -92.9132 	 
H 	 -37.393 	 18.8791 	 -91.8575 	 
S 	 -44.1041 	 15.2099 	 -95.4799 	 
C 	 -43.8737 	 13.5828 	 -95.9871 	 
C 	 -42.6876 	 13.1272 	 -95.5582 	 
C 	 -41.9547 	 14.0714 	 -94.713 	 
C 	 -42.6109 	 15.271 	 -94.6953 	 
H 	 -42.4739 	 12.0752 	 -95.6653 	 
C 	 -40.7969 	 13.6284 	 -93.9457 	 
H 	 -41.0692 	 12.7622 	 -93.2265 	 
H 	 -40.5584 	 14.3998 	 -93.1591 	 
C 	 -39.5263 	 13.2213 	 -94.6978 	 
H 	 -39.6783 	 12.2964 	 -95.2538 	 
H 	 -38.6845 	 13.0114 	 -94.0376 	 
C 	 -38.9796 	 14.3938 	 -95.6293 	 
H 	 -37.9271 	 14.2786 	 -95.9502 	 
H 	 -38.9489 	 15.3129 	 -95.0074 	 
H 	 -39.5297 	 14.4422 	 -96.5381 	 
H 	 -41.8612 	 20.0447 	 -93.6893 	 
H 	 -44.5614 	 12.927 	 -96.4507 	 
*
