! wB97X-D3 SP def2-SVP
%pal
nprocs 24
end

* xyz 0 1
S 	 -119.242 	 18.363 	 -111.871 	 
C 	 -120.171 	 19.4544 	 -110.89 	 
C 	 -120.601 	 18.8048 	 -109.757 	 
C 	 -120.06 	 17.4593 	 -109.651 	 
C 	 -119.254 	 17.0915 	 -110.719 	 
H 	 -120.206 	 16.8529 	 -108.736 	 
C 	 -121.362 	 19.3436 	 -108.537 	 
H 	 -120.72 	 19.0699 	 -107.735 	 
H 	 -122.255 	 18.6454 	 -108.46 	 
C 	 -121.715 	 20.8158 	 -108.572 	 
H 	 -120.815 	 21.4417 	 -108.475 	 
H 	 -122.243 	 21.0957 	 -109.497 	 
C 	 -122.579 	 21.2427 	 -107.436 	 
H 	 -123.611 	 20.9383 	 -107.489 	 
H 	 -122.213 	 20.9247 	 -106.458 	 
H 	 -122.661 	 22.3701 	 -107.354 	 
S 	 -117.746 	 15.3927 	 -109.166 	 
C 	 -117.03 	 13.9561 	 -109.955 	 
C 	 -117.074 	 14.0528 	 -111.325 	 
C 	 -117.818 	 15.1544 	 -111.795 	 
C 	 -118.398 	 15.8844 	 -110.743 	 
H 	 -116.638 	 13.3233 	 -111.95 	 
C 	 -118.141 	 15.3363 	 -113.294 	 
H 	 -117.3 	 15.6589 	 -113.911 	 
H 	 -118.681 	 16.2299 	 -113.269 	 
C 	 -118.84 	 14.0936 	 -114.044 	 
H 	 -119.832 	 13.9642 	 -113.708 	 
H 	 -118.472 	 13.1169 	 -113.815 	 
C 	 -119.059 	 14.2976 	 -115.586 	 
H 	 -119.782 	 15.1318 	 -115.706 	 
H 	 -119.422 	 13.3969 	 -116.05 	 
H 	 -118.067 	 14.6599 	 -116.064 	 
H 	 -120.491 	 20.4478 	 -111.164 	 
H 	 -116.52 	 13.1764 	 -109.329 	 
*
