! wB97X-D3 SP def2-SVP
%pal
nprocs 24
end

* xyz 0 1
S 	 -44.0488 	 11.3344 	 26.8458 	 
C 	 -45.7649 	 11.0487 	 27.2591 	 
C 	 -46.2599 	 12.2359 	 27.7425 	 
C 	 -45.4503 	 13.3858 	 27.4558 	 
C 	 -44.2984 	 13.054 	 26.7721 	 
H 	 -45.638 	 14.4502 	 27.6868 	 
C 	 -47.6111 	 12.5151 	 28.3979 	 
H 	 -48.4196 	 11.8558 	 28.0147 	 
H 	 -47.8935 	 13.5216 	 28.2156 	 
C 	 -47.6263 	 12.3691 	 29.925 	 
H 	 -48.6575 	 12.2334 	 30.2715 	 
H 	 -47.0659 	 11.5254 	 30.2101 	 
C 	 -46.9854 	 13.6362 	 30.5889 	 
H 	 -46.8968 	 13.7501 	 31.7118 	 
H 	 -45.9679 	 13.6554 	 30.2623 	 
H 	 -47.5813 	 14.5536 	 30.3549 	 
S 	 -41.5771 	 13.5381 	 26.6169 	 
C 	 -41.052 	 15.2048 	 26.2088 	 
C 	 -42.0546 	 15.9072 	 25.6126 	 
C 	 -43.3142 	 15.265 	 25.7517 	 
C 	 -43.2506 	 14.0257 	 26.4316 	 
H 	 -41.909 	 16.8825 	 25.2669 	 
C 	 -44.5309 	 15.8921 	 25.2069 	 
H 	 -44.577 	 16.9759 	 25.5171 	 
H 	 -45.3816 	 15.4544 	 25.6868 	 
C 	 -44.7463 	 15.6621 	 23.6983 	 
H 	 -44.0016 	 16.238 	 23.1753 	 
H 	 -45.7481 	 15.9625 	 23.415 	 
C 	 -44.6098 	 14.144 	 23.3849 	 
H 	 -43.5717 	 13.7218 	 23.4504 	 
H 	 -44.9187 	 13.9915 	 22.3328 	 
H 	 -45.1955 	 13.6006 	 24.1232 	 
H 	 -46.1311 	 10.054 	 27.3454 	 
H 	 -40.0189 	 15.5204 	 26.1416 	 
*
