! wB97X-D3 SP def2-SVP
%pal
nprocs 24
end

* xyz 0 1
S 	 -45.4465 	 12.4948 	 27.138 	 
C 	 -45.5767 	 12.6428 	 25.3986 	 
C 	 -46.8673 	 12.8984 	 25.0392 	 
C 	 -47.7217 	 12.9477 	 26.1581 	 
C 	 -47.1779 	 12.684 	 27.3523 	 
H 	 -48.7868 	 13.0853 	 25.9871 	 
C 	 -47.418 	 13.0081 	 23.5971 	 
H 	 -48.323 	 12.3923 	 23.5026 	 
H 	 -46.6969 	 12.5852 	 22.8852 	 
C 	 -47.7739 	 14.4558 	 23.1697 	 
H 	 -46.8967 	 15.0991 	 23.1165 	 
H 	 -48.0828 	 14.464 	 22.1124 	 
C 	 -48.8401 	 15.1331 	 24.0284 	 
H 	 -48.4705 	 15.6071 	 24.9445 	 
H 	 -49.3286 	 15.9025 	 23.4906 	 
H 	 -49.6833 	 14.5226 	 24.4824 	 
S 	 -47.3304 	 11.2379 	 29.759 	 
C 	 -48.4798 	 11.7086 	 30.9107 	 
C 	 -49.1351 	 12.8343 	 30.5125 	 
C 	 -48.723 	 13.4423 	 29.2755 	 
C 	 -47.7428 	 12.6371 	 28.6939 	 
H 	 -49.8296 	 13.2242 	 31.2049 	 
C 	 -49.373 	 14.6797 	 28.7915 	 
H 	 -50.3589 	 14.5679 	 29.1677 	 
H 	 -49.3937 	 14.5358 	 27.7451 	 
C 	 -48.6367 	 16.0581 	 29.0832 	 
H 	 -49.0958 	 16.9077 	 28.5511 	 
H 	 -47.6001 	 16.0713 	 28.6611 	 
C 	 -48.5692 	 16.4112 	 30.5821 	 
H 	 -49.5304 	 16.3493 	 31.08 	 
H 	 -48.2723 	 17.3974 	 30.7693 	 
H 	 -47.7845 	 15.7914 	 31.1117 	 
H 	 -44.7561 	 12.694 	 24.6518 	 
H 	 -48.87 	 11.0894 	 31.7025 	 
*
