! wB97X-D3 SP def2-SVP
%pal
nprocs 24
end

* xyz 0 1
S 	 -117.881 	 48.5 	 -27.2343 	 
C 	 -117.25 	 48.828 	 -28.8138 	 
C 	 -118.132 	 49.2531 	 -29.7488 	 
C 	 -119.44 	 49.2287 	 -29.193 	 
C 	 -119.477 	 49.0054 	 -27.8375 	 
H 	 -120.357 	 49.4735 	 -29.6975 	 
C 	 -117.785 	 49.4919 	 -31.2061 	 
H 	 -116.692 	 49.339 	 -31.1373 	 
H 	 -117.959 	 50.5886 	 -31.336 	 
C 	 -118.388 	 48.6963 	 -32.3974 	 
H 	 -119.462 	 48.9822 	 -32.5661 	 
H 	 -117.783 	 48.9535 	 -33.2522 	 
C 	 -118.208 	 47.2087 	 -32.2329 	 
H 	 -118.552 	 46.6529 	 -33.1128 	 
H 	 -117.133 	 47.0979 	 -32.222 	 
H 	 -118.651 	 46.9435 	 -31.2781 	 
S 	 -121.63 	 50.4555 	 -27.0698 	 
C 	 -122.59 	 50.1218 	 -25.7208 	 
C 	 -122.17 	 48.933 	 -25.1276 	 
C 	 -120.995 	 48.3938 	 -25.7104 	 
C 	 -120.635 	 49.0256 	 -26.9261 	 
H 	 -122.635 	 48.665 	 -24.2609 	 
C 	 -120.426 	 47.1238 	 -25.1025 	 
H 	 -120.122 	 47.3827 	 -24.0279 	 
H 	 -119.492 	 46.789 	 -25.4818 	 
C 	 -121.315 	 45.8878 	 -24.9262 	 
H 	 -122.092 	 46.1459 	 -24.2172 	 
H 	 -120.687 	 45.1279 	 -24.4435 	 
C 	 -121.97 	 45.3276 	 -26.1884 	 
H 	 -121.328 	 44.8859 	 -26.9189 	 
H 	 -122.411 	 46.1784 	 -26.6667 	 
H 	 -122.692 	 44.4949 	 -25.9478 	 
H 	 -116.129 	 48.8132 	 -28.9698 	 
H 	 -123.54 	 50.6582 	 -25.4765 	 
*
