! wB97X-D3 SP def2-SVP
%pal
nprocs 24
end

* xyz 0 1
S 	 -100.36 	 -1.98822 	 -105.528 	 
C 	 -99.5655 	 -3.51982 	 -105.851 	 
C 	 -100.442 	 -4.49318 	 -106.186 	 
C 	 -101.813 	 -3.97717 	 -106.236 	 
C 	 -101.973 	 -2.70834 	 -105.747 	 
H 	 -102.654 	 -4.46169 	 -106.627 	 
C 	 -100.077 	 -5.86021 	 -106.564 	 
H 	 -99.0919 	 -6.08156 	 -106.25 	 
H 	 -100.067 	 -5.72559 	 -107.613 	 
C 	 -100.996 	 -7.05712 	 -106.175 	 
H 	 -101.961 	 -6.70895 	 -106.503 	 
H 	 -100.819 	 -7.87479 	 -106.779 	 
C 	 -100.87 	 -7.57453 	 -104.719 	 
H 	 -101.746 	 -8.24884 	 -104.561 	 
H 	 -100.031 	 -8.261 	 -104.424 	 
H 	 -100.976 	 -6.80571 	 -103.9 	 
S 	 -102.993 	 -0.273326 	 -106.2 	 
C 	 -104.733 	 0.00674026 	 -106.219 	 
C 	 -105.418 	 -1.15246 	 -105.805 	 
C 	 -104.537 	 -2.26711 	 -105.604 	 
C 	 -103.209 	 -1.94775 	 -105.74 	 
H 	 -106.485 	 -1.07042 	 -105.765 	 
C 	 -105.15 	 -3.59397 	 -105.418 	 
H 	 -105.729 	 -3.45111 	 -104.489 	 
H 	 -104.392 	 -4.33441 	 -105.112 	 
C 	 -105.993 	 -4.19046 	 -106.542 	 
H 	 -105.323 	 -4.44937 	 -107.395 	 
H 	 -106.611 	 -3.37489 	 -106.857 	 
C 	 -106.898 	 -5.43293 	 -106.126 	 
H 	 -106.181 	 -6.18447 	 -105.864 	 
H 	 -107.429 	 -5.94164 	 -106.969 	 
H 	 -107.676 	 -5.19906 	 -105.36 	 
H 	 -98.4687 	 -3.61006 	 -105.73 	 
H 	 -105.208 	 1.02355 	 -106.338 	 
*
