! wB97X-D3 SP def2-SVP
%pal
nprocs 24
end

* xyz 0 1
S 	 -99.9769 	 0.0183504 	 -103.414 	 
C 	 -99.7533 	 -0.255079 	 -105.144 	 
C 	 -100.995 	 -0.463047 	 -105.709 	 
C 	 -102.129 	 -0.394955 	 -104.834 	 
C 	 -101.729 	 -0.133258 	 -103.522 	 
H 	 -103.152 	 -0.758653 	 -104.928 	 
C 	 -101.191 	 -1.0161 	 -107.054 	 
H 	 -100.522 	 -0.463014 	 -107.722 	 
H 	 -102.255 	 -0.937971 	 -107.29 	 
C 	 -100.808 	 -2.53866 	 -107.156 	 
H 	 -99.7302 	 -2.63839 	 -106.765 	 
H 	 -101.457 	 -3.0602 	 -106.431 	 
C 	 -100.859 	 -3.33879 	 -108.478 	 
H 	 -101.588 	 -2.76214 	 -109.068 	 
H 	 -99.7863 	 -3.46927 	 -108.79 	 
H 	 -101.253 	 -4.33146 	 -108.363 	 
S 	 -101.751 	 0.0470235 	 -100.789 	 
C 	 -103.229 	 0.360222 	 -99.8701 	 
C 	 -104.179 	 0.786296 	 -100.785 	 
C 	 -103.773 	 0.699869 	 -102.159 	 
C 	 -102.475 	 0.261778 	 -102.379 	 
H 	 -105.151 	 1.14575 	 -100.413 	 
C 	 -104.808 	 0.957884 	 -103.231 	 
H 	 -105.782 	 0.930034 	 -102.787 	 
H 	 -104.892 	 0.107563 	 -103.937 	 
C 	 -104.693 	 2.1793 	 -104.171 	 
H 	 -103.619 	 2.37445 	 -104.46 	 
H 	 -105.061 	 2.96737 	 -103.437 	 
C 	 -105.5 	 2.09208 	 -105.45 	 
H 	 -105.604 	 3.04858 	 -106.051 	 
H 	 -106.535 	 1.62484 	 -105.324 	 
H 	 -105.092 	 1.34154 	 -106.186 	 
H 	 -98.8082 	 -0.364178 	 -105.626 	 
H 	 -103.347 	 0.130507 	 -98.7988 	 
*
