! wB97X-D3 SP def2-SVP
%pal
nprocs 24
end

* xyz 0 1
S 	 -42.1401 	 -11.1041 	 15.2586 	 
C 	 -42.1638 	 -11.7922 	 16.8318 	 
C 	 -42.0328 	 -10.8635 	 17.7666 	 
C 	 -41.7855 	 -9.50727 	 17.2756 	 
C 	 -41.7713 	 -9.46522 	 15.9048 	 
H 	 -41.8809 	 -8.61631 	 17.8454 	 
C 	 -42.0697 	 -11.169 	 19.1859 	 
H 	 -41.1109 	 -11.5907 	 19.5267 	 
H 	 -42.9031 	 -11.7841 	 19.3985 	 
C 	 -42.3774 	 -10.005 	 20.1347 	 
H 	 -41.7384 	 -9.22788 	 19.964 	 
H 	 -43.352 	 -9.56159 	 19.9462 	 
C 	 -42.2717 	 -10.4712 	 21.6294 	 
H 	 -42.5916 	 -9.60144 	 22.2337 	 
H 	 -42.9962 	 -11.2371 	 21.9326 	 
H 	 -41.2913 	 -10.8297 	 21.9038 	 
S 	 -40.5938 	 -8.62828 	 13.6415 	 
C 	 -40.3891 	 -7.00012 	 13.2293 	 
C 	 -40.9984 	 -6.18349 	 14.1479 	 
C 	 -41.6352 	 -6.93073 	 15.127 	 
C 	 -41.5022 	 -8.33509 	 15.0321 	 
H 	 -40.9624 	 -5.07531 	 14.1117 	 
C 	 -42.391 	 -6.30488 	 16.3065 	 
H 	 -42.6695 	 -7.0968 	 16.8996 	 
H 	 -43.3173 	 -5.85819 	 15.8833 	 
C 	 -41.746 	 -5.26923 	 17.2644 	 
H 	 -42.5352 	 -4.85223 	 17.8568 	 
H 	 -41.4125 	 -4.41744 	 16.6885 	 
C 	 -40.6514 	 -5.79319 	 18.1726 	 
H 	 -40.2321 	 -4.91469 	 18.6205 	 
H 	 -40.0518 	 -6.41802 	 17.6035 	 
H 	 -41.009 	 -6.42816 	 18.9 	 
H 	 -42.379 	 -12.8569 	 17.047 	 
H 	 -39.714 	 -6.57895 	 12.4241 	 
*
