! wB97X-D3 SP def2-SVP
%pal
nprocs 24
end

* xyz 0 1
S 	 -142.015 	 2.37579 	 12.2347 	 
C 	 -142.879 	 0.823625 	 11.9719 	 
C 	 -144.243 	 1.00788 	 12.2454 	 
C 	 -144.585 	 2.34589 	 12.6518 	 
C 	 -143.497 	 3.23232 	 12.7303 	 
H 	 -145.559 	 2.77111 	 12.9369 	 
C 	 -145.249 	 -0.120833 	 12.1766 	 
H 	 -146.232 	 0.307547 	 12.2343 	 
H 	 -144.995 	 -0.530652 	 13.1434 	 
C 	 -145.09 	 -1.1171 	 10.9739 	 
H 	 -144.171 	 -1.65627 	 10.8653 	 
H 	 -145.925 	 -1.78198 	 11.1264 	 
C 	 -145.432 	 -0.42145 	 9.63304 	 
H 	 -145.277 	 -1.18704 	 8.8057 	 
H 	 -146.429 	 -0.0940356 	 9.58083 	 
H 	 -144.748 	 0.37043 	 9.57443 	 
S 	 -142.586 	 5.7601 	 12.1661 	 
C 	 -143.355 	 7.09548 	 12.9805 	 
C 	 -144.036 	 6.70296 	 14.1079 	 
C 	 -144.131 	 5.26754 	 14.1732 	 
C 	 -143.498 	 4.60552 	 13.1491 	 
H 	 -144.316 	 7.48981 	 14.8166 	 
C 	 -145.02 	 4.67278 	 15.2673 	 
H 	 -144.865 	 3.66307 	 15.3737 	 
H 	 -146.067 	 4.87402 	 14.7877 	 
C 	 -144.979 	 5.33885 	 16.6853 	 
H 	 -145.367 	 6.36481 	 16.6973 	 
H 	 -143.908 	 5.30806 	 17.0281 	 
C 	 -145.697 	 4.66572 	 17.8838 	 
H 	 -145.379 	 3.67706 	 17.9399 	 
H 	 -146.749 	 4.73158 	 17.639 	 
H 	 -145.589 	 5.21091 	 18.8083 	 
H 	 -142.463 	 -0.199809 	 11.7771 	 
H 	 -143.072 	 8.17943 	 12.8763 	 
*
