! wB97X-D3 SP def2-SVP
%pal
nprocs 24
end

* xyz 0 1
S 	 -103.547 	 44.1219 	 -97.6239 	 
C 	 -103.323 	 42.6104 	 -96.7717 	 
C 	 -103.621 	 42.7721 	 -95.4587 	 
C 	 -104.181 	 44.001 	 -95.1838 	 
C 	 -104.118 	 44.8771 	 -96.2396 	 
H 	 -104.641 	 44.3965 	 -94.2647 	 
C 	 -103.586 	 41.6424 	 -94.4258 	 
H 	 -104.098 	 40.7642 	 -94.8308 	 
H 	 -104.162 	 42.1737 	 -93.5887 	 
C 	 -102.212 	 41.4309 	 -93.9072 	 
H 	 -101.629 	 41.1615 	 -94.7696 	 
H 	 -101.756 	 42.2998 	 -93.4571 	 
C 	 -102.118 	 40.2028 	 -92.9031 	 
H 	 -102.676 	 40.4269 	 -92.0029 	 
H 	 -102.597 	 39.3331 	 -93.3555 	 
H 	 -101.132 	 39.8447 	 -92.6175 	 
S 	 -106.194 	 46.645 	 -96.3271 	 
C 	 -105.806 	 48.4126 	 -96.4207 	 
C 	 -104.448 	 48.602 	 -96.3808 	 
C 	 -103.69 	 47.413 	 -96.3388 	 
C 	 -104.504 	 46.247 	 -96.2191 	 
H 	 -104.043 	 49.6307 	 -96.3883 	 
C 	 -102.185 	 47.4372 	 -96.3698 	 
H 	 -101.896 	 46.4717 	 -95.9953 	 
H 	 -101.841 	 48.0685 	 -95.6096 	 
C 	 -101.507 	 47.7546 	 -97.76 	 
H 	 -100.418 	 47.7389 	 -97.6599 	 
H 	 -101.658 	 48.7872 	 -97.9943 	 
C 	 -101.967 	 46.8072 	 -98.8511 	 
H 	 -101.519 	 45.8413 	 -98.7007 	 
H 	 -101.502 	 47.2018 	 -99.8108 	 
H 	 -103.052 	 46.7412 	 -98.9198 	 
H 	 -103.012 	 41.6718 	 -97.2041 	 
H 	 -106.577 	 49.1992 	 -96.4954 	 
*
