! wB97X-D3 SP def2-SVP
%pal
nprocs 24
end

* xyz 0 1
S 	 45.1619 	 -19.3902 	 -112.288 	 
C 	 46.0939 	 -19.5013 	 -110.83 	 
C 	 46.735 	 -20.7076 	 -110.795 	 
C 	 46.5032 	 -21.4626 	 -111.932 	 
C 	 45.7075 	 -20.8816 	 -112.902 	 
H 	 46.7663 	 -22.4654 	 -112.122 	 
C 	 47.6178 	 -21.209 	 -109.57 	 
H 	 47.6394 	 -22.2871 	 -109.71 	 
H 	 47.032 	 -20.9711 	 -108.71 	 
C 	 48.9167 	 -20.4578 	 -109.334 	 
H 	 48.7297 	 -19.3497 	 -109.21 	 
H 	 49.5426 	 -20.8207 	 -108.46 	 
C 	 49.8325 	 -20.5131 	 -110.602 	 
H 	 50.6698 	 -19.7838 	 -110.626 	 
H 	 50.2513 	 -21.5611 	 -110.531 	 
H 	 49.3124 	 -20.4163 	 -111.532 	 
S 	 43.5194 	 -22.3106 	 -113.727 	 
C 	 43.4258 	 -22.8652 	 -115.354 	 
C 	 44.531 	 -22.428 	 -116.147 	 
C 	 45.4319 	 -21.6397 	 -115.375 	 
C 	 45.0933 	 -21.5587 	 -114.053 	 
H 	 44.6497 	 -22.6712 	 -117.195 	 
C 	 46.6945 	 -20.8682 	 -115.891 	 
H 	 47.1894 	 -21.5004 	 -116.579 	 
H 	 47.424 	 -20.6668 	 -115.07 	 
C 	 46.4698 	 -19.4289 	 -116.465 	 
H 	 45.7709 	 -18.9471 	 -115.773 	 
H 	 45.9416 	 -19.6663 	 -117.433 	 
C 	 47.67 	 -18.4925 	 -116.799 	 
H 	 48.3413 	 -18.7962 	 -117.548 	 
H 	 48.2596 	 -18.2612 	 -115.938 	 
H 	 47.3066 	 -17.4607 	 -117.107 	 
H 	 46.075 	 -18.8058 	 -110.027 	 
H 	 42.5798 	 -23.3851 	 -115.797 	 
*
