! wB97X-D3 SP def2-SVP
%pal
nprocs 24
end

* xyz 0 1
S 	 -128.554 	 65.5023 	 -50.3727 	 
C 	 -127.982 	 67.1799 	 -50.2609 	 
C 	 -128.889 	 68.0122 	 -50.7275 	 
C 	 -129.99 	 67.2993 	 -51.3052 	 
C 	 -129.965 	 65.9261 	 -51.229 	 
H 	 -130.853 	 67.733 	 -51.7948 	 
C 	 -128.71 	 69.5124 	 -50.7603 	 
H 	 -127.715 	 69.7452 	 -51.1716 	 
H 	 -128.615 	 70.0187 	 -49.7446 	 
C 	 -129.845 	 70.1739 	 -51.4773 	 
H 	 -129.743 	 69.9243 	 -52.5954 	 
H 	 -130.842 	 69.7918 	 -51.1708 	 
C 	 -129.969 	 71.7369 	 -51.2432 	 
H 	 -129.006 	 72.1889 	 -51.3832 	 
H 	 -130.742 	 72.1744 	 -51.7891 	 
H 	 -130.296 	 71.7882 	 -50.2622 	 
S 	 -130.777 	 64.3385 	 -53.2562 	 
C 	 -132.36 	 63.5927 	 -53.0805 	 
C 	 -133.108 	 63.8671 	 -51.9392 	 
C 	 -132.286 	 64.8002 	 -51.1506 	 
C 	 -131.015 	 65.0159 	 -51.6961 	 
H 	 -134.096 	 63.4645 	 -51.7218 	 
C 	 -132.747 	 65.2978 	 -49.8551 	 
H 	 -132.314 	 66.3418 	 -49.6152 	 
H 	 -132.282 	 64.6243 	 -49.1275 	 
C 	 -134.227 	 65.193 	 -49.4406 	 
H 	 -134.63 	 64.1822 	 -49.5756 	 
H 	 -134.771 	 65.9121 	 -49.9727 	 
C 	 -134.384 	 65.4991 	 -47.9323 	 
H 	 -133.766 	 64.8708 	 -47.3018 	 
H 	 -135.373 	 65.55 	 -47.6028 	 
H 	 -134.097 	 66.5193 	 -47.6209 	 
H 	 -126.963 	 67.4332 	 -49.8305 	 
H 	 -132.914 	 63.1022 	 -53.8123 	 
*
