! wB97X-D3 SP def2-SVP
%pal
nprocs 24
end

* xyz 0 1
S 	 18.7867 	 -24.355 	 -118.245 	 
C 	 20.4933 	 -24.5635 	 -118.551 	 
C 	 21.2283 	 -23.8112 	 -117.67 	 
C 	 20.405 	 -23.0339 	 -116.797 	 
C 	 19.1204 	 -23.1667 	 -117.051 	 
H 	 20.6503 	 -22.4918 	 -115.915 	 
C 	 22.6899 	 -23.6884 	 -117.699 	 
H 	 22.9999 	 -23.5144 	 -116.67 	 
H 	 22.9648 	 -22.7619 	 -118.289 	 
C 	 23.4874 	 -24.9102 	 -118.168 	 
H 	 23.1433 	 -25.683 	 -117.495 	 
H 	 23.2662 	 -25.2628 	 -119.203 	 
C 	 24.9829 	 -24.6811 	 -117.976 	 
H 	 25.2463 	 -24.7137 	 -116.881 	 
H 	 25.4734 	 -25.5989 	 -118.38 	 
H 	 25.3033 	 -23.7524 	 -118.442 	 
S 	 17.055 	 -23.6205 	 -115.387 	 
C 	 16.0022 	 -22.3663 	 -115.055 	 
C 	 16.3561 	 -21.162 	 -115.615 	 
C 	 17.5469 	 -21.2838 	 -116.308 	 
C 	 18.0159 	 -22.5768 	 -116.375 	 
H 	 15.6651 	 -20.3301 	 -115.507 	 
C 	 18.2057 	 -20.1809 	 -117.064 	 
H 	 17.9434 	 -20.2346 	 -118.128 	 
H 	 19.2419 	 -20.3379 	 -117.125 	 
C 	 17.8559 	 -18.8303 	 -116.504 	 
H 	 18.107 	 -18.7519 	 -115.48 	 
H 	 16.7836 	 -18.538 	 -116.55 	 
C 	 18.6613 	 -17.6955 	 -117.198 	 
H 	 18.3448 	 -16.6636 	 -116.948 	 
H 	 18.6079 	 -17.8566 	 -118.298 	 
H 	 19.7431 	 -17.8337 	 -117.067 	 
H 	 20.871 	 -25.1775 	 -119.306 	 
H 	 15.1143 	 -22.5616 	 -114.497 	 
*
