! wB97X-D3 SP def2-SVP
%pal
nprocs 24
end

* xyz 0 1
S 	 -135.085 	 72.1251 	 -68.521 	 
C 	 -133.418 	 72.0432 	 -68.9666 	 
C 	 -132.521 	 71.7684 	 -67.9475 	 
C 	 -133.303 	 71.6116 	 -66.6735 	 
C 	 -134.634 	 71.9852 	 -66.7841 	 
H 	 -132.888 	 71.3525 	 -65.7339 	 
C 	 -131.025 	 71.518 	 -68.0095 	 
H 	 -130.803 	 71.2909 	 -69.0722 	 
H 	 -130.766 	 70.6619 	 -67.4262 	 
C 	 -130.151 	 72.7464 	 -67.5506 	 
H 	 -130.538 	 73.1026 	 -66.6047 	 
H 	 -129.16 	 72.4024 	 -67.4296 	 
C 	 -130.195 	 73.8579 	 -68.6334 	 
H 	 -129.378 	 74.4474 	 -68.2937 	 
H 	 -130.121 	 73.5861 	 -69.6191 	 
H 	 -131.158 	 74.3908 	 -68.5495 	 
S 	 -136.977 	 70.9479 	 -65.9996 	 
C 	 -137.394 	 71.0729 	 -64.2917 	 
C 	 -136.609 	 71.9712 	 -63.6192 	 
C 	 -135.514 	 72.4325 	 -64.4116 	 
C 	 -135.595 	 71.9537 	 -65.7215 	 
H 	 -136.722 	 72.226 	 -62.5799 	 
C 	 -134.399 	 73.3522 	 -63.9168 	 
H 	 -133.534 	 73.4175 	 -64.5848 	 
H 	 -133.919 	 72.7631 	 -63.107 	 
C 	 -134.901 	 74.7356 	 -63.3815 	 
H 	 -134.275 	 75.0157 	 -62.6074 	 
H 	 -135.88 	 74.7186 	 -63.0027 	 
C 	 -134.786 	 75.9284 	 -64.3461 	 
H 	 -133.711 	 76.1565 	 -64.5225 	 
H 	 -135.37 	 76.8018 	 -63.9998 	 
H 	 -135.206 	 75.6641 	 -65.3425 	 
H 	 -132.999 	 72.3132 	 -69.9579 	 
H 	 -138.159 	 70.5114 	 -63.8265 	 
*
