! wB97X-D3 SP def2-SVP
%pal
nprocs 24
end

* xyz 0 1
S 	 -120.336 	 28.4604 	 -112.695 	 
C 	 -118.625 	 28.0427 	 -112.842 	 
C 	 -117.875 	 29.1898 	 -112.491 	 
C 	 -118.723 	 30.258 	 -111.982 	 
C 	 -120.08 	 30.0868 	 -112.192 	 
H 	 -118.416 	 31.1628 	 -111.499 	 
C 	 -116.358 	 29.2417 	 -112.514 	 
H 	 -116.039 	 30.2175 	 -112.82 	 
H 	 -116.086 	 28.6075 	 -113.358 	 
C 	 -115.568 	 28.7398 	 -111.228 	 
H 	 -115.916 	 27.7297 	 -111.001 	 
H 	 -114.434 	 28.6404 	 -111.495 	 
C 	 -115.792 	 29.4758 	 -109.847 	 
H 	 -116.801 	 29.4666 	 -109.481 	 
H 	 -115.206 	 29.1317 	 -109.077 	 
H 	 -115.54 	 30.5943 	 -109.927 	 
S 	 -122.448 	 30.2235 	 -110.799 	 
C 	 -123.365 	 31.7625 	 -110.726 	 
C 	 -122.624 	 32.7283 	 -111.334 	 
C 	 -121.35 	 32.2957 	 -111.899 	 
C 	 -121.14 	 30.9443 	 -111.688 	 
H 	 -123.035 	 33.7384 	 -111.348 	 
C 	 -120.489 	 33.1244 	 -112.851 	 
H 	 -121.21 	 33.6262 	 -113.456 	 
H 	 -119.943 	 32.5994 	 -113.658 	 
C 	 -119.574 	 34.1594 	 -112.184 	 
H 	 -118.855 	 34.7179 	 -112.807 	 
H 	 -118.846 	 33.6436 	 -111.528 	 
C 	 -120.239 	 35.166 	 -111.188 	 
H 	 -120.977 	 35.8602 	 -111.693 	 
H 	 -119.419 	 35.7779 	 -110.752 	 
H 	 -120.723 	 34.6046 	 -110.372 	 
H 	 -118.325 	 26.9991 	 -113.013 	 
H 	 -124.292 	 31.8557 	 -110.202 	 
*
