! wB97X-D3 SP def2-SVP
%pal
nprocs 24
end

* xyz 0 1
S 	 -63.8744 	 7.08323 	 -75.2133 	 
C 	 -63.7088 	 7.32119 	 -73.4691 	 
C 	 -64.9413 	 7.81218 	 -72.9414 	 
C 	 -65.9792 	 7.70774 	 -73.8505 	 
C 	 -65.6129 	 7.44143 	 -75.1398 	 
H 	 -66.9669 	 7.98749 	 -73.5948 	 
C 	 -65.2101 	 8.26793 	 -71.5341 	 
H 	 -65.5736 	 9.3057 	 -71.409 	 
H 	 -64.2239 	 8.30187 	 -70.9913 	 
C 	 -66.2008 	 7.3948 	 -70.7071 	 
H 	 -66.6085 	 7.99784 	 -69.8809 	 
H 	 -67.0506 	 7.03546 	 -71.2892 	 
C 	 -65.5558 	 6.21752 	 -70.049 	 
H 	 -66.2598 	 5.51416 	 -69.5963 	 
H 	 -64.9855 	 5.62771 	 -70.7465 	 
H 	 -64.8705 	 6.45525 	 -69.2858 	 
S 	 -66.9592 	 9.04548 	 -76.7325 	 
C 	 -67.846 	 8.48243 	 -78.059 	 
C 	 -67.8987 	 7.12749 	 -78.1669 	 
C 	 -67.1523 	 6.50819 	 -77.0879 	 
C 	 -66.5339 	 7.46123 	 -76.268 	 
H 	 -68.3152 	 6.60582 	 -79.043 	 
C 	 -66.7781 	 5.03911 	 -76.9948 	 
H 	 -65.7378 	 4.91308 	 -76.6872 	 
H 	 -66.9383 	 4.66981 	 -78.0107 	 
C 	 -67.7476 	 4.12577 	 -76.1645 	 
H 	 -67.4904 	 3.12189 	 -76.3383 	 
H 	 -68.7698 	 4.25189 	 -76.6541 	 
C 	 -67.8133 	 4.46827 	 -74.6266 	 
H 	 -66.9842 	 3.9821 	 -74.0992 	 
H 	 -68.7587 	 4.05565 	 -74.2139 	 
H 	 -67.8185 	 5.5254 	 -74.4658 	 
H 	 -62.7964 	 7.19374 	 -72.8631 	 
H 	 -67.9774 	 9.08387 	 -78.8607 	 
*
