! wB97X-D3 SP def2-SVP
%pal
nprocs 24
end

* xyz 0 1
S 	 -57.6142 	 13.4717 	 -92.4015 	 
C 	 -56.2085 	 12.5727 	 -91.9113 	 
C 	 -55.324 	 13.307 	 -91.1482 	 
C 	 -55.7842 	 14.6955 	 -91.0419 	 
C 	 -57.0009 	 14.8887 	 -91.5748 	 
H 	 -55.2185 	 15.4692 	 -90.6187 	 
C 	 -54.0074 	 12.6987 	 -90.6335 	 
H 	 -54.2246 	 11.6106 	 -90.5873 	 
H 	 -53.8155 	 12.9413 	 -89.56 	 
C 	 -52.8976 	 13.1855 	 -91.5775 	 
H 	 -53.1399 	 12.8896 	 -92.5643 	 
H 	 -52.7364 	 14.258 	 -91.5803 	 
C 	 -51.5278 	 12.6058 	 -91.1231 	 
H 	 -51.5797 	 11.5437 	 -91.1865 	 
H 	 -50.5964 	 12.9212 	 -91.7083 	 
H 	 -51.3497 	 12.9071 	 -90.0124 	 
S 	 -58.4352 	 16.3384 	 -89.7555 	 
C 	 -58.9034 	 17.943 	 -90.2241 	 
C 	 -58.417 	 18.2828 	 -91.3927 	 
C 	 -57.6994 	 17.2836 	 -92.0985 	 
C 	 -57.7421 	 16.0865 	 -91.3834 	 
H 	 -58.6835 	 19.34 	 -91.6714 	 
C 	 -57.0744 	 17.5909 	 -93.4256 	 
H 	 -57.8355 	 17.6922 	 -94.1789 	 
H 	 -56.6123 	 16.6231 	 -93.7019 	 
C 	 -56.0758 	 18.6955 	 -93.5531 	 
H 	 -55.2559 	 18.5037 	 -92.7981 	 
H 	 -56.6002 	 19.6505 	 -93.2573 	 
C 	 -55.406 	 19.0128 	 -94.9286 	 
H 	 -54.5336 	 19.5904 	 -94.6694 	 
H 	 -56.0954 	 19.5416 	 -95.6294 	 
H 	 -55.0907 	 18.0206 	 -95.2798 	 
H 	 -56.1972 	 11.4867 	 -92.1011 	 
H 	 -59.4335 	 18.6515 	 -89.6364 	 
*
