! wB97X-D3 SP def2-SVP
%pal
nprocs 24
end

* xyz 0 1
S 	 46.6017 	 -36.0679 	 -119.022 	 
C 	 45.2931 	 -35.7836 	 -120.158 	 
C 	 45.7057 	 -35.5218 	 -121.435 	 
C 	 47.0778 	 -35.2339 	 -121.412 	 
C 	 47.7005 	 -35.4136 	 -120.207 	 
H 	 47.5883 	 -34.808 	 -122.259 	 
C 	 44.8016 	 -35.2341 	 -122.535 	 
H 	 43.7972 	 -35.5259 	 -122.29 	 
H 	 45.0596 	 -36.0163 	 -123.306 	 
C 	 44.6952 	 -33.7153 	 -123.128 	 
H 	 44.6252 	 -33.0311 	 -122.31 	 
H 	 45.5598 	 -33.4825 	 -123.779 	 
C 	 43.3377 	 -33.5388 	 -123.849 	 
H 	 43.2571 	 -34.2541 	 -124.686 	 
H 	 42.539 	 -33.7756 	 -123.155 	 
H 	 43.2868 	 -32.5909 	 -124.352 	 
S 	 50.4686 	 -36.2354 	 -120.088 	 
C 	 51.5774 	 -34.911 	 -119.532 	 
C 	 50.9718 	 -33.6775 	 -119.477 	 
C 	 49.5277 	 -33.8149 	 -119.653 	 
C 	 49.0857 	 -35.0905 	 -119.919 	 
H 	 51.6152 	 -32.903 	 -119.164 	 
C 	 48.6456 	 -32.5487 	 -119.533 	 
H 	 47.9332 	 -32.693 	 -120.356 	 
H 	 49.3298 	 -31.7526 	 -119.821 	 
C 	 47.972 	 -32.3125 	 -118.203 	 
H 	 48.826 	 -32.0928 	 -117.528 	 
H 	 47.386 	 -33.1614 	 -117.884 	 
C 	 47.0664 	 -31.0502 	 -118.269 	 
H 	 47.6425 	 -30.1663 	 -118.645 	 
H 	 46.5612 	 -30.6752 	 -117.342 	 
H 	 46.3613 	 -31.3278 	 -119.025 	 
H 	 44.2863 	 -35.9368 	 -119.818 	 
H 	 52.5772 	 -35.0922 	 -119.251 	 
*
