! wB97X-D3 SP def2-SVP
%pal
nprocs 24
end

* xyz 0 1
S 	 -108.039 	 68.0369 	 -5.78356 	 
C 	 -107.709 	 69.5771 	 -6.71733 	 
C 	 -108.024 	 69.4231 	 -8.04275 	 
C 	 -108.335 	 68.0396 	 -8.38083 	 
C 	 -108.403 	 67.1542 	 -7.28302 	 
H 	 -108.395 	 67.71 	 -9.38424 	 
C 	 -107.902 	 70.4784 	 -9.20376 	 
H 	 -108.314 	 71.3555 	 -8.87008 	 
H 	 -108.522 	 70.1158 	 -10.0047 	 
C 	 -106.449 	 70.6279 	 -9.63199 	 
H 	 -105.941 	 71.0897 	 -8.74372 	 
H 	 -106.01 	 69.635 	 -9.8153 	 
C 	 -106.241 	 71.6716 	 -10.7386 	 
H 	 -105.192 	 72.0641 	 -10.7109 	 
H 	 -106.333 	 71.117 	 -11.6421 	 
H 	 -106.999 	 72.495 	 -10.7415 	 
S 	 -107.884 	 64.4521 	 -6.71977 	 
C 	 -109.058 	 63.2691 	 -7.36592 	 
C 	 -110.161 	 63.888 	 -7.80121 	 
C 	 -110.064 	 65.3002 	 -7.7973 	 
C 	 -108.852 	 65.7456 	 -7.27171 	 
H 	 -110.933 	 63.2607 	 -8.23146 	 
C 	 -111.134 	 66.2 	 -8.39003 	 
H 	 -111.589 	 65.6825 	 -9.21832 	 
H 	 -110.655 	 67.0688 	 -8.7311 	 
C 	 -112.235 	 66.528 	 -7.38096 	 
H 	 -112.868 	 65.6737 	 -7.19208 	 
H 	 -112.928 	 67.2724 	 -7.82478 	 
C 	 -111.826 	 66.9537 	 -5.96532 	 
H 	 -111.352 	 66.1875 	 -5.39263 	 
H 	 -112.591 	 67.4971 	 -5.43664 	 
H 	 -111.05 	 67.7056 	 -5.92449 	 
H 	 -107.335 	 70.5007 	 -6.25287 	 
H 	 -108.991 	 62.2383 	 -7.19079 	 
*
