! wB97X-D3 SP def2-SVP
%pal
nprocs 24
end

* xyz 0 1
S 	 -111.258 	 50.0706 	 -76.0744 	 
C 	 -112.425 	 49.9636 	 -77.3323 	 
C 	 -113.599 	 50.663 	 -77.1276 	 
C 	 -113.548 	 51.0934 	 -75.7542 	 
C 	 -112.413 	 50.7168 	 -75.0388 	 
H 	 -114.365 	 51.5886 	 -75.2 	 
C 	 -114.642 	 51.0534 	 -78.094 	 
H 	 -114.04 	 51.2379 	 -79.0388 	 
H 	 -114.961 	 52.0187 	 -77.8048 	 
C 	 -115.816 	 50.0587 	 -78.2854 	 
H 	 -115.478 	 49.1279 	 -78.6289 	 
H 	 -116.146 	 49.7321 	 -77.2642 	 
C 	 -116.982 	 50.6769 	 -79.0777 	 
H 	 -117.086 	 51.6537 	 -78.632 	 
H 	 -116.808 	 50.8577 	 -80.1208 	 
H 	 -117.84 	 50.0547 	 -78.9658 	 
S 	 -111.201 	 49.5453 	 -72.9737 	 
C 	 -111.343 	 50.1935 	 -71.3822 	 
C 	 -112.122 	 51.291 	 -71.3444 	 
C 	 -112.51 	 51.8266 	 -72.6304 	 
C 	 -112.111 	 50.8678 	 -73.6393 	 
H 	 -112.547 	 51.7255 	 -70.4209 	 
C 	 -113.366 	 52.9844 	 -72.756 	 
H 	 -114.036 	 53.0006 	 -71.8672 	 
H 	 -113.975 	 52.9369 	 -73.6829 	 
C 	 -112.699 	 54.3641 	 -72.6867 	 
H 	 -111.962 	 54.4792 	 -73.4998 	 
H 	 -112.162 	 54.3754 	 -71.7825 	 
C 	 -113.625 	 55.5382 	 -72.6146 	 
H 	 -113.046 	 56.4402 	 -72.4046 	 
H 	 -114.397 	 55.4864 	 -71.8693 	 
H 	 -114.162 	 55.6812 	 -73.5733 	 
H 	 -112.307 	 49.4136 	 -78.2955 	 
H 	 -110.954 	 49.7098 	 -70.5269 	 
*
