! wB97X-D3 SP def2-SVP
%pal
nprocs 24
end

* xyz 0 1
S 	 -51.3795 	 1.79258 	 -18.3948 	 
C 	 -51.3333 	 0.137868 	 -19.0319 	 
C 	 -50.2276 	 -0.522585 	 -18.5977 	 
C 	 -49.3987 	 0.293854 	 -17.7889 	 
C 	 -49.8245 	 1.58841 	 -17.6324 	 
H 	 -48.3975 	 -0.0509028 	 -17.4193 	 
C 	 -49.8087 	 -1.90171 	 -19.0769 	 
H 	 -50.6088 	 -2.6013 	 -18.9846 	 
H 	 -49.0297 	 -2.31052 	 -18.4568 	 
C 	 -49.2908 	 -1.93461 	 -20.6196 	 
H 	 -50.0901 	 -1.51029 	 -21.2214 	 
H 	 -48.4225 	 -1.34553 	 -20.6165 	 
C 	 -48.9114 	 -3.34148 	 -21.1424 	 
H 	 -48.3662 	 -3.90094 	 -20.3439 	 
H 	 -49.6993 	 -4.05915 	 -21.3327 	 
H 	 -48.2772 	 -3.3341 	 -21.9965 	 
S 	 -48.3749 	 3.88779 	 -17.5169 	 
C 	 -47.4809 	 4.22016 	 -16.0318 	 
C 	 -47.8685 	 3.49103 	 -14.9855 	 
C 	 -48.7829 	 2.46832 	 -15.4139 	 
C 	 -49.1185 	 2.54757 	 -16.7488 	 
H 	 -47.5167 	 3.71185 	 -13.9664 	 
C 	 -49.1859 	 1.39708 	 -14.4493 	 
H 	 -48.3432 	 0.848429 	 -14.083 	 
H 	 -49.6261 	 0.568235 	 -14.9479 	 
C 	 -50.1006 	 1.90264 	 -13.2965 	 
H 	 -50.9266 	 2.45909 	 -13.732 	 
H 	 -49.5089 	 2.56811 	 -12.6244 	 
C 	 -50.4973 	 0.656583 	 -12.4622 	 
H 	 -51.0392 	 -0.147194 	 -12.9735 	 
H 	 -51.1856 	 0.95186 	 -11.669 	 
H 	 -49.6941 	 0.13892 	 -11.9063 	 
H 	 -52.1285 	 -0.328586 	 -19.6182 	 
H 	 -46.851 	 5.08734 	 -15.8853 	 
*
