! wB97X-D3 SP def2-SVP
%pal
nprocs 24
end

* xyz 0 1
S 	 -56.0815 	 14.2014 	 -94.7235 	 
C 	 -55.8267 	 12.7045 	 -93.828 	 
C 	 -55.6293 	 12.9295 	 -92.4898 	 
C 	 -55.6241 	 14.3232 	 -92.2076 	 
C 	 -55.8302 	 15.1165 	 -93.2668 	 
H 	 -55.4511 	 14.7813 	 -91.2676 	 
C 	 -55.3524 	 11.8869 	 -91.394 	 
H 	 -56.1826 	 11.0822 	 -91.3934 	 
H 	 -55.3086 	 12.3962 	 -90.3639 	 
C 	 -53.9133 	 11.2037 	 -91.3913 	 
H 	 -53.8132 	 10.8651 	 -92.4098 	 
H 	 -53.163 	 11.8843 	 -91.1124 	 
C 	 -53.6386 	 10.063 	 -90.439 	 
H 	 -54.4367 	 9.30493 	 -90.6164 	 
H 	 -52.6429 	 9.56289 	 -90.509 	 
H 	 -53.7271 	 10.3265 	 -89.3841 	 
S 	 -57.9502 	 16.9015 	 -93.2677 	 
C 	 -57.6163 	 18.5124 	 -92.8049 	 
C 	 -56.3384 	 18.8317 	 -92.9961 	 
C 	 -55.4674 	 17.7374 	 -93.2518 	 
C 	 -56.2164 	 16.5583 	 -93.2517 	 
H 	 -56.0576 	 19.8303 	 -92.8557 	 
C 	 -53.9127 	 17.8091 	 -93.0589 	 
H 	 -53.5616 	 17.0928 	 -92.3625 	 
H 	 -53.764 	 18.6846 	 -92.5146 	 
C 	 -52.9795 	 17.8731 	 -94.2845 	 
H 	 -53.0984 	 18.8289 	 -94.8341 	 
H 	 -53.45 	 17.1297 	 -94.9109 	 
C 	 -51.5385 	 17.5632 	 -93.982 	 
H 	 -51.1232 	 18.3991 	 -93.4281 	 
H 	 -50.9601 	 17.3484 	 -94.851 	 
H 	 -51.5314 	 16.6781 	 -93.4149 	 
H 	 -55.8599 	 11.7877 	 -94.2938 	 
H 	 -58.3976 	 19.2545 	 -92.6872 	 
*
