! wB97X-D3 SP def2-SVP
%pal
nprocs 24
end

* xyz 0 1
S 	 -111.661 	 35.9194 	 -16.3624 	 
C 	 -110.361 	 36.4285 	 -15.2395 	 
C 	 -109.171 	 35.8538 	 -15.697 	 
C 	 -109.331 	 34.934 	 -16.716 	 
C 	 -110.656 	 34.6073 	 -16.9361 	 
H 	 -108.555 	 34.4125 	 -17.2864 	 
C 	 -107.777 	 36.0731 	 -15.0727 	 
H 	 -107.667 	 37.116 	 -14.7847 	 
H 	 -107.025 	 35.9203 	 -15.7853 	 
C 	 -107.561 	 35.1116 	 -13.8998 	 
H 	 -108.279 	 35.3632 	 -13.12 	 
H 	 -107.825 	 34.0751 	 -14.126 	 
C 	 -106.165 	 35.2719 	 -13.434 	 
H 	 -106.055 	 34.996 	 -12.4174 	 
H 	 -105.442 	 34.6972 	 -13.9661 	 
H 	 -105.85 	 36.3391 	 -13.39 	 
S 	 -111.961 	 34.0875 	 -19.2322 	 
C 	 -112.442 	 32.4408 	 -19.6117 	 
C 	 -111.879 	 31.5731 	 -18.749 	 
C 	 -111.021 	 32.179 	 -17.7133 	 
C 	 -111.213 	 33.5565 	 -17.735 	 
H 	 -112.18 	 30.5058 	 -18.9015 	 
C 	 -110.268 	 31.381 	 -16.6252 	 
H 	 -111.002 	 31.1519 	 -15.8485 	 
H 	 -109.448 	 31.9095 	 -16.1251 	 
C 	 -109.732 	 30.0869 	 -17.218 	 
H 	 -109.013 	 30.234 	 -18.0573 	 
H 	 -110.552 	 29.4643 	 -17.52 	 
C 	 -108.943 	 29.2087 	 -16.14 	 
H 	 -108.098 	 29.9004 	 -15.8571 	 
H 	 -108.596 	 28.1999 	 -16.4798 	 
H 	 -109.53 	 29.0613 	 -15.2681 	 
H 	 -110.37 	 37.2607 	 -14.4787 	 
H 	 -113.196 	 32.1655 	 -20.3585 	 
*
