! wB97X-D3 SP def2-SVP
%pal
nprocs 24
end

* xyz 0 1
S 	 -103.803 	 44.0074 	 -92.4644 	 
C 	 -103.661 	 42.2822 	 -92.6052 	 
C 	 -103.813 	 41.7105 	 -91.3412 	 
C 	 -104.121 	 42.6473 	 -90.3387 	 
C 	 -104.287 	 43.9674 	 -90.775 	 
H 	 -104.161 	 42.4101 	 -89.2938 	 
C 	 -103.982 	 40.2521 	 -91.0238 	 
H 	 -104.928 	 39.8259 	 -91.4739 	 
H 	 -103.969 	 40.2351 	 -89.9597 	 
C 	 -102.82 	 39.3339 	 -91.5481 	 
H 	 -103.03 	 38.2912 	 -91.1415 	 
H 	 -102.926 	 39.2065 	 -92.586 	 
C 	 -101.421 	 39.8802 	 -91.144 	 
H 	 -101.321 	 40.8541 	 -91.6209 	 
H 	 -101.343 	 40.0447 	 -89.9906 	 
H 	 -100.488 	 39.418 	 -91.5488 	 
S 	 -106.073 	 45.9851 	 -90.8254 	 
C 	 -106.234 	 47.1047 	 -89.581 	 
C 	 -105.353 	 46.7934 	 -88.5606 	 
C 	 -104.446 	 45.7194 	 -88.8379 	 
C 	 -104.678 	 45.2247 	 -90.1116 	 
H 	 -105.398 	 47.4183 	 -87.6254 	 
C 	 -103.563 	 45.1395 	 -87.7149 	 
H 	 -102.56 	 44.9525 	 -88.1319 	 
H 	 -104.008 	 44.163 	 -87.4807 	 
C 	 -103.256 	 45.886 	 -86.3813 	 
H 	 -104.135 	 46.4005 	 -85.9471 	 
H 	 -102.535 	 46.7305 	 -86.5331 	 
C 	 -102.617 	 44.9474 	 -85.3294 	 
H 	 -103.252 	 44.0939 	 -85.2349 	 
H 	 -102.533 	 45.3457 	 -84.3326 	 
H 	 -101.689 	 44.5292 	 -85.6887 	 
H 	 -103.537 	 41.7729 	 -93.5468 	 
H 	 -106.95 	 47.8627 	 -89.5775 	 
*
