! wB97X-D3 SP def2-SVP
%pal
nprocs 24
end

* xyz 0 1
S 	 46.8311 	 -19.3792 	 -110.922 	 
C 	 46.8197 	 -19.2383 	 -109.17 	 
C 	 45.8757 	 -20.0723 	 -108.603 	 
C 	 45.3169 	 -20.9583 	 -109.619 	 
C 	 45.7235 	 -20.7497 	 -110.915 	 
H 	 44.5393 	 -21.7225 	 -109.446 	 
C 	 45.4094 	 -20.0478 	 -107.15 	 
H 	 45.2286 	 -18.9594 	 -106.997 	 
H 	 46.1603 	 -20.3536 	 -106.399 	 
C 	 44.0896 	 -20.7849 	 -106.77 	 
H 	 43.2731 	 -20.6466 	 -107.476 	 
H 	 44.4161 	 -21.8168 	 -106.817 	 
C 	 43.5254 	 -20.3638 	 -105.424 	 
H 	 44.309 	 -20.2917 	 -104.666 	 
H 	 43.125 	 -19.3521 	 -105.398 	 
H 	 42.7204 	 -21.097 	 -105.159 	 
S 	 46.7176 	 -21.6107 	 -113.334 	 
C 	 45.7318 	 -22.6464 	 -114.312 	 
C 	 44.5475 	 -23.0096 	 -113.703 	 
C 	 44.331 	 -22.2633 	 -112.504 	 
C 	 45.4899 	 -21.5558 	 -112.087 	 
H 	 43.886 	 -23.6677 	 -114.258 	 
C 	 42.9689 	 -22.4044 	 -111.839 	 
H 	 43.1582 	 -22.6503 	 -110.804 	 
H 	 42.4861 	 -23.2914 	 -112.234 	 
C 	 41.9913 	 -21.2041 	 -112.103 	 
H 	 41.6202 	 -21.2297 	 -113.2 	 
H 	 42.4964 	 -20.2367 	 -111.964 	 
C 	 40.7682 	 -21.3336 	 -111.205 	 
H 	 40.867 	 -20.6481 	 -110.359 	 
H 	 40.5502 	 -22.3346 	 -110.846 	 
H 	 39.9312 	 -21.1296 	 -111.903 	 
H 	 47.3874 	 -18.5054 	 -108.619 	 
H 	 45.9404 	 -22.8928 	 -115.367 	 
*
