! wB97X-D3 SP def2-SVP
%pal
nprocs 24
end

* xyz 0 1
S 	 -120.028 	 59.5444 	 -39.3187 	 
C 	 -120.42 	 57.8493 	 -39.577 	 
C 	 -120.824 	 57.2891 	 -38.3558 	 
C 	 -120.658 	 58.169 	 -37.244 	 
C 	 -120.371 	 59.4513 	 -37.6813 	 
H 	 -120.896 	 58.0682 	 -36.2033 	 
C 	 -121.265 	 55.8228 	 -38.183 	 
H 	 -120.596 	 55.3484 	 -37.4303 	 
H 	 -120.992 	 55.4119 	 -39.1149 	 
C 	 -122.729 	 55.5825 	 -37.8667 	 
H 	 -122.989 	 54.6207 	 -38.248 	 
H 	 -122.806 	 55.5418 	 -36.7 	 
C 	 -123.705 	 56.6203 	 -38.484 	 
H 	 -123.736 	 56.705 	 -39.6085 	 
H 	 -124.742 	 56.3369 	 -38.289 	 
H 	 -123.562 	 57.5502 	 -37.9442 	 
S 	 -118.863 	 61.5822 	 -36.6838 	 
C 	 -119.653 	 62.8286 	 -35.7268 	 
C 	 -120.982 	 62.523 	 -35.485 	 
C 	 -121.421 	 61.3596 	 -36.1362 	 
C 	 -120.355 	 60.6045 	 -36.8212 	 
H 	 -121.553 	 63.2569 	 -34.8804 	 
C 	 -122.877 	 60.8432 	 -35.9583 	 
H 	 -123.155 	 60.0414 	 -36.6425 	 
H 	 -123.441 	 61.6364 	 -36.3275 	 
C 	 -123.371 	 60.5695 	 -34.5144 	 
H 	 -124.443 	 60.2581 	 -34.4776 	 
H 	 -123.054 	 61.3663 	 -33.8123 	 
C 	 -122.68 	 59.317 	 -33.9483 	 
H 	 -122.606 	 58.4611 	 -34.7103 	 
H 	 -123.161 	 58.9648 	 -32.9979 	 
H 	 -121.648 	 59.3909 	 -33.7158 	 
H 	 -120.254 	 57.132 	 -40.3866 	 
H 	 -119.167 	 63.6228 	 -35.1656 	 
*
