! wB97X-D3 SP def2-SVP
%pal
nprocs 24
end

* xyz 0 1
S 	 50.1976 	 -35.8509 	 -121.617 	 
C 	 49.9935 	 -34.7606 	 -122.998 	 
C 	 49.1395 	 -33.758 	 -122.733 	 
C 	 48.7296 	 -33.8151 	 -121.316 	 
C 	 49.0635 	 -34.9259 	 -120.603 	 
H 	 48.1463 	 -33.1513 	 -120.768 	 
C 	 48.8543 	 -32.6274 	 -123.748 	 
H 	 49.6251 	 -32.3897 	 -124.447 	 
H 	 48.7153 	 -31.7131 	 -123.103 	 
C 	 47.6032 	 -32.9273 	 -124.595 	 
H 	 47.4667 	 -32.2292 	 -125.429 	 
H 	 47.7337 	 -33.9215 	 -124.991 	 
C 	 46.3024 	 -33.0317 	 -123.741 	 
H 	 45.4341 	 -32.9729 	 -124.397 	 
H 	 46.3026 	 -33.9689 	 -123.142 	 
H 	 46.1282 	 -32.2011 	 -123.029 	 
S 	 49.9713 	 -35.0189 	 -118.142 	 
C 	 49.0182 	 -35.5811 	 -116.854 	 
C 	 47.7422 	 -35.787 	 -117.227 	 
C 	 47.4548 	 -35.5875 	 -118.574 	 
C 	 48.606 	 -35.2435 	 -119.247 	 
H 	 47.076 	 -36.2063 	 -116.466 	 
C 	 46.118 	 -35.7177 	 -119.177 	 
H 	 45.5203 	 -36.5046 	 -118.783 	 
H 	 46.2211 	 -36.0378 	 -120.305 	 
C 	 45.0812 	 -34.5474 	 -118.988 	 
H 	 44.6386 	 -34.5574 	 -118.026 	 
H 	 44.2203 	 -34.7157 	 -119.688 	 
C 	 45.6724 	 -33.2486 	 -119.376 	 
H 	 45.9161 	 -33.0356 	 -120.387 	 
H 	 46.6388 	 -33.1542 	 -118.878 	 
H 	 45.0369 	 -32.4695 	 -119.14 	 
H 	 50.556 	 -34.8794 	 -123.987 	 
H 	 49.2619 	 -35.6739 	 -115.862 	 
*
