! wB97X-D3 SP def2-SVP
%pal
nprocs 24
end

* xyz 0 1
S 	 -54.137 	 13.4246 	 -92.5399 	 
C 	 -52.3905 	 13.5077 	 -92.3237 	 
C 	 -51.8046 	 13.1891 	 -93.5077 	 
C 	 -52.7898 	 12.8248 	 -94.5317 	 
C 	 -54.0876 	 12.8149 	 -94.1326 	 
H 	 -52.6323 	 12.6965 	 -95.6241 	 
C 	 -50.3176 	 13.4511 	 -93.7923 	 
H 	 -50.0366 	 12.8427 	 -94.6343 	 
H 	 -49.6656 	 13.0549 	 -92.9596 	 
C 	 -49.6729 	 14.8429 	 -94.0079 	 
H 	 -49.5023 	 15.4018 	 -93.0676 	 
H 	 -48.6024 	 14.686 	 -94.3258 	 
C 	 -50.3335 	 15.607 	 -95.1252 	 
H 	 -51.3819 	 15.5973 	 -95.1008 	 
H 	 -50.0699 	 16.6413 	 -95.0102 	 
H 	 -49.999 	 15.2259 	 -96.1326 	 
S 	 -56.5444 	 13.9398 	 -94.9016 	 
C 	 -57.4577 	 13.0378 	 -96.0913 	 
C 	 -56.8284 	 11.8082 	 -96.4044 	 
C 	 -55.5795 	 11.6034 	 -95.7823 	 
C 	 -55.3022 	 12.5897 	 -94.855 	 
H 	 -57.2849 	 11.0577 	 -97.0385 	 
C 	 -54.8177 	 10.3283 	 -96.0303 	 
H 	 -53.737 	 10.5762 	 -96.2071 	 
H 	 -55.3147 	 9.88901 	 -96.9152 	 
C 	 -54.8143 	 9.28496 	 -94.9177 	 
H 	 -55.8502 	 9.13434 	 -94.6987 	 
H 	 -54.3088 	 9.64328 	 -93.9802 	 
C 	 -53.9067 	 8.06843 	 -95.2375 	 
H 	 -53.0819 	 8.25805 	 -95.9577 	 
H 	 -54.3387 	 7.24156 	 -95.786 	 
H 	 -53.5531 	 7.62683 	 -94.2989 	 
H 	 -51.866 	 13.7534 	 -91.4493 	 
H 	 -58.4432 	 13.289 	 -96.3626 	 
*
