! wB97X-D3 SP def2-SVP
%pal
nprocs 24
end

* xyz 0 1
S 	 -107.112 	 14.5735 	 -123.582 	 
C 	 -107.241 	 14.7872 	 -121.879 	 
C 	 -108.529 	 15.1975 	 -121.501 	 
C 	 -109.341 	 15.5219 	 -122.676 	 
C 	 -108.726 	 15.1789 	 -123.887 	 
H 	 -110.315 	 15.9568 	 -122.759 	 
C 	 -109.008 	 15.3643 	 -120.135 	 
H 	 -109.608 	 16.3134 	 -120.122 	 
H 	 -108.056 	 15.4043 	 -119.515 	 
C 	 -109.861 	 14.2105 	 -119.597 	 
H 	 -109.287 	 13.3231 	 -119.744 	 
H 	 -110.062 	 14.2511 	 -118.512 	 
C 	 -111.182 	 14.0926 	 -120.372 	 
H 	 -111.469 	 15.084 	 -120.712 	 
H 	 -111.108 	 13.3753 	 -121.282 	 
H 	 -112.044 	 13.6769 	 -119.7 	 
S 	 -108.362 	 16.2447 	 -126.248 	 
C 	 -109.656 	 16.6313 	 -127.371 	 
C 	 -110.775 	 15.944 	 -126.994 	 
C 	 -110.609 	 15.2995 	 -125.775 	 
C 	 -109.378 	 15.4354 	 -125.196 	 
H 	 -111.717 	 15.8689 	 -127.656 	 
C 	 -111.631 	 14.4263 	 -125.153 	 
H 	 -112.432 	 15.1257 	 -124.836 	 
H 	 -111.375 	 13.9844 	 -124.241 	 
C 	 -112.296 	 13.3267 	 -125.998 	 
H 	 -111.642 	 12.5284 	 -126.313 	 
H 	 -112.702 	 13.7407 	 -126.879 	 
C 	 -113.402 	 12.5349 	 -125.25 	 
H 	 -113.123 	 12.288 	 -124.207 	 
H 	 -113.513 	 11.558 	 -125.782 	 
H 	 -114.333 	 13.0522 	 -125.24 	 
H 	 -106.546 	 14.4988 	 -121.156 	 
H 	 -109.742 	 17.3353 	 -128.199 	 
*
