! wB97X-D3 SP def2-SVP
%pal
nprocs 24
end

* xyz 0 1
S 	 -46.3792 	 17.971 	 25.3077 	 
C 	 -46.9089 	 16.9734 	 24.0116 	 
C 	 -47.6344 	 15.8705 	 24.4689 	 
C 	 -47.6195 	 15.7917 	 25.8555 	 
C 	 -46.8222 	 16.745 	 26.4824 	 
H 	 -48.2252 	 15.0005 	 26.4568 	 
C 	 -48.3461 	 14.8597 	 23.7039 	 
H 	 -48.5088 	 15.2868 	 22.7374 	 
H 	 -49.2939 	 14.8609 	 24.1301 	 
C 	 -47.9186 	 13.3911 	 23.7097 	 
H 	 -47.7298 	 13.0976 	 24.7546 	 
H 	 -48.768 	 12.7842 	 23.317 	 
C 	 -46.5808 	 13.1471 	 23.0325 	 
H 	 -46.149 	 12.2088 	 23.2611 	 
H 	 -46.5122 	 13.2776 	 21.9365 	 
H 	 -45.7926 	 13.8826 	 23.3965 	 
S 	 -48.001 	 17.6957 	 28.8278 	 
C 	 -47.1595 	 17.6123 	 30.2887 	 
C 	 -45.9219 	 16.9853 	 30.1292 	 
C 	 -45.595 	 16.6074 	 28.7593 	 
C 	 -46.6542 	 16.918 	 27.9486 	 
H 	 -45.3076 	 16.8262 	 31.0263 	 
C 	 -44.1861 	 16.1334 	 28.3447 	 
H 	 -43.4531 	 16.8655 	 28.5839 	 
H 	 -44.2119 	 16.1166 	 27.2731 	 
C 	 -43.8648 	 14.8053 	 28.9878 	 
H 	 -44.1265 	 14.7964 	 30.0424 	 
H 	 -42.8396 	 14.4535 	 28.8848 	 
C 	 -44.7716 	 13.7407 	 28.4116 	 
H 	 -44.8171 	 12.8254 	 29.0419 	 
H 	 -44.4732 	 13.5779 	 27.3559 	 
H 	 -45.7606 	 14.0073 	 28.4183 	 
H 	 -46.6998 	 17.1243 	 22.9499 	 
H 	 -47.4405 	 17.9911 	 31.2539 	 
*
