! wB97X-D3 SP def2-SVP
%pal
nprocs 24
end

* xyz 0 1
S 	 -107.748 	 54.5281 	 -111.699 	 
C 	 -107.029 	 56.1156 	 -111.668 	 
C 	 -107.233 	 56.6687 	 -110.373 	 
C 	 -107.915 	 55.8086 	 -109.435 	 
C 	 -108.251 	 54.6055 	 -110.024 	 
H 	 -108.185 	 56.0124 	 -108.397 	 
C 	 -106.939 	 58.1073 	 -110.027 	 
H 	 -107.849 	 58.5753 	 -109.748 	 
H 	 -106.62 	 58.5375 	 -111.018 	 
C 	 -105.907 	 58.2662 	 -108.857 	 
H 	 -104.97 	 57.7232 	 -109.055 	 
H 	 -105.598 	 59.2462 	 -108.83 	 
C 	 -106.38 	 57.9486 	 -107.419 	 
H 	 -105.533 	 58.3648 	 -106.768 	 
H 	 -107.302 	 58.4341 	 -107.179 	 
H 	 -106.509 	 56.8481 	 -107.2 	 
S 	 -108.361 	 52.007 	 -109.179 	 
C 	 -109.862 	 51.2916 	 -108.625 	 
C 	 -110.852 	 52.2452 	 -108.575 	 
C 	 -110.418 	 53.5267 	 -109.027 	 
C 	 -109.097 	 53.5669 	 -109.459 	 
H 	 -111.912 	 51.9379 	 -108.403 	 
C 	 -111.348 	 54.7066 	 -109.285 	 
H 	 -112.232 	 54.4864 	 -109.863 	 
H 	 -110.714 	 55.396 	 -109.897 	 
C 	 -111.772 	 55.2784 	 -107.928 	 
H 	 -110.913 	 55.4952 	 -107.316 	 
H 	 -112.425 	 54.6603 	 -107.3 	 
C 	 -112.634 	 56.5245 	 -108.051 	 
H 	 -113.573 	 56.2598 	 -108.557 	 
H 	 -111.974 	 57.3099 	 -108.545 	 
H 	 -112.856 	 56.924 	 -107.022 	 
H 	 -106.383 	 56.5048 	 -112.423 	 
H 	 -110.1 	 50.2301 	 -108.633 	 
*
