! wB97X-D3 SP def2-SVP
%pal
nprocs 24
end

* xyz 0 1
S 	 -70.5335 	 15.4429 	 -77.1988 	 
C 	 -68.9278 	 15.3923 	 -77.831 	 
C 	 -68.2316 	 14.2499 	 -77.3611 	 
C 	 -69.0152 	 13.5731 	 -76.377 	 
C 	 -70.2873 	 14.1425 	 -76.0652 	 
H 	 -68.7929 	 12.6526 	 -75.8946 	 
C 	 -66.9171 	 13.7719 	 -77.875 	 
H 	 -67.1201 	 13.1897 	 -78.7996 	 
H 	 -66.6248 	 12.9624 	 -77.1704 	 
C 	 -65.8303 	 14.8217 	 -77.9769 	 
H 	 -64.9344 	 14.4059 	 -78.4585 	 
H 	 -66.0901 	 15.529 	 -78.7538 	 
C 	 -65.5505 	 15.6434 	 -76.664 	 
H 	 -64.9593 	 15.0612 	 -75.9983 	 
H 	 -65.0105 	 16.5993 	 -76.9011 	 
H 	 -66.4404 	 15.8502 	 -76.1193 	 
S 	 -72.9809 	 13.8129 	 -75.6169 	 
C 	 -73.5171 	 13.2789 	 -74.0533 	 
C 	 -72.4435 	 12.8666 	 -73.3035 	 
C 	 -71.1853 	 13.1329 	 -73.8546 	 
C 	 -71.2759 	 13.6477 	 -75.1349 	 
H 	 -72.6886 	 12.4124 	 -72.3323 	 
C 	 -69.9409 	 12.8045 	 -73.0018 	 
H 	 -69.1164 	 12.6932 	 -73.7429 	 
H 	 -70.0814 	 11.8208 	 -72.4905 	 
C 	 -69.5443 	 13.9644 	 -72.1017 	 
H 	 -70.3882 	 14.3249 	 -71.4099 	 
H 	 -69.2142 	 14.7937 	 -72.6825 	 
C 	 -68.403 	 13.6922 	 -71.089 	 
H 	 -68.0048 	 14.6648 	 -70.7716 	 
H 	 -67.5843 	 13.1424 	 -71.5334 	 
H 	 -68.7768 	 13.157 	 -70.1894 	 
H 	 -68.5138 	 15.9467 	 -78.6146 	 
H 	 -74.5268 	 13.2778 	 -73.6931 	 
*
