! wB97X-D3 SP def2-SVP
%pal
nprocs 24
end

* xyz 0 1
S 	 -120.965 	 20.9776 	 -22.9013 	 
C 	 -119.566 	 20.1289 	 -23.554 	 
C 	 -118.394 	 20.8383 	 -23.2696 	 
C 	 -118.687 	 22.1137 	 -22.623 	 
C 	 -120 	 22.3736 	 -22.4219 	 
H 	 -118.025 	 22.8597 	 -22.2456 	 
C 	 -116.961 	 20.3667 	 -23.4968 	 
H 	 -117.001 	 19.7846 	 -24.4327 	 
H 	 -116.886 	 19.6488 	 -22.6659 	 
C 	 -115.885 	 21.5026 	 -23.4496 	 
H 	 -116.157 	 22.4373 	 -23.894 	 
H 	 -115.578 	 21.8608 	 -22.4579 	 
C 	 -114.56 	 21.0596 	 -24.0708 	 
H 	 -114.662 	 20.7758 	 -25.1239 	 
H 	 -113.706 	 21.7924 	 -24.002 	 
H 	 -114.111 	 20.2106 	 -23.5877 	 
S 	 -121.927 	 23.4726 	 -20.7637 	 
C 	 -122.174 	 25.206 	 -20.8422 	 
C 	 -121.161 	 25.8188 	 -21.5645 	 
C 	 -120.223 	 24.9607 	 -22.1577 	 
C 	 -120.601 	 23.6443 	 -21.9733 	 
H 	 -121.17 	 26.881 	 -21.6629 	 
C 	 -119.151 	 25.349 	 -23.1834 	 
H 	 -119.666 	 26.0442 	 -23.8513 	 
H 	 -118.959 	 24.4037 	 -23.743 	 
C 	 -117.848 	 25.9528 	 -22.6238 	 
H 	 -117.299 	 25.2417 	 -22.0256 	 
H 	 -118.222 	 26.6765 	 -21.9432 	 
C 	 -116.946 	 26.5911 	 -23.7038 	 
H 	 -116.484 	 25.8212 	 -24.3652 	 
H 	 -116.105 	 27.1752 	 -23.3391 	 
H 	 -117.628 	 27.2892 	 -24.2065 	 
H 	 -119.642 	 19.0602 	 -23.9035 	 
H 	 -122.91 	 25.7071 	 -20.1524 	 
*
