! wB97X-D3 SP def2-SVP
%pal
nprocs 24
end

* xyz 0 1
S 	 -58.9425 	 7.61712 	 -8.54396 	 
C 	 -58.549 	 5.96959 	 -8.24703 	 
C 	 -59.2815 	 5.13125 	 -9.13289 	 
C 	 -60.1637 	 5.87341 	 -10.0046 	 
C 	 -60.0727 	 7.23704 	 -9.86096 	 
H 	 -60.8503 	 5.4702 	 -10.7113 	 
C 	 -59.2275 	 3.60796 	 -9.19293 	 
H 	 -59.7844 	 3.19417 	 -10.0626 	 
H 	 -59.6258 	 3.21506 	 -8.27461 	 
C 	 -57.788 	 3.12173 	 -9.11509 	 
H 	 -57.2272 	 3.4879 	 -9.97962 	 
H 	 -57.2737 	 3.49476 	 -8.20301 	 
C 	 -57.7171 	 1.54334 	 -9.12569 	 
H 	 -58.3619 	 1.2248 	 -10.0173 	 
H 	 -56.6212 	 1.36807 	 -9.31158 	 
H 	 -58.1019 	 1.18403 	 -8.1825 	 
S 	 -62.4469 	 8.46542 	 -9.43151 	 
C 	 -63.3005 	 9.34802 	 -10.6968 	 
C 	 -62.651 	 9.2385 	 -11.8586 	 
C 	 -61.4077 	 8.49217 	 -11.7435 	 
C 	 -61.0759 	 8.11009 	 -10.4301 	 
H 	 -63.0665 	 9.65106 	 -12.7678 	 
C 	 -60.639 	 8.1237 	 -13.0061 	 
H 	 -59.6583 	 7.79318 	 -12.8975 	 
H 	 -60.58 	 9.00652 	 -13.5904 	 
C 	 -61.2657 	 7.06333 	 -13.9869 	 
H 	 -60.4943 	 6.72025 	 -14.6881 	 
H 	 -61.9745 	 7.52067 	 -14.604 	 
C 	 -61.8853 	 5.87877 	 -13.3267 	 
H 	 -62.5665 	 5.39266 	 -14.0337 	 
H 	 -62.2745 	 6.15072 	 -12.3733 	 
H 	 -61.1527 	 5.09486 	 -12.977 	 
H 	 -57.7085 	 5.67475 	 -7.63273 	 
H 	 -64.2485 	 10.045 	 -10.6385 	 
*
