! wB97X-D3 SP def2-SVP
%pal
nprocs 24
end

* xyz 0 1
S 	 -133.354 	 68.2684 	 -57.8777 	 
C 	 -135.021 	 68.6994 	 -57.9014 	 
C 	 -135.728 	 67.878 	 -58.7757 	 
C 	 -134.862 	 66.8848 	 -59.2918 	 
C 	 -133.58 	 66.9018 	 -58.8671 	 
H 	 -135.178 	 66.0838 	 -59.9248 	 
C 	 -137.167 	 68.086 	 -59.1073 	 
H 	 -137.576 	 68.6484 	 -58.2746 	 
H 	 -137.692 	 67.1122 	 -58.9844 	 
C 	 -137.503 	 68.7745 	 -60.5071 	 
H 	 -137.405 	 67.9932 	 -61.3479 	 
H 	 -138.568 	 69.0539 	 -60.5101 	 
C 	 -136.71 	 70.0362 	 -60.6706 	 
H 	 -136.978 	 70.4028 	 -61.6098 	 
H 	 -137.032 	 70.6825 	 -59.8384 	 
H 	 -135.634 	 69.9846 	 -60.6643 	 
S 	 -131.317 	 66.8783 	 -60.3848 	 
C 	 -130.325 	 65.4646 	 -60.2705 	 
C 	 -130.968 	 64.372 	 -59.7383 	 
C 	 -132.255 	 64.71 	 -59.261 	 
C 	 -132.519 	 66.0409 	 -59.3748 	 
H 	 -130.438 	 63.443 	 -59.6654 	 
C 	 -133.184 	 63.6724 	 -58.6121 	 
H 	 -134.107 	 64.0857 	 -58.0649 	 
H 	 -132.717 	 63.1725 	 -57.7486 	 
C 	 -133.604 	 62.4997 	 -59.4775 	 
H 	 -134.222 	 61.8652 	 -58.8579 	 
H 	 -132.709 	 61.869 	 -59.6353 	 
C 	 -134.235 	 62.867 	 -60.8655 	 
H 	 -135.121 	 63.5154 	 -60.6829 	 
H 	 -134.519 	 61.9917 	 -61.4955 	 
H 	 -133.605 	 63.4751 	 -61.61 	 
H 	 -135.29 	 69.4806 	 -57.2021 	 
H 	 -129.347 	 65.3943 	 -60.6627 	 
*
