! wB97X-D3 SP def2-SVP
%pal
nprocs 24
end

* xyz 0 1
S 	 -129.077 	 56.7463 	 -58.4723 	 
C 	 -130.192 	 58.0652 	 -58.2551 	 
C 	 -129.588 	 59.1567 	 -57.6173 	 
C 	 -128.194 	 59.0028 	 -57.5308 	 
C 	 -127.763 	 57.751 	 -58.0058 	 
H 	 -127.509 	 59.6755 	 -57.0764 	 
C 	 -130.374 	 60.2916 	 -56.9033 	 
H 	 -129.874 	 60.7134 	 -55.9803 	 
H 	 -131.381 	 59.8833 	 -56.6839 	 
C 	 -130.796 	 61.4505 	 -57.8131 	 
H 	 -129.94 	 61.9561 	 -58.2718 	 
H 	 -131.495 	 61.1121 	 -58.5993 	 
C 	 -131.655 	 62.5679 	 -57.1287 	 
H 	 -132.664 	 62.1949 	 -56.8625 	 
H 	 -131.228 	 63.016 	 -56.1954 	 
H 	 -131.738 	 63.4092 	 -57.8797 	 
S 	 -125.828 	 56.1109 	 -57.0827 	 
C 	 -124.191 	 56.3625 	 -57.6554 	 
C 	 -124.138 	 57.3398 	 -58.6175 	 
C 	 -125.37 	 58.0438 	 -58.7598 	 
C 	 -126.386 	 57.367 	 -58.1164 	 
H 	 -123.208 	 57.5228 	 -59.2776 	 
C 	 -125.447 	 59.2003 	 -59.7763 	 
H 	 -126.528 	 59.313 	 -60.0755 	 
H 	 -124.86 	 58.9006 	 -60.6369 	 
C 	 -124.9 	 60.5513 	 -59.2773 	 
H 	 -123.867 	 60.504 	 -59.2927 	 
H 	 -125.215 	 60.7827 	 -58.2143 	 
C 	 -125.41 	 61.7326 	 -60.0851 	 
H 	 -124.966 	 62.7225 	 -59.776 	 
H 	 -126.463 	 61.9432 	 -60.0727 	 
H 	 -125.148 	 61.655 	 -61.1793 	 
H 	 -131.258 	 57.9051 	 -58.322 	 
H 	 -123.458 	 55.5421 	 -57.5783 	 
*
