! wB97X-D3 SP def2-SVP
%pal
nprocs 24
end

* xyz 0 1
S 	 0.497908 	 -19.2018 	 -102.072 	 
C 	 1.62451 	 -20.4418 	 -102.092 	 
C 	 2.92908 	 -19.977 	 -101.793 	 
C 	 3.0033 	 -18.5119 	 -101.927 	 
C 	 1.76311 	 -17.9434 	 -102.093 	 
H 	 3.87946 	 -17.9296 	 -101.923 	 
C 	 4.11354 	 -20.9148 	 -101.69 	 
H 	 3.86586 	 -21.62 	 -100.951 	 
H 	 4.97172 	 -20.2649 	 -101.395 	 
C 	 4.56008 	 -21.6084 	 -103.021 	 
H 	 3.85765 	 -22.3573 	 -103.234 	 
H 	 4.46581 	 -20.9164 	 -103.868 	 
C 	 5.94896 	 -22.2213 	 -102.97 	 
H 	 6.16259 	 -22.9449 	 -102.236 	 
H 	 6.13783 	 -22.793 	 -103.849 	 
H 	 6.71935 	 -21.4785 	 -102.793 	 
S 	 1.53042 	 -15.8688 	 -103.832 	 
C 	 1.31089 	 -14.2085 	 -103.176 	 
C 	 1.18001 	 -14.1514 	 -101.778 	 
C 	 1.23045 	 -15.5011 	 -101.264 	 
C 	 1.49689 	 -16.4767 	 -102.204 	 
H 	 1.09687 	 -13.2168 	 -101.268 	 
C 	 1.1108 	 -15.7198 	 -99.7827 	 
H 	 0.381662 	 -16.604 	 -99.7202 	 
H 	 0.671324 	 -14.8481 	 -99.5015 	 
C 	 2.40854 	 -15.9599 	 -98.9408 	 
H 	 3.31666 	 -15.4623 	 -99.3784 	 
H 	 2.65781 	 -17.0233 	 -98.891 	 
C 	 2.18388 	 -15.4195 	 -97.5142 	 
H 	 3.17539 	 -15.4247 	 -97.0311 	 
H 	 1.67171 	 -16.0848 	 -96.8655 	 
H 	 1.97376 	 -14.3835 	 -97.3589 	 
H 	 1.3202 	 -21.4585 	 -102.349 	 
H 	 1.16448 	 -13.2845 	 -103.755 	 
*
