! wB97X-D3 SP def2-SVP
%pal
nprocs 24
end

* xyz 0 1
S 	 -139.206 	 6.09621 	 -8.96052 	 
C 	 -138.288 	 7.13587 	 -10.0101 	 
C 	 -137.662 	 8.20419 	 -9.36158 	 
C 	 -138.124 	 8.1803 	 -8.01516 	 
C 	 -139.176 	 7.3346 	 -7.70806 	 
H 	 -137.649 	 8.7501 	 -7.21402 	 
C 	 -136.578 	 9.06232 	 -9.92978 	 
H 	 -136.313 	 8.58936 	 -10.9466 	 
H 	 -135.7 	 8.95908 	 -9.26615 	 
C 	 -136.9 	 10.5439 	 -10.0368 	 
H 	 -137.479 	 10.658 	 -10.9491 	 
H 	 -137.421 	 10.9107 	 -9.19148 	 
C 	 -135.696 	 11.4178 	 -10.3932 	 
H 	 -135.773 	 12.5283 	 -10.4893 	 
H 	 -134.982 	 11.3182 	 -9.56359 	 
H 	 -135.164 	 10.9532 	 -11.174 	 
S 	 -139.636 	 5.49078 	 -5.69595 	 
C 	 -140.206 	 6.0768 	 -4.1675 	 
C 	 -140.517 	 7.41693 	 -4.21011 	 
C 	 -140.272 	 8.01728 	 -5.4591 	 
C 	 -139.788 	 7.10684 	 -6.40478 	 
H 	 -140.686 	 7.78072 	 -3.20307 	 
C 	 -140.549 	 9.48838 	 -5.66541 	 
H 	 -141.627 	 9.69336 	 -5.37022 	 
H 	 -140.372 	 9.77771 	 -6.65886 	 
C 	 -139.604 	 10.3934 	 -4.71582 	 
H 	 -138.544 	 10.241 	 -4.77568 	 
H 	 -139.857 	 10.1648 	 -3.63286 	 
C 	 -139.696 	 11.8806 	 -5.05648 	 
H 	 -138.838 	 12.4219 	 -4.80899 	 
H 	 -140.639 	 12.1562 	 -4.47267 	 
H 	 -139.819 	 12.1137 	 -6.12444 	 
H 	 -138.049 	 6.79843 	 -11.0807 	 
H 	 -140.505 	 5.42188 	 -3.34105 	 
*
