! wB97X-D3 SP def2-SVP
%pal
nprocs 24
end

* xyz 0 1
S 	 -141.714 	 3.58369 	 15.4179 	 
C 	 -141.793 	 2.744 	 13.8629 	 
C 	 -141.44 	 3.55925 	 12.8095 	 
C 	 -141.211 	 4.93772 	 13.2869 	 
C 	 -141.292 	 5.11509 	 14.5948 	 
H 	 -140.972 	 5.77313 	 12.7092 	 
C 	 -141.065 	 3.08209 	 11.3872 	 
H 	 -141.434 	 2.10007 	 11.4389 	 
H 	 -140.034 	 3.09124 	 11.3744 	 
C 	 -141.73 	 3.89593 	 10.1989 	 
H 	 -142.855 	 3.95234 	 10.2826 	 
H 	 -141.375 	 4.92644 	 10.2779 	 
C 	 -141.323 	 3.43348 	 8.81293 	 
H 	 -141.753 	 4.06677 	 8.04318 	 
H 	 -140.249 	 3.42473 	 8.67826 	 
H 	 -141.704 	 2.43976 	 8.4324 	 
S 	 -139.811 	 7.24499 	 15.3964 	 
C 	 -140.518 	 8.56785 	 16.3182 	 
C 	 -141.74 	 8.1342 	 16.8099 	 
C 	 -142.215 	 6.94262 	 16.248 	 
C 	 -141.315 	 6.38769 	 15.3502 	 
H 	 -142.245 	 8.65985 	 17.557 	 
C 	 -143.647 	 6.45028 	 16.4415 	 
H 	 -144.162 	 7.11615 	 17.1221 	 
H 	 -143.62 	 5.48587 	 16.9013 	 
C 	 -144.544 	 6.26405 	 15.148 	 
H 	 -144.155 	 5.32306 	 14.7319 	 
H 	 -144.29 	 7.0869 	 14.4835 	 
C 	 -146.029 	 6.01582 	 15.393 	 
H 	 -146.448 	 6.99136 	 15.7332 	 
H 	 -146.159 	 5.26987 	 16.1717 	 
H 	 -146.655 	 5.75161 	 14.4998 	 
H 	 -141.881 	 1.64162 	 13.8523 	 
H 	 -139.907 	 9.23706 	 16.8755 	 
*
