! wB97X-D3 SP def2-SVP
%pal
nprocs 24
end

* xyz 0 1
S 	 -56.3788 	 -1.80472 	 -30.8274 	 
C 	 -55.5863 	 -0.904802 	 -32.244 	 
C 	 -54.2862 	 -0.706396 	 -32.0095 	 
C 	 -53.912 	 -1.20495 	 -30.7874 	 
C 	 -54.8946 	 -1.8223 	 -29.9789 	 
H 	 -52.9525 	 -1.45578 	 -30.3763 	 
C 	 -53.226 	 0.0102887 	 -32.9192 	 
H 	 -53.3947 	 -0.26586 	 -33.963 	 
H 	 -52.325 	 -0.565426 	 -32.6759 	 
C 	 -53.0096 	 1.55336 	 -32.7189 	 
H 	 -53.7182 	 2.10109 	 -33.328 	 
H 	 -53.1073 	 1.83187 	 -31.679 	 
C 	 -51.5511 	 2.05128 	 -33.0547 	 
H 	 -51.5212 	 3.10634 	 -33.1366 	 
H 	 -50.7334 	 1.91063 	 -32.3161 	 
H 	 -51.1758 	 1.59646 	 -34.018 	 
S 	 -55.5542 	 -4.304 	 -29.0195 	 
C 	 -54.8776 	 -4.98412 	 -27.5687 	 
C 	 -54.0583 	 -4.06146 	 -27.0294 	 
C 	 -53.8643 	 -2.82979 	 -27.7231 	 
C 	 -54.6585 	 -2.81125 	 -28.8937 	 
H 	 -53.6497 	 -4.31113 	 -26.0224 	 
C 	 -52.9879 	 -1.66525 	 -27.171 	 
H 	 -52.5715 	 -1.14267 	 -28.0199 	 
H 	 -52.1503 	 -2.16095 	 -26.7683 	 
C 	 -53.8309 	 -0.623344 	 -26.3714 	 
H 	 -54.186 	 -1.02831 	 -25.4516 	 
H 	 -54.7266 	 -0.422649 	 -27.0094 	 
C 	 -52.9564 	 0.556299 	 -26.0204 	 
H 	 -53.544 	 1.3386 	 -25.5798 	 
H 	 -52.5457 	 1.04183 	 -26.8944 	 
H 	 -52.1335 	 0.249633 	 -25.4462 	 
H 	 -55.9902 	 -0.675224 	 -33.1872 	 
H 	 -55.1088 	 -5.97107 	 -27.2216 	 
*
