! wB97X-D3 SP def2-SVP
%pal
nprocs 24
end

* xyz 0 1
S 	 40.0066 	 -2.30519 	 -118.39 	 
C 	 41.0208 	 -3.43935 	 -117.555 	 
C 	 40.333 	 -3.91941 	 -116.499 	 
C 	 38.9484 	 -3.48695 	 -116.354 	 
C 	 38.5544 	 -2.71554 	 -117.503 	 
H 	 38.2646 	 -3.83007 	 -115.59 	 
C 	 41.0037 	 -4.82492 	 -115.493 	 
H 	 40.3903 	 -4.87196 	 -114.534 	 
H 	 41.9307 	 -4.29163 	 -115.2 	 
C 	 41.2761 	 -6.26596 	 -115.996 	 
H 	 40.3607 	 -6.75832 	 -116.35 	 
H 	 41.9384 	 -6.3679 	 -116.771 	 
C 	 41.8587 	 -7.08502 	 -114.786 	 
H 	 41.7203 	 -8.13392 	 -114.795 	 
H 	 42.9046 	 -6.94645 	 -114.903 	 
H 	 41.6393 	 -6.6804 	 -113.815 	 
S 	 36.6677 	 -0.76791 	 -117.669 	 
C 	 34.9941 	 -1.21437 	 -118.108 	 
C 	 34.871 	 -2.55988 	 -118.238 	 
C 	 36.1541 	 -3.25667 	 -118.074 	 
C 	 37.1949 	 -2.38623 	 -117.743 	 
H 	 33.9527 	 -2.95772 	 -118.488 	 
C 	 36.2835 	 -4.75735 	 -118.265 	 
H 	 37.3639 	 -4.94417 	 -118.569 	 
H 	 35.7181 	 -5.17185 	 -119.092 	 
C 	 35.794 	 -5.44608 	 -117.077 	 
H 	 34.7098 	 -5.21661 	 -117.092 	 
H 	 36.2534 	 -5.07154 	 -116.157 	 
C 	 35.8992 	 -6.98408 	 -117.014 	 
H 	 35.466 	 -7.34501 	 -117.952 	 
H 	 35.2859 	 -7.37371 	 -116.261 	 
H 	 36.895 	 -7.31669 	 -117.008 	 
H 	 41.9227 	 -3.80123 	 -117.88 	 
H 	 34.2061 	 -0.532254 	 -118.203 	 
*
