! wB97X-D3 SP def2-SVP
%pal
nprocs 24
end

* xyz 0 1
S 	 -59.2243 	 9.07058 	 -94.1982 	 
C 	 -58.8169 	 10.5717 	 -93.4937 	 
C 	 -59.8836 	 11.4399 	 -93.6986 	 
C 	 -61.0776 	 10.7729 	 -94.2762 	 
C 	 -60.8721 	 9.41451 	 -94.436 	 
H 	 -62.0739 	 11.2569 	 -94.4558 	 
C 	 -59.8545 	 12.9093 	 -93.3124 	 
H 	 -60.0874 	 13.5886 	 -94.0611 	 
H 	 -58.8897 	 13.0861 	 -92.7965 	 
C 	 -60.9276 	 13.282 	 -92.337 	 
H 	 -61.8373 	 12.9646 	 -92.6687 	 
H 	 -60.956 	 12.8366 	 -91.3839 	 
C 	 -60.9378 	 14.8312 	 -92.0211 	 
H 	 -60.9503 	 15.3875 	 -92.9545 	 
H 	 -61.7811 	 15.1432 	 -91.4332 	 
H 	 -59.9709 	 15.1302 	 -91.5256 	 
S 	 -61.3749 	 7.18329 	 -96.0172 	 
C 	 -62.8704 	 6.29983 	 -95.8312 	 
C 	 -63.6259 	 6.79067 	 -94.7734 	 
C 	 -63.0578 	 8.05168 	 -94.2606 	 
C 	 -61.8852 	 8.43383 	 -94.7657 	 
H 	 -64.6071 	 6.35038 	 -94.6025 	 
C 	 -63.785 	 8.8462 	 -93.2018 	 
H 	 -63.0532 	 9.51365 	 -92.7178 	 
H 	 -64.0636 	 8.17009 	 -92.3691 	 
C 	 -64.9772 	 9.69421 	 -93.7121 	 
H 	 -65.7737 	 9.0325 	 -93.9953 	 
H 	 -64.7807 	 10.1377 	 -94.6857 	 
C 	 -65.5552 	 10.696 	 -92.6642 	 
H 	 -65.9172 	 10.1996 	 -91.7714 	 
H 	 -66.3754 	 11.2232 	 -93.1039 	 
H 	 -64.9253 	 11.445 	 -92.361 	 
H 	 -57.8627 	 10.7979 	 -92.974 	 
H 	 -63.1688 	 5.47039 	 -96.4231 	 
*
