! wB97X-D3 SP def2-SVP
%pal
nprocs 24
end

* xyz 0 1
S 	 -104.435 	 22.4941 	 -117.039 	 
C 	 -104.255 	 22.6826 	 -115.322 	 
C 	 -105.258 	 22.1136 	 -114.567 	 
C 	 -106.126 	 21.4677 	 -115.484 	 
C 	 -105.787 	 21.4619 	 -116.821 	 
H 	 -107.026 	 20.8692 	 -115.203 	 
C 	 -105.342 	 22.0261 	 -113.071 	 
H 	 -106.281 	 21.6193 	 -112.704 	 
H 	 -105.154 	 23.0268 	 -112.718 	 
C 	 -104.256 	 21.1221 	 -112.518 	 
H 	 -103.291 	 21.2906 	 -113.001 	 
H 	 -104.047 	 21.1167 	 -111.431 	 
C 	 -104.607 	 19.653 	 -112.879 	 
H 	 -104.538 	 19.4439 	 -113.983 	 
H 	 -103.826 	 18.9672 	 -112.351 	 
H 	 -105.626 	 19.5838 	 -112.49 	 
S 	 -107.19 	 21.5874 	 -119.266 	 
C 	 -108.001 	 20.1876 	 -119.935 	 
C 	 -107.596 	 19.1254 	 -119.255 	 
C 	 -106.655 	 19.4075 	 -118.138 	 
C 	 -106.457 	 20.7448 	 -117.911 	 
H 	 -107.963 	 18.1353 	 -119.493 	 
C 	 -106.288 	 18.2817 	 -117.189 	 
H 	 -105.387 	 18.441 	 -116.738 	 
H 	 -106.178 	 17.3934 	 -117.772 	 
C 	 -107.401 	 17.9404 	 -116.197 	 
H 	 -108.334 	 17.7894 	 -116.683 	 
H 	 -107.545 	 18.8073 	 -115.554 	 
C 	 -107.06 	 16.6879 	 -115.342 	 
H 	 -106.081 	 16.7069 	 -114.867 	 
H 	 -107.067 	 15.7769 	 -115.908 	 
H 	 -107.808 	 16.5606 	 -114.548 	 
H 	 -103.474 	 23.1832 	 -114.811 	 
H 	 -108.857 	 20.2091 	 -120.615 	 
*
