! wB97X-D3 SP def2-SVP
%pal
nprocs 24
end

* xyz 0 1
S 	 -101.224 	 -4.95403 	 -102.499 	 
C 	 -100.628 	 -6.13794 	 -103.631 	 
C 	 -101.378 	 -6.21629 	 -104.774 	 
C 	 -102.463 	 -5.28069 	 -104.724 	 
C 	 -102.608 	 -4.48344 	 -103.579 	 
H 	 -103.091 	 -5.07328 	 -105.572 	 
C 	 -101.096 	 -7.02789 	 -106.014 	 
H 	 -100.194 	 -7.61475 	 -105.702 	 
H 	 -100.705 	 -6.47673 	 -106.878 	 
C 	 -102.236 	 -7.94988 	 -106.283 	 
H 	 -102.719 	 -8.40125 	 -105.308 	 
H 	 -103.018 	 -7.42752 	 -106.868 	 
C 	 -101.916 	 -9.10139 	 -107.133 	 
H 	 -102.826 	 -9.70215 	 -107.266 	 
H 	 -101.521 	 -8.78837 	 -108.102 	 
H 	 -101.192 	 -9.79485 	 -106.695 	 
S 	 -103.023 	 -2.28696 	 -102.036 	 
C 	 -104.438 	 -1.37639 	 -102.243 	 
C 	 -105.301 	 -1.98319 	 -103.097 	 
C 	 -104.809 	 -3.20279 	 -103.685 	 
C 	 -103.546 	 -3.41358 	 -103.238 	 
H 	 -106.217 	 -1.46995 	 -103.257 	 
C 	 -105.542 	 -4.01523 	 -104.71 	 
H 	 -105.107 	 -3.86844 	 -105.722 	 
H 	 -106.532 	 -3.49296 	 -104.797 	 
C 	 -105.811 	 -5.48521 	 -104.325 	 
H 	 -106.291 	 -5.38099 	 -103.429 	 
H 	 -104.895 	 -6.04209 	 -104.094 	 
C 	 -106.613 	 -6.26597 	 -105.333 	 
H 	 -106.936 	 -7.29836 	 -104.958 	 
H 	 -106.01 	 -6.41788 	 -106.253 	 
H 	 -107.541 	 -5.70311 	 -105.624 	 
H 	 -99.6065 	 -6.53715 	 -103.634 	 
H 	 -104.589 	 -0.368829 	 -101.907 	 
*
