! wB97X-D3 SP def2-SVP
%pal
nprocs 24
end

* xyz 0 1
S 	 46.6985 	 -19.6141 	 -111.669 	 
C 	 48.1985 	 -20.5159 	 -111.502 	 
C 	 47.9312 	 -21.8669 	 -111.316 	 
C 	 46.563 	 -22.2034 	 -111.426 	 
C 	 45.753 	 -21.1082 	 -111.616 	 
H 	 46.0791 	 -23.1633 	 -111.409 	 
C 	 48.9219 	 -23.0387 	 -111.345 	 
H 	 48.3516 	 -23.8416 	 -111.057 	 
H 	 49.6779 	 -22.7953 	 -110.509 	 
C 	 49.5716 	 -23.2874 	 -112.695 	 
H 	 49.989 	 -22.371 	 -113.045 	 
H 	 50.3821 	 -23.9295 	 -112.593 	 
C 	 48.5602 	 -23.7753 	 -113.714 	 
H 	 49.025 	 -23.586 	 -114.59 	 
H 	 48.2289 	 -24.8269 	 -113.664 	 
H 	 47.5963 	 -23.1922 	 -113.766 	 
S 	 43.7828 	 -19.5922 	 -110.611 	 
C 	 42.1249 	 -20.0174 	 -110.846 	 
C 	 42.0398 	 -21.1349 	 -111.707 	 
C 	 43.273 	 -21.7037 	 -112.164 	 
C 	 44.3063 	 -20.9868 	 -111.558 	 
H 	 41.101 	 -21.6632 	 -111.788 	 
C 	 43.4186 	 -22.976 	 -113.045 	 
H 	 43.0121 	 -23.8463 	 -112.604 	 
H 	 44.4312 	 -23.1989 	 -113.203 	 
C 	 42.7685 	 -22.8741 	 -114.439 	 
H 	 41.7349 	 -22.8671 	 -114.471 	 
H 	 42.8177 	 -23.8998 	 -114.87 	 
C 	 43.3985 	 -21.8501 	 -115.277 	 
H 	 43.2172 	 -20.8021 	 -114.898 	 
H 	 43.0047 	 -21.9715 	 -116.29 	 
H 	 44.562 	 -21.9236 	 -115.413 	 
H 	 49.1357 	 -20.1044 	 -111.412 	 
H 	 41.2655 	 -19.5888 	 -110.359 	 
*
