! wB97X-D3 SP def2-SVP
%pal
nprocs 24
end

* xyz 0 1
S 	 -103.336 	 35.587 	 -14.2481 	 
C 	 -104.054 	 36.5274 	 -15.5714 	 
C 	 -105.069 	 37.2885 	 -15.1201 	 
C 	 -105.292 	 37.0758 	 -13.7241 	 
C 	 -104.404 	 36.2457 	 -13.095 	 
H 	 -106.021 	 37.4647 	 -13.0939 	 
C 	 -105.99 	 38.1794 	 -16.0106 	 
H 	 -105.406 	 38.7553 	 -16.7127 	 
H 	 -106.49 	 38.919 	 -15.3168 	 
C 	 -107.228 	 37.5779 	 -16.6827 	 
H 	 -106.86 	 37.1272 	 -17.6193 	 
H 	 -107.693 	 36.828 	 -16.0846 	 
C 	 -108.201 	 38.6869 	 -17.2735 	 
H 	 -108.502 	 39.2141 	 -16.3943 	 
H 	 -107.74 	 39.4277 	 -17.9409 	 
H 	 -109.105 	 38.2853 	 -17.7522 	 
S 	 -104.587 	 37.1341 	 -10.437 	 
C 	 -104.642 	 36.0344 	 -9.11662 	 
C 	 -104.56 	 34.6941 	 -9.5947 	 
C 	 -104.292 	 34.6501 	 -11.0069 	 
C 	 -104.42 	 35.8712 	 -11.6972 	 
H 	 -104.653 	 33.8576 	 -8.96063 	 
C 	 -104.052 	 33.4312 	 -11.7885 	 
H 	 -103.119 	 33.7255 	 -12.2808 	 
H 	 -104.844 	 33.4642 	 -12.6251 	 
C 	 -103.857 	 32.0751 	 -11.0675 	 
H 	 -104.656 	 31.8913 	 -10.3558 	 
H 	 -102.93 	 32.0673 	 -10.4513 	 
C 	 -103.889 	 30.9664 	 -12.0395 	 
H 	 -103.704 	 30.0536 	 -11.4299 	 
H 	 -103.073 	 31.1091 	 -12.6739 	 
H 	 -104.739 	 30.8645 	 -12.715 	 
H 	 -103.73 	 36.5128 	 -16.6028 	 
H 	 -104.866 	 36.3317 	 -8.08008 	 
*
