! wB97X-D3 SP def2-SVP
%pal
nprocs 24
end

* xyz 0 1
S 	 -66.4217 	 11.5792 	 -69.2852 	 
C 	 -66.3207 	 13.2084 	 -69.7533 	 
C 	 -67.3764 	 13.6185 	 -70.5084 	 
C 	 -68.3667 	 12.5767 	 -70.5128 	 
C 	 -68.1003 	 11.463 	 -69.8364 	 
H 	 -69.2417 	 12.6349 	 -71.0797 	 
C 	 -67.3525 	 14.8689 	 -71.3549 	 
H 	 -67.4646 	 14.609 	 -72.3778 	 
H 	 -66.3774 	 15.3837 	 -71.382 	 
C 	 -68.3232 	 16.0328 	 -71.0778 	 
H 	 -68.1877 	 16.4442 	 -70.042 	 
H 	 -67.9722 	 16.8031 	 -71.7207 	 
C 	 -69.8212 	 15.731 	 -71.2875 	 
H 	 -69.9175 	 15.5158 	 -72.326 	 
H 	 -70.0678 	 14.7844 	 -70.7922 	 
H 	 -70.5024 	 16.5739 	 -71.1538 	 
S 	 -68.6326 	 9.34675 	 -68.2092 	 
C 	 -69.837 	 8.19195 	 -68.6601 	 
C 	 -70.6093 	 8.61288 	 -69.6652 	 
C 	 -70.1956 	 9.90369 	 -70.1767 	 
C 	 -68.9776 	 10.3169 	 -69.6376 	 
H 	 -71.4818 	 8.0716 	 -69.9879 	 
C 	 -70.9311 	 10.5515 	 -71.3519 	 
H 	 -71.4781 	 9.76611 	 -71.8965 	 
H 	 -70.2659 	 11.0268 	 -72.0324 	 
C 	 -72.0055 	 11.5271 	 -70.9399 	 
H 	 -72.5156 	 11.9186 	 -71.7579 	 
H 	 -71.6129 	 12.2779 	 -70.334 	 
C 	 -73.041 	 10.8683 	 -70.0536 	 
H 	 -73.903 	 11.4774 	 -69.9338 	 
H 	 -72.7291 	 10.7731 	 -69.0684 	 
H 	 -73.4813 	 9.96 	 -70.4684 	 
H 	 -65.4763 	 13.7564 	 -69.6413 	 
H 	 -70.0276 	 7.31398 	 -68.0586 	 
*
