! wB97X-D3 SP def2-SVP
%pal
nprocs 24
end

* xyz 0 1
S 	 -105.608 	 41.5997 	 -11.6343 	 
C 	 -105.162 	 43.3348 	 -11.4098 	 
C 	 -106.073 	 44.1433 	 -12.0802 	 
C 	 -106.976 	 43.4129 	 -12.8775 	 
C 	 -106.848 	 42.0276 	 -12.8156 	 
H 	 -107.628 	 43.9155 	 -13.6616 	 
C 	 -106.199 	 45.5872 	 -11.9455 	 
H 	 -106.125 	 45.7253 	 -10.8518 	 
H 	 -107.224 	 45.9241 	 -12.0446 	 
C 	 -105.185 	 46.4446 	 -12.6724 	 
H 	 -105.256 	 47.5271 	 -12.3365 	 
H 	 -104.137 	 46.0729 	 -12.5104 	 
C 	 -105.485 	 46.4005 	 -14.1418 	 
H 	 -105.846 	 45.3739 	 -14.4817 	 
H 	 -106.211 	 47.1652 	 -14.4813 	 
H 	 -104.562 	 46.5619 	 -14.6972 	 
S 	 -106.605 	 39.6822 	 -14.2089 	 
C 	 -107.997 	 38.766 	 -14.591 	 
C 	 -109.136 	 39.4426 	 -14.2999 	 
C 	 -108.902 	 40.7136 	 -13.6577 	 
C 	 -107.563 	 40.9845 	 -13.4723 	 
H 	 -110.102 	 39.0043 	 -14.4902 	 
C 	 -109.984 	 41.7003 	 -13.2952 	 
H 	 -109.749 	 42.7615 	 -13.4425 	 
H 	 -110.147 	 41.6513 	 -12.2057 	 
C 	 -111.348 	 41.4261 	 -13.9849 	 
H 	 -111.659 	 40.357 	 -13.8972 	 
H 	 -111.371 	 41.6738 	 -15.0369 	 
C 	 -112.528 	 42.1215 	 -13.2412 	 
H 	 -113.512 	 42.139 	 -13.7154 	 
H 	 -112.269 	 43.2177 	 -13.0821 	 
H 	 -112.57 	 41.5785 	 -12.2605 	 
H 	 -104.417 	 43.7798 	 -10.7418 	 
H 	 -108.039 	 37.9448 	 -15.247 	 
*
