! wB97X-D3 SP def2-SVP
%pal
nprocs 24
end

* xyz 0 1
S 	 20.5979 	 0.154284 	 -112.556 	 
C 	 19.3893 	 -1.06829 	 -112.511 	 
C 	 18.7672 	 -0.986248 	 -111.28 	 
C 	 19.1247 	 0.172482 	 -110.55 	 
C 	 20.1337 	 0.920582 	 -111.092 	 
H 	 18.5897 	 0.630195 	 -109.683 	 
C 	 17.524 	 -1.81433 	 -110.909 	 
H 	 16.8272 	 -1.56162 	 -111.748 	 
H 	 17.1049 	 -1.41754 	 -109.991 	 
C 	 17.8033 	 -3.34251 	 -110.749 	 
H 	 16.9573 	 -3.9232 	 -110.838 	 
H 	 18.3688 	 -3.70061 	 -111.634 	 
C 	 18.6691 	 -3.65048 	 -109.492 	 
H 	 18.3125 	 -3.27668 	 -108.498 	 
H 	 18.9641 	 -4.70587 	 -109.447 	 
H 	 19.5778 	 -3.00237 	 -109.591 	 
S 	 20.3502 	 3.63475 	 -111.685 	 
C 	 20.9725 	 4.73237 	 -110.549 	 
C 	 21.2772 	 4.11988 	 -109.344 	 
C 	 20.979 	 2.70495 	 -109.396 	 
C 	 20.4794 	 2.28717 	 -110.607 	 
H 	 21.6907 	 4.67987 	 -108.479 	 
C 	 21.3158 	 1.74291 	 -108.29 	 
H 	 20.7515 	 0.772246 	 -108.329 	 
H 	 20.9745 	 2.10415 	 -107.374 	 
C 	 22.8448 	 1.30573 	 -108.033 	 
H 	 22.852 	 0.779683 	 -107.058 	 
H 	 23.4642 	 2.12288 	 -107.951 	 
C 	 23.4477 	 0.464986 	 -109.175 	 
H 	 23.4194 	 0.946398 	 -110.198 	 
H 	 23.1325 	 -0.596972 	 -109.113 	 
H 	 24.5662 	 0.516553 	 -108.992 	 
H 	 19.1789 	 -1.71405 	 -113.364 	 
H 	 21.0703 	 5.79786 	 -110.609 	 
*
