! wB97X-D3 SP def2-SVP
%pal
nprocs 24
end

* xyz 0 1
S 	 -56.1459 	 14.9191 	 -98.0067 	 
C 	 -57.2616 	 16.2103 	 -98.6171 	 
C 	 -58.4734 	 15.6474 	 -98.9565 	 
C 	 -58.6041 	 14.2823 	 -98.561 	 
C 	 -57.477 	 13.8021 	 -97.9629 	 
H 	 -59.5052 	 13.7229 	 -98.7068 	 
C 	 -59.5338 	 16.3867 	 -99.7168 	 
H 	 -60.3115 	 15.7507 	 -100.068 	 
H 	 -59.0909 	 16.8456 	 -100.594 	 
C 	 -60.2893 	 17.4676 	 -98.889 	 
H 	 -60.5556 	 17.0178 	 -97.9263 	 
H 	 -59.6011 	 18.1654 	 -98.5902 	 
C 	 -61.3961 	 18.3375 	 -99.6184 	 
H 	 -61.6868 	 19.1734 	 -98.932 	 
H 	 -61.0808 	 18.8447 	 -100.476 	 
H 	 -62.3096 	 17.8729 	 -99.6208 	 
S 	 -57.0325 	 12.5822 	 -95.5623 	 
C 	 -57.0343 	 10.8233 	 -95.3902 	 
C 	 -57.3608 	 10.1962 	 -96.5734 	 
C 	 -57.5985 	 11.1258 	 -97.6377 	 
C 	 -57.3247 	 12.4871 	 -97.303 	 
H 	 -57.4758 	 9.1637 	 -96.6786 	 
C 	 -58.0137 	 10.6764 	 -98.9859 	 
H 	 -58.686 	 11.4272 	 -99.5497 	 
H 	 -58.6676 	 9.79729 	 -98.8193 	 
C 	 -56.8774 	 10.2577 	 -99.839 	 
H 	 -56.4732 	 9.32753 	 -99.3967 	 
H 	 -56.1029 	 11.0349 	 -99.8691 	 
C 	 -57.2975 	 9.8747 	 -101.265 	 
H 	 -57.9024 	 10.5585 	 -101.873 	 
H 	 -57.8274 	 8.99911 	 -101.296 	 
H 	 -56.3495 	 9.67205 	 -101.812 	 
H 	 -57.0429 	 17.3031 	 -98.7665 	 
H 	 -57.0436 	 10.2635 	 -94.4474 	 
*
