! wB97X-D3 SP def2-SVP
%pal
nprocs 24
end

* xyz 0 1
S 	 -45.9926 	 11.7935 	 -18.5185 	 
C 	 -46.9973 	 12.1706 	 -17.1284 	 
C 	 -46.1663 	 12.6033 	 -16.0859 	 
C 	 -44.8035 	 12.7175 	 -16.4125 	 
C 	 -44.5392 	 12.2868 	 -17.6686 	 
H 	 -44.0018 	 12.9255 	 -15.7447 	 
C 	 -46.7515 	 12.962 	 -14.7022 	 
H 	 -47.8334 	 13.0107 	 -14.7986 	 
H 	 -46.5638 	 13.9556 	 -14.3721 	 
C 	 -46.305 	 11.9927 	 -13.5838 	 
H 	 -46.4331 	 10.9927 	 -13.9396 	 
H 	 -45.2517 	 12.1217 	 -13.3692 	 
C 	 -46.9905 	 12.1253 	 -12.1729 	 
H 	 -47.1447 	 11.1409 	 -11.7016 	 
H 	 -46.3828 	 12.6746 	 -11.5332 	 
H 	 -47.9506 	 12.5885 	 -12.2641 	 
S 	 -43.3614 	 12.5587 	 -20.0744 	 
C 	 -41.66 	 12.7421 	 -20.2594 	 
C 	 -41.0473 	 12.7781 	 -19.0484 	 
C 	 -41.938 	 12.6339 	 -17.9276 	 
C 	 -43.2568 	 12.4491 	 -18.3424 	 
H 	 -39.9516 	 12.8177 	 -19.0253 	 
C 	 -41.4043 	 12.5364 	 -16.5161 	 
H 	 -41.7726 	 13.2793 	 -15.8184 	 
H 	 -40.3579 	 12.7537 	 -16.5852 	 
C 	 -41.526 	 11.1825 	 -15.79 	 
H 	 -42.5467 	 10.8415 	 -15.7267 	 
H 	 -41.0003 	 11.2954 	 -14.8086 	 
C 	 -40.7829 	 10.1546 	 -16.6076 	 
H 	 -39.6979 	 10.4383 	 -16.759 	 
H 	 -41.1012 	 9.96708 	 -17.6551 	 
H 	 -40.8403 	 9.12642 	 -16.1457 	 
H 	 -48.1009 	 12.0686 	 -17.1602 	 
H 	 -41.2119 	 13.051 	 -21.1897 	 
*
