! wB97X-D3 SP def2-SVP
%pal
nprocs 24
end

* xyz 0 1
S 	 -61.1903 	 14.4997 	 -98.0597 	 
C 	 -60.325 	 15.9767 	 -98.4005 	 
C 	 -59.023 	 15.7539 	 -98.8127 	 
C 	 -58.7348 	 14.2997 	 -98.859 	 
C 	 -59.8465 	 13.485 	 -98.5451 	 
H 	 -57.8045 	 13.8831 	 -99.1536 	 
C 	 -58.0349 	 16.8011 	 -99.2781 	 
H 	 -58.3559 	 17.7332 	 -98.9491 	 
H 	 -58.0696 	 16.9199 	 -100.348 	 
C 	 -56.5896 	 16.7001 	 -98.7189 	 
H 	 -55.9748 	 15.805 	 -98.942 	 
H 	 -56.0644 	 17.5633 	 -98.9993 	 
C 	 -56.5626 	 16.5767 	 -97.2128 	 
H 	 -57.0799 	 15.6657 	 -96.9761 	 
H 	 -55.5154 	 16.6877 	 -96.9483 	 
H 	 -57.0189 	 17.5123 	 -96.7998 	 
S 	 -60.0411 	 11.1743 	 -97.1385 	 
C 	 -59.874 	 9.68514 	 -98.0353 	 
C 	 -59.5064 	 9.83763 	 -99.3734 	 
C 	 -59.5539 	 11.2367 	 -99.7254 	 
C 	 -59.8248 	 12.0384 	 -98.6401 	 
H 	 -59.2289 	 8.98348 	 -99.9469 	 
C 	 -59.0071 	 11.6891 	 -101.133 	 
H 	 -58.6458 	 12.7533 	 -101.116 	 
H 	 -59.782 	 11.5504 	 -101.842 	 
C 	 -57.7687 	 10.8881 	 -101.614 	 
H 	 -57.6363 	 11.2666 	 -102.665 	 
H 	 -57.8417 	 9.78548 	 -101.643 	 
C 	 -56.5401 	 11.3184 	 -100.762 	 
H 	 -56.0177 	 12.0884 	 -101.316 	 
H 	 -55.917 	 10.4022 	 -100.662 	 
H 	 -56.7061 	 11.7315 	 -99.7874 	 
H 	 -60.8349 	 16.9223 	 -98.1419 	 
H 	 -60.0224 	 8.72055 	 -97.5261 	 
*
