! wB97X-D3 SP def2-SVP
%pal
nprocs 24
end

* xyz 0 1
S 	 -90.1661 	 -30.942 	 -55.909 	 
C 	 -88.4049 	 -31.0264 	 -56.0246 	 
C 	 -87.8431 	 -29.8849 	 -55.5629 	 
C 	 -88.7689 	 -29.0302 	 -54.8506 	 
C 	 -90.0614 	 -29.4398 	 -55.0273 	 
H 	 -88.6138 	 -28.0682 	 -54.3748 	 
C 	 -86.4121 	 -29.5254 	 -55.7999 	 
H 	 -86.3463 	 -28.4127 	 -55.8755 	 
H 	 -86.2419 	 -29.8827 	 -56.7905 	 
C 	 -85.4944 	 -30.0081 	 -54.6893 	 
H 	 -85.2598 	 -29.1298 	 -54.0506 	 
H 	 -85.9578 	 -30.7743 	 -54.085 	 
C 	 -84.2319 	 -30.5646 	 -55.2947 	 
H 	 -84.3711 	 -31.526 	 -55.7458 	 
H 	 -83.8062 	 -29.8726 	 -56.0128 	 
H 	 -83.4191 	 -30.5985 	 -54.532 	 
S 	 -92.1874 	 -28.0277 	 -56.112 	 
C 	 -93.0057 	 -26.8084 	 -55.0629 	 
C 	 -92.6274 	 -26.8676 	 -53.7636 	 
C 	 -91.5569 	 -27.8274 	 -53.5771 	 
C 	 -91.1926 	 -28.5282 	 -54.7086 	 
H 	 -92.975 	 -26.1098 	 -53.0659 	 
C 	 -90.875 	 -27.9208 	 -52.299 	 
H 	 -89.9686 	 -28.7041 	 -52.2843 	 
H 	 -91.6385 	 -28.4624 	 -51.687 	 
C 	 -90.4767 	 -26.5894 	 -51.7048 	 
H 	 -91.4539 	 -26.0724 	 -51.5859 	 
H 	 -89.8183 	 -26.0132 	 -52.4226 	 
C 	 -89.7863 	 -26.8108 	 -50.4491 	 
H 	 -89.7262 	 -25.8843 	 -49.9566 	 
H 	 -88.8028 	 -27.2195 	 -50.6097 	 
H 	 -90.3603 	 -27.5101 	 -49.7766 	 
H 	 -87.9044 	 -31.9041 	 -56.494 	 
H 	 -93.8297 	 -26.0916 	 -55.3287 	 
*
