! wB97X-D3 SP def2-SVP
%pal
nprocs 24
end

* xyz 0 1
S 	 -102.504 	 45.5539 	 -84.4825 	 
C 	 -102.368 	 44.0469 	 -85.4421 	 
C 	 -103.291 	 44.0029 	 -86.4642 	 
C 	 -103.968 	 45.244 	 -86.5347 	 
C 	 -103.72 	 46.2064 	 -85.5887 	 
H 	 -104.718 	 45.5694 	 -87.3006 	 
C 	 -103.699 	 42.8485 	 -87.4198 	 
H 	 -104.725 	 42.6129 	 -87.2655 	 
H 	 -103.297 	 41.8363 	 -86.9692 	 
C 	 -103.428 	 43.0083 	 -88.8815 	 
H 	 -103.817 	 43.944 	 -89.1872 	 
H 	 -102.389 	 43.0254 	 -89.1292 	 
C 	 -104.003 	 41.9725 	 -89.8259 	 
H 	 -104.898 	 41.6347 	 -89.37 	 
H 	 -104.18 	 42.2999 	 -90.899 	 
H 	 -103.282 	 41.1238 	 -89.8909 	 
S 	 -103.081 	 48.7838 	 -85.2074 	 
C 	 -104.234 	 50.0502 	 -84.975 	 
C 	 -105.507 	 49.6399 	 -85.2919 	 
C 	 -105.532 	 48.1866 	 -85.6855 	 
C 	 -104.282 	 47.5924 	 -85.5443 	 
H 	 -106.361 	 50.2931 	 -85.2868 	 
C 	 -106.82 	 47.3882 	 -85.8618 	 
H 	 -107.203 	 47.1533 	 -84.8718 	 
H 	 -106.465 	 46.4326 	 -86.3147 	 
C 	 -108.069 	 48.1203 	 -86.4859 	 
H 	 -108.625 	 47.315 	 -86.9899 	 
H 	 -107.77 	 48.9276 	 -87.0947 	 
C 	 -108.987 	 48.827 	 -85.451 	 
H 	 -109.267 	 48.0308 	 -84.7935 	 
H 	 -109.85 	 49.2913 	 -85.8721 	 
H 	 -108.443 	 49.6207 	 -84.9459 	 
H 	 -101.669 	 43.1938 	 -85.367 	 
H 	 -104.001 	 51.0928 	 -84.7662 	 
*
