! wB97X-D3 SP def2-SVP
%pal
nprocs 24
end

* xyz 0 1
S 	 -59.9182 	 8.96016 	 -17.7982 	 
C 	 -58.8246 	 7.95205 	 -18.7294 	 
C 	 -58.6412 	 6.70975 	 -18.0643 	 
C 	 -59.4073 	 6.61945 	 -16.8503 	 
C 	 -60.1713 	 7.71022 	 -16.4859 	 
H 	 -59.356 	 5.78387 	 -16.1739 	 
C 	 -57.8741 	 5.50405 	 -18.5914 	 
H 	 -57.5397 	 4.87078 	 -17.8004 	 
H 	 -56.9275 	 5.84203 	 -18.9892 	 
C 	 -58.8607 	 4.61599 	 -19.4214 	 
H 	 -59.7529 	 4.33317 	 -18.8349 	 
H 	 -59.2428 	 5.19697 	 -20.2507 	 
C 	 -58.2347 	 3.25604 	 -19.8706 	 
H 	 -57.9671 	 2.58413 	 -19.0778 	 
H 	 -59.0464 	 2.73359 	 -20.3414 	 
H 	 -57.4076 	 3.29926 	 -20.5464 	 
S 	 -60.5802 	 7.28481 	 -13.8341 	 
C 	 -61.9925 	 7.9502 	 -13.067 	 
C 	 -62.8355 	 8.55252 	 -13.9934 	 
C 	 -62.3556 	 8.48822 	 -15.3686 	 
C 	 -61.1711 	 7.75712 	 -15.4068 	 
H 	 -63.6686 	 9.06568 	 -13.5241 	 
C 	 -63.2102 	 9.09817 	 -16.5013 	 
H 	 -62.4781 	 9.29348 	 -17.2884 	 
H 	 -63.6804 	 10.0351 	 -16.0531 	 
C 	 -64.4217 	 8.27267 	 -17.0232 	 
H 	 -65.1642 	 8.91822 	 -17.4482 	 
H 	 -65.0514 	 7.93685 	 -16.148 	 
C 	 -63.9456 	 7.16352 	 -17.9757 	 
H 	 -63.0807 	 6.68187 	 -17.5414 	 
H 	 -63.6001 	 7.75544 	 -18.8248 	 
H 	 -64.7114 	 6.43644 	 -18.177 	 
H 	 -58.5342 	 8.02711 	 -19.7627 	 
H 	 -61.9906 	 8.23666 	 -12.0527 	 
*
