! wB97X-D3 SP def2-SVP
%pal
nprocs 24
end

* xyz 0 1
S 	 -37.4862 	 -7.15758 	 19.8504 	 
C 	 -36.9241 	 -8.82717 	 19.8329 	 
C 	 -37.4895 	 -9.53521 	 20.8954 	 
C 	 -38.5885 	 -8.88394 	 21.4938 	 
C 	 -38.7797 	 -7.6109 	 21.0243 	 
H 	 -39.3253 	 -9.43119 	 22.0746 	 
C 	 -36.8209 	 -10.8504 	 21.3041 	 
H 	 -36.3009 	 -10.5914 	 22.2572 	 
H 	 -36.1808 	 -11.0882 	 20.4058 	 
C 	 -37.7431 	 -12.0813 	 21.5004 	 
H 	 -38.5189 	 -11.794 	 22.1986 	 
H 	 -38.1152 	 -12.3209 	 20.5594 	 
C 	 -36.9536 	 -13.2986 	 21.8747 	 
H 	 -36.5851 	 -13.1431 	 22.8863 	 
H 	 -37.6055 	 -14.1794 	 21.7155 	 
H 	 -36.0936 	 -13.4434 	 21.203 	 
S 	 -40.2469 	 -6.48693 	 23.1198 	 
C 	 -41.6415 	 -5.61342 	 22.7104 	 
C 	 -41.7988 	 -5.42669 	 21.3005 	 
C 	 -40.8691 	 -6.18389 	 20.5914 	 
C 	 -39.9241 	 -6.77167 	 21.3981 	 
H 	 -42.6035 	 -4.91756 	 20.9265 	 
C 	 -41.0421 	 -6.24978 	 19.0425 	 
H 	 -42.1169 	 -6.38761 	 18.7373 	 
H 	 -40.6697 	 -7.27141 	 18.762 	 
C 	 -40.3357 	 -5.1137 	 18.2196 	 
H 	 -39.2308 	 -4.97583 	 18.4477 	 
H 	 -40.8177 	 -4.12548 	 18.528 	 
C 	 -40.4677 	 -5.25278 	 16.7286 	 
H 	 -41.5403 	 -5.24002 	 16.4171 	 
H 	 -40.0454 	 -6.15616 	 16.34 	 
H 	 -39.9759 	 -4.37351 	 16.267 	 
H 	 -36.1522 	 -9.17601 	 19.1635 	 
H 	 -42.4756 	 -5.36636 	 23.3453 	 
*
