! wB97X-D3 SP def2-SVP
%pal
nprocs 24
end

* xyz 0 1
S 	 -102.534 	 1.71548 	 -115.613 	 
C 	 -103.784 	 3.01742 	 -115.644 	 
C 	 -104.996 	 2.59016 	 -115.201 	 
C 	 -104.825 	 1.25991 	 -114.695 	 
C 	 -103.644 	 0.687765 	 -114.819 	 
H 	 -105.612 	 0.749121 	 -114.262 	 
C 	 -106.236 	 3.43889 	 -115.071 	 
H 	 -107.116 	 2.96342 	 -115.66 	 
H 	 -106.058 	 4.37607 	 -115.541 	 
C 	 -106.557 	 3.66476 	 -113.61 	 
H 	 -106.727 	 2.75617 	 -113.111 	 
H 	 -105.832 	 4.24373 	 -113.097 	 
C 	 -107.877 	 4.51265 	 -113.632 	 
H 	 -108.348 	 4.60845 	 -112.724 	 
H 	 -107.683 	 5.52208 	 -113.91 	 
H 	 -108.651 	 4.04519 	 -114.238 	 
S 	 -101.87 	 -0.892708 	 -113.438 	 
C 	 -102.147 	 -2.57247 	 -113.406 	 
C 	 -103.207 	 -2.98906 	 -114.153 	 
C 	 -104.043 	 -1.87558 	 -114.489 	 
C 	 -103.322 	 -0.67563 	 -114.436 	 
H 	 -103.425 	 -4.0351 	 -114.041 	 
C 	 -105.41 	 -2.10058 	 -115.049 	 
H 	 -106.045 	 -1.45509 	 -114.506 	 
H 	 -105.614 	 -3.16611 	 -114.833 	 
C 	 -105.524 	 -1.63563 	 -116.543 	 
H 	 -105.523 	 -0.574433 	 -116.807 	 
H 	 -106.531 	 -1.89784 	 -116.83 	 
C 	 -104.542 	 -2.36056 	 -117.534 	 
H 	 -104.636 	 -3.43997 	 -117.375 	 
H 	 -103.51 	 -2.0859 	 -117.351 	 
H 	 -104.701 	 -2.18765 	 -118.596 	 
H 	 -103.522 	 4.04082 	 -115.837 	 
H 	 -101.423 	 -3.30726 	 -113.126 	 
*
