! wB97X-D3 SP def2-SVP
%pal
nprocs 24
end

* xyz 0 1
S 	 -105.286 	 58.9878 	 -100.165 	 
C 	 -106.385 	 59.0748 	 -101.507 	 
C 	 -107.655 	 59.4366 	 -101.177 	 
C 	 -107.789 	 59.6311 	 -99.7368 	 
C 	 -106.579 	 59.6221 	 -99.076 	 
H 	 -108.676 	 59.8366 	 -99.0758 	 
C 	 -108.811 	 59.5339 	 -102.107 	 
H 	 -109.534 	 58.6266 	 -101.978 	 
H 	 -108.388 	 59.3588 	 -103.116 	 
C 	 -109.593 	 60.8987 	 -102.038 	 
H 	 -110.357 	 60.9496 	 -102.739 	 
H 	 -110.129 	 61.0256 	 -101.058 	 
C 	 -108.651 	 62.0699 	 -102.26 	 
H 	 -108.297 	 62.1609 	 -103.272 	 
H 	 -109.256 	 62.9737 	 -102.022 	 
H 	 -107.756 	 62.1676 	 -101.522 	 
S 	 -105.801 	 58.5047 	 -96.7304 	 
C 	 -105.91 	 59.4953 	 -95.2527 	 
C 	 -106.621 	 60.7035 	 -95.419 	 
C 	 -106.941 	 60.8716 	 -96.8153 	 
C 	 -106.462 	 59.8705 	 -97.6454 	 
H 	 -106.862 	 61.4077 	 -94.5813 	 
C 	 -107.499 	 62.1971 	 -97.3352 	 
H 	 -107.831 	 62.2221 	 -98.415 	 
H 	 -106.774 	 62.9582 	 -97.0783 	 
C 	 -108.761 	 62.6068 	 -96.6003 	 
H 	 -109.151 	 63.568 	 -96.9768 	 
H 	 -108.543 	 62.8476 	 -95.5657 	 
C 	 -109.807 	 61.521 	 -96.5248 	 
H 	 -110.811 	 61.9284 	 -96.3593 	 
H 	 -109.469 	 60.9244 	 -95.6991 	 
H 	 -109.844 	 60.9662 	 -97.4382 	 
H 	 -106.048 	 58.9892 	 -102.567 	 
H 	 -105.682 	 59.097 	 -94.3055 	 
*
