! wB97X-D3 SP def2-SVP
%pal
nprocs 24
end

* xyz 0 1
S 	 -106.986 	 52.0087 	 -87.3357 	 
C 	 -107.911 	 51.0897 	 -86.1957 	 
C 	 -108.532 	 51.9212 	 -85.2788 	 
C 	 -108.165 	 53.2894 	 -85.4375 	 
C 	 -107.355 	 53.5157 	 -86.5349 	 
H 	 -108.492 	 54.1386 	 -84.8709 	 
C 	 -109.596 	 51.5169 	 -84.322 	 
H 	 -109.107 	 51.5241 	 -83.3381 	 
H 	 -109.748 	 50.465 	 -84.5252 	 
C 	 -110.897 	 52.3473 	 -84.2178 	 
H 	 -111.518 	 52.2582 	 -85.1645 	 
H 	 -111.516 	 51.9637 	 -83.4313 	 
C 	 -110.742 	 53.8073 	 -83.8207 	 
H 	 -110.181 	 53.9871 	 -82.9613 	 
H 	 -110.574 	 54.5321 	 -84.6298 	 
H 	 -111.745 	 54.1425 	 -83.531 	 
S 	 -104.975 	 54.7804 	 -86.5818 	 
C 	 -104.777 	 56.3659 	 -87.3368 	 
C 	 -105.991 	 56.8262 	 -87.8184 	 
C 	 -107.041 	 55.8534 	 -87.6476 	 
C 	 -106.674 	 54.6989 	 -86.995 	 
H 	 -106.193 	 57.8988 	 -88.2693 	 
C 	 -108.482 	 56.3264 	 -87.936 	 
H 	 -109.201 	 55.488 	 -87.901 	 
H 	 -108.617 	 56.6388 	 -88.9702 	 
C 	 -108.953 	 57.4482 	 -87.0258 	 
H 	 -108.184 	 58.2021 	 -87.1352 	 
H 	 -108.913 	 57.1292 	 -85.9862 	 
C 	 -110.33 	 58.0779 	 -87.4265 	 
H 	 -110.243 	 58.3473 	 -88.436 	 
H 	 -110.755 	 58.9226 	 -86.8208 	 
H 	 -111.098 	 57.3016 	 -87.2511 	 
H 	 -107.968 	 49.9372 	 -86.1258 	 
H 	 -103.775 	 56.8384 	 -87.5186 	 
*
