! wB97X-D3 SP def2-SVP
%pal
nprocs 24
end

* xyz 0 1
S 	 17.4951 	 -4.09974 	 -115.258 	 
C 	 18.2775 	 -5.22776 	 -114.112 	 
C 	 17.4024 	 -6.3125 	 -113.91 	 
C 	 16.169 	 -6.24827 	 -114.69 	 
C 	 16.0542 	 -5.10905 	 -115.504 	 
H 	 15.4292 	 -7.04422 	 -114.77 	 
C 	 17.6962 	 -7.41159 	 -112.955 	 
H 	 16.8339 	 -7.97338 	 -112.709 	 
H 	 18.0572 	 -6.9128 	 -112.099 	 
C 	 18.8342 	 -8.32211 	 -113.387 	 
H 	 19.7039 	 -7.68289 	 -113.442 	 
H 	 19.0785 	 -9.01299 	 -112.575 	 
C 	 18.6725 	 -9.04893 	 -114.696 	 
H 	 19.5283 	 -9.69073 	 -114.937 	 
H 	 17.8574 	 -9.71117 	 -114.651 	 
H 	 18.5469 	 -8.44175 	 -115.614 	 
S 	 15.4189 	 -4.84025 	 -118.138 	 
C 	 13.7503 	 -4.35238 	 -118.603 	 
C 	 12.8947 	 -4.12905 	 -117.562 	 
C 	 13.6722 	 -4.29799 	 -116.34 	 
C 	 14.9987 	 -4.70247 	 -116.471 	 
H 	 11.9372 	 -3.75541 	 -117.709 	 
C 	 13.1295 	 -3.94046 	 -115.026 	 
H 	 13.2311 	 -2.86578 	 -114.987 	 
H 	 13.6936 	 -4.41421 	 -114.198 	 
C 	 11.7164 	 -4.40285 	 -114.779 	 
H 	 11.0018 	 -3.84388 	 -115.477 	 
H 	 11.3311 	 -4.02201 	 -113.826 	 
C 	 11.6499 	 -5.93995 	 -114.703 	 
H 	 12.3681 	 -6.38043 	 -115.32 	 
H 	 10.698 	 -6.3391 	 -115.089 	 
H 	 11.7169 	 -6.21709 	 -113.662 	 
H 	 19.1815 	 -5.0255 	 -113.458 	 
H 	 13.6159 	 -4.37414 	 -119.617 	 
*
