! wB97X-D3 SP def2-SVP
%pal
nprocs 24
end

* xyz 0 1
S 	 -107.885 	 43.5541 	 -9.4345 	 
C 	 -109.034 	 44.775 	 -10.0055 	 
C 	 -110.146 	 44.2395 	 -10.624 	 
C 	 -109.936 	 42.854 	 -10.9276 	 
C 	 -108.797 	 42.3342 	 -10.2958 	 
H 	 -110.676 	 42.2054 	 -11.329 	 
C 	 -111.271 	 45.0015 	 -11.3359 	 
H 	 -111.721 	 45.5776 	 -10.5134 	 
H 	 -111.999 	 44.2411 	 -11.6999 	 
C 	 -110.826 	 46.0002 	 -12.4205 	 
H 	 -111.597 	 46.4838 	 -12.9909 	 
H 	 -110.266 	 46.778 	 -12.0259 	 
C 	 -109.916 	 45.2834 	 -13.4085 	 
H 	 -110.324 	 44.4026 	 -13.8479 	 
H 	 -109.553 	 45.9645 	 -14.2076 	 
H 	 -108.981 	 44.8726 	 -13.0233 	 
S 	 -107.984 	 40.4053 	 -12.0489 	 
C 	 -107.343 	 38.8769 	 -11.4251 	 
C 	 -107.48 	 38.7952 	 -10.0748 	 
C 	 -108.066 	 39.9788 	 -9.50385 	 
C 	 -108.237 	 40.9774 	 -10.4417 	 
H 	 -107.131 	 37.9353 	 -9.6104 	 
C 	 -108.275 	 40.1661 	 -7.99756 	 
H 	 -108.751 	 41.1125 	 -7.78218 	 
H 	 -107.295 	 40.3674 	 -7.52785 	 
C 	 -109.063 	 39.0854 	 -7.22283 	 
H 	 -108.861 	 39.3172 	 -6.2033 	 
H 	 -108.679 	 38.0345 	 -7.36812 	 
C 	 -110.52 	 38.9522 	 -7.67342 	 
H 	 -111.038 	 38.176 	 -7.09448 	 
H 	 -110.5 	 38.6077 	 -8.68373 	 
H 	 -111.101 	 39.9078 	 -7.47291 	 
H 	 -108.87 	 45.8709 	 -10.0096 	 
H 	 -106.918 	 38.0832 	 -11.8962 	 
*
