! wB97X-D3 SP def2-SVP
%pal
nprocs 24
end

* xyz 0 1
S 	 -121.376 	 60.346 	 -40.1338 	 
C 	 -122.071 	 58.8304 	 -40.6694 	 
C 	 -121.88 	 57.8238 	 -39.7566 	 
C 	 -121.262 	 58.2248 	 -38.5553 	 
C 	 -120.906 	 59.5612 	 -38.63 	 
H 	 -120.874 	 57.5572 	 -37.747 	 
C 	 -122.453 	 56.4402 	 -39.971 	 
H 	 -121.703 	 55.6786 	 -39.8459 	 
H 	 -122.67 	 56.3479 	 -41.0303 	 
C 	 -123.777 	 56.016 	 -39.2959 	 
H 	 -123.901 	 54.9951 	 -39.6576 	 
H 	 -123.742 	 55.9392 	 -38.2047 	 
C 	 -125.042 	 56.7828 	 -39.5902 	 
H 	 -125.307 	 56.6926 	 -40.6257 	 
H 	 -125.781 	 56.3816 	 -38.9788 	 
H 	 -124.924 	 57.8575 	 -39.3235 	 
S 	 -118.248 	 60.3404 	 -38.0623 	 
C 	 -118.006 	 61.0587 	 -36.485 	 
C 	 -119.08 	 60.9068 	 -35.6011 	 
C 	 -120.23 	 60.379 	 -36.253 	 
C 	 -120.005 	 60.1613 	 -37.6197 	 
H 	 -118.927 	 61.1079 	 -34.5986 	 
C 	 -121.686 	 60.2869 	 -35.7142 	 
H 	 -122.408 	 59.8873 	 -36.4688 	 
H 	 -122.027 	 61.2544 	 -35.3514 	 
C 	 -121.798 	 59.3537 	 -34.5091 	 
H 	 -122.818 	 59.4521 	 -34.0733 	 
H 	 -121.136 	 59.7342 	 -33.7576 	 
C 	 -121.457 	 57.9292 	 -34.7973 	 
H 	 -122.263 	 57.3396 	 -35.2791 	 
H 	 -121.312 	 57.444 	 -33.9001 	 
H 	 -120.515 	 57.8599 	 -35.2715 	 
H 	 -122.415 	 58.6212 	 -41.6165 	 
H 	 -117.113 	 61.3782 	 -35.9416 	 
*
