! wB97X-D3 SP def2-SVP
%pal
nprocs 24
end

* xyz 0 1
S 	 -146.679 	 5.16795 	 15.5381 	 
C 	 -146.487 	 3.60655 	 14.8467 	 
C 	 -146.563 	 3.63306 	 13.4659 	 
C 	 -146.592 	 4.93754 	 12.9607 	 
C 	 -146.654 	 5.86077 	 13.9503 	 
H 	 -146.641 	 5.19677 	 11.8639 	 
C 	 -146.579 	 2.41512 	 12.5987 	 
H 	 -147.656 	 2.08536 	 12.5348 	 
H 	 -146.021 	 1.7039 	 13.1447 	 
C 	 -146.157 	 2.51768 	 11.138 	 
H 	 -146.448 	 1.72368 	 10.4714 	 
H 	 -146.647 	 3.3948 	 10.711 	 
C 	 -144.637 	 2.74631 	 11.1128 	 
H 	 -144.409 	 2.96509 	 10.0662 	 
H 	 -144.345 	 3.5447 	 11.7814 	 
H 	 -144.122 	 1.8495 	 11.3439 	 
S 	 -146.386 	 8.22242 	 15.1813 	 
C 	 -146.623 	 9.76103 	 14.3519 	 
C 	 -146.861 	 9.50107 	 13.0351 	 
C 	 -146.971 	 8.10594 	 12.6343 	 
C 	 -146.64 	 7.27684 	 13.6929 	 
H 	 -147.02 	 10.3847 	 12.4137 	 
C 	 -147.417 	 7.65318 	 11.2391 	 
H 	 -148.27 	 8.20054 	 10.9924 	 
H 	 -147.866 	 6.69983 	 11.2944 	 
C 	 -146.377 	 7.72049 	 10.2007 	 
H 	 -145.733 	 6.91663 	 10.4942 	 
H 	 -145.721 	 8.61723 	 10.2497 	 
C 	 -146.903 	 7.43052 	 8.76571 	 
H 	 -147.962 	 7.52374 	 8.64215 	 
H 	 -146.6 	 6.50134 	 8.27039 	 
H 	 -146.407 	 8.14389 	 8.07073 	 
H 	 -146.686 	 2.71081 	 15.3473 	 
H 	 -146.729 	 10.6927 	 14.8293 	 
*
