! wB97X-D3 SP def2-SVP
%pal
nprocs 24
end

* xyz 0 1
S 	 29.8814 	 1.42306 	 -111.819 	 
C 	 28.4578 	 2.49309 	 -112.066 	 
C 	 27.3046 	 1.78402 	 -111.846 	 
C 	 27.5479 	 0.37348 	 -111.534 	 
C 	 28.8729 	 -0.0040436 	 -111.506 	 
H 	 26.661 	 -0.333416 	 -111.331 	 
C 	 26.0023 	 2.52833 	 -111.715 	 
H 	 25.129 	 1.93449 	 -112.064 	 
H 	 26.1087 	 3.33059 	 -112.356 	 
C 	 25.7125 	 2.98025 	 -110.285 	 
H 	 25.5213 	 2.1846 	 -109.588 	 
H 	 26.5826 	 3.51522 	 -110.01 	 
C 	 24.5266 	 3.95914 	 -110.28 	 
H 	 24.3845 	 4.39555 	 -109.297 	 
H 	 24.5941 	 4.63785 	 -111.152 	 
H 	 23.6717 	 3.3085 	 -110.497 	 
S 	 30.558 	 -2.07416 	 -112.149 	 
C 	 30.5374 	 -3.46034 	 -111.1 	 
C 	 29.7616 	 -3.26236 	 -109.955 	 
C 	 29.2049 	 -1.95969 	 -109.855 	 
C 	 29.4773 	 -1.23419 	 -110.99 	 
H 	 29.7103 	 -4.11065 	 -109.302 	 
C 	 28.188 	 -1.60049 	 -108.766 	 
H 	 28.3005 	 -2.34578 	 -107.983 	 
H 	 27.2398 	 -1.72717 	 -109.229 	 
C 	 28.3003 	 -0.176844 	 -108.248 	 
H 	 28.6601 	 0.655429 	 -108.959 	 
H 	 29.1068 	 -0.200066 	 -107.545 	 
C 	 27.0874 	 0.430744 	 -107.554 	 
H 	 27.266 	 1.50409 	 -107.38 	 
H 	 26.8894 	 -0.0212646 	 -106.456 	 
H 	 26.1647 	 0.39292 	 -108.151 	 
H 	 28.5125 	 3.63211 	 -112.278 	 
H 	 31.0433 	 -4.31859 	 -111.469 	 
*
