! wB97X-D3 SP def2-SVP
%pal
nprocs 24
end

* xyz 0 1
S 	 -75.8456 	 6.44378 	 -103.954 	 
C 	 -77.0849 	 7.49706 	 -104.498 	 
C 	 -77.3186 	 7.24213 	 -105.815 	 
C 	 -76.4038 	 6.3978 	 -106.406 	 
C 	 -75.4641 	 5.85387 	 -105.557 	 
H 	 -76.4595 	 6.20427 	 -107.391 	 
C 	 -78.3736 	 7.85395 	 -106.628 	 
H 	 -78.2512 	 7.52482 	 -107.682 	 
H 	 -78.2916 	 8.89046 	 -106.569 	 
C 	 -79.8391 	 7.47226 	 -106.23 	 
H 	 -79.9708 	 7.64356 	 -105.169 	 
H 	 -80.5773 	 8.22957 	 -106.652 	 
C 	 -80.1686 	 6.04508 	 -106.568 	 
H 	 -80.0612 	 5.91194 	 -107.62 	 
H 	 -79.4944 	 5.31728 	 -106.14 	 
H 	 -81.2348 	 5.74609 	 -106.333 	 
S 	 -73.8353 	 3.78208 	 -104.583 	 
C 	 -72.7083 	 2.96386 	 -105.562 	 
C 	 -72.8473 	 3.38803 	 -106.835 	 
C 	 -73.8443 	 4.33514 	 -107.049 	 
C 	 -74.4566 	 4.75428 	 -105.891 	 
H 	 -72.249 	 2.91979 	 -107.628 	 
C 	 -74.0347 	 4.97014 	 -108.391 	 
H 	 -73.8616 	 6.04341 	 -108.265 	 
H 	 -74.9829 	 4.83587 	 -108.81 	 
C 	 -73.1302 	 4.395 	 -109.496 	 
H 	 -73.195 	 3.30172 	 -109.62 	 
H 	 -72.1051 	 4.63222 	 -109.152 	 
C 	 -73.3182 	 5.08588 	 -110.846 	 
H 	 -74.2848 	 4.88796 	 -111.213 	 
H 	 -72.6499 	 4.62975 	 -111.558 	 
H 	 -73.1344 	 6.16779 	 -110.837 	 
H 	 -77.612 	 8.22255 	 -103.866 	 
H 	 -72.0479 	 2.196 	 -105.138 	 
*
