! wB97X-D3 SP def2-SVP
%pal
nprocs 24
end

* xyz 0 1
S 	 -122.765 	 47.4249 	 -23.1821 	 
C 	 -121.677 	 46.1281 	 -22.6418 	 
C 	 -120.633 	 45.9017 	 -23.52 	 
C 	 -120.743 	 46.7675 	 -24.6221 	 
C 	 -121.87 	 47.5151 	 -24.6756 	 
H 	 -120.094 	 46.8807 	 -25.4931 	 
C 	 -119.589 	 44.813 	 -23.3505 	 
H 	 -119.588 	 44.6867 	 -22.3052 	 
H 	 -118.662 	 44.9915 	 -23.7774 	 
C 	 -119.944 	 43.4163 	 -23.7913 	 
H 	 -120.901 	 43.0821 	 -23.2966 	 
H 	 -120.127 	 43.382 	 -24.926 	 
C 	 -118.968 	 42.3132 	 -23.4741 	 
H 	 -119.463 	 41.3094 	 -23.4112 	 
H 	 -118.187 	 42.2118 	 -24.2209 	 
H 	 -118.391 	 42.5624 	 -22.5235 	 
S 	 -122.204 	 50.2819 	 -25.2805 	 
C 	 -122.427 	 50.6875 	 -26.9597 	 
C 	 -122.566 	 49.5585 	 -27.7577 	 
C 	 -122.416 	 48.3051 	 -27.0718 	 
C 	 -122.188 	 48.494 	 -25.6955 	 
H 	 -122.674 	 49.7352 	 -28.8461 	 
C 	 -122.384 	 46.9889 	 -27.7911 	 
H 	 -123.071 	 46.4202 	 -27.1457 	 
H 	 -121.446 	 46.5865 	 -27.6943 	 
C 	 -122.794 	 46.8836 	 -29.2332 	 
H 	 -121.92 	 47.2632 	 -29.8169 	 
H 	 -123.588 	 47.543 	 -29.4504 	 
C 	 -123.336 	 45.5414 	 -29.6805 	 
H 	 -122.572 	 44.7794 	 -29.6121 	 
H 	 -123.647 	 45.4599 	 -30.7334 	 
H 	 -124.157 	 45.2262 	 -29.0355 	 
H 	 -121.73 	 45.6207 	 -21.6939 	 
H 	 -122.687 	 51.6877 	 -27.2723 	 
*
