! wB97X-D3 SP def2-SVP
%pal
nprocs 24
end

* xyz 0 1
S 	 -97.3773 	 48.4105 	 -100.138 	 
C 	 -96.2676 	 47.4889 	 -99.0802 	 
C 	 -95.0297 	 48.1513 	 -98.9157 	 
C 	 -95.0826 	 49.494 	 -99.5519 	 
C 	 -96.2188 	 49.7199 	 -100.32 	 
H 	 -94.2719 	 50.1689 	 -99.644 	 
C 	 -93.8006 	 47.7006 	 -98.1188 	 
H 	 -92.8743 	 47.9279 	 -98.6586 	 
H 	 -93.8221 	 46.6018 	 -98.0168 	 
C 	 -93.9236 	 48.2998 	 -96.7391 	 
H 	 -94.1215 	 49.4003 	 -96.8018 	 
H 	 -94.817 	 47.8575 	 -96.2074 	 
C 	 -92.665 	 47.9998 	 -95.9326 	 
H 	 -92.6767 	 48.444 	 -94.9602 	 
H 	 -92.522 	 47.0301 	 -95.6248 	 
H 	 -91.7149 	 48.3131 	 -96.3546 	 
S 	 -96.2725 	 51.2166 	 -102.584 	 
C 	 -97.1905 	 52.7067 	 -102.536 	 
C 	 -97.5593 	 53.0843 	 -101.267 	 
C 	 -97.2525 	 52.0429 	 -100.306 	 
C 	 -96.5956 	 50.9646 	 -100.906 	 
H 	 -98.0001 	 54.0508 	 -101.046 	 
C 	 -97.5119 	 52.181 	 -98.8082 	 
H 	 -97.2136 	 51.2456 	 -98.308 	 
H 	 -98.5056 	 52.3499 	 -98.6522 	 
C 	 -96.8564 	 53.2776 	 -98.025 	 
H 	 -97.2664 	 54.2543 	 -98.4262 	 
H 	 -95.7564 	 53.3176 	 -98.2757 	 
C 	 -97.0949 	 53.2606 	 -96.4738 	 
H 	 -96.5872 	 54.1837 	 -95.9454 	 
H 	 -96.6868 	 52.3589 	 -96.0186 	 
H 	 -98.1553 	 53.308 	 -96.2124 	 
H 	 -96.492 	 46.5128 	 -98.7785 	 
H 	 -97.2187 	 53.3815 	 -103.363 	 
*
