! wB97X-D3 SP def2-SVP
%pal
nprocs 24
end

* xyz 0 1
S 	 28.5346 	 -24.6621 	 -130.084 	 
C 	 27.2757 	 -24.9156 	 -131.224 	 
C 	 26.6575 	 -26.1087 	 -131.057 	 
C 	 27.1675 	 -26.8222 	 -129.883 	 
C 	 28.0464 	 -26.0429 	 -129.151 	 
H 	 26.6918 	 -27.7694 	 -129.473 	 
C 	 25.5398 	 -26.6859 	 -131.931 	 
H 	 25.0107 	 -26.0766 	 -132.655 	 
H 	 24.7583 	 -26.9644 	 -131.212 	 
C 	 25.8596 	 -28.0662 	 -132.509 	 
H 	 26.7468 	 -27.8768 	 -133.121 	 
H 	 26.2314 	 -28.7266 	 -131.678 	 
C 	 24.6871 	 -28.8424 	 -133.206 	 
H 	 24.0564 	 -29.2335 	 -132.441 	 
H 	 24.0366 	 -28.1857 	 -133.794 	 
H 	 25.0766 	 -29.6975 	 -133.774 	 
S 	 30.2921 	 -26.4064 	 -127.649 	 
C 	 30.1748 	 -26.5271 	 -125.94 	 
C 	 28.8847 	 -26.3268 	 -125.47 	 
C 	 27.9904 	 -26.1874 	 -126.56 	 
C 	 28.5674 	 -26.297 	 -127.851 	 
H 	 28.559 	 -26.2251 	 -124.472 	 
C 	 26.5087 	 -25.9577 	 -126.249 	 
H 	 25.9186 	 -26.9128 	 -126.05 	 
H 	 26.1258 	 -25.6014 	 -127.164 	 
C 	 26.0067 	 -25.0002 	 -125.085 	 
H 	 26.505 	 -25.2266 	 -124.141 	 
H 	 24.991 	 -25.1369 	 -124.839 	 
C 	 26.2811 	 -23.5674 	 -125.417 	 
H 	 25.9457 	 -22.9559 	 -124.592 	 
H 	 25.7313 	 -23.3243 	 -126.31 	 
H 	 27.2803 	 -23.2426 	 -125.531 	 
H 	 27.0321 	 -24.2867 	 -132.017 	 
H 	 31.037 	 -26.7552 	 -125.311 	 
*
