! wB97X-D3 SP def2-SVP
%pal
nprocs 24
end

* xyz 0 1
S 	 -119.841 	 62.8696 	 -54.6786 	 
C 	 -119.193 	 64.4702 	 -54.4268 	 
C 	 -120.082 	 65.4345 	 -54.0247 	 
C 	 -121.328 	 64.831 	 -53.7272 	 
C 	 -121.307 	 63.4472 	 -53.8448 	 
H 	 -122.232 	 65.3398 	 -53.3641 	 
C 	 -119.683 	 66.8705 	 -53.834 	 
H 	 -118.577 	 67.0334 	 -53.8919 	 
H 	 -120.037 	 67.0492 	 -52.825 	 
C 	 -120.571 	 67.9142 	 -54.61 	 
H 	 -120.215 	 68.8896 	 -54.2916 	 
H 	 -120.417 	 67.8545 	 -55.6671 	 
C 	 -122.119 	 67.9268 	 -54.2296 	 
H 	 -122.626 	 67.007 	 -54.5356 	 
H 	 -122.215 	 68.1049 	 -53.1316 	 
H 	 -122.767 	 68.6871 	 -54.7468 	 
S 	 -122.831 	 61.223 	 -54.4663 	 
C 	 -124.057 	 60.5845 	 -53.3776 	 
C 	 -124.134 	 61.476 	 -52.286 	 
C 	 -123.178 	 62.5756 	 -52.3743 	 
C 	 -122.389 	 62.5122 	 -53.4662 	 
H 	 -124.896 	 61.2124 	 -51.5175 	 
C 	 -122.968 	 63.4659 	 -51.1008 	 
H 	 -123.914 	 63.8537 	 -50.7684 	 
H 	 -122.398 	 64.3513 	 -51.4072 	 
C 	 -122.3 	 62.7336 	 -49.9329 	 
H 	 -121.757 	 63.5352 	 -49.41 	 
H 	 -121.587 	 62.0423 	 -50.3094 	 
C 	 -123.277 	 61.951 	 -49.038 	 
H 	 -122.802 	 61.2037 	 -48.3799 	 
H 	 -124.018 	 61.4593 	 -49.666 	 
H 	 -123.866 	 62.5871 	 -48.4039 	 
H 	 -118.156 	 64.7384 	 -54.6235 	 
H 	 -124.537 	 59.5987 	 -53.4382 	 
*
