! wB97X-D3 SP def2-SVP
%pal
nprocs 24
end

* xyz 0 1
S 	 -47.4998 	 12.355 	 25.5713 	 
C 	 -47.1895 	 12.5792 	 23.8224 	 
C 	 -48.2811 	 12.223 	 23.0405 	 
C 	 -49.4035 	 11.7772 	 23.8779 	 
C 	 -49.143 	 11.8079 	 25.229 	 
H 	 -50.3041 	 11.5115 	 23.4453 	 
C 	 -48.4124 	 12.4249 	 21.5654 	 
H 	 -47.7569 	 13.1669 	 21.1527 	 
H 	 -49.4128 	 12.7957 	 21.2401 	 
C 	 -48.2774 	 11.0932 	 20.8121 	 
H 	 -47.2313 	 10.7045 	 20.9302 	 
H 	 -48.7922 	 10.3749 	 21.3743 	 
C 	 -48.706 	 11.2139 	 19.2877 	 
H 	 -48.0482 	 11.9552 	 18.8003 	 
H 	 -48.6908 	 10.2755 	 18.732 	 
H 	 -49.7461 	 11.671 	 19.2268 	 
S 	 -50.7101 	 13.0953 	 26.8568 	 
C 	 -51.7784 	 12.1952 	 27.9059 	 
C 	 -51.8094 	 10.8218 	 27.6627 	 
C 	 -50.8449 	 10.4848 	 26.6593 	 
C 	 -50.1016 	 11.584 	 26.2645 	 
H 	 -52.5409 	 10.1578 	 28.1798 	 
C 	 -50.6858 	 9.13 	 26.1184 	 
H 	 -50.2448 	 8.46331 	 26.8361 	 
H 	 -49.9207 	 9.29864 	 25.3725 	 
C 	 -51.9408 	 8.51052 	 25.5762 	 
H 	 -52.1753 	 9.10243 	 24.7086 	 
H 	 -52.8804 	 8.81032 	 26.1575 	 
C 	 -51.8212 	 6.9992 	 25.2326 	 
H 	 -52.6429 	 6.63678 	 24.7299 	 
H 	 -51.7381 	 6.33256 	 26.1404 	 
H 	 -50.9781 	 6.77817 	 24.5989 	 
H 	 -46.2464 	 12.7331 	 23.4711 	 
H 	 -52.6217 	 12.5831 	 28.4525 	 
*
