! wB97X-D3 SP def2-SVP
%pal
nprocs 24
end

* xyz 0 1
S 	 -125.311 	 19.7705 	 -22.9734 	 
C 	 -124.158 	 20.2498 	 -21.7236 	 
C 	 -123.268 	 21.2211 	 -22.1955 	 
C 	 -123.421 	 21.4041 	 -23.5984 	 
C 	 -124.371 	 20.6072 	 -24.2101 	 
H 	 -122.83 	 22.1547 	 -24.2073 	 
C 	 -122.248 	 22.072 	 -21.444 	 
H 	 -122.563 	 22.1522 	 -20.3769 	 
H 	 -122.301 	 23.1117 	 -21.7312 	 
C 	 -120.823 	 21.5364 	 -21.4844 	 
H 	 -120.657 	 20.5804 	 -20.9754 	 
H 	 -120.547 	 21.4217 	 -22.5534 	 
C 	 -119.738 	 22.4274 	 -20.9618 	 
H 	 -120.064 	 23.4766 	 -20.9272 	 
H 	 -119.513 	 22.1698 	 -19.886 	 
H 	 -118.783 	 22.4385 	 -21.5345 	 
S 	 -126.219 	 20.6747 	 -26.1322 	 
C 	 -125.933 	 19.9339 	 -27.6491 	 
C 	 -124.625 	 19.6496 	 -27.8198 	 
C 	 -123.86 	 19.9021 	 -26.6586 	 
C 	 -124.615 	 20.442 	 -25.6215 	 
H 	 -124.349 	 19.1634 	 -28.7346 	 
C 	 -122.485 	 19.4075 	 -26.6144 	 
H 	 -121.943 	 19.9384 	 -25.8605 	 
H 	 -122.099 	 19.9537 	 -27.5075 	 
C 	 -122.246 	 17.9268 	 -26.7 	 
H 	 -121.506 	 17.6397 	 -27.4415 	 
H 	 -123.165 	 17.3961 	 -27.0556 	 
C 	 -121.813 	 17.4545 	 -25.3485 	 
H 	 -121.436 	 16.4819 	 -25.426 	 
H 	 -122.661 	 17.2128 	 -24.7425 	 
H 	 -121.165 	 18.1023 	 -24.713 	 
H 	 -124.273 	 20.0473 	 -20.6043 	 
H 	 -126.662 	 19.7642 	 -28.4019 	 
*
