! wB97X-D3 SP def2-SVP
%pal
nprocs 24
end

* xyz 0 1
S 	 -50.533 	 13.7013 	 19.083 	 
C 	 -51.9674 	 14.0626 	 20.0376 	 
C 	 -51.6903 	 14.8019 	 21.1564 	 
C 	 -50.2778 	 15.0723 	 21.258 	 
C 	 -49.4735 	 14.6683 	 20.2071 	 
H 	 -49.9454 	 15.7579 	 22.0325 	 
C 	 -52.7153 	 15.4114 	 22.0615 	 
H 	 -52.2613 	 15.8442 	 22.9549 	 
H 	 -53.399 	 14.6101 	 22.2859 	 
C 	 -53.4386 	 16.6001 	 21.3005 	 
H 	 -53.9033 	 16.3046 	 20.348 	 
H 	 -54.3246 	 16.8011 	 21.8535 	 
C 	 -52.6621 	 17.8957 	 21.1591 	 
H 	 -53.2414 	 18.6534 	 20.6345 	 
H 	 -52.3521 	 18.4435 	 22.0879 	 
H 	 -51.6936 	 17.7203 	 20.6239 	 
S 	 -47.0389 	 13.8267 	 19.1726 	 
C 	 -45.7396 	 14.9526 	 19.0735 	 
C 	 -46.1997 	 16.2498 	 19.3422 	 
C 	 -47.5301 	 16.3328 	 19.8141 	 
C 	 -48.1068 	 15.0599 	 19.8677 	 
H 	 -45.5896 	 17.0705 	 19.1768 	 
C 	 -48.1742 	 17.6075 	 20.1633 	 
H 	 -49.2425 	 17.433 	 20.0165 	 
H 	 -47.9215 	 18.2521 	 19.2856 	 
C 	 -47.9137 	 18.4338 	 21.4388 	 
H 	 -48.1009 	 17.7978 	 22.2529 	 
H 	 -48.6646 	 19.295 	 21.6065 	 
C 	 -46.5258 	 19.1337 	 21.4677 	 
H 	 -46.2879 	 19.6534 	 22.3743 	 
H 	 -46.6686 	 19.9047 	 20.6994 	 
H 	 -45.655 	 18.4223 	 21.4225 	 
H 	 -52.9723 	 13.7791 	 19.738 	 
H 	 -44.7812 	 14.8415 	 18.5161 	 
*
