! wB97X-D3 SP def2-SVP
%pal
nprocs 24
end

* xyz 0 1
S 	 -121.379 	 51.6098 	 -29.0445 	 
C 	 -121.964 	 50.0849 	 -29.46 	 
C 	 -122.116 	 49.9149 	 -30.8042 	 
C 	 -121.635 	 51.0034 	 -31.5775 	 
C 	 -121.263 	 52.1113 	 -30.7834 	 
H 	 -121.555 	 51.0441 	 -32.683 	 
C 	 -122.67 	 48.758 	 -31.5165 	 
H 	 -122.748 	 47.9694 	 -30.7502 	 
H 	 -121.892 	 48.5006 	 -32.1714 	 
C 	 -123.939 	 48.9344 	 -32.3026 	 
H 	 -123.858 	 49.7179 	 -33.0523 	 
H 	 -124.135 	 48.0188 	 -32.898 	 
C 	 -125.129 	 49.1697 	 -31.4312 	 
H 	 -126.018 	 49.0008 	 -32.041 	 
H 	 -125.227 	 48.3774 	 -30.6846 	 
H 	 -125.165 	 50.1342 	 -31.0292 	 
S 	 -119.018 	 53.3418 	 -31.7835 	 
C 	 -118.723 	 54.9529 	 -31.5149 	 
C 	 -119.855 	 55.5977 	 -31.1152 	 
C 	 -120.956 	 54.6808 	 -30.7811 	 
C 	 -120.647 	 53.3565 	 -31.1134 	 
H 	 -119.855 	 56.6587 	 -30.9091 	 
C 	 -122.181 	 55.1579 	 -30.0353 	 
H 	 -121.917 	 56.1839 	 -29.6281 	 
H 	 -122.212 	 54.5229 	 -29.0958 	 
C 	 -123.512 	 55.1476 	 -30.9207 	 
H 	 -123.288 	 55.4834 	 -31.9087 	 
H 	 -124.158 	 55.9249 	 -30.4744 	 
C 	 -124.21 	 53.8125 	 -31.0734 	 
H 	 -124.559 	 53.47 	 -30.087 	 
H 	 -123.57 	 53.0153 	 -31.3669 	 
H 	 -125.018 	 54.0495 	 -31.7672 	 
H 	 -122.319 	 49.3327 	 -28.7185 	 
H 	 -117.838 	 55.5352 	 -31.7904 	 
*
