! wB97X-D3 SP def2-SVP
%pal
nprocs 24
end

* xyz 0 1
S 	 -131.149 	 70.5234 	 -64.6591 	 
C 	 -131.146 	 69.8499 	 -66.2434 	 
C 	 -132.237 	 70.167 	 -67.0289 	 
C 	 -133.174 	 70.9822 	 -66.2863 	 
C 	 -132.718 	 71.2769 	 -65.0135 	 
H 	 -134.078 	 71.5022 	 -66.6083 	 
C 	 -132.493 	 69.7159 	 -68.4205 	 
H 	 -133.527 	 69.9999 	 -68.6528 	 
H 	 -132.312 	 68.6065 	 -68.4802 	 
C 	 -131.593 	 70.3672 	 -69.4236 	 
H 	 -130.55 	 70.2136 	 -69.1193 	 
H 	 -131.713 	 69.9425 	 -70.4649 	 
C 	 -131.855 	 71.86 	 -69.4886 	 
H 	 -131.211 	 72.3424 	 -70.2046 	 
H 	 -132.975 	 71.973 	 -69.6032 	 
H 	 -131.555 	 72.2602 	 -68.5154 	 
S 	 -134.01 	 71.3075 	 -62.6022 	 
C 	 -134.749 	 72.8091 	 -62.1097 	 
C 	 -134.65 	 73.7618 	 -63.0159 	 
C 	 -133.999 	 73.3605 	 -64.1849 	 
C 	 -133.421 	 72.1019 	 -64.0598 	 
H 	 -135.235 	 74.6925 	 -62.8421 	 
C 	 -133.752 	 74.3239 	 -65.2984 	 
H 	 -132.91 	 73.9954 	 -65.9234 	 
H 	 -133.472 	 75.2026 	 -64.7265 	 
C 	 -135.072 	 74.8006 	 -66.0505 	 
H 	 -134.78 	 75.7363 	 -66.5851 	 
H 	 -135.822 	 74.8715 	 -65.3319 	 
C 	 -135.517 	 73.8786 	 -67.2151 	 
H 	 -134.704 	 73.5102 	 -67.9218 	 
H 	 -136.321 	 74.3373 	 -67.7611 	 
H 	 -135.845 	 73.0411 	 -66.7252 	 
H 	 -130.302 	 69.2878 	 -66.5976 	 
H 	 -135.368 	 72.9424 	 -61.1865 	 
*
