! wB97X-D3 SP def2-SVP
%pal
nprocs 24
end

* xyz 0 1
S 	 -102.111 	 -4.36535 	 -108.667 	 
C 	 -103.752 	 -4.80401 	 -108.066 	 
C 	 -103.728 	 -5.28028 	 -106.797 	 
C 	 -102.457 	 -5.3172 	 -106.219 	 
C 	 -101.522 	 -4.6528 	 -107.027 	 
H 	 -102.138 	 -5.6677 	 -105.248 	 
C 	 -104.973 	 -5.7069 	 -106.084 	 
H 	 -105.548 	 -6.19244 	 -106.881 	 
H 	 -105.633 	 -4.89787 	 -105.851 	 
C 	 -104.935 	 -6.54882 	 -104.701 	 
H 	 -104.276 	 -7.4259 	 -104.902 	 
H 	 -104.578 	 -5.99158 	 -103.866 	 
C 	 -106.378 	 -6.9619 	 -104.295 	 
H 	 -107.122 	 -6.2127 	 -104.509 	 
H 	 -106.681 	 -7.80197 	 -104.875 	 
H 	 -106.536 	 -7.11248 	 -103.229 	 
S 	 -98.935 	 -5.26673 	 -107.741 	 
C 	 -97.6046 	 -4.2954 	 -107.073 	 
C 	 -97.9614 	 -3.78748 	 -105.844 	 
C 	 -99.41 	 -3.73367 	 -105.637 	 
C 	 -100.115 	 -4.43458 	 -106.665 	 
H 	 -97.1995 	 -3.43856 	 -105.16 	 
C 	 -99.9915 	 -2.93961 	 -104.495 	 
H 	 -101.013 	 -3.36128 	 -104.378 	 
H 	 -99.8994 	 -1.90319 	 -104.732 	 
C 	 -99.3924 	 -3.20021 	 -103.164 	 
H 	 -99.8842 	 -2.53809 	 -102.42 	 
H 	 -98.2319 	 -3.05219 	 -103.12 	 
C 	 -99.5844 	 -4.61917 	 -102.574 	 
H 	 -100.638 	 -4.71595 	 -102.269 	 
H 	 -98.8815 	 -4.72927 	 -101.744 	 
H 	 -99.2689 	 -5.3837 	 -103.275 	 
H 	 -104.683 	 -4.75815 	 -108.64 	 
H 	 -96.565 	 -4.30014 	 -107.473 	 
*
