! wB97X-D3 SP def2-SVP
%pal
nprocs 24
end

* xyz 0 1
S 	 -50.3249 	 -50.5603 	 -78.0513 	 
C 	 -51.2433 	 -50.5671 	 -76.54 	 
C 	 -50.9824 	 -49.4318 	 -75.7988 	 
C 	 -49.9996 	 -48.612 	 -76.3921 	 
C 	 -49.574 	 -49.0231 	 -77.6279 	 
H 	 -49.6467 	 -47.7 	 -75.9391 	 
C 	 -51.7628 	 -49.0137 	 -74.6083 	 
H 	 -51.2301 	 -48.7668 	 -73.715 	 
H 	 -52.3445 	 -49.9887 	 -74.4793 	 
C 	 -52.7644 	 -47.934 	 -74.9002 	 
H 	 -53.3198 	 -47.7442 	 -73.9914 	 
H 	 -52.2267 	 -47.0818 	 -75.2463 	 
C 	 -53.7662 	 -48.2405 	 -76.0569 	 
H 	 -53.2234 	 -48.2534 	 -77.0217 	 
H 	 -54.1462 	 -49.2773 	 -75.812 	 
H 	 -54.6046 	 -47.5015 	 -76.1144 	 
S 	 -47.8591 	 -46.8617 	 -77.6987 	 
C 	 -47.0594 	 -46.5661 	 -79.267 	 
C 	 -47.4916 	 -47.3402 	 -80.2925 	 
C 	 -48.3466 	 -48.3407 	 -79.8257 	 
C 	 -48.6485 	 -48.2365 	 -78.4672 	 
H 	 -47.0722 	 -47.2227 	 -81.3176 	 
C 	 -49.0853 	 -49.2505 	 -80.7968 	 
H 	 -49.0339 	 -48.7057 	 -81.8211 	 
H 	 -50.1004 	 -49.5264 	 -80.5042 	 
C 	 -48.4695 	 -50.6529 	 -81.1199 	 
H 	 -49.1753 	 -51.1603 	 -81.7378 	 
H 	 -48.3801 	 -51.2169 	 -80.2261 	 
C 	 -47.1793 	 -50.59 	 -81.9742 	 
H 	 -46.4832 	 -49.8822 	 -81.6101 	 
H 	 -47.4922 	 -50.2991 	 -82.9131 	 
H 	 -46.6037 	 -51.5115 	 -82.1236 	 
H 	 -52.038 	 -51.277 	 -76.2031 	 
H 	 -46.356 	 -45.7735 	 -79.352 	 
*
