! wB97X-D3 SP def2-SVP
%pal
nprocs 24
end

* xyz 0 1
S 	 -106.461 	 50.6428 	 -82.7528 	 
C 	 -105.004 	 51.5275 	 -82.4671 	 
C 	 -103.934 	 50.7335 	 -82.6974 	 
C 	 -104.238 	 49.4418 	 -83.2019 	 
C 	 -105.572 	 49.1992 	 -83.2834 	 
H 	 -103.593 	 48.5912 	 -83.5948 	 
C 	 -102.394 	 51.118 	 -82.7136 	 
H 	 -101.711 	 50.2565 	 -82.7274 	 
H 	 -102.26 	 51.6901 	 -81.7522 	 
C 	 -101.971 	 52.022 	 -83.9119 	 
H 	 -100.865 	 52.2698 	 -83.8158 	 
H 	 -102.25 	 51.4178 	 -84.8416 	 
C 	 -102.739 	 53.3863 	 -83.9341 	 
H 	 -102.851 	 53.7957 	 -82.9411 	 
H 	 -102.337 	 54.1846 	 -84.4934 	 
H 	 -103.757 	 53.3024 	 -84.2636 	 
S 	 -107.062 	 48.5323 	 -85.3677 	 
C 	 -107.017 	 46.9152 	 -85.9727 	 
C 	 -106.426 	 46.03 	 -85.107 	 
C 	 -105.865 	 46.7483 	 -83.999 	 
C 	 -106.204 	 48.0661 	 -83.9176 	 
H 	 -106.305 	 45.0155 	 -85.43 	 
C 	 -104.92 	 46.0395 	 -83.0246 	 
H 	 -104.183 	 46.7331 	 -82.5629 	 
H 	 -104.354 	 45.3497 	 -83.6904 	 
C 	 -105.746 	 45.21 	 -81.9749 	 
H 	 -105.057 	 44.6337 	 -81.3675 	 
H 	 -106.519 	 44.5187 	 -82.3749 	 
C 	 -106.489 	 46.148 	 -81.0492 	 
H 	 -107.232 	 46.7442 	 -81.651 	 
H 	 -105.759 	 46.8179 	 -80.5447 	 
H 	 -107.019 	 45.6891 	 -80.2492 	 
H 	 -105.053 	 52.5714 	 -82.183 	 
H 	 -107.415 	 46.685 	 -86.9716 	 
*
