! wB97X-D3 SP def2-SVP
%pal
nprocs 24
end

* xyz 0 1
S 	 -84.9 	 -30.5561 	 -59.6649 	 
C 	 -86.1554 	 -30.0733 	 -60.7206 	 
C 	 -87.33 	 -29.7347 	 -60.0312 	 
C 	 -87.2053 	 -29.9347 	 -58.6197 	 
C 	 -85.927 	 -30.3742 	 -58.2553 	 
H 	 -87.9848 	 -29.7967 	 -57.8784 	 
C 	 -88.627 	 -29.275 	 -60.6431 	 
H 	 -88.4089 	 -29.0169 	 -61.6282 	 
H 	 -88.9199 	 -28.3808 	 -60.1377 	 
C 	 -89.9044 	 -30.1827 	 -60.6927 	 
H 	 -90.6069 	 -29.8597 	 -61.4033 	 
H 	 -89.6 	 -31.2054 	 -60.9167 	 
C 	 -90.6219 	 -30.3311 	 -59.3024 	 
H 	 -90.5339 	 -29.4383 	 -58.7204 	 
H 	 -91.6945 	 -30.5254 	 -59.4706 	 
H 	 -90.0416 	 -31.1798 	 -58.8586 	 
S 	 -87.0171 	 -31.5273 	 -56.0599 	 
C 	 -86.0292 	 -31.7331 	 -54.5947 	 
C 	 -84.6819 	 -31.4237 	 -54.8096 	 
C 	 -84.5029 	 -30.8418 	 -56.0946 	 
C 	 -85.6376 	 -30.8707 	 -56.9116 	 
H 	 -83.9276 	 -31.3386 	 -54.0214 	 
C 	 -83.1649 	 -30.225 	 -56.434 	 
H 	 -83.0305 	 -30.145 	 -57.5039 	 
H 	 -82.3883 	 -30.9246 	 -56.0537 	 
C 	 -83.0133 	 -28.7922 	 -55.8547 	 
H 	 -82.0144 	 -28.4402 	 -56.0735 	 
H 	 -83.1674 	 -28.6837 	 -54.7766 	 
C 	 -83.9517 	 -27.7086 	 -56.5829 	 
H 	 -83.6629 	 -26.7407 	 -56.2452 	 
H 	 -85.0257 	 -27.8942 	 -56.3706 	 
H 	 -83.9924 	 -27.6393 	 -57.726 	 
H 	 -86.1687 	 -30.0621 	 -61.7865 	 
H 	 -86.3711 	 -32.1628 	 -53.7131 	 
*
