! wB97X-D3 SP def2-SVP
%pal
nprocs 24
end

* xyz 0 1
S 	 47.4593 	 -37.1326 	 -119.594 	 
C 	 47.2513 	 -36.2333 	 -121.05 	 
C 	 47.3292 	 -34.8869 	 -120.77 	 
C 	 47.6038 	 -34.579 	 -119.372 	 
C 	 47.8011 	 -35.682 	 -118.606 	 
H 	 47.6718 	 -33.5816 	 -118.924 	 
C 	 47.0601 	 -33.7513 	 -121.758 	 
H 	 46.0077 	 -33.4618 	 -121.659 	 
H 	 47.1193 	 -34.2547 	 -122.679 	 
C 	 48.0901 	 -32.5957 	 -121.669 	 
H 	 48.1892 	 -32.1058 	 -120.721 	 
H 	 49.0664 	 -33.0578 	 -121.99 	 
C 	 47.8722 	 -31.4484 	 -122.67 	 
H 	 46.8314 	 -31.2436 	 -122.591 	 
H 	 48.4319 	 -30.492 	 -122.463 	 
H 	 48.1539 	 -31.7249 	 -123.712 	 
S 	 49.2515 	 -37.192 	 -116.84 	 
C 	 50.0007 	 -36.3585 	 -115.485 	 
C 	 49.3704 	 -35.1653 	 -115.251 	 
C 	 48.4852 	 -34.7619 	 -116.238 	 
C 	 48.3231 	 -35.7213 	 -117.267 	 
H 	 49.6212 	 -34.704 	 -114.29 	 
C 	 47.7925 	 -33.4329 	 -116.044 	 
H 	 48.3958 	 -32.6704 	 -116.551 	 
H 	 47.9482 	 -33.1447 	 -114.988 	 
C 	 46.2714 	 -33.2746 	 -116.358 	 
H 	 45.7678 	 -33.8934 	 -115.638 	 
H 	 46.0097 	 -33.6201 	 -117.295 	 
C 	 45.8062 	 -31.8455 	 -116.149 	 
H 	 45.8244 	 -31.554 	 -115.178 	 
H 	 44.8004 	 -31.9295 	 -116.531 	 
H 	 46.4865 	 -31.1721 	 -116.708 	 
H 	 46.9624 	 -36.6161 	 -122.019 	 
H 	 50.7456 	 -36.6951 	 -114.773 	 
*
