! wB97X-D3 SP def2-SVP
%pal
nprocs 24
end

* xyz 0 1
S 	 -113.939 	 20.8589 	 -113.039 	 
C 	 -112.866 	 22.1105 	 -113.487 	 
C 	 -111.6 	 21.6472 	 -113.819 	 
C 	 -111.619 	 20.2033 	 -113.827 	 
C 	 -112.728 	 19.6369 	 -113.262 	 
H 	 -110.891 	 19.5144 	 -114.116 	 
C 	 -110.311 	 22.4413 	 -114.128 	 
H 	 -110.535 	 22.8275 	 -115.153 	 
H 	 -109.541 	 21.6978 	 -114.256 	 
C 	 -109.902 	 23.5396 	 -113.101 	 
H 	 -110.856 	 24.026 	 -112.8 	 
H 	 -109.42 	 23.1461 	 -112.235 	 
C 	 -108.992 	 24.5812 	 -113.801 	 
H 	 -109.571 	 25.1352 	 -114.573 	 
H 	 -108.759 	 25.4361 	 -113.121 	 
H 	 -108.004 	 24.3028 	 -114.136 	 
S 	 -112.383 	 17.1226 	 -114.241 	 
C 	 -113.517 	 15.8687 	 -113.708 	 
C 	 -113.998 	 16.2232 	 -112.465 	 
C 	 -113.706 	 17.5875 	 -111.997 	 
C 	 -113.024 	 18.2507 	 -113.016 	 
H 	 -114.527 	 15.5214 	 -111.892 	 
C 	 -114.361 	 18.1603 	 -110.732 	 
H 	 -114.133 	 19.2121 	 -110.701 	 
H 	 -113.75 	 17.7994 	 -109.872 	 
C 	 -115.91 	 17.9971 	 -110.506 	 
H 	 -116.113 	 18.3563 	 -109.488 	 
H 	 -116.265 	 16.9271 	 -110.581 	 
C 	 -116.7 	 18.8311 	 -111.489 	 
H 	 -116.522 	 18.4635 	 -112.559 	 
H 	 -116.449 	 19.9 	 -111.48 	 
H 	 -117.746 	 18.7726 	 -111.331 	 
H 	 -112.98 	 23.1624 	 -113.357 	 
H 	 -113.628 	 14.9404 	 -114.219 	 
*
