! wB97X-D3 SP def2-SVP
%pal
nprocs 24
end

* xyz 0 1
S 	 -68.0737 	 -45.7454 	 -88.2282 	 
C 	 -67.5686 	 -44.1859 	 -88.8353 	 
C 	 -66.7312 	 -44.3681 	 -89.9441 	 
C 	 -66.4824 	 -45.7236 	 -90.3494 	 
C 	 -67.2861 	 -46.6053 	 -89.6166 	 
H 	 -65.8694 	 -46.0324 	 -91.1567 	 
C 	 -66.2055 	 -43.2256 	 -90.7275 	 
H 	 -66.9936 	 -42.5493 	 -90.8865 	 
H 	 -66.0546 	 -43.5985 	 -91.7177 	 
C 	 -64.9612 	 -42.5954 	 -90.1695 	 
H 	 -65.0286 	 -42.2008 	 -89.1726 	 
H 	 -64.2613 	 -43.4811 	 -90.063 	 
C 	 -64.2578 	 -41.6929 	 -91.0937 	 
H 	 -64.8016 	 -40.7439 	 -91.1309 	 
H 	 -63.2299 	 -41.4085 	 -90.8491 	 
H 	 -64.2455 	 -42.0276 	 -92.123 	 
S 	 -68.6889 	 -48.3663 	 -91.1491 	 
C 	 -68.2865 	 -50.0901 	 -91.0267 	 
C 	 -67.3696 	 -50.2649 	 -90.0086 	 
C 	 -66.8609 	 -49.0882 	 -89.4249 	 
C 	 -67.5352 	 -48.0208 	 -89.9278 	 
H 	 -67.0976 	 -51.2934 	 -89.8651 	 
C 	 -65.8072 	 -49.1506 	 -88.2872 	 
H 	 -65.9828 	 -49.8418 	 -87.4439 	 
H 	 -66.0583 	 -48.3072 	 -87.6757 	 
C 	 -64.3033 	 -49.026 	 -88.6969 	 
H 	 -64.1598 	 -48.135 	 -89.2609 	 
H 	 -63.9725 	 -49.8383 	 -89.321 	 
C 	 -63.2596 	 -48.9249 	 -87.5236 	 
H 	 -63.4735 	 -47.9892 	 -86.8841 	 
H 	 -62.1661 	 -48.9894 	 -87.7587 	 
H 	 -63.5391 	 -49.6572 	 -86.7188 	 
H 	 -67.8292 	 -43.2921 	 -88.4394 	 
H 	 -68.8785 	 -50.8498 	 -91.4701 	 
*
