! wB97X-D3 SP def2-SVP
%pal
nprocs 24
end

* xyz 0 1
S 	 9.36254 	 -17.1413 	 -110.808 	 
C 	 8.28609 	 -17.2343 	 -112.171 	 
C 	 6.96483 	 -17.1997 	 -111.715 	 
C 	 6.89084 	 -17.129 	 -110.336 	 
C 	 8.0879 	 -17.1298 	 -109.623 	 
H 	 6.05572 	 -17.1364 	 -109.706 	 
C 	 5.75686 	 -17.2616 	 -112.627 	 
H 	 6.08411 	 -16.9642 	 -113.636 	 
H 	 5.13209 	 -16.5219 	 -112.187 	 
C 	 5.04636 	 -18.5941 	 -112.654 	 
H 	 5.74214 	 -19.3453 	 -113.155 	 
H 	 4.82797 	 -19.1338 	 -111.716 	 
C 	 3.65547 	 -18.3983 	 -113.395 	 
H 	 3.16248 	 -19.3757 	 -113.372 	 
H 	 3.09007 	 -17.781 	 -112.74 	 
H 	 3.83702 	 -18.0298 	 -114.409 	 
S 	 9.02167 	 -18.4825 	 -107.365 	 
C 	 8.71843 	 -17.7966 	 -105.811 	 
C 	 7.9573 	 -16.6696 	 -105.941 	 
C 	 7.493 	 -16.3922 	 -107.249 	 
C 	 8.20947 	 -17.1669 	 -108.179 	 
H 	 7.74918 	 -15.9405 	 -105.127 	 
C 	 6.48149 	 -15.3093 	 -107.474 	 
H 	 6.36487 	 -15.1067 	 -108.499 	 
H 	 6.91156 	 -14.3785 	 -107.123 	 
C 	 5.18203 	 -15.558 	 -106.654 	 
H 	 4.51589 	 -14.7035 	 -106.838 	 
H 	 5.30481 	 -15.5001 	 -105.586 	 
C 	 4.49324 	 -16.8293 	 -106.887 	 
H 	 3.37258 	 -16.8282 	 -106.683 	 
H 	 5.06756 	 -17.7062 	 -106.37 	 
H 	 4.58079 	 -16.9906 	 -107.967 	 
H 	 8.50263 	 -17.2753 	 -113.183 	 
H 	 9.14543 	 -18.3109 	 -104.967 	 
*
