! wB97X-D3 SP def2-SVP
%pal
nprocs 24
end

* xyz 0 1
S 	 -57.5319 	 0.928235 	 -18.2014 	 
C 	 -57.5489 	 0.265686 	 -16.572 	 
C 	 -58.6235 	 0.809696 	 -15.8827 	 
C 	 -59.2709 	 1.89184 	 -16.5699 	 
C 	 -58.8941 	 2.03323 	 -17.877 	 
H 	 -60.0431 	 2.50484 	 -16.1531 	 
C 	 -58.9099 	 0.306719 	 -14.476 	 
H 	 -58.9108 	 -0.772298 	 -14.5404 	 
H 	 -59.9019 	 0.57704 	 -14.2904 	 
C 	 -57.8851 	 0.711081 	 -13.4395 	 
H 	 -56.8789 	 0.581067 	 -13.82 	 
H 	 -57.8774 	 1.78001 	 -13.2987 	 
C 	 -58.0692 	 0.0518519 	 -11.9805 	 
H 	 -57.3681 	 0.418432 	 -11.2936 	 
H 	 -59.0297 	 0.41368 	 -11.5936 	 
H 	 -57.9802 	 -1.05022 	 -12.0239 	 
S 	 -58.2448 	 3.77837 	 -19.9562 	 
C 	 -59.5361 	 4.59969 	 -20.7937 	 
C 	 -60.7306 	 4.08211 	 -20.3679 	 
C 	 -60.7174 	 3.25227 	 -19.1909 	 
C 	 -59.3741 	 2.95908 	 -18.8607 	 
H 	 -61.5985 	 4.46216 	 -20.8936 	 
C 	 -61.9806 	 2.63646 	 -18.7137 	 
H 	 -62.8029 	 3.18603 	 -19.1273 	 
H 	 -61.9864 	 2.7946 	 -17.7118 	 
C 	 -62.1012 	 1.11393 	 -18.947 	 
H 	 -62.8512 	 0.696418 	 -18.2601 	 
H 	 -61.1723 	 0.644687 	 -18.6903 	 
C 	 -62.4664 	 0.809191 	 -20.381 	 
H 	 -63.1906 	 1.55799 	 -20.778 	 
H 	 -62.8292 	 -0.182284 	 -20.5513 	 
H 	 -61.6283 	 0.776143 	 -21.0118 	 
H 	 -56.8299 	 -0.434524 	 -16.1933 	 
H 	 -59.4321 	 5.02096 	 -21.7999 	 
*
