! wB97X-D3 SP def2-SVP
%pal
nprocs 24
end

* xyz 0 1
S 	 -140.756 	 22.3453 	 -20.6291 	 
C 	 -141.625 	 21.0049 	 -19.926 	 
C 	 -142.274 	 21.354 	 -18.7625 	 
C 	 -142.268 	 22.7986 	 -18.5836 	 
C 	 -141.468 	 23.5024 	 -19.5237 	 
H 	 -142.774 	 23.235 	 -17.7931 	 
C 	 -143.036 	 20.4748 	 -17.8279 	 
H 	 -142.198 	 19.9756 	 -17.3184 	 
H 	 -143.449 	 19.6472 	 -18.3611 	 
C 	 -144.144 	 21.0623 	 -16.9391 	 
H 	 -143.678 	 21.7959 	 -16.2352 	 
H 	 -144.948 	 21.6563 	 -17.4435 	 
C 	 -144.891 	 20.0114 	 -16.1102 	 
H 	 -144.183 	 19.431 	 -15.6268 	 
H 	 -145.642 	 20.4347 	 -15.4196 	 
H 	 -145.518 	 19.361 	 -16.6741 	 
S 	 -141.452 	 25.624 	 -21.3247 	 
C 	 -141.386 	 27.2461 	 -20.7754 	 
C 	 -141.111 	 27.2996 	 -19.426 	 
C 	 -141.144 	 26.0235 	 -18.8206 	 
C 	 -141.344 	 24.946 	 -19.7102 	 
H 	 -141.026 	 28.2493 	 -18.8432 	 
C 	 -140.948 	 25.8962 	 -17.2849 	 
H 	 -139.898 	 25.712 	 -17.0388 	 
H 	 -141.527 	 25.0007 	 -17.0358 	 
C 	 -141.617 	 27.0233 	 -16.4501 	 
H 	 -142.597 	 27.238 	 -16.8828 	 
H 	 -141.007 	 27.8859 	 -16.5079 	 
C 	 -141.864 	 26.6556 	 -14.9682 	 
H 	 -142.526 	 27.4163 	 -14.4984 	 
H 	 -140.911 	 26.6944 	 -14.4082 	 
H 	 -142.354 	 25.6692 	 -14.7772 	 
H 	 -141.483 	 19.9828 	 -20.2776 	 
H 	 -141.698 	 28.0172 	 -21.3412 	 
*
