! wB97X-D3 SP def2-SVP
%pal
nprocs 24
end

* xyz 0 1
S 	 -75.7251 	 10.3538 	 -110.182 	 
C 	 -76.9817 	 10.7138 	 -109.106 	 
C 	 -76.8184 	 10.1403 	 -107.881 	 
C 	 -75.6792 	 9.294 	 -107.819 	 
C 	 -74.9589 	 9.3272 	 -108.982 	 
H 	 -75.411 	 8.6552 	 -106.993 	 
C 	 -77.866 	 10.2631 	 -106.757 	 
H 	 -78.1799 	 9.25576 	 -106.643 	 
H 	 -78.7481 	 10.8828 	 -107.003 	 
C 	 -77.2658 	 10.7227 	 -105.413 	 
H 	 -77.9854 	 10.9322 	 -104.684 	 
H 	 -76.6223 	 9.88637 	 -105.055 	 
C 	 -76.2737 	 11.9303 	 -105.588 	 
H 	 -76.6421 	 12.8544 	 -105.87 	 
H 	 -75.7739 	 12.0788 	 -104.628 	 
H 	 -75.546 	 11.6983 	 -106.314 	 
S 	 -73.5934 	 7.4869 	 -110.56 	 
C 	 -71.9314 	 7.24708 	 -110.324 	 
C 	 -71.3592 	 8.12313 	 -109.465 	 
C 	 -72.4057 	 8.94968 	 -108.861 	 
C 	 -73.7093 	 8.64247 	 -109.269 	 
H 	 -70.2422 	 8.24222 	 -109.368 	 
C 	 -72.1373 	 10.2587 	 -108.105 	 
H 	 -71.116 	 10.2268 	 -107.674 	 
H 	 -72.8557 	 10.3258 	 -107.285 	 
C 	 -72.1844 	 11.4765 	 -109.024 	 
H 	 -72.2987 	 12.3184 	 -108.373 	 
H 	 -73.0621 	 11.4478 	 -109.617 	 
C 	 -70.9838 	 11.6762 	 -109.907 	 
H 	 -70.0798 	 11.8411 	 -109.364 	 
H 	 -71.1066 	 12.5049 	 -110.544 	 
H 	 -70.8495 	 10.8007 	 -110.514 	 
H 	 -77.8299 	 11.4263 	 -109.342 	 
H 	 -71.4067 	 6.51857 	 -110.911 	 
*
