! wB97X-D3 SP def2-SVP
%pal
nprocs 24
end

* xyz 0 1
S 	 -135.887 	 5.14494 	 5.51969 	 
C 	 -135.82 	 3.53501 	 4.87528 	 
C 	 -135.593 	 2.61038 	 5.91576 	 
C 	 -135.361 	 3.21658 	 7.1917 	 
C 	 -135.317 	 4.61666 	 7.1196 	 
H 	 -135.157 	 2.63227 	 8.08076 	 
C 	 -135.6 	 1.09394 	 5.68806 	 
H 	 -136.633 	 0.748927 	 5.70497 	 
H 	 -135.1 	 0.735231 	 6.60914 	 
C 	 -134.855 	 0.694843 	 4.42655 	 
H 	 -135.345 	 1.10786 	 3.55306 	 
H 	 -133.889 	 1.05745 	 4.32554 	 
C 	 -134.68 	 -0.896349 	 4.28016 	 
H 	 -133.929 	 -1.28856 	 5.08233 	 
H 	 -135.676 	 -1.47522 	 4.45285 	 
H 	 -134.274 	 -1.2558 	 3.35015 	 
S 	 -134.106 	 6.99686 	 7.59725 	 
C 	 -134.22 	 7.70133 	 9.12582 	 
C 	 -135.082 	 7.05124 	 9.96144 	 
C 	 -135.483 	 5.83421 	 9.38008 	 
C 	 -135.033 	 5.65849 	 8.08986 	 
H 	 -135.369 	 7.35627 	 10.9326 	 
C 	 -136.355 	 4.85702 	 10.1356 	 
H 	 -136.694 	 4.10409 	 9.45531 	 
H 	 -137.273 	 5.28186 	 10.5896 	 
C 	 -135.624 	 4.19488 	 11.3605 	 
H 	 -136.258 	 3.63248 	 12.12 	 
H 	 -135.147 	 4.98809 	 11.9628 	 
C 	 -134.485 	 3.1888 	 11.0621 	 
H 	 -134.225 	 2.7131 	 11.9157 	 
H 	 -133.501 	 3.60238 	 10.789 	 
H 	 -134.8 	 2.47356 	 10.2905 	 
H 	 -135.967 	 3.33381 	 3.75899 	 
H 	 -133.846 	 8.74884 	 9.33598 	 
*
