! wB97X-D3 SP def2-SVP
%pal
nprocs 24
end

* xyz 0 1
S 	 -130.913 	 61.4256 	 -59.3628 	 
C 	 -130.935 	 63.0873 	 -59.9157 	 
C 	 -131.866 	 63.8556 	 -59.236 	 
C 	 -132.711 	 63.0201 	 -58.4466 	 
C 	 -132.39 	 61.6522 	 -58.4666 	 
H 	 -133.62 	 63.3179 	 -57.8744 	 
C 	 -132.084 	 65.335 	 -59.2826 	 
H 	 -131.103 	 65.8927 	 -59.3467 	 
H 	 -132.637 	 65.5855 	 -58.4559 	 
C 	 -132.763 	 65.7393 	 -60.5501 	 
H 	 -132.283 	 65.1243 	 -61.3953 	 
H 	 -133.81 	 65.5109 	 -60.4769 	 
C 	 -132.754 	 67.1963 	 -60.9569 	 
H 	 -133.152 	 67.3431 	 -61.9948 	 
H 	 -133.249 	 67.9092 	 -60.3099 	 
H 	 -131.695 	 67.4931 	 -61.0772 	 
S 	 -133.999 	 59.3961 	 -58.8418 	 
C 	 -134.381 	 58.3693 	 -57.5181 	 
C 	 -133.705 	 58.8283 	 -56.4018 	 
C 	 -132.949 	 59.9967 	 -56.5305 	 
C 	 -133.128 	 60.5158 	 -57.8395 	 
H 	 -133.756 	 58.2348 	 -55.4932 	 
C 	 -132.289 	 60.7509 	 -55.4186 	 
H 	 -131.681 	 61.5117 	 -55.8951 	 
H 	 -131.512 	 60.131 	 -54.8454 	 
C 	 -133.227 	 61.3794 	 -54.3581 	 
H 	 -133.7 	 60.7885 	 -53.6879 	 
H 	 -133.936 	 61.9144 	 -54.8849 	 
C 	 -132.37 	 62.2788 	 -53.4419 	 
H 	 -132.931 	 62.54 	 -52.5123 	 
H 	 -132.05 	 63.1869 	 -53.92 	 
H 	 -131.42 	 61.7417 	 -53.1906 	 
H 	 -130.193 	 63.5351 	 -60.567 	 
H 	 -134.97 	 57.4145 	 -57.644 	 
*
