! wB97X-D3 SP def2-SVP
%pal
nprocs 24
end

* xyz 0 1
S 	 -42.4216 	 17.2098 	 23.6865 	 
C 	 -42.779 	 17.6876 	 25.3097 	 
C 	 -42.1403 	 16.8166 	 26.2011 	 
C 	 -41.5475 	 15.7162 	 25.5042 	 
C 	 -41.5539 	 15.7857 	 24.1467 	 
H 	 -41.064 	 14.8614 	 26.0297 	 
C 	 -42.2548 	 16.813 	 27.7665 	 
H 	 -41.8683 	 17.8034 	 28.0202 	 
H 	 -41.6358 	 15.9962 	 28.2098 	 
C 	 -43.742 	 16.6279 	 28.304 	 
H 	 -44.2236 	 17.5835 	 28.0435 	 
H 	 -44.2201 	 15.8505 	 27.6886 	 
C 	 -43.8084 	 16.3922 	 29.8163 	 
H 	 -44.8374 	 16.201 	 30.0392 	 
H 	 -43.2296 	 15.5353 	 30.0488 	 
H 	 -43.4124 	 17.1602 	 30.5083 	 
S 	 -41.9298 	 14.4045 	 21.8453 	 
C 	 -40.719 	 13.2394 	 21.2871 	 
C 	 -39.6411 	 13.2332 	 22.1595 	 
C 	 -39.6779 	 14.24 	 23.1582 	 
C 	 -40.9271 	 14.8959 	 23.2124 	 
H 	 -38.7736 	 12.5627 	 21.8657 	 
C 	 -38.5335 	 14.543 	 24.0463 	 
H 	 -38.4193 	 13.5682 	 24.4982 	 
H 	 -38.703 	 15.2818 	 24.8401 	 
C 	 -37.219 	 14.9336 	 23.3902 	 
H 	 -37.3994 	 15.824 	 22.7708 	 
H 	 -36.9562 	 14.2531 	 22.5593 	 
C 	 -36.0281 	 15.0953 	 24.3976 	 
H 	 -35.0421 	 15.1653 	 23.9179 	 
H 	 -35.9094 	 14.2966 	 25.0475 	 
H 	 -36.28 	 15.98 	 24.9527 	 
H 	 -43.1785 	 18.622 	 25.6452 	 
H 	 -40.8277 	 12.6757 	 20.4346 	 
*
