! wB97X-D3 SP def2-SVP
%pal
nprocs 24
end

* xyz 0 1
S 	 -129.549 	 75.3819 	 -50.4891 	 
C 	 -129.722 	 75.002 	 -52.1533 	 
C 	 -128.808 	 74.02 	 -52.5303 	 
C 	 -128.09 	 73.5083 	 -51.445 	 
C 	 -128.537 	 74.0159 	 -50.2017 	 
H 	 -127.397 	 72.6578 	 -51.4101 	 
C 	 -128.515 	 73.6342 	 -53.9295 	 
H 	 -127.429 	 73.6681 	 -54.0185 	 
H 	 -128.867 	 74.5317 	 -54.5077 	 
C 	 -128.996 	 72.3092 	 -54.4984 	 
H 	 -130.079 	 72.2338 	 -54.3844 	 
H 	 -128.676 	 72.2365 	 -55.561 	 
C 	 -128.375 	 71.1233 	 -53.7017 	 
H 	 -128.88 	 71.1558 	 -52.7004 	 
H 	 -128.446 	 70.1927 	 -54.1759 	 
H 	 -127.349 	 71.3809 	 -53.6157 	 
S 	 -127.133 	 75.1607 	 -48.1214 	 
C 	 -126.384 	 74.1596 	 -46.8513 	 
C 	 -126.508 	 72.8197 	 -47.2363 	 
C 	 -127.275 	 72.5264 	 -48.3946 	 
C 	 -127.816 	 73.7067 	 -48.9838 	 
H 	 -125.965 	 72.0831 	 -46.6113 	 
C 	 -127.495 	 71.0267 	 -48.8055 	 
H 	 -126.546 	 70.5444 	 -49.0786 	 
H 	 -127.897 	 71.0041 	 -49.8013 	 
C 	 -128.345 	 70.1371 	 -47.8405 	 
H 	 -129.413 	 70.4125 	 -47.8968 	 
H 	 -128.055 	 70.3292 	 -46.8183 	 
C 	 -128.337 	 68.6151 	 -48.1768 	 
H 	 -128.874 	 68.103 	 -47.3198 	 
H 	 -127.33 	 68.3419 	 -48.2512 	 
H 	 -128.864 	 68.4025 	 -49.1662 	 
H 	 -130.277 	 75.5265 	 -52.9249 	 
H 	 -125.854 	 74.4986 	 -45.9887 	 
*
