! wB97X-D3 SP def2-SVP
%pal
nprocs 24
end

* xyz 0 1
S 	 -36.5241 	 -3.94774 	 6.53301 	 
C 	 -36.5366 	 -3.10402 	 8.06806 	 
C 	 -37.3472 	 -3.75059 	 9.01607 	 
C 	 -38.0112 	 -4.87212 	 8.4683 	 
C 	 -37.7063 	 -5.06421 	 7.14796 	 
H 	 -38.6575 	 -5.55059 	 9.01409 	 
C 	 -37.4782 	 -3.38223 	 10.4539 	 
H 	 -36.5127 	 -3.23644 	 10.8333 	 
H 	 -37.8582 	 -4.18569 	 11.0423 	 
C 	 -38.407 	 -2.15546 	 10.7146 	 
H 	 -38.3581 	 -1.36162 	 9.97433 	 
H 	 -39.4712 	 -2.36337 	 10.5773 	 
C 	 -38.1754 	 -1.51306 	 12.0529 	 
H 	 -38.5428 	 -2.22956 	 12.8472 	 
H 	 -37.0847 	 -1.25236 	 12.0678 	 
H 	 -38.7146 	 -0.579146 	 12.1915 	 
S 	 -37.0666 	 -7.15156 	 5.53421 	 
C 	 -38.3031 	 -8.02932 	 4.63389 	 
C 	 -39.5281 	 -7.55123 	 4.87896 	 
C 	 -39.5394 	 -6.43077 	 5.78111 	 
C 	 -38.285 	 -6.10777 	 6.29464 	 
H 	 -40.3814 	 -8.00836 	 4.37616 	 
C 	 -40.8966 	 -5.76478 	 6.06533 	 
H 	 -40.8391 	 -5.13835 	 7.01389 	 
H 	 -41.5383 	 -6.63202 	 6.35349 	 
C 	 -41.5491 	 -5.05344 	 4.90264 	 
H 	 -41.4127 	 -5.67272 	 4.01666 	 
H 	 -40.915 	 -4.17644 	 4.7023 	 
C 	 -42.9844 	 -4.76046 	 5.19781 	 
H 	 -43.1205 	 -3.85763 	 5.89058 	 
H 	 -43.4989 	 -5.52823 	 5.73037 	 
H 	 -43.5937 	 -4.58075 	 4.24989 	 
H 	 -35.8855 	 -2.28726 	 8.38378 	 
H 	 -38.0425 	 -8.81271 	 3.91977 	 
*
