! wB97X-D3 SP def2-SVP
%pal
nprocs 24
end

* xyz 0 1
S 	 -68.3427 	 7.47683 	 -75.8392 	 
C 	 -67.3591 	 8.3996 	 -74.6799 	 
C 	 -68.121 	 9.12789 	 -73.7704 	 
C 	 -69.4976 	 8.71035 	 -73.8616 	 
C 	 -69.7519 	 7.83145 	 -74.8647 	 
H 	 -70.3125 	 9.08481 	 -73.1997 	 
C 	 -67.7355 	 10.2374 	 -72.8306 	 
H 	 -68.1619 	 11.2297 	 -73.2506 	 
H 	 -66.6449 	 10.2274 	 -72.8251 	 
C 	 -68.2571 	 10.0564 	 -71.3415 	 
H 	 -68.0051 	 10.9975 	 -70.8739 	 
H 	 -69.3187 	 9.88373 	 -71.4561 	 
C 	 -67.758 	 8.85752 	 -70.5481 	 
H 	 -68.4757 	 8.71748 	 -69.7626 	 
H 	 -67.6815 	 7.91204 	 -71.1315 	 
H 	 -66.8354 	 9.07648 	 -70.0359 	 
S 	 -71.2756 	 7.70717 	 -77.0821 	 
C 	 -72.9977 	 7.62422 	 -76.9469 	 
C 	 -73.3528 	 7.31481 	 -75.6735 	 
C 	 -72.3183 	 7.30114 	 -74.6855 	 
C 	 -71.0794 	 7.43896 	 -75.3429 	 
H 	 -74.4007 	 7.11897 	 -75.4319 	 
C 	 -72.4699 	 7.23835 	 -73.2163 	 
H 	 -71.5237 	 6.95724 	 -72.7508 	 
H 	 -73.1182 	 6.37614 	 -72.9543 	 
C 	 -73.2248 	 8.40989 	 -72.6063 	 
H 	 -74.1865 	 8.28449 	 -73.0361 	 
H 	 -72.8239 	 9.39322 	 -72.8765 	 
C 	 -73.2875 	 8.43968 	 -71.1477 	 
H 	 -73.3423 	 7.43132 	 -70.7165 	 
H 	 -73.9386 	 9.07041 	 -70.6448 	 
H 	 -72.2505 	 8.6428 	 -70.8786 	 
H 	 -66.2791 	 8.47297 	 -74.7462 	 
H 	 -73.7099 	 7.72268 	 -77.7382 	 
*
