! wB97X-D3 SP def2-SVP
%pal
nprocs 24
end

* xyz 0 1
S 	 -113.602 	 16.8566 	 -9.32622 	 
C 	 -112.672 	 16.0706 	 -8.08218 	 
C 	 -112.805 	 14.7119 	 -8.04154 	 
C 	 -113.717 	 14.2892 	 -9.02515 	 
C 	 -114.277 	 15.3108 	 -9.79964 	 
H 	 -113.966 	 13.3136 	 -9.34262 	 
C 	 -112.049 	 13.7866 	 -7.1209 	 
H 	 -111.327 	 14.2832 	 -6.4869 	 
H 	 -111.307 	 13.2318 	 -7.72554 	 
C 	 -112.913 	 12.6237 	 -6.48587 	 
H 	 -113.447 	 12.2654 	 -7.30203 	 
H 	 -112.346 	 11.7595 	 -6.21028 	 
C 	 -113.905 	 12.9602 	 -5.3309 	 
H 	 -114.738 	 13.4895 	 -5.85765 	 
H 	 -114.448 	 12.079 	 -4.93585 	 
H 	 -113.542 	 13.533 	 -4.49632 	 
S 	 -114.744 	 14.7736 	 -12.5284 	 
C 	 -116.341 	 14.9711 	 -13.1744 	 
C 	 -117.224 	 15.3575 	 -12.2156 	 
C 	 -116.587 	 15.5119 	 -10.9485 	 
C 	 -115.27 	 15.1866 	 -10.8783 	 
H 	 -118.319 	 15.4561 	 -12.3809 	 
C 	 -117.414 	 16.0022 	 -9.68068 	 
H 	 -116.7 	 16.1076 	 -8.89749 	 
H 	 -118.263 	 15.3107 	 -9.41078 	 
C 	 -118 	 17.4456 	 -9.90433 	 
H 	 -118.506 	 17.6451 	 -8.99704 	 
H 	 -118.818 	 17.4441 	 -10.6684 	 
C 	 -116.908 	 18.4944 	 -10.2319 	 
H 	 -117.355 	 19.4982 	 -10.4694 	 
H 	 -116.332 	 18.2881 	 -11.1229 	 
H 	 -116.275 	 18.6214 	 -9.48091 	 
H 	 -111.867 	 16.5398 	 -7.50722 	 
H 	 -116.654 	 14.718 	 -14.1954 	 
*
