! wB97X-D3 SP def2-SVP
%pal
nprocs 24
end

* xyz 0 1
S 	 -75.936 	 10.0172 	 -107.448 	 
C 	 -76.9517 	 10.0824 	 -108.854 	 
C 	 -76.9767 	 8.91339 	 -109.596 	 
C 	 -75.8606 	 8.04713 	 -109.163 	 
C 	 -75.1937 	 8.53849 	 -108.065 	 
H 	 -75.5733 	 7.10392 	 -109.581 	 
C 	 -77.8734 	 8.42994 	 -110.724 	 
H 	 -77.306 	 7.64822 	 -111.281 	 
H 	 -77.8788 	 9.27313 	 -111.408 	 
C 	 -79.2806 	 7.91479 	 -110.297 	 
H 	 -79.1542 	 7.11705 	 -109.559 	 
H 	 -79.9075 	 8.66176 	 -109.901 	 
C 	 -80.081 	 7.21623 	 -111.441 	 
H 	 -79.6798 	 6.21018 	 -111.493 	 
H 	 -81.0855 	 7.30086 	 -111.132 	 
H 	 -80.0479 	 7.75822 	 -112.405 	 
S 	 -74.1752 	 8.17233 	 -105.553 	 
C 	 -72.8164 	 7.05282 	 -105.38 	 
C 	 -72.3446 	 6.61488 	 -106.563 	 
C 	 -73.1428 	 7.069 	 -107.677 	 
C 	 -74.0958 	 7.94983 	 -107.279 	 
H 	 -71.5196 	 5.97435 	 -106.55 	 
C 	 -72.7943 	 6.55852 	 -109.13 	 
H 	 -71.7214 	 6.45281 	 -109.149 	 
H 	 -73.0776 	 7.31113 	 -109.826 	 
C 	 -73.4316 	 5.19696 	 -109.444 	 
H 	 -74.4383 	 5.34599 	 -109.627 	 
H 	 -73.3154 	 4.48242 	 -108.571 	 
C 	 -72.7514 	 4.50188 	 -110.649 	 
H 	 -73.0192 	 4.99436 	 -111.576 	 
H 	 -73.1371 	 3.52897 	 -110.741 	 
H 	 -71.7656 	 4.54264 	 -110.457 	 
H 	 -77.803 	 10.7599 	 -108.862 	 
H 	 -72.4048 	 6.6673 	 -104.437 	 
*
