! wB97X-D3 SP def2-SVP
%pal
nprocs 24
end

* xyz 0 1
S 	 -72.9878 	 8.43649 	 17.0817 	 
C 	 -71.3806 	 9.0016 	 16.7144 	 
C 	 -70.4188 	 7.95225 	 16.8061 	 
C 	 -71.0428 	 6.78334 	 17.4052 	 
C 	 -72.3447 	 7.0189 	 17.8154 	 
H 	 -70.4977 	 5.86169 	 17.6085 	 
C 	 -68.9831 	 7.93834 	 16.2565 	 
H 	 -68.2471 	 8.33918 	 16.9341 	 
H 	 -68.9309 	 8.51533 	 15.2932 	 
C 	 -68.4698 	 6.51164 	 15.9078 	 
H 	 -68.1137 	 6.06857 	 16.8334 	 
H 	 -69.2803 	 5.92198 	 15.298 	 
C 	 -67.18 	 6.66354 	 15.0198 	 
H 	 -67.4655 	 7.2765 	 14.1135 	 
H 	 -66.3311 	 7.12468 	 15.5991 	 
H 	 -66.8417 	 5.75922 	 14.5925 	 
S 	 -74.8388 	 5.8405 	 17.9805 	 
C 	 -75.0572 	 4.37348 	 18.9272 	 
C 	 -73.9188 	 4.12272 	 19.6902 	 
C 	 -72.962 	 5.16049 	 19.5323 	 
C 	 -73.2695 	 6.07381 	 18.4813 	 
H 	 -73.9111 	 3.17397 	 20.2576 	 
C 	 -71.6459 	 5.10429 	 20.2677 	 
H 	 -71.8973 	 4.99174 	 21.2733 	 
H 	 -71.0821 	 6.07436 	 20.1837 	 
C 	 -70.7448 	 3.889 	 19.7769 	 
H 	 -70.3095 	 4.03435 	 18.8292 	 
H 	 -71.3665 	 2.948 	 19.7084 	 
C 	 -69.6008 	 3.62064 	 20.7856 	 
H 	 -69.0003 	 4.49616 	 20.9801 	 
H 	 -68.8716 	 2.87511 	 20.4176 	 
H 	 -70.0032 	 3.31766 	 21.7169 	 
H 	 -71.1792 	 9.96665 	 16.2781 	 
H 	 -75.9867 	 3.93187 	 19.0557 	 
*
