! wB97X-D3 SP def2-SVP
%pal
nprocs 24
end

* xyz 0 1
S 	 -90.5485 	 -6.53426 	 -118.2 	 
C 	 -89.2872 	 -7.70618 	 -118.24 	 
C 	 -89.7219 	 -9.00618 	 -118.332 	 
C 	 -91.1972 	 -9.06119 	 -118.249 	 
C 	 -91.7133 	 -7.81143 	 -118.119 	 
H 	 -91.752 	 -9.90599 	 -118.624 	 
C 	 -88.9561 	 -10.2743 	 -118.415 	 
H 	 -89.3045 	 -11.0667 	 -117.831 	 
H 	 -88.0675 	 -9.91822 	 -117.941 	 
C 	 -88.5517 	 -10.6819 	 -119.803 	 
H 	 -89.3235 	 -10.7328 	 -120.602 	 
H 	 -87.993 	 -9.80164 	 -120.232 	 
C 	 -87.6476 	 -11.8651 	 -119.86 	 
H 	 -86.9235 	 -11.7565 	 -119.085 	 
H 	 -88.2951 	 -12.7742 	 -119.871 	 
H 	 -87.0784 	 -11.7663 	 -120.823 	 
S 	 -93.8414 	 -6.53234 	 -119.401 	 
C 	 -95.3738 	 -6.54942 	 -118.563 	 
C 	 -95.3129 	 -7.27383 	 -117.36 	 
C 	 -94.0813 	 -7.97648 	 -117.158 	 
C 	 -93.1236 	 -7.45802 	 -118.057 	 
H 	 -96.1174 	 -7.3458 	 -116.651 	 
C 	 -93.8814 	 -8.95648 	 -115.985 	 
H 	 -93.8787 	 -8.43442 	 -115.057 	 
H 	 -92.9274 	 -9.41872 	 -116.207 	 
C 	 -95.045 	 -10.0011 	 -115.847 	 
H 	 -94.9134 	 -10.7645 	 -116.566 	 
H 	 -95.9951 	 -9.46231 	 -116.026 	 
C 	 -95.0266 	 -10.7271 	 -114.491 	 
H 	 -94.2337 	 -11.4572 	 -114.438 	 
H 	 -95.9461 	 -11.442 	 -114.367 	 
H 	 -95.2266 	 -10.0331 	 -113.626 	 
H 	 -88.2613 	 -7.58586 	 -118.427 	 
H 	 -96.3093 	 -6.14574 	 -118.871 	 
*
