! wB97X-D3 SP def2-SVP
%pal
nprocs 24
end

* xyz 0 1
S 	 -120.963 	 66.7729 	 -65.7658 	 
C 	 -121.667 	 65.1702 	 -66.115 	 
C 	 -121.561 	 64.3437 	 -64.9896 	 
C 	 -120.999 	 65.0346 	 -63.8253 	 
C 	 -120.771 	 66.3735 	 -64.0568 	 
H 	 -120.844 	 64.6614 	 -62.7748 	 
C 	 -121.924 	 62.8429 	 -64.9571 	 
H 	 -122.174 	 62.3556 	 -65.8927 	 
H 	 -122.863 	 62.6264 	 -64.4325 	 
C 	 -120.828 	 62.0097 	 -64.1627 	 
H 	 -119.834 	 62.2002 	 -64.6012 	 
H 	 -120.802 	 62.3819 	 -63.1649 	 
C 	 -121.137 	 60.5006 	 -64.2226 	 
H 	 -120.477 	 59.9368 	 -63.6042 	 
H 	 -122.097 	 60.1855 	 -63.8326 	 
H 	 -121.042 	 60.0611 	 -65.2372 	 
S 	 -118.497 	 67.7356 	 -63.247 	 
C 	 -118.585 	 68.6846 	 -61.828 	 
C 	 -119.753 	 68.6138 	 -61.1832 	 
C 	 -120.742 	 67.7962 	 -61.8736 	 
C 	 -120.211 	 67.3126 	 -63.0596 	 
H 	 -119.916 	 69.2991 	 -60.37 	 
C 	 -122.079 	 67.4738 	 -61.2954 	 
H 	 -122.745 	 67.1495 	 -62.1431 	 
H 	 -122.524 	 68.4028 	 -60.8322 	 
C 	 -122.12 	 66.2528 	 -60.2817 	 
H 	 -121.624 	 65.3775 	 -60.728 	 
H 	 -123.131 	 66.0315 	 -60.0828 	 
C 	 -121.348 	 66.4766 	 -58.9994 	 
H 	 -121.267 	 65.5476 	 -58.483 	 
H 	 -121.838 	 67.2153 	 -58.371 	 
H 	 -120.333 	 66.7665 	 -59.2095 	 
H 	 -121.794 	 64.7825 	 -67.1023 	 
H 	 -117.747 	 69.1656 	 -61.3052 	 
*
