! wB97X-D3 SP def2-SVP
%pal
nprocs 24
end

* xyz 0 1
S 	 -52.7836 	 -50.8383 	 -78.4003 	 
C 	 -52.8909 	 -51.0047 	 -80.173 	 
C 	 -52.9975 	 -49.7789 	 -80.796 	 
C 	 -52.9901 	 -48.6799 	 -79.8694 	 
C 	 -52.8176 	 -49.0261 	 -78.554 	 
H 	 -52.9539 	 -47.5884 	 -80.1391 	 
C 	 -52.982 	 -49.5578 	 -82.2621 	 
H 	 -52.3708 	 -50.2743 	 -82.8286 	 
H 	 -52.5531 	 -48.5569 	 -82.6137 	 
C 	 -54.3655 	 -49.5941 	 -83.0092 	 
H 	 -54.2221 	 -49.5108 	 -84.091 	 
H 	 -54.8371 	 -50.5803 	 -82.7709 	 
C 	 -55.2737 	 -48.4144 	 -82.6801 	 
H 	 -55.9254 	 -48.6445 	 -81.7596 	 
H 	 -54.704 	 -47.4688 	 -82.5491 	 
H 	 -56.0093 	 -48.2543 	 -83.4732 	 
S 	 -50.8071 	 -48.7318 	 -76.6762 	 
C 	 -50.9941 	 -47.3774 	 -75.4854 	 
C 	 -52.0459 	 -46.546 	 -75.8563 	 
C 	 -52.7975 	 -46.958 	 -77.0043 	 
C 	 -52.2951 	 -48.1768 	 -77.467 	 
H 	 -52.324 	 -45.6559 	 -75.3316 	 
C 	 -54.1292 	 -46.3388 	 -77.4293 	 
H 	 -54.7197 	 -46.3846 	 -76.4978 	 
H 	 -54.689 	 -46.9993 	 -78.0567 	 
C 	 -53.9922 	 -44.9943 	 -78.119 	 
H 	 -53.1018 	 -45.0563 	 -78.7195 	 
H 	 -53.7846 	 -44.2155 	 -77.4402 	 
C 	 -55.0981 	 -44.6551 	 -79.0331 	 
H 	 -54.8218 	 -43.8657 	 -79.7296 	 
H 	 -56.056 	 -44.476 	 -78.6069 	 
H 	 -55.3016 	 -45.5854 	 -79.6229 	 
H 	 -52.8804 	 -51.9077 	 -80.7548 	 
H 	 -50.3346 	 -47.2188 	 -74.5377 	 
*
