! wB97X-D3 SP def2-SVP
%pal
nprocs 24
end

* xyz 0 1
S 	 -143.189 	 7.50152 	 -0.972822 	 
C 	 -142.625 	 8.70695 	 0.111036 	 
C 	 -141.288 	 8.605 	 0.2592 	 
C 	 -140.777 	 7.3902 	 -0.336766 	 
C 	 -141.71 	 6.6529 	 -0.99157 	 
H 	 -139.806 	 7.02917 	 -0.186147 	 
C 	 -140.45 	 9.60095 	 1.09259 	 
H 	 -140.399 	 10.5351 	 0.534502 	 
H 	 -139.421 	 9.33892 	 1.04497 	 
C 	 -140.89 	 9.84386 	 2.49471 	 
H 	 -142.005 	 10.0109 	 2.35075 	 
H 	 -140.811 	 8.9069 	 2.98221 	 
C 	 -140.207 	 10.9216 	 3.37493 	 
H 	 -140.614 	 10.9223 	 4.36299 	 
H 	 -139.187 	 10.7193 	 3.48761 	 
H 	 -140.47 	 11.8816 	 2.83627 	 
S 	 -141.717 	 3.9314 	 -0.420703 	 
C 	 -141.579 	 2.80653 	 -1.84142 	 
C 	 -141.49 	 3.49553 	 -3.0283 	 
C 	 -141.414 	 4.91439 	 -2.88101 	 
C 	 -141.572 	 5.30911 	 -1.49043 	 
H 	 -141.545 	 2.83251 	 -3.94705 	 
C 	 -141.271 	 5.83345 	 -4.06637 	 
H 	 -140.374 	 5.31067 	 -4.56161 	 
H 	 -140.94 	 6.80091 	 -3.72141 	 
C 	 -142.486 	 5.87301 	 -5.05315 	 
H 	 -142.688 	 4.82388 	 -5.45582 	 
H 	 -142.124 	 6.38933 	 -5.94325 	 
C 	 -143.738 	 6.5676 	 -4.55212 	 
H 	 -144.219 	 5.98951 	 -3.651 	 
H 	 -144.52 	 6.73446 	 -5.34867 	 
H 	 -143.571 	 7.4916 	 -4.05872 	 
H 	 -143.18 	 9.48408 	 0.52865 	 
H 	 -141.613 	 1.68909 	 -1.85851 	 
*
