! wB97X-D3 SP def2-SVP
%pal
nprocs 24
end

* xyz 0 1
S 	 -49.1402 	 19.4085 	 31.2198 	 
C 	 -48.7993 	 18.0977 	 30.123 	 
C 	 -48.8477 	 18.5025 	 28.7875 	 
C 	 -49.2351 	 19.8866 	 28.6734 	 
C 	 -49.3415 	 20.5824 	 29.9083 	 
H 	 -49.4475 	 20.3881 	 27.743 	 
C 	 -48.477 	 17.69 	 27.6136 	 
H 	 -47.5186 	 17.2784 	 27.8052 	 
H 	 -48.2871 	 18.3919 	 26.8224 	 
C 	 -49.4551 	 16.5843 	 27.3379 	 
H 	 -49.1322 	 15.8864 	 26.5499 	 
H 	 -49.3941 	 15.931 	 28.2512 	 
C 	 -50.9233 	 16.9923 	 27.0818 	 
H 	 -50.8696 	 17.7497 	 26.3272 	 
H 	 -51.7291 	 16.1618 	 26.9041 	 
H 	 -51.3118 	 17.5371 	 27.8896 	 
S 	 -51.4349 	 22.485 	 30.4723 	 
C 	 -50.9583 	 24.1205 	 30.3704 	 
C 	 -49.5659 	 24.2696 	 30.3982 	 
C 	 -48.873 	 23.0736 	 30.297 	 
C 	 -49.7299 	 22.0149 	 30.1616 	 
H 	 -49.1453 	 25.2239 	 30.5161 	 
C 	 -47.3792 	 23.0407 	 30.1419 	 
H 	 -47.1251 	 23.7835 	 29.3928 	 
H 	 -47.1555 	 22.1997 	 29.6241 	 
C 	 -46.5043 	 23.0871 	 31.414 	 
H 	 -45.5479 	 22.6136 	 31.1255 	 
H 	 -46.9657 	 22.4575 	 32.1068 	 
C 	 -46.2499 	 24.4679 	 31.9415 	 
H 	 -47.029 	 25.1193 	 32.2478 	 
H 	 -45.8395 	 25.0448 	 31.0858 	 
H 	 -45.5169 	 24.355 	 32.6978 	 
H 	 -48.3729 	 17.0855 	 30.2754 	 
H 	 -51.5407 	 24.9967 	 30.6117 	 
*
