! wB97X-D3 SP def2-SVP
%pal
nprocs 24
end

* xyz 0 1
S 	 -132.597 	 30.1917 	 -14.0176 	 
C 	 -131.491 	 28.9511 	 -14.5225 	 
C 	 -132.156 	 27.9769 	 -15.3177 	 
C 	 -133.557 	 28.2086 	 -15.277 	 
C 	 -133.98 	 29.3147 	 -14.5577 	 
H 	 -134.35 	 27.669 	 -15.8593 	 
C 	 -131.418 	 26.9202 	 -16.0717 	 
H 	 -132.221 	 26.4117 	 -16.625 	 
H 	 -130.875 	 26.2198 	 -15.4502 	 
C 	 -130.444 	 27.5366 	 -17.0452 	 
H 	 -130.801 	 28.3981 	 -17.6211 	 
H 	 -129.533 	 27.9239 	 -16.5809 	 
C 	 -129.935 	 26.5593 	 -18.0793 	 
H 	 -129.27 	 27.0557 	 -18.8031 	 
H 	 -129.376 	 25.7549 	 -17.6232 	 
H 	 -130.639 	 26.1649 	 -18.7239 	 
S 	 -135.65 	 31.3717 	 -14.584 	 
C 	 -137.347 	 31.0857 	 -14.3218 	 
C 	 -137.642 	 29.7978 	 -13.8407 	 
C 	 -136.447 	 28.924 	 -13.9563 	 
C 	 -135.367 	 29.7258 	 -14.4188 	 
H 	 -138.646 	 29.5895 	 -13.4854 	 
C 	 -136.456 	 27.374 	 -13.6468 	 
H 	 -136.272 	 27.1998 	 -12.6463 	 
H 	 -135.622 	 26.8922 	 -14.0661 	 
C 	 -137.638 	 26.7238 	 -14.2341 	 
H 	 -137.591 	 26.7659 	 -15.2892 	 
H 	 -138.541 	 27.2734 	 -14.0503 	 
C 	 -137.632 	 25.3018 	 -13.7159 	 
H 	 -137.796 	 25.1891 	 -12.6621 	 
H 	 -136.678 	 24.7633 	 -13.9473 	 
H 	 -138.471 	 24.762 	 -14.1113 	 
H 	 -130.443 	 28.974 	 -14.3689 	 
H 	 -138.084 	 31.8847 	 -14.2527 	 
*
