! wB97X-D3 SP def2-SVP
%pal
nprocs 24
end

* xyz 0 1
S 	 -103.304 	 61.4906 	 -9.83793 	 
C 	 -103.705 	 62.8714 	 -8.82796 	 
C 	 -103.742 	 64.076 	 -9.52179 	 
C 	 -103.237 	 63.8147 	 -10.8749 	 
C 	 -102.925 	 62.547 	 -11.1924 	 
H 	 -103.135 	 64.5751 	 -11.617 	 
C 	 -104.169 	 65.4314 	 -8.94379 	 
H 	 -103.788 	 66.243 	 -9.63438 	 
H 	 -103.771 	 65.5116 	 -7.96703 	 
C 	 -105.655 	 65.5791 	 -8.73649 	 
H 	 -106.115 	 65.7669 	 -9.70658 	 
H 	 -106.14 	 64.6811 	 -8.33246 	 
C 	 -106.013 	 66.7344 	 -7.88404 	 
H 	 -105.812 	 66.6173 	 -6.80676 	 
H 	 -105.755 	 67.7185 	 -8.18502 	 
H 	 -107.056 	 66.8883 	 -8.03378 	 
S 	 -103.472 	 60.9505 	 -13.3779 	 
C 	 -102.182 	 60.7165 	 -14.5655 	 
C 	 -101.129 	 61.5895 	 -14.3663 	 
C 	 -101.258 	 62.3278 	 -13.1157 	 
C 	 -102.435 	 62.0521 	 -12.4385 	 
H 	 -100.366 	 61.6557 	 -15.046 	 
C 	 -100.155 	 63.2499 	 -12.6906 	 
H 	 -100.502 	 64.2701 	 -12.5074 	 
H 	 -99.3974 	 63.4186 	 -13.5412 	 
C 	 -99.2535 	 62.8843 	 -11.5156 	 
H 	 -98.3932 	 63.5501 	 -11.5622 	 
H 	 -99.0055 	 61.806 	 -11.6425 	 
C 	 -99.9622 	 63.2313 	 -10.1803 	 
H 	 -100.83 	 62.6903 	 -9.97062 	 
H 	 -100.344 	 64.2814 	 -10.1443 	 
H 	 -99.239 	 63.2306 	 -9.35408 	 
H 	 -104.02 	 62.7632 	 -7.76707 	 
H 	 -102.382 	 60.1373 	 -15.4846 	 
*
