! wB97X-D3 SP def2-SVP
%pal
nprocs 24
end

* xyz 0 1
S 	 -62.2732 	 21.7215 	 20.2039 	 
C 	 -63.3084 	 21.0573 	 21.4523 	 
C 	 -62.9186 	 19.7407 	 21.7019 	 
C 	 -61.7886 	 19.3312 	 20.9054 	 
C 	 -61.2077 	 20.3045 	 20.1283 	 
H 	 -61.3259 	 18.3922 	 20.7991 	 
C 	 -63.6547 	 18.877 	 22.678 	 
H 	 -64.0023 	 17.9487 	 22.2711 	 
H 	 -64.5116 	 19.3741 	 23.0619 	 
C 	 -62.8734 	 18.4648 	 23.8838 	 
H 	 -61.9528 	 17.8766 	 23.6864 	 
H 	 -62.4691 	 19.3544 	 24.2748 	 
C 	 -63.6407 	 17.7176 	 24.9522 	 
H 	 -64.3258 	 18.2949 	 25.4962 	 
H 	 -64.1448 	 16.9023 	 24.4822 	 
H 	 -62.8854 	 17.2622 	 25.6119 	 
S 	 -60.3434 	 20.2035 	 17.5063 	 
C 	 -58.6525 	 19.8297 	 17.1894 	 
C 	 -57.909 	 19.6224 	 18.3475 	 
C 	 -58.7067 	 19.8786 	 19.5065 	 
C 	 -60.0439 	 20.1941 	 19.2237 	 
H 	 -56.8478 	 19.3821 	 18.4091 	 
C 	 -58.0797 	 19.8395 	 20.8083 	 
H 	 -58.0064 	 20.8112 	 21.2467 	 
H 	 -57.0127 	 19.7126 	 20.5566 	 
C 	 -58.5758 	 18.7356 	 21.8497 	 
H 	 -59.6052 	 19.0024 	 22.1423 	 
H 	 -57.887 	 18.8344 	 22.6561 	 
C 	 -58.4469 	 17.2787 	 21.3598 	 
H 	 -59.0031 	 17.1202 	 20.4244 	 
H 	 -58.7965 	 16.534 	 21.9844 	 
H 	 -57.4301 	 17.0778 	 21.0738 	 
H 	 -64.1032 	 21.568 	 21.9505 	 
H 	 -58.303 	 19.4775 	 16.1839 	 
*
