! wB97X-D3 SP def2-SVP
%pal
nprocs 24
end

* xyz 0 1
S 	 -51.4903 	 -50.6582 	 -79.7428 	 
C 	 -51.4928 	 -51.0561 	 -81.4168 	 
C 	 -51.7531 	 -49.9201 	 -82.2474 	 
C 	 -52.084 	 -48.7837 	 -81.4249 	 
C 	 -51.7522 	 -48.9709 	 -80.0849 	 
H 	 -52.2232 	 -47.7614 	 -81.7124 	 
C 	 -51.5674 	 -49.9358 	 -83.7789 	 
H 	 -52.5123 	 -49.7121 	 -84.3164 	 
H 	 -51.3481 	 -50.9217 	 -84.2212 	 
C 	 -50.6419 	 -48.873 	 -84.2905 	 
H 	 -50.5887 	 -48.8239 	 -85.3677 	 
H 	 -51.0696 	 -47.9155 	 -84.0155 	 
C 	 -49.1938 	 -49.0489 	 -83.9159 	 
H 	 -48.7679 	 -50.018 	 -84.1923 	 
H 	 -48.5765 	 -48.261 	 -84.3129 	 
H 	 -49.1628 	 -48.9679 	 -82.8335 	 
S 	 -50.8092 	 -47.3543 	 -77.9719 	 
C 	 -52.0802 	 -46.5533 	 -76.9134 	 
C 	 -53.3182 	 -46.8406 	 -77.3474 	 
C 	 -53.3912 	 -47.7425 	 -78.4849 	 
C 	 -52.1411 	 -48.0432 	 -78.9496 	 
H 	 -54.0553 	 -46.3247 	 -76.7569 	 
C 	 -54.7671 	 -48.0858 	 -79.0228 	 
H 	 -55.2041 	 -48.6371 	 -78.1693 	 
H 	 -54.7407 	 -48.8072 	 -79.7868 	 
C 	 -55.685 	 -46.9493 	 -79.4048 	 
H 	 -55.1918 	 -46.3911 	 -80.2337 	 
H 	 -55.8075 	 -46.1898 	 -78.6405 	 
C 	 -57.0571 	 -47.4105 	 -79.9047 	 
H 	 -56.903 	 -48.1344 	 -80.7431 	 
H 	 -57.815 	 -46.609 	 -80.2229 	 
H 	 -57.5521 	 -47.8849 	 -79.1055 	 
H 	 -51.2066 	 -52.0613 	 -81.7368 	 
H 	 -51.826 	 -45.8812 	 -76.1654 	 
*
