! wB97X-D3 SP def2-SVP
%pal
nprocs 24
end

* xyz 0 1
S 	 -130.423 	 29.3198 	 -14.7553 	 
C 	 -129.789 	 28.8194 	 -16.3423 	 
C 	 -130.547 	 27.7783 	 -16.7566 	 
C 	 -131.461 	 27.254 	 -15.7898 	 
C 	 -131.418 	 27.921 	 -14.5919 	 
H 	 -132.06 	 26.4323 	 -15.88 	 
C 	 -130.357 	 27.1086 	 -18.1571 	 
H 	 -129.6 	 27.7847 	 -18.7191 	 
H 	 -131.236 	 27.1216 	 -18.6704 	 
C 	 -129.638 	 25.7099 	 -18.0978 	 
H 	 -130.244 	 25.0468 	 -17.4504 	 
H 	 -129.645 	 25.1866 	 -19.0817 	 
C 	 -128.219 	 25.7525 	 -17.6126 	 
H 	 -127.547 	 26.2331 	 -18.3587 	 
H 	 -128.085 	 26.1978 	 -16.6847 	 
H 	 -127.729 	 24.8243 	 -17.3988 	 
S 	 -131.176 	 27.7084 	 -11.839 	 
C 	 -132.569 	 27.0762 	 -10.9772 	 
C 	 -133.676 	 26.8828 	 -11.7298 	 
C 	 -133.393 	 27.1602 	 -13.1008 	 
C 	 -132.089 	 27.6504 	 -13.3402 	 
H 	 -134.603 	 26.6092 	 -11.2595 	 
C 	 -134.582 	 27.0753 	 -14.0588 	 
H 	 -135.19 	 26.2815 	 -13.6892 	 
H 	 -134.31 	 26.631 	 -14.9721 	 
C 	 -135.512 	 28.3205 	 -14.2834 	 
H 	 -134.865 	 29.1296 	 -14.6616 	 
H 	 -135.922 	 28.6398 	 -13.3208 	 
C 	 -136.764 	 27.9875 	 -15.1243 	 
H 	 -137.431 	 28.8394 	 -15.4432 	 
H 	 -137.34 	 27.2372 	 -14.4915 	 
H 	 -136.415 	 27.4599 	 -16.0457 	 
H 	 -129.116 	 29.3154 	 -16.9958 	 
H 	 -132.575 	 26.9679 	 -9.93149 	 
*
