! wB97X-D3 SP def2-SVP
%pal
nprocs 24
end

* xyz 0 1
S 	 -34.324 	 -14.5294 	 15.2391 	 
C 	 -34.6322 	 -13.3732 	 16.4686 	 
C 	 -34.8537 	 -12.0917 	 15.9975 	 
C 	 -34.7861 	 -12.054 	 14.5575 	 
C 	 -34.5143 	 -13.318 	 14.0223 	 
H 	 -34.87 	 -11.1787 	 13.9884 	 
C 	 -35.0268 	 -10.858 	 16.8325 	 
H 	 -34.2413 	 -10.0774 	 16.6237 	 
H 	 -34.8756 	 -11.1533 	 17.8154 	 
C 	 -36.4742 	 -10.275 	 16.8004 	 
H 	 -36.4613 	 -9.50817 	 17.5794 	 
H 	 -36.6856 	 -9.75327 	 15.9077 	 
C 	 -37.684 	 -11.2318 	 16.9478 	 
H 	 -38.6213 	 -10.7815 	 16.8284 	 
H 	 -37.6468 	 -12.1251 	 16.3177 	 
H 	 -37.6761 	 -11.6995 	 17.9709 	 
S 	 -35.3944 	 -15.137 	 12.1179 	 
C 	 -35.1582 	 -14.8342 	 10.3685 	 
C 	 -34.4369 	 -13.64 	 10.2626 	 
C 	 -34.2245 	 -12.9792 	 11.4822 	 
C 	 -34.6221 	 -13.6404 	 12.6276 	 
H 	 -34.14 	 -13.2655 	 9.2933 	 
C 	 -33.3771 	 -11.7646 	 11.4517 	 
H 	 -33.3224 	 -11.4068 	 12.4902 	 
H 	 -33.9959 	 -11.0763 	 10.8912 	 
C 	 -32.0077 	 -11.9859 	 10.8805 	 
H 	 -32.0399 	 -12.5083 	 9.89341 	 
H 	 -31.5535 	 -12.6623 	 11.4814 	 
C 	 -31.2812 	 -10.6656 	 10.6491 	 
H 	 -30.3146 	 -10.9883 	 10.3041 	 
H 	 -31.1539 	 -10.0452 	 11.6152 	 
H 	 -31.5726 	 -9.97551 	 9.90178 	 
H 	 -34.606 	 -13.5642 	 17.4965 	 
H 	 -35.3984 	 -15.3828 	 9.48824 	 
*
