! wB97X-D3 SP def2-SVP
%pal
nprocs 24
end

* xyz 0 1
S 	 -125.562 	 63.1732 	 -58.6306 	 
C 	 -124.387 	 64.3575 	 -58.0779 	 
C 	 -123.502 	 63.8095 	 -57.1093 	 
C 	 -123.746 	 62.3895 	 -56.9134 	 
C 	 -124.858 	 61.9166 	 -57.5672 	 
H 	 -123.138 	 61.7022 	 -56.3505 	 
C 	 -122.389 	 64.6168 	 -56.4982 	 
H 	 -122.123 	 65.4596 	 -57.2407 	 
H 	 -121.509 	 63.9493 	 -56.3573 	 
C 	 -122.778 	 65.1939 	 -55.0967 	 
H 	 -123.016 	 64.4189 	 -54.3567 	 
H 	 -121.919 	 65.551 	 -54.6229 	 
C 	 -123.851 	 66.2395 	 -55.1367 	 
H 	 -124.686 	 65.8749 	 -55.771 	 
H 	 -124.214 	 66.432 	 -54.1965 	 
H 	 -123.482 	 67.1594 	 -55.5748 	 
S 	 -125.465 	 59.8848 	 -59.3648 	 
C 	 -125.644 	 58.2484 	 -58.6717 	 
C 	 -125.688 	 58.2284 	 -57.2944 	 
C 	 -125.349 	 59.5318 	 -56.7956 	 
C 	 -125.212 	 60.5318 	 -57.7208 	 
H 	 -126.069 	 57.3403 	 -56.8008 	 
C 	 -125.196 	 59.736 	 -55.2933 	 
H 	 -125.487 	 60.7896 	 -55.0844 	 
H 	 -124.105 	 59.6338 	 -55.0851 	 
C 	 -126.079 	 58.9558 	 -54.2916 	 
H 	 -126.037 	 57.8198 	 -54.5853 	 
H 	 -127.091 	 59.2773 	 -54.5364 	 
C 	 -125.799 	 59.2592 	 -52.8177 	 
H 	 -126.099 	 60.2759 	 -52.5583 	 
H 	 -124.752 	 59.1652 	 -52.723 	 
H 	 -126.247 	 58.5035 	 -52.1762 	 
H 	 -124.143 	 65.3442 	 -58.4473 	 
H 	 -126.014 	 57.4135 	 -59.2315 	 
*
