! wB97X-D3 SP def2-SVP
%pal
nprocs 24
end

* xyz 0 1
S 	 -50.2607 	 -3.23714 	 -17.0878 	 
C 	 -51.3577 	 -2.90325 	 -18.413 	 
C 	 -52.6014 	 -2.68238 	 -17.9635 	 
C 	 -52.6409 	 -2.47434 	 -16.5567 	 
C 	 -51.4555 	 -2.65648 	 -15.9204 	 
H 	 -53.4766 	 -2.20545 	 -15.9517 	 
C 	 -53.8292 	 -2.73047 	 -18.8687 	 
H 	 -54.6692 	 -2.93396 	 -18.1318 	 
H 	 -53.8916 	 -3.65755 	 -19.4566 	 
C 	 -53.9043 	 -1.55763 	 -19.7227 	 
H 	 -53.7594 	 -0.716561 	 -19.0179 	 
H 	 -53.0609 	 -1.48569 	 -20.4486 	 
C 	 -55.185 	 -1.31292 	 -20.5145 	 
H 	 -56.0672 	 -1.30924 	 -19.9555 	 
H 	 -55.049 	 -0.377928 	 -21.0354 	 
H 	 -55.2292 	 -2.10468 	 -21.2612 	 
S 	 -51.2444 	 -4.2196 	 -13.5759 	 
C 	 -51.183 	 -3.46987 	 -12.0125 	 
C 	 -51.0116 	 -2.12031 	 -12.1334 	 
C 	 -51.1236 	 -1.63138 	 -13.4855 	 
C 	 -51.2774 	 -2.67979 	 -14.4195 	 
H 	 -51.0406 	 -1.44864 	 -11.2733 	 
C 	 -51.0605 	 -0.195689 	 -13.9507 	 
H 	 -51.385 	 -0.0925685 	 -14.958 	 
H 	 -50.0243 	 0.0584341 	 -13.9533 	 
C 	 -51.7494 	 0.905065 	 -13.0344 	 
H 	 -51.6844 	 1.79003 	 -13.5824 	 
H 	 -51.1649 	 1.03353 	 -12.1309 	 
C 	 -53.1636 	 0.580034 	 -12.5724 	 
H 	 -53.6727 	 0.633119 	 -13.5278 	 
H 	 -53.7354 	 1.26608 	 -11.9204 	 
H 	 -53.3109 	 -0.333212 	 -12.0005 	 
H 	 -51.1782 	 -2.79983 	 -19.4152 	 
H 	 -51.1372 	 -3.97809 	 -11.1085 	 
*
