! wB97X-D3 SP def2-SVP
%pal
nprocs 24
end

* xyz 0 1
S 	 -48.5408 	 14.1996 	 23.0057 	 
C 	 -50.0188 	 13.5795 	 23.8186 	 
C 	 -51.1829 	 14.1039 	 23.2881 	 
C 	 -50.8705 	 15.1525 	 22.39 	 
C 	 -49.5215 	 15.3185 	 22.0647 	 
H 	 -51.5684 	 15.8033 	 21.8811 	 
C 	 -52.5474 	 13.7351 	 23.8521 	 
H 	 -52.5675 	 13.9087 	 24.9177 	 
H 	 -52.5924 	 12.6652 	 23.7782 	 
C 	 -53.7287 	 14.3135 	 23.1464 	 
H 	 -53.8137 	 15.3247 	 23.2621 	 
H 	 -53.4958 	 14.1607 	 22.0442 	 
C 	 -55.0766 	 13.6961 	 23.5614 	 
H 	 -55.0947 	 13.4955 	 24.5983 	 
H 	 -55.8021 	 14.4273 	 23.2228 	 
H 	 -55.212 	 12.7199 	 23.1101 	 
S 	 -47.7519 	 15.121 	 19.8845 	 
C 	 -47.5431 	 16.5018 	 18.7848 	 
C 	 -48.2412 	 17.5743 	 19.2722 	 
C 	 -48.9123 	 17.3417 	 20.5317 	 
C 	 -48.9779 	 15.9784 	 20.8657 	 
H 	 -48.1651 	 18.4571 	 18.7535 	 
C 	 -49.8124 	 18.4218 	 21.1337 	 
H 	 -50.7198 	 17.9411 	 21.5644 	 
H 	 -50.3787 	 19.0289 	 20.4443 	 
C 	 -49.3292 	 19.2157 	 22.3028 	 
H 	 -49.1122 	 18.399 	 23.0331 	 
H 	 -50.1545 	 19.74 	 22.8008 	 
C 	 -48.1414 	 20.0596 	 22.1139 	 
H 	 -47.3266 	 19.2643 	 21.9233 	 
H 	 -47.761 	 20.5987 	 23.041 	 
H 	 -48.0771 	 20.8287 	 21.3363 	 
H 	 -50.0528 	 12.838 	 24.5865 	 
H 	 -46.8972 	 16.4606 	 17.8986 	 
*
