! wB97X-D3 SP def2-SVP
%pal
nprocs 24
end

* xyz 0 1
S 	 -105.04 	 58.8445 	 -3.65735 	 
C 	 -104.696 	 60.5127 	 -3.49837 	 
C 	 -104.886 	 61.1758 	 -4.65209 	 
C 	 -105.507 	 60.4465 	 -5.64997 	 
C 	 -105.596 	 59.1141 	 -5.29137 	 
H 	 -105.845 	 60.7815 	 -6.61133 	 
C 	 -104.635 	 62.6416 	 -4.86434 	 
H 	 -104.06 	 63.0449 	 -4.02306 	 
H 	 -105.608 	 63.1839 	 -4.94925 	 
C 	 -103.822 	 63.0429 	 -6.0604 	 
H 	 -102.763 	 62.6529 	 -6.02594 	 
H 	 -104.156 	 62.6872 	 -7.02716 	 
C 	 -103.58 	 64.5278 	 -5.93376 	 
H 	 -103.092 	 64.8377 	 -6.91625 	 
H 	 -104.524 	 65.0449 	 -5.83443 	 
H 	 -102.948 	 64.9341 	 -5.11754 	 
S 	 -105.073 	 57.1054 	 -7.08609 	 
C 	 -106.343 	 56.1593 	 -7.81541 	 
C 	 -107.558 	 56.584 	 -7.33729 	 
C 	 -107.476 	 57.6261 	 -6.36585 	 
C 	 -106.173 	 58.1052 	 -6.2089 	 
H 	 -108.459 	 56.0046 	 -7.65023 	 
C 	 -108.635 	 58.1921 	 -5.5055 	 
H 	 -108.272 	 58.3407 	 -4.44137 	 
H 	 -109.367 	 57.4609 	 -5.33459 	 
C 	 -109.295 	 59.5219 	 -5.8477 	 
H 	 -109.846 	 59.4522 	 -6.80781 	 
H 	 -108.588 	 60.311 	 -5.98879 	 
C 	 -110.437 	 59.8245 	 -4.97234 	 
H 	 -109.995 	 60.0351 	 -3.946 	 
H 	 -111.254 	 59.0948 	 -4.88634 	 
H 	 -110.971 	 60.7864 	 -5.20471 	 
H 	 -104.264 	 60.9743 	 -2.61585 	 
H 	 -106.185 	 55.2722 	 -8.49297 	 
*
