! wB97X-D3 SP def2-SVP
%pal
nprocs 24
end

* xyz 0 1
S 	 -109.994 	 52.8939 	 -78.3858 	 
C 	 -111.196 	 52.5577 	 -79.5772 	 
C 	 -112.129 	 51.6863 	 -79.1429 	 
C 	 -111.979 	 51.4019 	 -77.7504 	 
C 	 -110.885 	 52.023 	 -77.2016 	 
H 	 -112.703 	 50.8582 	 -77.2008 	 
C 	 -113.366 	 51.1874 	 -79.906 	 
H 	 -113.831 	 51.9657 	 -80.5426 	 
H 	 -114.148 	 50.9485 	 -79.2118 	 
C 	 -113.208 	 49.8676 	 -80.6719 	 
H 	 -112.829 	 49.0725 	 -80.0836 	 
H 	 -114.138 	 49.5513 	 -81.1409 	 
C 	 -112.268 	 49.9324 	 -81.8458 	 
H 	 -112.73 	 50.4889 	 -82.7382 	 
H 	 -111.412 	 50.4671 	 -81.6605 	 
H 	 -111.872 	 48.9742 	 -82.1708 	 
S 	 -108.721 	 51.364 	 -75.7312 	 
C 	 -108.779 	 51.4173 	 -73.9904 	 
C 	 -110.04 	 51.7331 	 -73.5449 	 
C 	 -110.816 	 52.2314 	 -74.6048 	 
C 	 -110.303 	 51.9711 	 -75.8486 	 
H 	 -110.218 	 51.7517 	 -72.5016 	 
C 	 -112.109 	 52.9291 	 -74.3207 	 
H 	 -112.712 	 52.29 	 -73.7273 	 
H 	 -112.594 	 53.0363 	 -75.2801 	 
C 	 -111.988 	 54.3485 	 -73.7188 	 
H 	 -111.171 	 54.6841 	 -74.3131 	 
H 	 -111.713 	 54.392 	 -72.699 	 
C 	 -113.375 	 55.1467 	 -73.8932 	 
H 	 -113.814 	 55.0173 	 -74.9343 	 
H 	 -113.391 	 56.1789 	 -73.6004 	 
H 	 -114.109 	 54.6669 	 -73.1946 	 
H 	 -111.139 	 52.8896 	 -80.5902 	 
H 	 -108.073 	 51.0501 	 -73.2795 	 
*
