! wB97X-D3 SP def2-SVP
%pal
nprocs 24
end

* xyz 0 1
S 	 -82.9756 	 -42.2044 	 -72.9974 	 
C 	 -83.6201 	 -42.3246 	 -74.5666 	 
C 	 -82.7413 	 -41.8428 	 -75.5471 	 
C 	 -81.6136 	 -41.1547 	 -74.8952 	 
C 	 -81.5066 	 -41.3187 	 -73.4968 	 
H 	 -80.8637 	 -40.6372 	 -75.537 	 
C 	 -83.0203 	 -41.8433 	 -77.0395 	 
H 	 -83.1501 	 -40.7916 	 -77.3974 	 
H 	 -83.972 	 -42.3379 	 -77.166 	 
C 	 -81.9425 	 -42.5518 	 -77.8886 	 
H 	 -82.1587 	 -42.4299 	 -78.9311 	 
H 	 -81.0845 	 -42.0586 	 -77.6349 	 
C 	 -81.9751 	 -44.1106 	 -77.674 	 
H 	 -82.8583 	 -44.4388 	 -78.1512 	 
H 	 -81.2315 	 -44.6491 	 -78.26 	 
H 	 -82.0959 	 -44.3901 	 -76.6747 	 
S 	 -80.9136 	 -40.2845 	 -71.1134 	 
C 	 -79.2302 	 -40.1639 	 -70.5486 	 
C 	 -78.359 	 -40.6855 	 -71.4917 	 
C 	 -78.9713 	 -41.1478 	 -72.6302 	 
C 	 -80.4186 	 -41.0474 	 -72.5821 	 
H 	 -77.3359 	 -40.6184 	 -71.2977 	 
C 	 -78.1928 	 -41.7988 	 -73.7826 	 
H 	 -77.1036 	 -41.5997 	 -73.6259 	 
H 	 -78.5841 	 -41.1563 	 -74.5972 	 
C 	 -78.4939 	 -43.2689 	 -74.1286 	 
H 	 -79.5372 	 -43.4551 	 -74.3844 	 
H 	 -78.3026 	 -43.8784 	 -73.3039 	 
C 	 -77.6293 	 -43.9204 	 -75.2715 	 
H 	 -77.9502 	 -43.6669 	 -76.2676 	 
H 	 -77.8042 	 -44.9541 	 -75.2193 	 
H 	 -76.541 	 -43.7838 	 -75.2598 	 
H 	 -84.5695 	 -42.7813 	 -74.8214 	 
H 	 -78.9125 	 -39.8418 	 -69.6117 	 
*
