! wB97X-D3 SP def2-SVP
%pal
nprocs 24
end

* xyz 0 1
S 	 -48.8184 	 1.5019 	 -17.7366 	 
C 	 -48.5655 	 0.345857 	 -18.9952 	 
C 	 -48.1572 	 -0.919402 	 -18.4902 	 
C 	 -48.1273 	 -0.990912 	 -17.0719 	 
C 	 -48.3915 	 0.268693 	 -16.5293 	 
H 	 -47.8392 	 -1.82621 	 -16.536 	 
C 	 -47.8309 	 -2.12137 	 -19.3237 	 
H 	 -47.738 	 -3.00038 	 -18.6873 	 
H 	 -46.825 	 -1.81526 	 -19.6814 	 
C 	 -48.8146 	 -2.46969 	 -20.549 	 
H 	 -49.8032 	 -2.42419 	 -20.208 	 
H 	 -48.5562 	 -1.76743 	 -21.3384 	 
C 	 -48.6203 	 -3.91996 	 -21.0402 	 
H 	 -49.2424 	 -4.15095 	 -21.9009 	 
H 	 -47.6174 	 -4.00186 	 -21.3587 	 
H 	 -48.7591 	 -4.63479 	 -20.2438 	 
S 	 -47.8824 	 2.15491 	 -14.5699 	 
C 	 -48.133 	 1.71287 	 -12.9259 	 
C 	 -48.8208 	 0.496225 	 -12.8052 	 
C 	 -48.8455 	 -0.221411 	 -14.0539 	 
C 	 -48.4086 	 0.57519 	 -15.0899 	 
H 	 -49.2527 	 0.301913 	 -11.8336 	 
C 	 -49.5321 	 -1.57762 	 -14.2003 	 
H 	 -48.7993 	 -2.22274 	 -13.821 	 
H 	 -49.5633 	 -1.7198 	 -15.2329 	 
C 	 -50.9656 	 -1.69612 	 -13.6457 	 
H 	 -51.518 	 -0.903515 	 -14.1428 	 
H 	 -50.9839 	 -1.50662 	 -12.5864 	 
C 	 -51.8164 	 -2.9277 	 -14.0816 	 
H 	 -52.0801 	 -2.87231 	 -15.1249 	 
H 	 -52.754 	 -2.93156 	 -13.5688 	 
H 	 -51.421 	 -3.91876 	 -14.0289 	 
H 	 -48.6541 	 0.655103 	 -19.9898 	 
H 	 -47.9703 	 2.41308 	 -12.0708 	 
*
