! wB97X-D3 SP def2-SVP
%pal
nprocs 24
end

* xyz 0 1
S 	 -98.1694 	 -0.674844 	 -115.647 	 
C 	 -97.5395 	 -1.52938 	 -117.055 	 
C 	 -98.0141 	 -0.958855 	 -118.209 	 
C 	 -98.6567 	 0.311718 	 -118.011 	 
C 	 -98.7911 	 0.635337 	 -116.685 	 
H 	 -98.9931 	 0.998114 	 -118.786 	 
C 	 -97.6013 	 -1.47188 	 -119.601 	 
H 	 -96.6072 	 -1.82808 	 -119.643 	 
H 	 -97.6129 	 -0.567824 	 -120.197 	 
C 	 -98.5332 	 -2.59664 	 -120.279 	 
H 	 -99.5766 	 -2.31387 	 -120.172 	 
H 	 -98.3706 	 -2.7381 	 -121.272 	 
C 	 -98.3531 	 -4.02467 	 -119.753 	 
H 	 -97.3328 	 -4.25743 	 -120.023 	 
H 	 -98.4247 	 -4.2168 	 -118.612 	 
H 	 -98.9468 	 -4.81542 	 -120.324 	 
S 	 -98.6696 	 2.55681 	 -114.817 	 
C 	 -99.7545 	 4.01445 	 -114.903 	 
C 	 -100.489 	 3.97494 	 -116.021 	 
C 	 -100.329 	 2.76198 	 -116.794 	 
C 	 -99.3819 	 1.89663 	 -116.265 	 
H 	 -101.297 	 4.70046 	 -116.106 	 
C 	 -101.034 	 2.52151 	 -118.108 	 
H 	 -101.354 	 1.45426 	 -118.168 	 
H 	 -100.398 	 2.71596 	 -118.973 	 
C 	 -102.289 	 3.42491 	 -118.451 	 
H 	 -102.089 	 4.48217 	 -118.541 	 
H 	 -103.022 	 3.16534 	 -117.648 	 
C 	 -102.931 	 2.95797 	 -119.749 	 
H 	 -103.894 	 3.48382 	 -119.807 	 
H 	 -103.174 	 1.87404 	 -119.864 	 
H 	 -102.411 	 3.38741 	 -120.631 	 
H 	 -97.065 	 -2.50494 	 -117.133 	 
H 	 -99.9092 	 4.67341 	 -114.11 	 
*
