! wB97X-D3 SP def2-SVP
%pal
nprocs 24
end

* xyz 0 1
S 	 -39.6173 	 -6.53817 	 5.68048 	 
C 	 -40.507 	 -7.79527 	 6.50363 	 
C 	 -41.5993 	 -7.2345 	 7.14287 	 
C 	 -41.7056 	 -5.83402 	 6.88651 	 
C 	 -40.7887 	 -5.3111 	 6.0691 	 
H 	 -42.3911 	 -5.09694 	 7.18734 	 
C 	 -42.4838 	 -8.00761 	 8.1065 	 
H 	 -42.7672 	 -8.81615 	 7.44013 	 
H 	 -43.3547 	 -7.48187 	 8.27568 	 
C 	 -41.871 	 -8.39158 	 9.43557 	 
H 	 -42.443 	 -9.14796 	 9.96282 	 
H 	 -40.8466 	 -8.86692 	 9.37038 	 
C 	 -41.8355 	 -7.30742 	 10.5772 	 
H 	 -42.8106 	 -7.17441 	 11.0702 	 
H 	 -41.0434 	 -7.54084 	 11.2867 	 
H 	 -41.5611 	 -6.36157 	 10.0715 	 
S 	 -41.5097 	 -3.00488 	 4.70478 	 
C 	 -40.4951 	 -1.63526 	 4.84978 	 
C 	 -39.4668 	 -1.85658 	 5.72501 	 
C 	 -39.4928 	 -3.13544 	 6.34822 	 
C 	 -40.5245 	 -3.94226 	 5.81379 	 
H 	 -38.8627 	 -0.987771 	 5.95429 	 
C 	 -38.5558 	 -3.44577 	 7.46585 	 
H 	 -37.6575 	 -2.99432 	 7.14533 	 
H 	 -38.4186 	 -4.5471 	 7.43739 	 
C 	 -38.933 	 -2.73045 	 8.80124 	 
H 	 -39.9132 	 -3.02146 	 9.10451 	 
H 	 -38.8778 	 -1.67352 	 8.63661 	 
C 	 -37.941 	 -3.04941 	 9.89143 	 
H 	 -37.5754 	 -4.09225 	 9.75131 	 
H 	 -38.2966 	 -3.11454 	 10.9015 	 
H 	 -37.0603 	 -2.43972 	 9.97656 	 
H 	 -40.4545 	 -8.83968 	 6.56947 	 
H 	 -40.8081 	 -0.631458 	 4.57407 	 
*
