! wB97X-D3 SP def2-SVP
%pal
nprocs 24
end

* xyz 0 1
S 	 -46.3075 	 -5.05228 	 20.9158 	 
C 	 -46.6275 	 -3.34899 	 20.8223 	 
C 	 -45.7013 	 -2.76155 	 19.9745 	 
C 	 -44.7925 	 -3.72294 	 19.4185 	 
C 	 -44.8981 	 -4.94456 	 19.956 	 
H 	 -44.0246 	 -3.43002 	 18.7299 	 
C 	 -45.6791 	 -1.24003 	 19.5799 	 
H 	 -44.6579 	 -1.01201 	 19.3051 	 
H 	 -46.0023 	 -0.626089 	 20.2846 	 
C 	 -46.4692 	 -0.871311 	 18.2556 	 
H 	 -46.1574 	 -1.53784 	 17.4988 	 
H 	 -47.4748 	 -1.0393 	 18.3757 	 
C 	 -46.2297 	 0.562413 	 17.8387 	 
H 	 -46.5879 	 1.31925 	 18.4582 	 
H 	 -45.2163 	 0.731137 	 17.5273 	 
H 	 -46.7332 	 0.684728 	 16.8734 	 
S 	 -44.582 	 -7.63259 	 20.3026 	 
C 	 -43.1499 	 -8.37277 	 19.6896 	 
C 	 -42.1755 	 -7.43765 	 19.3898 	 
C 	 -42.5808 	 -6.08222 	 19.4955 	 
C 	 -43.9672 	 -6.06082 	 19.9183 	 
H 	 -41.2611 	 -7.85467 	 19.0024 	 
C 	 -41.7268 	 -4.98048 	 18.9944 	 
H 	 -41.8281 	 -4.14221 	 19.6148 	 
H 	 -41.9115 	 -4.74209 	 17.9287 	 
C 	 -40.1901 	 -5.14646 	 18.8398 	 
H 	 -40.1054 	 -6.08494 	 18.3679 	 
H 	 -39.8064 	 -5.26147 	 19.8627 	 
C 	 -39.485 	 -3.93348 	 18.1764 	 
H 	 -39.4964 	 -3.03169 	 18.7737 	 
H 	 -39.8623 	 -3.61707 	 17.2034 	 
H 	 -38.5331 	 -4.21562 	 18.0635 	 
H 	 -47.4829 	 -2.77878 	 21.2302 	 
H 	 -42.8906 	 -9.46372 	 19.6837 	 
*
