! wB97X-D3 SP def2-SVP
%pal
nprocs 24
end

* xyz 0 1
S 	 -115.434 	 17.4867 	 -114.199 	 
C 	 -113.894 	 17.8227 	 -114.965 	 
C 	 -113.964 	 17.8046 	 -116.337 	 
C 	 -115.347 	 17.6323 	 -116.837 	 
C 	 -116.176 	 17.2357 	 -115.79 	 
H 	 -115.784 	 17.5202 	 -117.88 	 
C 	 -112.724 	 18.0918 	 -117.193 	 
H 	 -112.192 	 17.0831 	 -117.159 	 
H 	 -112.121 	 18.8615 	 -116.769 	 
C 	 -112.973 	 18.4229 	 -118.693 	 
H 	 -113.354 	 17.5384 	 -119.139 	 
H 	 -113.747 	 19.0872 	 -118.771 	 
C 	 -111.832 	 18.8659 	 -119.574 	 
H 	 -111.426 	 19.9173 	 -119.385 	 
H 	 -110.966 	 18.2462 	 -119.414 	 
H 	 -112.01 	 18.8135 	 -120.645 	 
S 	 -117.742 	 15.0609 	 -116.095 	 
C 	 -119.463 	 15.2558 	 -115.989 	 
C 	 -119.794 	 16.5843 	 -115.913 	 
C 	 -118.721 	 17.4857 	 -115.945 	 
C 	 -117.523 	 16.7834 	 -116.046 	 
H 	 -120.809 	 16.8989 	 -115.874 	 
C 	 -118.894 	 18.974 	 -115.714 	 
H 	 -118.004 	 19.1179 	 -115.21 	 
H 	 -119.729 	 19.1344 	 -114.993 	 
C 	 -119.005 	 19.9623 	 -116.897 	 
H 	 -119.21 	 20.9409 	 -116.538 	 
H 	 -119.905 	 19.7146 	 -117.469 	 
C 	 -117.736 	 20.1054 	 -117.721 	 
H 	 -117.995 	 20.6686 	 -118.584 	 
H 	 -117.335 	 19.1897 	 -118.129 	 
H 	 -116.928 	 20.5521 	 -117.131 	 
H 	 -113.095 	 18.0735 	 -114.23 	 
H 	 -120.125 	 14.4337 	 -115.855 	 
*
