! wB97X-D3 SP def2-SVP
%pal
nprocs 24
end

* xyz 0 1
S 	 -135.287 	 68.0705 	 -62.9107 	 
C 	 -137.016 	 68.0095 	 -63.0876 	 
C 	 -137.681 	 67.4493 	 -62.0252 	 
C 	 -136.743 	 67.1137 	 -60.988 	 
C 	 -135.424 	 67.4931 	 -61.2571 	 
H 	 -136.968 	 66.6976 	 -60.0167 	 
C 	 -139.179 	 67.2824 	 -61.8748 	 
H 	 -139.303 	 66.3122 	 -61.3848 	 
H 	 -139.527 	 67.1377 	 -62.8575 	 
C 	 -139.945 	 68.4919 	 -61.2358 	 
H 	 -139.505 	 69.3703 	 -61.7211 	 
H 	 -140.972 	 68.3392 	 -61.5245 	 
C 	 -139.827 	 68.6837 	 -59.7132 	 
H 	 -140.552 	 69.4345 	 -59.3462 	 
H 	 -139.921 	 67.7052 	 -59.2137 	 
H 	 -138.889 	 69.0229 	 -59.3692 	 
S 	 -133.247 	 66.0041 	 -60.767 	 
C 	 -132.151 	 66.4618 	 -59.515 	 
C 	 -132.656 	 67.5483 	 -58.7642 	 
C 	 -133.845 	 68.0952 	 -59.3392 	 
C 	 -134.266 	 67.2943 	 -60.3788 	 
H 	 -131.976 	 67.9314 	 -58.0407 	 
C 	 -134.582 	 69.3627 	 -58.76 	 
H 	 -135.533 	 69.606 	 -59.2612 	 
H 	 -133.978 	 70.2691 	 -58.8891 	 
C 	 -134.881 	 69.2152 	 -57.3099 	 
H 	 -135.459 	 70.1533 	 -57.1483 	 
H 	 -133.914 	 69.3086 	 -56.8561 	 
C 	 -135.52 	 67.9572 	 -56.849 	 
H 	 -134.699 	 67.1335 	 -56.8191 	 
H 	 -136.383 	 67.7117 	 -57.4916 	 
H 	 -135.984 	 68.1362 	 -55.8684 	 
H 	 -137.498 	 68.5198 	 -63.8823 	 
H 	 -131.103 	 66.1638 	 -59.3352 	 
*
