! wB97X-D3 SP def2-SVP
%pal
nprocs 24
end

* xyz 0 1
S 	 26.0277 	 -6.50457 	 -118.461 	 
C 	 26.3782 	 -7.37928 	 -119.86 	 
C 	 27.6153 	 -7.0566 	 -120.388 	 
C 	 28.3509 	 -6.33148 	 -119.44 	 
C 	 27.6415 	 -5.95237 	 -118.274 	 
H 	 29.4035 	 -6.0259 	 -119.513 	 
C 	 28.2285 	 -7.44941 	 -121.689 	 
H 	 29.0891 	 -6.76797 	 -121.831 	 
H 	 27.4109 	 -7.08059 	 -122.32 	 
C 	 28.6424 	 -8.90912 	 -121.986 	 
H 	 29.5362 	 -9.13286 	 -121.392 	 
H 	 27.7684 	 -9.60552 	 -121.778 	 
C 	 29.0596 	 -9.19346 	 -123.485 	 
H 	 29.9559 	 -8.52873 	 -123.701 	 
H 	 29.2823 	 -10.2834 	 -123.551 	 
H 	 28.2602 	 -8.95967 	 -124.232 	 
S 	 27.295 	 -3.87796 	 -116.538 	 
C 	 28.5467 	 -3.51162 	 -115.357 	 
C 	 29.5537 	 -4.44115 	 -115.434 	 
C 	 29.3515 	 -5.45807 	 -116.413 	 
C 	 28.2039 	 -5.23294 	 -117.137 	 
H 	 30.3681 	 -4.37544 	 -114.741 	 
C 	 30.3997 	 -6.51389 	 -116.502 	 
H 	 29.8306 	 -7.31196 	 -116.887 	 
H 	 30.8164 	 -6.86391 	 -115.515 	 
C 	 31.5067 	 -6.24316 	 -117.458 	 
H 	 31.9827 	 -5.30733 	 -117.069 	 
H 	 31.1234 	 -5.99578 	 -118.446 	 
C 	 32.6962 	 -7.25168 	 -117.445 	 
H 	 33.6579 	 -6.85641 	 -117.937 	 
H 	 32.5053 	 -8.13991 	 -118.014 	 
H 	 33.0124 	 -7.51642 	 -116.435 	 
H 	 25.6729 	 -8.00039 	 -120.493 	 
H 	 28.5361 	 -2.73799 	 -114.694 	 
*
