! wB97X-D3 SP def2-SVP
%pal
nprocs 24
end

* xyz 0 1
S 	 5.40037 	 -26.8364 	 -113.026 	 
C 	 6.75653 	 -25.8002 	 -112.824 	 
C 	 7.22719 	 -25.3438 	 -114.01 	 
C 	 6.45677 	 -25.7416 	 -115.151 	 
C 	 5.39038 	 -26.578 	 -114.806 	 
H 	 6.63421 	 -25.3968 	 -116.205 	 
C 	 8.1683 	 -24.1258 	 -114.128 	 
H 	 8.029 	 -23.7903 	 -115.165 	 
H 	 9.18907 	 -24.4142 	 -113.97 	 
C 	 7.93264 	 -22.94 	 -113.244 	 
H 	 6.87168 	 -22.6891 	 -113.297 	 
H 	 8.05052 	 -23.2843 	 -112.214 	 
C 	 8.70649 	 -21.5737 	 -113.259 	 
H 	 8.12736 	 -20.8461 	 -112.61 	 
H 	 9.73458 	 -21.8085 	 -112.958 	 
H 	 8.68708 	 -21.0866 	 -114.24 	 
S 	 2.8835 	 -26.0982 	 -115.6 	 
C 	 2.15031 	 -26.8789 	 -117 	 
C 	 2.92005 	 -27.968 	 -117.292 	 
C 	 4.16165 	 -28.1217 	 -116.504 	 
C 	 4.30934 	 -27.0092 	 -115.697 	 
H 	 2.75024 	 -28.7576 	 -118.057 	 
C 	 5.13918 	 -29.2297 	 -116.762 	 
H 	 5.95701 	 -29.0643 	 -116.056 	 
H 	 5.59902 	 -29.1201 	 -117.724 	 
C 	 4.62146 	 -30.658 	 -116.655 	 
H 	 3.86847 	 -30.9109 	 -117.269 	 
H 	 4.18059 	 -30.8068 	 -115.67 	 
C 	 5.6236 	 -31.8283 	 -116.775 	 
H 	 6.37514 	 -31.923 	 -115.958 	 
H 	 6.16554 	 -31.7547 	 -117.667 	 
H 	 5.08311 	 -32.7667 	 -116.711 	 
H 	 7.21466 	 -25.4837 	 -111.906 	 
H 	 1.15008 	 -26.7757 	 -117.392 	 
*
