! wB97X-D3 SP def2-SVP
%pal
nprocs 24
end

* xyz 0 1
S 	 45.7772 	 -17.6966 	 -117.019 	 
C 	 47.0457 	 -18.382 	 -115.956 	 
C 	 47.897 	 -17.4191 	 -115.465 	 
C 	 47.5037 	 -16.1098 	 -115.858 	 
C 	 46.3863 	 -16.0896 	 -116.672 	 
H 	 48.0593 	 -15.2609 	 -115.516 	 
C 	 49.0955 	 -17.663 	 -114.629 	 
H 	 50.0179 	 -17.3605 	 -115.218 	 
H 	 49.1637 	 -18.7246 	 -114.437 	 
C 	 49.0879 	 -16.8708 	 -113.339 	 
H 	 49.2508 	 -15.8258 	 -113.473 	 
H 	 48.1338 	 -16.9259 	 -112.869 	 
C 	 50.1838 	 -17.3766 	 -112.377 	 
H 	 50.0141 	 -17.3262 	 -111.271 	 
H 	 50.0911 	 -18.4381 	 -112.388 	 
H 	 51.2003 	 -17.0665 	 -112.588 	 
S 	 45.0477 	 -14.9923 	 -118.83 	 
C 	 44.0591 	 -13.5797 	 -118.607 	 
C 	 44.3258 	 -12.9841 	 -117.383 	 
C 	 45.3396 	 -13.707 	 -116.644 	 
C 	 45.6108 	 -14.9496 	 -117.195 	 
H 	 43.8832 	 -12.1368 	 -117.114 	 
C 	 45.8032 	 -13.2302 	 -115.24 	 
H 	 46.1367 	 -13.9855 	 -114.497 	 
H 	 45.0075 	 -12.6506 	 -114.755 	 
C 	 47.0863 	 -12.3816 	 -115.421 	 
H 	 46.7655 	 -11.4932 	 -116.037 	 
H 	 47.8137 	 -12.915 	 -116.011 	 
C 	 47.521 	 -11.7286 	 -114.135 	 
H 	 46.7686 	 -11.0473 	 -113.874 	 
H 	 48.4331 	 -11.1447 	 -114.273 	 
H 	 47.7048 	 -12.4666 	 -113.361 	 
H 	 47.4245 	 -19.3873 	 -115.905 	 
H 	 43.5672 	 -13.0457 	 -119.428 	 
*
