! wB97X-D3 SP def2-SVP
%pal
nprocs 24
end

* xyz 0 1
S 	 -143.786 	 29.356 	 -13.4371 	 
C 	 -144.207 	 29.1197 	 -15.1048 	 
C 	 -144.852 	 30.2015 	 -15.6945 	 
C 	 -145.24 	 31.2224 	 -14.7232 	 
C 	 -144.479 	 30.992 	 -13.5621 	 
H 	 -145.86 	 32.0855 	 -14.9427 	 
C 	 -145.341 	 30.2912 	 -17.1347 	 
H 	 -144.387 	 30.5547 	 -17.638 	 
H 	 -146.072 	 31.1818 	 -17.3201 	 
C 	 -146.074 	 29.1021 	 -17.6037 	 
H 	 -145.454 	 28.2297 	 -17.5745 	 
H 	 -146.975 	 28.9483 	 -16.9797 	 
C 	 -146.46 	 29.3214 	 -19.1209 	 
H 	 -147.104 	 28.4097 	 -19.2964 	 
H 	 -147.057 	 30.1895 	 -19.4006 	 
H 	 -145.561 	 29.3224 	 -19.7261 	 
S 	 -145.024 	 31.431 	 -10.9002 	 
C 	 -144.789 	 32.9709 	 -10.1468 	 
C 	 -144.367 	 33.8392 	 -11.1454 	 
C 	 -144.177 	 33.3471 	 -12.4603 	 
C 	 -144.371 	 31.9405 	 -12.4719 	 
H 	 -144.049 	 34.8373 	 -10.8623 	 
C 	 -143.735 	 34.266 	 -13.6003 	 
H 	 -144.487 	 35.0137 	 -13.7218 	 
H 	 -143.5 	 33.5726 	 -14.4405 	 
C 	 -142.469 	 35.0898 	 -13.2844 	 
H 	 -141.851 	 35.0937 	 -14.1226 	 
H 	 -142.094 	 34.5783 	 -12.3787 	 
C 	 -142.776 	 36.5052 	 -12.8739 	 
H 	 -141.867 	 36.9678 	 -12.4664 	 
H 	 -143.59 	 36.6453 	 -12.168 	 
H 	 -142.906 	 37.217 	 -13.7018 	 
H 	 -143.972 	 28.1817 	 -15.5573 	 
H 	 -144.896 	 33.3124 	 -9.07901 	 
*
