! wB97X-D3 SP def2-SVP
%pal
nprocs 24
end

* xyz 0 1
S 	 -46.1623 	 13.657 	 -99.1028 	 
C 	 -46.6374 	 12.1634 	 -98.343 	 
C 	 -47.8411 	 11.6692 	 -98.8799 	 
C 	 -48.478 	 12.5795 	 -99.7693 	 
C 	 -47.7852 	 13.7848 	 -99.8603 	 
H 	 -49.3738 	 12.5334 	 -100.341 	 
C 	 -48.3141 	 10.2724 	 -98.6507 	 
H 	 -47.5834 	 9.59231 	 -98.306 	 
H 	 -48.616 	 9.83442 	 -99.6318 	 
C 	 -49.6343 	 10.0367 	 -97.7661 	 
H 	 -50.3577 	 10.5471 	 -98.3926 	 
H 	 -50.0663 	 9.02356 	 -97.6586 	 
C 	 -49.4308 	 10.7351 	 -96.3867 	 
H 	 -48.8418 	 10.1701 	 -95.7512 	 
H 	 -48.9181 	 11.7039 	 -96.3877 	 
H 	 -50.4039 	 10.7597 	 -95.8494 	 
S 	 -48.5846 	 16.2976 	 -99.2108 	 
C 	 -49.3942 	 17.2838 	 -100.36 	 
C 	 -49.4465 	 16.6947 	 -101.617 	 
C 	 -49.0129 	 15.3437 	 -101.563 	 
C 	 -48.4493 	 14.9999 	 -100.321 	 
H 	 -49.7936 	 17.3309 	 -102.361 	 
C 	 -48.9941 	 14.5551 	 -102.845 	 
H 	 -48.4762 	 13.6482 	 -102.608 	 
H 	 -48.6287 	 15.0747 	 -103.698 	 
C 	 -50.3403 	 14.0227 	 -103.237 	 
H 	 -50.929 	 14.9099 	 -103.417 	 
H 	 -50.7521 	 13.5122 	 -102.414 	 
C 	 -50.395 	 13.2197 	 -104.551 	 
H 	 -51.452 	 13.2227 	 -104.866 	 
H 	 -50.0705 	 12.1568 	 -104.449 	 
H 	 -49.737 	 13.6378 	 -105.276 	 
H 	 -46.014 	 11.5537 	 -97.675 	 
H 	 -49.7101 	 18.2674 	 -100.148 	 
*
