! wB97X-D3 SP def2-SVP
%pal
nprocs 24
end

* xyz 0 1
S 	 -98.8998 	 -23.9794 	 -63.8655 	 
C 	 -100.343 	 -23.2553 	 -63.2401 	 
C 	 -100.124 	 -21.9737 	 -62.6505 	 
C 	 -98.681 	 -21.7922 	 -62.5631 	 
C 	 -97.9074 	 -22.7258 	 -63.115 	 
H 	 -98.3352 	 -20.9739 	 -62.0251 	 
C 	 -101.089 	 -20.9455 	 -62.1429 	 
H 	 -102.003 	 -21.4137 	 -62.1584 	 
H 	 -101.194 	 -20.1899 	 -62.8502 	 
C 	 -100.859 	 -20.4267 	 -60.7532 	 
H 	 -100.81 	 -21.1738 	 -59.9591 	 
H 	 -99.9195 	 -19.9466 	 -60.6154 	 
C 	 -101.924 	 -19.4735 	 -60.2858 	 
H 	 -101.756 	 -19.1708 	 -59.2435 	 
H 	 -101.763 	 -18.5542 	 -60.8128 	 
H 	 -102.877 	 -19.9044 	 -60.3531 	 
S 	 -95.568 	 -22.4798 	 -64.5882 	 
C 	 -94.0213 	 -22.4191 	 -63.8042 	 
C 	 -94.1946 	 -22.5061 	 -62.419 	 
C 	 -95.5755 	 -22.7275 	 -62.0311 	 
C 	 -96.457 	 -22.7864 	 -63.1185 	 
H 	 -93.3458 	 -22.3362 	 -61.7026 	 
C 	 -95.9282 	 -22.5459 	 -60.5441 	 
H 	 -95.4091 	 -23.3072 	 -59.8866 	 
H 	 -96.9691 	 -22.6119 	 -60.5343 	 
C 	 -95.3898 	 -21.2028 	 -59.9604 	 
H 	 -95.5381 	 -20.5212 	 -60.7007 	 
H 	 -94.282 	 -21.3054 	 -59.6574 	 
C 	 -96.0242 	 -20.5838 	 -58.6869 	 
H 	 -97.143 	 -20.5155 	 -58.7265 	 
H 	 -95.5963 	 -19.6126 	 -58.3724 	 
H 	 -95.7405 	 -21.1409 	 -57.7948 	 
H 	 -101.33 	 -23.7667 	 -63.3811 	 
H 	 -93.0854 	 -22.2811 	 -64.3982 	 
*
