! wB97X-D3 SP def2-SVP
%pal
nprocs 24
end

* xyz 0 1
S 	 -102.316 	 22.3652 	 -112.543 	 
C 	 -102.147 	 21.7926 	 -114.126 	 
C 	 -103.383 	 21.7059 	 -114.767 	 
C 	 -104.459 	 22.0369 	 -113.889 	 
C 	 -104.053 	 22.4836 	 -112.659 	 
H 	 -105.519 	 21.9383 	 -113.989 	 
C 	 -103.614 	 21.1857 	 -116.182 	 
H 	 -102.97 	 21.8151 	 -116.867 	 
H 	 -104.622 	 21.5039 	 -116.338 	 
C 	 -103.369 	 19.7076 	 -116.301 	 
H 	 -103.381 	 19.5789 	 -117.333 	 
H 	 -102.365 	 19.2885 	 -115.928 	 
C 	 -104.486 	 18.8794 	 -115.61 	 
H 	 -105.49 	 19.261 	 -115.848 	 
H 	 -104.233 	 17.9841 	 -116.137 	 
H 	 -104.516 	 18.7272 	 -114.561 	 
S 	 -104.168 	 22.3012 	 -109.958 	 
C 	 -105.534 	 22.8819 	 -109.017 	 
C 	 -106.44 	 23.5986 	 -109.855 	 
C 	 -106.009 	 23.5707 	 -111.203 	 
C 	 -104.803 	 22.905 	 -111.424 	 
H 	 -107.301 	 24.0768 	 -109.36 	 
C 	 -106.887 	 24.1415 	 -112.259 	 
H 	 -106.378 	 24.0795 	 -113.209 	 
H 	 -107.009 	 25.1892 	 -111.935 	 
C 	 -108.268 	 23.4167 	 -112.411 	 
H 	 -108.834 	 23.3659 	 -111.499 	 
H 	 -108.043 	 22.3566 	 -112.59 	 
C 	 -109.108 	 24.0473 	 -113.445 	 
H 	 -108.726 	 23.9663 	 -114.416 	 
H 	 -109.386 	 25.0756 	 -113.211 	 
H 	 -110.111 	 23.5007 	 -113.385 	 
H 	 -101.212 	 21.6949 	 -114.606 	 
H 	 -105.594 	 22.8278 	 -107.93 	 
*
