! wB97X-D3 SP def2-SVP
%pal
nprocs 24
end

* xyz 0 1
S 	 -31.7755 	 13.7835 	 -0.791637 	 
C 	 -33.4194 	 13.6669 	 -1.44425 	 
C 	 -34.0806 	 12.5888 	 -0.916794 	 
C 	 -33.4093 	 12.0235 	 0.193761 	 
C 	 -32.14 	 12.5268 	 0.429778 	 
H 	 -33.757 	 11.264 	 0.836287 	 
C 	 -35.4935 	 12.0844 	 -1.2105 	 
H 	 -35.6898 	 11.2816 	 -0.563531 	 
H 	 -35.4071 	 11.7286 	 -2.25402 	 
C 	 -36.7074 	 13.1203 	 -1.26683 	 
H 	 -36.4672 	 13.7951 	 -2.06639 	 
H 	 -37.5651 	 12.5219 	 -1.46395 	 
C 	 -36.9262 	 13.7819 	 0.100285 	 
H 	 -36.3226 	 14.7606 	 0.159365 	 
H 	 -37.963 	 14.0937 	 0.161475 	 
H 	 -36.5751 	 13.2458 	 0.999726 	 
S 	 -29.5419 	 11.8474 	 1.05601 	 
C 	 -29.2599 	 11.3862 	 2.70192 	 
C 	 -30.3816 	 11.5947 	 3.5463 	 
C 	 -31.4899 	 12.1255 	 2.82911 	 
C 	 -31.2214 	 12.2135 	 1.48671 	 
H 	 -30.2291 	 11.3644 	 4.62523 	 
C 	 -32.7259 	 12.4957 	 3.55968 	 
H 	 -33.2967 	 13.0839 	 2.93684 	 
H 	 -32.3266 	 13.3083 	 4.23623 	 
C 	 -33.4564 	 11.3799 	 4.37923 	 
H 	 -32.7433 	 10.8673 	 5.04407 	 
H 	 -33.7236 	 10.6685 	 3.55442 	 
C 	 -34.7961 	 11.9606 	 4.87682 	 
H 	 -35.2629 	 11.2369 	 5.59437 	 
H 	 -35.5014 	 12.1743 	 4.06565 	 
H 	 -34.6449 	 12.8562 	 5.45258 	 
H 	 -33.7404 	 14.1896 	 -2.30485 	 
H 	 -28.3165 	 11.0711 	 3.10467 	 
*
