! wB97X-D3 SP def2-SVP
%pal
nprocs 24
end

* xyz 0 1
S 	 29.0828 	 1.20626 	 -108.235 	 
C 	 28.3316 	 2.81592 	 -108.562 	 
C 	 27.4516 	 2.77392 	 -109.656 	 
C 	 27.4631 	 1.47567 	 -110.29 	 
C 	 28.2584 	 0.523999 	 -109.666 	 
H 	 26.9325 	 1.27955 	 -111.187 	 
C 	 26.7838 	 3.99069 	 -110.351 	 
H 	 27.6574 	 4.63646 	 -110.534 	 
H 	 26.1834 	 4.51746 	 -109.578 	 
C 	 25.755 	 3.71606 	 -111.453 	 
H 	 26.2078 	 3.09946 	 -112.26 	 
H 	 24.9786 	 3.15961 	 -111.072 	 
C 	 25.3517 	 5.10405 	 -112.026 	 
H 	 24.691 	 5.143 	 -112.934 	 
H 	 24.7668 	 5.63075 	 -111.243 	 
H 	 26.2447 	 5.66083 	 -112.323 	 
S 	 29.3643 	 -1.41916 	 -111.481 	 
C 	 29.3026 	 -3.02072 	 -110.959 	 
C 	 28.5316 	 -3.16882 	 -109.838 	 
C 	 28.0835 	 -1.98576 	 -109.25 	 
C 	 28.4397 	 -0.859258 	 -110.004 	 
H 	 28.4584 	 -4.14623 	 -109.392 	 
C 	 27.4001 	 -2.00751 	 -107.884 	 
H 	 28.1336 	 -1.48898 	 -107.223 	 
H 	 27.3188 	 -3.02191 	 -107.461 	 
C 	 26.0434 	 -1.20606 	 -107.776 	 
H 	 25.2013 	 -1.81731 	 -108.19 	 
H 	 26.106 	 -0.3962 	 -108.517 	 
C 	 25.6722 	 -0.795508 	 -106.387 	 
H 	 24.7018 	 -0.304939 	 -106.357 	 
H 	 26.5199 	 -0.273224 	 -105.954 	 
H 	 25.5026 	 -1.50534 	 -105.661 	 
H 	 28.552 	 3.72062 	 -107.961 	 
H 	 29.7003 	 -3.79825 	 -111.567 	 
*
