! wB97X-D3 SP def2-SVP
%pal
nprocs 24
end

* xyz 0 1
S 	 -82.8293 	 -33.1394 	 -52.1036 	 
C 	 -81.1688 	 -33.1766 	 -52.6004 	 
C 	 -80.5663 	 -31.9468 	 -52.5958 	 
C 	 -81.5252 	 -30.8677 	 -52.3988 	 
C 	 -82.7969 	 -31.3654 	 -52.302 	 
H 	 -81.3853 	 -29.7686 	 -52.5249 	 
C 	 -79.1052 	 -31.8301 	 -52.9542 	 
H 	 -78.5385 	 -32.7657 	 -52.8316 	 
H 	 -78.5494 	 -31.2486 	 -52.1956 	 
C 	 -78.8546 	 -31.1194 	 -54.2992 	 
H 	 -77.8338 	 -31.2849 	 -54.5909 	 
H 	 -79.479 	 -31.6046 	 -55.0487 	 
C 	 -79.1199 	 -29.6398 	 -54.2956 	 
H 	 -80.183 	 -29.4844 	 -54.5576 	 
H 	 -78.8968 	 -29.0246 	 -53.4502 	 
H 	 -78.565 	 -29.1852 	 -55.0627 	 
S 	 -84.184 	 -29.3126 	 -53.4647 	 
C 	 -85.6884 	 -28.812 	 -52.785 	 
C 	 -86.1148 	 -29.7164 	 -51.8618 	 
C 	 -85.1467 	 -30.6653 	 -51.4846 	 
C 	 -84.0289 	 -30.5786 	 -52.2966 	 
H 	 -87.1019 	 -29.5369 	 -51.3935 	 
C 	 -85.2704 	 -31.5591 	 -50.3031 	 
H 	 -85.6034 	 -30.8779 	 -49.504 	 
H 	 -84.3036 	 -31.8571 	 -50.0461 	 
C 	 -86.2712 	 -32.7508 	 -50.3617 	 
H 	 -87.2391 	 -32.2149 	 -50.5704 	 
H 	 -86.426 	 -33.2159 	 -49.3729 	 
C 	 -85.9692 	 -33.7557 	 -51.5006 	 
H 	 -85.1665 	 -34.4717 	 -51.1987 	 
H 	 -85.5647 	 -33.289 	 -52.4387 	 
H 	 -86.7518 	 -34.4061 	 -51.6992 	 
H 	 -80.6027 	 -34.0599 	 -52.7692 	 
H 	 -86.226 	 -28.042 	 -53.299 	 
*
