! wB97X-D3 SP def2-SVP
%pal
nprocs 24
end

* xyz 0 1
S 	 -139.765 	 8.57196 	 2.10301 	 
C 	 -141.355 	 8.30046 	 1.62358 	 
C 	 -142.223 	 8.91634 	 2.44232 	 
C 	 -141.56 	 9.89209 	 3.28541 	 
C 	 -140.211 	 9.73653 	 3.36235 	 
H 	 -142.077 	 10.5519 	 3.99634 	 
C 	 -143.713 	 8.86462 	 2.29753 	 
H 	 -144.175 	 8.75009 	 3.2901 	 
H 	 -143.893 	 8.01136 	 1.73206 	 
C 	 -144.316 	 10.0648 	 1.67818 	 
H 	 -144.352 	 10.9941 	 2.30725 	 
H 	 -143.769 	 10.3393 	 0.784992 	 
C 	 -145.772 	 9.71745 	 1.21544 	 
H 	 -145.62 	 9.02905 	 0.379193 	 
H 	 -146.461 	 9.42103 	 2.04868 	 
H 	 -146.304 	 10.5668 	 0.779494 	 
S 	 -137.822 	 11.0557 	 3.29313 	 
C 	 -137.201 	 11.5672 	 4.83561 	 
C 	 -138.02 	 11.3187 	 5.91131 	 
C 	 -139.251 	 10.7987 	 5.4782 	 
C 	 -139.246 	 10.4679 	 4.12003 	 
H 	 -137.719 	 11.5934 	 6.91801 	 
C 	 -140.396 	 10.4751 	 6.36108 	 
H 	 -140.672 	 9.44176 	 6.17989 	 
H 	 -141.254 	 11.0008 	 6.02868 	 
C 	 -140.163 	 10.6084 	 7.85036 	 
H 	 -140.115 	 11.7178 	 8.02137 	 
H 	 -139.195 	 10.1193 	 8.19519 	 
C 	 -141.327 	 10.0972 	 8.68796 	 
H 	 -142.269 	 10.4562 	 8.28599 	 
H 	 -141.285 	 10.3968 	 9.69581 	 
H 	 -141.463 	 9.01974 	 8.69175 	 
H 	 -141.702 	 7.64524 	 0.80441 	 
H 	 -136.304 	 12.1083 	 4.95627 	 
*
