! wB97X-D3 SP def2-SVP
%pal
nprocs 24
end

* xyz 0 1
S 	 -73.5462 	 3.03949 	 16.4858 	 
C 	 -72.057 	 2.43572 	 16.0725 	 
C 	 -71.5575 	 1.45845 	 16.9496 	 
C 	 -72.3007 	 1.44656 	 18.1503 	 
C 	 -73.4637 	 2.16839 	 18.0539 	 
H 	 -72.086 	 0.841564 	 19.0053 	 
C 	 -70.2104 	 0.71553 	 16.8132 	 
H 	 -70.4623 	 -0.30409 	 17.0639 	 
H 	 -69.5622 	 0.976811 	 17.6172 	 
C 	 -69.3926 	 0.855285 	 15.5127 	 
H 	 -68.7284 	 0.044872 	 15.3556 	 
H 	 -70.0162 	 0.684103 	 14.6216 	 
C 	 -68.5665 	 2.16618 	 15.3108 	 
H 	 -67.9291 	 2.10214 	 14.3595 	 
H 	 -69.2029 	 3.03519 	 15.2476 	 
H 	 -67.9686 	 2.31368 	 16.2469 	 
S 	 -76.0698 	 1.82752 	 18.4868 	 
C 	 -76.7377 	 1.93273 	 20.1194 	 
C 	 -75.8208 	 2.37452 	 21.0431 	 
C 	 -74.5233 	 2.46042 	 20.3927 	 
C 	 -74.5183 	 2.3505 	 19.0155 	 
H 	 -76.0487 	 2.58245 	 22.1741 	 
C 	 -73.3381 	 2.75946 	 21.3046 	 
H 	 -72.7064 	 2.00233 	 21.081 	 
H 	 -73.6765 	 2.73508 	 22.3667 	 
C 	 -72.5466 	 4.05143 	 21.0352 	 
H 	 -73.1618 	 4.95219 	 21.0966 	 
H 	 -72.0712 	 3.93832 	 20.0629 	 
C 	 -71.323 	 4.09211 	 21.9626 	 
H 	 -70.6756 	 3.22658 	 21.8816 	 
H 	 -71.6594 	 4.0645 	 23.0621 	 
H 	 -70.8111 	 5.00536 	 21.7906 	 
H 	 -71.5296 	 2.65508 	 15.1081 	 
H 	 -77.6851 	 1.65877 	 20.4948 	 
*
