! wB97X-D3 SP def2-SVP
%pal
nprocs 24
end

* xyz 0 1
S 	 34.6057 	 -29.1795 	 -111.89 	 
C 	 35.1952 	 -28.6379 	 -110.397 	 
C 	 36.4162 	 -29.1307 	 -109.955 	 
C 	 36.808 	 -30.0915 	 -110.96 	 
C 	 35.9163 	 -30.2513 	 -112.001 	 
H 	 37.7268 	 -30.6937 	 -110.843 	 
C 	 37.0317 	 -28.9895 	 -108.586 	 
H 	 37.3836 	 -27.9915 	 -108.512 	 
H 	 37.9154 	 -29.6367 	 -108.575 	 
C 	 35.9301 	 -29.1799 	 -107.532 	 
H 	 35.0874 	 -28.6195 	 -107.726 	 
H 	 35.4781 	 -30.1954 	 -107.448 	 
C 	 36.4668 	 -28.82 	 -106.134 	 
H 	 37.492 	 -29.1429 	 -105.878 	 
H 	 36.4834 	 -27.7425 	 -105.923 	 
H 	 35.8162 	 -29.239 	 -105.355 	 
S 	 34.5236 	 -31.4008 	 -114 	 
C 	 35.3837 	 -32.4302 	 -115.098 	 
C 	 36.7366 	 -32.2433 	 -115.095 	 
C 	 37.1555 	 -31.3861 	 -114.014 	 
C 	 36.0602 	 -30.9803 	 -113.236 	 
H 	 37.2807 	 -32.6639 	 -115.918 	 
C 	 38.6385 	 -31.1976 	 -113.695 	 
H 	 39.1715 	 -32.1205 	 -114.038 	 
H 	 38.7477 	 -31.2394 	 -112.613 	 
C 	 39.3641 	 -29.9584 	 -114.259 	 
H 	 39.1367 	 -29.0813 	 -113.689 	 
H 	 39.1054 	 -29.8477 	 -115.342 	 
C 	 40.9266 	 -29.999 	 -114.11 	 
H 	 41.1623 	 -30.9124 	 -114.52 	 
H 	 41.1989 	 -29.9472 	 -113.002 	 
H 	 41.3275 	 -29.1807 	 -114.681 	 
H 	 34.6579 	 -27.8966 	 -109.916 	 
H 	 34.8874 	 -32.9242 	 -115.856 	 
*
