! wB97X-D3 SP def2-SVP
%pal
nprocs 24
end

* xyz 0 1
S 	 -134.264 	 30.5908 	 -16.0359 	 
C 	 -132.916 	 29.4951 	 -16.3217 	 
C 	 -133.356 	 28.336 	 -17.0113 	 
C 	 -134.88 	 28.2593 	 -17.0664 	 
C 	 -135.501 	 29.4219 	 -16.5698 	 
H 	 -135.42 	 27.5216 	 -17.5667 	 
C 	 -132.46 	 27.2705 	 -17.5471 	 
H 	 -133.053 	 26.6592 	 -18.2352 	 
H 	 -132.249 	 26.5595 	 -16.7535 	 
C 	 -131.199 	 27.7021 	 -18.2361 	 
H 	 -131.484 	 28.24 	 -19.156 	 
H 	 -130.666 	 28.4689 	 -17.626 	 
C 	 -130.309 	 26.5229 	 -18.6791 	 
H 	 -130.03 	 26.0439 	 -17.7798 	 
H 	 -130.765 	 25.8513 	 -19.4629 	 
H 	 -129.418 	 27.0495 	 -19.1139 	 
S 	 -137.368 	 31.2115 	 -17.264 	 
C 	 -139.042 	 31.0826 	 -16.5742 	 
C 	 -139.165 	 30.0351 	 -15.7215 	 
C 	 -137.931 	 29.2729 	 -15.5982 	 
C 	 -136.898 	 29.7664 	 -16.4457 	 
H 	 -140.129 	 29.7166 	 -15.2875 	 
C 	 -137.965 	 28.087 	 -14.7321 	 
H 	 -139.035 	 27.9233 	 -14.4497 	 
H 	 -137.49 	 28.328 	 -13.7624 	 
C 	 -137.392 	 26.7722 	 -15.3012 	 
H 	 -136.367 	 26.9946 	 -15.6064 	 
H 	 -137.887 	 26.5447 	 -16.216 	 
C 	 -137.292 	 25.6987 	 -14.2115 	 
H 	 -136.843 	 24.7865 	 -14.6 	 
H 	 -138.305 	 25.3383 	 -13.9044 	 
H 	 -136.754 	 26.0355 	 -13.3171 	 
H 	 -131.944 	 29.8048 	 -16.0985 	 
H 	 -139.924 	 31.637 	 -16.8676 	 
*
