! wB97X-D3 SP def2-SVP
%pal
nprocs 24
end

* xyz 0 1
S 	 -107.705 	 58.7425 	 -99.9183 	 
C 	 -109.248 	 58.1003 	 -99.3491 	 
C 	 -110.134 	 59.0695 	 -99.0512 	 
C 	 -109.578 	 60.3702 	 -99.1674 	 
C 	 -108.282 	 60.4061 	 -99.5983 	 
H 	 -110.136 	 61.27 	 -98.9881 	 
C 	 -111.618 	 58.8095 	 -98.7677 	 
H 	 -111.763 	 57.8317 	 -98.4761 	 
H 	 -112.168 	 58.8497 	 -99.7129 	 
C 	 -112.353 	 59.7834 	 -97.749 	 
H 	 -112.364 	 60.8382 	 -98.1191 	 
H 	 -113.33 	 59.463 	 -97.8494 	 
C 	 -111.857 	 59.7391 	 -96.2928 	 
H 	 -110.845 	 60.0925 	 -96.1847 	 
H 	 -112.538 	 60.3262 	 -95.6846 	 
H 	 -111.801 	 58.7233 	 -95.9388 	 
S 	 -105.853 	 61.8152 	 -99.4784 	 
C 	 -105.624 	 63.2296 	 -100.404 	 
C 	 -106.804 	 63.5593 	 -101.046 	 
C 	 -107.903 	 62.6779 	 -100.808 	 
C 	 -107.487 	 61.6052 	 -99.9911 	 
H 	 -106.844 	 64.3309 	 -101.813 	 
C 	 -109.25 	 62.8396 	 -101.539 	 
H 	 -109.816 	 61.8306 	 -101.364 	 
H 	 -109.109 	 62.8347 	 -102.692 	 
C 	 -110.056 	 64.0978 	 -101.146 	 
H 	 -109.61 	 64.8825 	 -101.77 	 
H 	 -109.876 	 64.4282 	 -100.072 	 
C 	 -111.519 	 63.9781 	 -101.453 	 
H 	 -112.074 	 63.1515 	 -100.95 	 
H 	 -111.635 	 63.7609 	 -102.496 	 
H 	 -111.977 	 65.0084 	 -101.245 	 
H 	 -109.553 	 57.0786 	 -99.5487 	 
H 	 -104.703 	 63.7824 	 -100.515 	 
*
