! wB97X-D3 SP def2-SVP
%pal
nprocs 24
end

* xyz 0 1
S 	 2.52796 	 -24.8948 	 -114.7 	 
C 	 3.05828 	 -25.2394 	 -116.328 	 
C 	 3.51924 	 -26.551 	 -116.327 	 
C 	 3.26162 	 -27.2832 	 -115.113 	 
C 	 2.66185 	 -26.4997 	 -114.133 	 
H 	 3.4421 	 -28.3042 	 -114.949 	 
C 	 4.03018 	 -27.2716 	 -117.606 	 
H 	 3.44247 	 -28.1878 	 -117.846 	 
H 	 4.98451 	 -27.6296 	 -117.476 	 
C 	 4.18283 	 -26.347 	 -118.843 	 
H 	 3.29264 	 -25.7502 	 -119.095 	 
H 	 5.02914 	 -25.6278 	 -118.82 	 
C 	 4.38227 	 -27.2366 	 -120.071 	 
H 	 3.49832 	 -27.8209 	 -120.284 	 
H 	 4.29687 	 -26.5186 	 -120.87 	 
H 	 5.33358 	 -27.7668 	 -120.104 	 
S 	 1.67542 	 -25.798 	 -111.623 	 
C 	 1.09928 	 -27.0798 	 -110.562 	 
C 	 1.12203 	 -28.3215 	 -111.2 	 
C 	 1.44635 	 -28.2409 	 -112.586 	 
C 	 1.94982 	 -26.9555 	 -112.927 	 
H 	 0.868499 	 -29.2352 	 -110.631 	 
C 	 1.41358 	 -29.5592 	 -113.386 	 
H 	 1.1601 	 -30.3301 	 -112.687 	 
H 	 2.4692 	 -29.6776 	 -113.756 	 
C 	 0.509589 	 -29.6699 	 -114.628 	 
H 	 0.818461 	 -29.013 	 -115.365 	 
H 	 -0.384687 	 -29.2451 	 -114.15 	 
C 	 0.230952 	 -31.1015 	 -115.07 	 
H 	 1.14899 	 -31.7513 	 -115.138 	 
H 	 -0.337349 	 -31.1777 	 -116.12 	 
H 	 -0.310864 	 -31.5942 	 -114.286 	 
H 	 3.21462 	 -24.5741 	 -117.083 	 
H 	 0.802876 	 -26.8356 	 -109.583 	 
*
