! wB97X-D3 SP def2-SVP
%pal
nprocs 24
end

* xyz 0 1
S 	 -122.558 	 66.6952 	 -42.2796 	 
C 	 -123.339 	 68.2433 	 -41.9224 	 
C 	 -122.545 	 69.2772 	 -42.4013 	 
C 	 -121.479 	 68.9089 	 -43.214 	 
C 	 -121.496 	 67.537 	 -43.3562 	 
H 	 -120.734 	 69.6095 	 -43.7019 	 
C 	 -122.841 	 70.7244 	 -42.0449 	 
H 	 -123.717 	 70.9685 	 -42.6037 	 
H 	 -122.093 	 71.3241 	 -42.5477 	 
C 	 -122.89 	 71.1721 	 -40.5599 	 
H 	 -123.646 	 70.6386 	 -39.9843 	 
H 	 -122.045 	 70.7482 	 -40.0942 	 
C 	 -122.765 	 72.7206 	 -40.4133 	 
H 	 -123.103 	 73.0376 	 -39.409 	 
H 	 -121.732 	 72.9624 	 -40.5631 	 
H 	 -123.249 	 73.2917 	 -41.1207 	 
S 	 -119.44 	 65.7835 	 -43.1943 	 
C 	 -118.42 	 65.4755 	 -44.538 	 
C 	 -118.858 	 66.1676 	 -45.6604 	 
C 	 -119.934 	 67.03 	 -45.4066 	 
C 	 -120.45 	 66.9004 	 -44.1294 	 
H 	 -118.319 	 66.155 	 -46.5881 	 
C 	 -120.478 	 67.8791 	 -46.6076 	 
H 	 -121.35 	 68.4503 	 -46.2773 	 
H 	 -120.876 	 67.2231 	 -47.4125 	 
C 	 -119.61 	 68.9473 	 -47.1703 	 
H 	 -120.077 	 69.2653 	 -48.1126 	 
H 	 -118.76 	 68.4789 	 -47.4377 	 
C 	 -119.326 	 70.0981 	 -46.1802 	 
H 	 -118.85 	 69.7302 	 -45.3414 	 
H 	 -120.251 	 70.5723 	 -45.896 	 
H 	 -118.747 	 70.8706 	 -46.6419 	 
H 	 -124.154 	 68.3296 	 -41.2839 	 
H 	 -117.474 	 64.8488 	 -44.5252 	 
*
