! wB97X-D3 SP def2-SVP
%pal
nprocs 24
end

* xyz 0 1
S 	 -133.552 	 26.5113 	 -19.6344 	 
C 	 -133.773 	 25.2743 	 -18.4314 	 
C 	 -132.794 	 24.2593 	 -18.5901 	 
C 	 -131.848 	 24.6027 	 -19.6558 	 
C 	 -132.154 	 25.7922 	 -20.3482 	 
H 	 -131.023 	 24.0673 	 -20.0417 	 
C 	 -132.894 	 22.9105 	 -17.8551 	 
H 	 -132.809 	 22.1145 	 -18.6557 	 
H 	 -133.898 	 22.7718 	 -17.5011 	 
C 	 -131.847 	 22.5212 	 -16.805 	 
H 	 -132.005 	 21.5568 	 -16.5097 	 
H 	 -130.896 	 22.3927 	 -17.2148 	 
C 	 -131.841 	 23.5889 	 -15.7121 	 
H 	 -132.846 	 23.9839 	 -15.3952 	 
H 	 -131.337 	 23.3311 	 -14.8069 	 
H 	 -131.256 	 24.4594 	 -16.0253 	 
S 	 -132.937 	 26.5863 	 -22.8876 	 
C 	 -131.681 	 27.0776 	 -23.9785 	 
C 	 -130.352 	 26.8802 	 -23.511 	 
C 	 -130.393 	 26.2624 	 -22.2209 	 
C 	 -131.673 	 26.2156 	 -21.6567 	 
H 	 -129.519 	 26.8879 	 -24.1572 	 
C 	 -129.099 	 25.798 	 -21.6668 	 
H 	 -129.176 	 25.4483 	 -20.6224 	 
H 	 -128.508 	 26.7454 	 -21.7399 	 
C 	 -128.305 	 24.6439 	 -22.395 	 
H 	 -127.479 	 24.532 	 -21.7874 	 
H 	 -128.024 	 25.0162 	 -23.3723 	 
C 	 -128.937 	 23.2005 	 -22.2848 	 
H 	 -128.961 	 22.7914 	 -21.2845 	 
H 	 -128.451 	 22.5359 	 -22.9868 	 
H 	 -129.92 	 23.273 	 -22.7892 	 
H 	 -134.649 	 25.1464 	 -17.8259 	 
H 	 -131.92 	 27.6006 	 -24.8434 	 
*
