! wB97X-D3 SP def2-SVP
%pal
nprocs 24
end

* xyz 0 1
S 	 -67.0679 	 19.6666 	 -75.7806 	 
C 	 -67.833 	 19.8119 	 -74.2071 	 
C 	 -68.9727 	 19.0328 	 -74.17 	 
C 	 -69.2039 	 18.3595 	 -75.434 	 
C 	 -68.1037 	 18.3321 	 -76.2631 	 
H 	 -70.0591 	 17.8286 	 -75.8332 	 
C 	 -69.966 	 18.8245 	 -73.0149 	 
H 	 -69.5186 	 18.3319 	 -72.1339 	 
H 	 -70.6871 	 18.0703 	 -73.3715 	 
C 	 -70.7778 	 20.0645 	 -72.4306 	 
H 	 -70.1023 	 20.9046 	 -72.302 	 
H 	 -71.496 	 20.1072 	 -73.269 	 
C 	 -71.4739 	 19.6546 	 -71.1734 	 
H 	 -72.0726 	 18.7922 	 -71.4091 	 
H 	 -70.6808 	 19.3464 	 -70.4352 	 
H 	 -72.1067 	 20.4376 	 -70.6629 	 
S 	 -69.2248 	 17.7353 	 -78.6251 	 
C 	 -68.3614 	 16.9094 	 -79.8963 	 
C 	 -67.1894 	 16.4883 	 -79.3597 	 
C 	 -66.8876 	 16.9921 	 -78.0329 	 
C 	 -67.9609 	 17.6769 	 -77.5108 	 
H 	 -66.6268 	 15.8951 	 -79.9761 	 
C 	 -65.5628 	 16.775 	 -77.4246 	 
H 	 -65.3358 	 17.582 	 -76.7336 	 
H 	 -64.7995 	 16.9046 	 -78.1498 	 
C 	 -65.2309 	 15.4289 	 -76.7728 	 
H 	 -64.2154 	 15.3323 	 -76.4436 	 
H 	 -65.3194 	 14.6423 	 -77.4884 	 
C 	 -66.1009 	 15.0784 	 -75.5518 	 
H 	 -67.0466 	 15.3168 	 -75.9046 	 
H 	 -65.9342 	 15.7193 	 -74.5911 	 
H 	 -66.1392 	 13.9751 	 -75.3252 	 
H 	 -67.513 	 20.4445 	 -73.3699 	 
H 	 -68.7102 	 16.7608 	 -80.9499 	 
*
