! wB97X-D3 SP def2-SVP
%pal
nprocs 24
end

* xyz 0 1
S 	 -64.2132 	 -44.7792 	 -81.7489 	 
C 	 -63.829 	 -45.5901 	 -83.1944 	 
C 	 -64.245 	 -46.9214 	 -83.2539 	 
C 	 -65.0721 	 -47.2459 	 -82.0717 	 
C 	 -65.2541 	 -46.152 	 -81.2719 	 
H 	 -65.5547 	 -48.2636 	 -81.9032 	 
C 	 -63.824 	 -47.9245 	 -84.3388 	 
H 	 -64.0889 	 -47.4939 	 -85.3429 	 
H 	 -64.6208 	 -48.6889 	 -84.2346 	 
C 	 -62.443 	 -48.4918 	 -84.2229 	 
H 	 -61.73 	 -47.6927 	 -84.4413 	 
H 	 -62.4307 	 -48.7622 	 -83.1344 	 
C 	 -62.0739 	 -49.7224 	 -85.0453 	 
H 	 -62.8048 	 -50.509 	 -85.0127 	 
H 	 -61.9453 	 -49.4522 	 -86.0771 	 
H 	 -61.0558 	 -49.9879 	 -84.7343 	 
S 	 -65.0276 	 -46.616 	 -78.6484 	 
C 	 -66.3322 	 -46.0676 	 -77.6271 	 
C 	 -67.5292 	 -45.9065 	 -78.3427 	 
C 	 -67.3441 	 -46.0173 	 -79.7396 	 
C 	 -65.9522 	 -46.1463 	 -79.9967 	 
H 	 -68.4107 	 -45.6974 	 -77.7424 	 
C 	 -68.4889 	 -45.9543 	 -80.7463 	 
H 	 -67.9522 	 -45.9242 	 -81.7047 	 
H 	 -68.9691 	 -45.0055 	 -80.5952 	 
C 	 -69.3669 	 -47.1853 	 -80.7673 	 
H 	 -69.5879 	 -47.4453 	 -79.7717 	 
H 	 -68.9295 	 -48.0813 	 -81.1547 	 
C 	 -70.6501 	 -46.9577 	 -81.5733 	 
H 	 -71.3445 	 -46.232 	 -81.0813 	 
H 	 -71.1928 	 -47.9287 	 -81.6049 	 
H 	 -70.4736 	 -46.6666 	 -82.591 	 
H 	 -63.0843 	 -45.1687 	 -83.8811 	 
H 	 -66.3025 	 -45.7143 	 -76.6325 	 
*
