! wB97X-D3 SP def2-SVP
%pal
nprocs 24
end

* xyz 0 1
S 	 -44.2926 	 -52.5259 	 -73.3456 	 
C 	 -44.1176 	 -53.9529 	 -74.4407 	 
C 	 -43.5141 	 -53.6018 	 -75.6128 	 
C 	 -43.1605 	 -52.1988 	 -75.585 	 
C 	 -43.3803 	 -51.5026 	 -74.3918 	 
H 	 -42.6629 	 -51.7624 	 -76.4681 	 
C 	 -43.344 	 -54.4347 	 -76.8937 	 
H 	 -42.6647 	 -53.9487 	 -77.4913 	 
H 	 -44.3801 	 -54.3004 	 -77.3166 	 
C 	 -42.9842 	 -55.9157 	 -76.7492 	 
H 	 -43.7783 	 -56.3942 	 -76.2137 	 
H 	 -42.9279 	 -56.3571 	 -77.7281 	 
C 	 -41.6004 	 -56.008 	 -76.1532 	 
H 	 -41.3815 	 -57.0013 	 -76.0519 	 
H 	 -40.9503 	 -55.5246 	 -76.815 	 
H 	 -41.5786 	 -55.5149 	 -75.2673 	 
S 	 -44.4466 	 -48.9444 	 -74.3195 	 
C 	 -43.4206 	 -47.7211 	 -73.5146 	 
C 	 -42.1536 	 -48.1255 	 -73.1909 	 
C 	 -41.9277 	 -49.497 	 -73.5517 	 
C 	 -43.0656 	 -50.0811 	 -74.1606 	 
H 	 -41.3928 	 -47.4125 	 -72.8796 	 
C 	 -40.5471 	 -50.1072 	 -73.3441 	 
H 	 -40.6562 	 -51.1837 	 -73.447 	 
H 	 -40.2413 	 -49.9085 	 -72.2651 	 
C 	 -39.4642 	 -49.6444 	 -74.4301 	 
H 	 -39.3991 	 -48.5345 	 -74.3829 	 
H 	 -39.8041 	 -49.9362 	 -75.3984 	 
C 	 -38.1146 	 -50.3961 	 -74.3258 	 
H 	 -37.6309 	 -50.514 	 -73.344 	 
H 	 -37.3877 	 -50.1182 	 -75.1299 	 
H 	 -38.3087 	 -51.4402 	 -74.5494 	 
H 	 -44.6627 	 -54.8636 	 -74.2063 	 
H 	 -43.7241 	 -46.6713 	 -73.543 	 
*
