! wB97X-D3 SP def2-SVP
%pal
nprocs 24
end

* xyz 0 1
S 	 -110.293 	 56.5636 	 -87.9176 	 
C 	 -110.235 	 57.694 	 -86.5628 	 
C 	 -109.004 	 57.7193 	 -85.9153 	 
C 	 -108.179 	 56.7031 	 -86.4142 	 
C 	 -108.675 	 55.9737 	 -87.4772 	 
H 	 -107.209 	 56.3263 	 -86.029 	 
C 	 -108.525 	 58.8009 	 -84.9208 	 
H 	 -108.667 	 59.6761 	 -85.4737 	 
H 	 -107.464 	 58.7135 	 -84.6697 	 
C 	 -109.361 	 58.8901 	 -83.5376 	 
H 	 -109.004 	 59.6682 	 -82.8273 	 
H 	 -110.43 	 59.0981 	 -83.6456 	 
C 	 -109.128 	 57.4828 	 -82.7881 	 
H 	 -108.128 	 57.2538 	 -82.6175 	 
H 	 -109.543 	 57.5814 	 -81.7401 	 
H 	 -109.48 	 56.6294 	 -83.3515 	 
S 	 -108.576 	 53.3494 	 -88.2153 	 
C 	 -107.322 	 52.6789 	 -89.2221 	 
C 	 -106.441 	 53.7185 	 -89.6249 	 
C 	 -106.876 	 55.0255 	 -89.1317 	 
C 	 -107.999 	 55.0138 	 -88.3126 	 
H 	 -105.669 	 53.5566 	 -90.3734 	 
C 	 -105.964 	 56.2174 	 -89.3357 	 
H 	 -104.865 	 56.0293 	 -89.5349 	 
H 	 -106.099 	 56.7892 	 -88.4376 	 
C 	 -106.54 	 57.2208 	 -90.377 	 
H 	 -107.509 	 56.8313 	 -90.6537 	 
H 	 -105.912 	 57.1129 	 -91.2658 	 
C 	 -106.643 	 58.6566 	 -89.9029 	 
H 	 -107.174 	 59.074 	 -90.7128 	 
H 	 -105.678 	 59.2947 	 -89.7908 	 
H 	 -107.269 	 58.6906 	 -89.0464 	 
H 	 -111.044 	 58.3641 	 -86.5332 	 
H 	 -107.249 	 51.5838 	 -89.3379 	 
*
