! wB97X-D3 SP def2-SVP
%pal
nprocs 24
end

* xyz 0 1
S 	 -73.3796 	 8.17963 	 -109.14 	 
C 	 -73.7968 	 9.17087 	 -107.838 	 
C 	 -72.7181 	 9.22433 	 -106.946 	 
C 	 -71.5438 	 8.58979 	 -107.44 	 
C 	 -71.6633 	 8.0091 	 -108.662 	 
H 	 -70.6394 	 8.46303 	 -106.851 	 
C 	 -72.7225 	 9.89044 	 -105.542 	 
H 	 -71.7904 	 10.3247 	 -105.271 	 
H 	 -73.1534 	 9.11939 	 -104.917 	 
C 	 -73.6862 	 11.1141 	 -105.522 	 
H 	 -73.2591 	 11.657 	 -106.482 	 
H 	 -74.7767 	 10.7258 	 -105.701 	 
C 	 -73.672 	 12.0197 	 -104.247 	 
H 	 -72.7483 	 12.4125 	 -103.839 	 
H 	 -74.2894 	 12.8402 	 -104.447 	 
H 	 -74.1365 	 11.4901 	 -103.369 	 
S 	 -71.4915 	 5.8446 	 -110.354 	 
C 	 -69.8493 	 5.47024 	 -110.993 	 
C 	 -68.8372 	 6.17538 	 -110.403 	 
C 	 -69.3302 	 7.17775 	 -109.455 	 
C 	 -70.714 	 7.23613 	 -109.404 	 
H 	 -67.8164 	 5.90788 	 -110.668 	 
C 	 -68.4098 	 8.05994 	 -108.62 	 
H 	 -68.9821 	 8.88438 	 -108.334 	 
H 	 -67.5773 	 8.44629 	 -109.261 	 
C 	 -67.8783 	 7.40219 	 -107.312 	 
H 	 -67.3766 	 6.49154 	 -107.681 	 
H 	 -68.6566 	 6.99431 	 -106.675 	 
C 	 -66.9738 	 8.24654 	 -106.506 	 
H 	 -67.3659 	 9.25989 	 -106.496 	 
H 	 -66.012 	 8.36448 	 -107.024 	 
H 	 -66.7519 	 7.86581 	 -105.485 	 
H 	 -74.7511 	 9.65478 	 -107.711 	 
H 	 -69.6982 	 4.61175 	 -111.67 	 
*
