! wB97X-D3 SP def2-SVP
%pal
nprocs 24
end

* xyz 0 1
S 	 -58.8642 	 -3.72827 	 -27.3958 	 
C 	 -57.8639 	 -3.8578 	 -25.9667 	 
C 	 -56.5421 	 -3.47367 	 -26.2351 	 
C 	 -56.3984 	 -2.95144 	 -27.6028 	 
C 	 -57.5353 	 -3.05489 	 -28.3797 	 
H 	 -55.4679 	 -2.68604 	 -28.0924 	 
C 	 -55.3438 	 -3.32128 	 -25.2508 	 
H 	 -54.9741 	 -2.31755 	 -25.2355 	 
H 	 -54.5958 	 -3.84467 	 -25.7103 	 
C 	 -55.5187 	 -3.95845 	 -23.7836 	 
H 	 -56.2308 	 -3.36286 	 -23.1703 	 
H 	 -55.9137 	 -4.93721 	 -23.7417 	 
C 	 -54.1571 	 -4.05445 	 -23.149 	 
H 	 -54.1514 	 -4.21862 	 -22.0434 	 
H 	 -53.6096 	 -4.9045 	 -23.6064 	 
H 	 -53.4599 	 -3.1863 	 -23.3091 	 
S 	 -58.7871 	 -3.66207 	 -30.727 	 
C 	 -58.5202 	 -2.66539 	 -32.1676 	 
C 	 -57.7781 	 -1.55809 	 -31.8337 	 
C 	 -57.2144 	 -1.59137 	 -30.5064 	 
C 	 -57.7566 	 -2.62225 	 -29.7398 	 
H 	 -57.4636 	 -0.924569 	 -32.6744 	 
C 	 -56.1744 	 -0.595163 	 -30.0617 	 
H 	 -55.5595 	 -0.359069 	 -30.8807 	 
H 	 -55.4848 	 -1.09271 	 -29.3358 	 
C 	 -56.6342 	 0.725427 	 -29.4618 	 
H 	 -55.7943 	 1.19565 	 -28.9045 	 
H 	 -57.3228 	 0.53266 	 -28.6664 	 
C 	 -57.3529 	 1.67668 	 -30.4557 	 
H 	 -58.2924 	 1.48795 	 -30.9332 	 
H 	 -56.6487 	 1.9414 	 -31.2351 	 
H 	 -57.548 	 2.67014 	 -30.0259 	 
H 	 -58.2512 	 -4.1833 	 -25.0369 	 
H 	 -58.9232 	 -2.92947 	 -33.1625 	 
*
