! wB97X-D3 SP def2-SVP
%pal
nprocs 24
end

* xyz 0 1
S 	 -66.4089 	 8.49319 	 -76.9253 	 
C 	 -66.7647 	 8.02092 	 -75.309 	 
C 	 -68.1125 	 8.05783 	 -75.0498 	 
C 	 -68.8358 	 8.30858 	 -76.2753 	 
C 	 -68.0492 	 8.52933 	 -77.3532 	 
H 	 -69.8714 	 8.40538 	 -76.3867 	 
C 	 -68.6878 	 7.77019 	 -73.7062 	 
H 	 -68.8598 	 8.6762 	 -73.1551 	 
H 	 -67.9387 	 7.21694 	 -73.1495 	 
C 	 -70.0429 	 7.02291 	 -73.5713 	 
H 	 -70.2463 	 6.72614 	 -72.5104 	 
H 	 -70.8186 	 7.79986 	 -73.8195 	 
C 	 -70.081 	 5.74965 	 -74.3763 	 
H 	 -69.6795 	 6.00889 	 -75.3483 	 
H 	 -69.3193 	 5.00084 	 -74.1594 	 
H 	 -71.0925 	 5.35682 	 -74.4059 	 
S 	 -67.8003 	 10.4043 	 -79.4136 	 
C 	 -68.924 	 10.3205 	 -80.7904 	 
C 	 -69.7388 	 9.16504 	 -80.7267 	 
C 	 -69.5475 	 8.47831 	 -79.4648 	 
C 	 -68.5082 	 9.01126 	 -78.7072 	 
H 	 -70.3813 	 8.94928 	 -81.5701 	 
C 	 -70.4055 	 7.1944 	 -79.1967 	 
H 	 -71.4463 	 7.49952 	 -79.0603 	 
H 	 -70.2841 	 6.64986 	 -78.2507 	 
C 	 -70.4669 	 6.05095 	 -80.2951 	 
H 	 -69.4407 	 5.87198 	 -80.7136 	 
H 	 -71.052 	 6.42735 	 -81.1206 	 
C 	 -71.2155 	 4.74992 	 -79.8821 	 
H 	 -70.9274 	 4.41239 	 -78.8813 	 
H 	 -71.0053 	 3.99841 	 -80.6384 	 
H 	 -72.248 	 4.88807 	 -79.8428 	 
H 	 -66.0714 	 7.70718 	 -74.5798 	 
H 	 -68.9246 	 10.9667 	 -81.6481 	 
*
