! wB97X-D3 SP def2-SVP
%pal
nprocs 24
end

* xyz 0 1
S 	 -44.4837 	 -8.98086 	 10.1165 	 
C 	 -43.0552 	 -9.75529 	 9.39709 	 
C 	 -42.0116 	 -8.83539 	 9.20817 	 
C 	 -42.5557 	 -7.53657 	 9.32848 	 
C 	 -43.8353 	 -7.42611 	 9.73995 	 
H 	 -42.0306 	 -6.62518 	 9.20505 	 
C 	 -40.5622 	 -9.09055 	 8.80528 	 
H 	 -40.3287 	 -10.0249 	 9.33006 	 
H 	 -39.8836 	 -8.37644 	 9.20301 	 
C 	 -40.1795 	 -9.36927 	 7.33707 	 
H 	 -39.054 	 -9.54813 	 7.27025 	 
H 	 -40.7447 	 -10.2732 	 6.96784 	 
C 	 -40.5536 	 -8.26759 	 6.33431 	 
H 	 -40.4431 	 -8.60391 	 5.27184 	 
H 	 -41.545 	 -7.88307 	 6.55967 	 
H 	 -39.8908 	 -7.42441 	 6.35498 	 
S 	 -45.0646 	 -5.84911 	 11.7088 	 
C 	 -45.4832 	 -4.21365 	 11.2339 	 
C 	 -45.2676 	 -4.0181 	 9.89479 	 
C 	 -44.7778 	 -5.15717 	 9.21684 	 
C 	 -44.5038 	 -6.18819 	 10.0113 	 
H 	 -45.5518 	 -3.02186 	 9.52011 	 
C 	 -44.6888 	 -5.08214 	 7.69308 	 
H 	 -43.7779 	 -5.55027 	 7.33317 	 
H 	 -44.8633 	 -4.0594 	 7.29133 	 
C 	 -45.5222 	 -6.13249 	 6.94886 	 
H 	 -46.606 	 -6.09464 	 7.2258 	 
H 	 -45.2491 	 -7.05745 	 7.31503 	 
C 	 -45.3609 	 -5.9789 	 5.41158 	 
H 	 -46.0684 	 -6.57624 	 4.75755 	 
H 	 -44.3814 	 -6.3055 	 5.14568 	 
H 	 -45.4869 	 -4.92702 	 5.06175 	 
H 	 -43.0031 	 -10.8235 	 9.37892 	 
H 	 -45.8946 	 -3.35402 	 11.8425 	 
*
