! wB97X-D3 SP def2-SVP
%pal
nprocs 24
end

* xyz 0 1
S 	 39.4569 	 -16.0046 	 -123.568 	 
C 	 39.0925 	 -14.7187 	 -122.451 	 
C 	 39.8491 	 -14.9122 	 -121.302 	 
C 	 40.6139 	 -16.1125 	 -121.251 	 
C 	 40.5966 	 -16.7758 	 -122.451 	 
H 	 41.1234 	 -16.5363 	 -120.384 	 
C 	 39.7604 	 -14.0239 	 -120.077 	 
H 	 40.038 	 -14.6236 	 -119.167 	 
H 	 38.7221 	 -13.6686 	 -119.945 	 
C 	 40.6442 	 -12.7499 	 -120.197 	 
H 	 40.3966 	 -12.0679 	 -120.981 	 
H 	 40.6622 	 -12.1685 	 -119.258 	 
C 	 42.0923 	 -13.1477 	 -120.428 	 
H 	 42.2379 	 -13.4178 	 -121.479 	 
H 	 42.7187 	 -12.2654 	 -120.359 	 
H 	 42.4502 	 -13.8893 	 -119.709 	 
S 	 40.2347 	 -19.4445 	 -122.912 	 
C 	 41.5868 	 -20.4935 	 -123.272 	 
C 	 42.747 	 -19.7715 	 -123.094 	 
C 	 42.5805 	 -18.3884 	 -122.745 	 
C 	 41.2572 	 -18.0301 	 -122.709 	 
H 	 43.6758 	 -20.2328 	 -123.272 	 
C 	 43.7825 	 -17.4659 	 -122.605 	 
H 	 44.667 	 -18.174 	 -122.381 	 
H 	 43.6289 	 -16.7713 	 -121.851 	 
C 	 44.2541 	 -16.9398 	 -123.986 	 
H 	 43.4802 	 -16.3166 	 -124.552 	 
H 	 44.713 	 -17.655 	 -124.618 	 
C 	 45.4063 	 -15.9122 	 -123.804 	 
H 	 45.6995 	 -15.5065 	 -124.8 	 
H 	 46.3141 	 -16.3493 	 -123.39 	 
H 	 45.1872 	 -15.1277 	 -123.066 	 
H 	 38.5079 	 -13.7881 	 -122.491 	 
H 	 41.619 	 -21.5949 	 -123.088 	 
*
