! wB97X-D3 SP def2-SVP
%pal
nprocs 24
end

* xyz 0 1
S 	 -33.4039 	 -7.13304 	 8.43811 	 
C 	 -33.2104 	 -6.7055 	 10.0505 	 
C 	 -34.2827 	 -7.00328 	 10.8149 	 
C 	 -35.275 	 -7.7341 	 10.1303 	 
C 	 -35.0651 	 -7.67994 	 8.79603 	 
H 	 -36.1216 	 -8.23676 	 10.6297 	 
C 	 -34.4225 	 -6.83629 	 12.3523 	 
H 	 -35.5172 	 -6.71753 	 12.4045 	 
H 	 -33.9753 	 -5.93463 	 12.7935 	 
C 	 -34.0351 	 -8.11556 	 13.1441 	 
H 	 -34.2627 	 -9.01227 	 12.6351 	 
H 	 -32.9182 	 -8.06165 	 13.2358 	 
C 	 -34.6752 	 -8.39269 	 14.5072 	 
H 	 -35.7042 	 -8.7598 	 14.3772 	 
H 	 -34.0883 	 -9.20805 	 15.055 	 
H 	 -34.7319 	 -7.47694 	 15.1075 	 
S 	 -35.2746 	 -9.72765 	 7.19723 	 
C 	 -36.6944 	 -9.88936 	 6.15276 	 
C 	 -37.6293 	 -8.85386 	 6.34355 	 
C 	 -37.2469 	 -7.93694 	 7.36699 	 
C 	 -35.9253 	 -8.18973 	 7.77672 	 
H 	 -38.4946 	 -8.93323 	 5.70734 	 
C 	 -38.195 	 -6.81501 	 7.83936 	 
H 	 -38.4809 	 -7.09731 	 8.81001 	 
H 	 -39.0907 	 -6.84318 	 7.20459 	 
C 	 -37.5077 	 -5.46566 	 7.90448 	 
H 	 -37.0115 	 -5.32337 	 6.94817 	 
H 	 -36.7488 	 -5.37156 	 8.66663 	 
C 	 -38.3936 	 -4.33994 	 8.15982 	 
H 	 -38.9769 	 -4.4079 	 9.10211 	 
H 	 -39.0251 	 -4.12075 	 7.33876 	 
H 	 -37.7789 	 -3.41752 	 8.22234 	 
H 	 -32.2999 	 -6.39761 	 10.5057 	 
H 	 -36.6889 	 -10.5035 	 5.18554 	 
*
