! wB97X-D3 SP def2-SVP
%pal
nprocs 24
end

* xyz 0 1
S 	 -26.0693 	 -39.1873 	 -92.7946 	 
C 	 -26.0846 	 -37.5718 	 -93.4488 	 
C 	 -27.1896 	 -36.8321 	 -93.0109 	 
C 	 -27.891 	 -37.5338 	 -91.9881 	 
C 	 -27.4882 	 -38.8505 	 -91.8133 	 
H 	 -28.7674 	 -37.0678 	 -91.4314 	 
C 	 -27.3931 	 -35.3665 	 -93.3569 	 
H 	 -28.1713 	 -35.2796 	 -94.1271 	 
H 	 -26.4404 	 -35.1542 	 -93.8403 	 
C 	 -27.7592 	 -34.3021 	 -92.3411 	 
H 	 -27.5201 	 -33.3972 	 -92.8632 	 
H 	 -28.7908 	 -34.3128 	 -92.1292 	 
C 	 -26.9101 	 -34.3801 	 -91.039 	 
H 	 -27.1916 	 -33.4861 	 -90.4866 	 
H 	 -27.2053 	 -35.2715 	 -90.4266 	 
H 	 -25.8912 	 -34.286 	 -91.2728 	 
S 	 -26.9917 	 -40.8765 	 -90.0582 	 
C 	 -28.3256 	 -41.8627 	 -89.37 	 
C 	 -29.515 	 -41.2974 	 -89.7726 	 
C 	 -29.4558 	 -40.149 	 -90.6658 	 
C 	 -28.1015 	 -39.8486 	 -90.9506 	 
H 	 -30.4582 	 -41.6875 	 -89.3361 	 
C 	 -30.6389 	 -39.4565 	 -91.1929 	 
H 	 -30.7642 	 -38.4375 	 -90.8745 	 
H 	 -31.4216 	 -39.837 	 -90.5349 	 
C 	 -31.0241 	 -39.5937 	 -92.6395 	 
H 	 -30.2034 	 -39.3365 	 -93.2825 	 
H 	 -31.8968 	 -38.9556 	 -92.9008 	 
C 	 -31.4725 	 -41.033 	 -92.9066 	 
H 	 -31.9704 	 -41.0164 	 -93.8524 	 
H 	 -32.1406 	 -41.376 	 -92.1135 	 
H 	 -30.6606 	 -41.656 	 -93.0077 	 
H 	 -25.3797 	 -37.2175 	 -94.1084 	 
H 	 -28.2105 	 -42.6241 	 -88.6608 	 
*
