! wB97X-D3 SP def2-SVP
%pal
nprocs 24
end

* xyz 0 1
S 	 -18.9651 	 -34.2753 	 -94.875 	 
C 	 -17.8081 	 -35.6288 	 -94.6137 	 
C 	 -16.4927 	 -35.3478 	 -95.0454 	 
C 	 -16.4709 	 -34.0944 	 -95.6555 	 
C 	 -17.6102 	 -33.3403 	 -95.589 	 
H 	 -15.5373 	 -33.7376 	 -96.1371 	 
C 	 -15.1957 	 -36.1764 	 -94.887 	 
H 	 -15.4666 	 -36.9586 	 -94.2671 	 
H 	 -14.4768 	 -35.6399 	 -94.2682 	 
C 	 -14.5271 	 -36.6713 	 -96.1488 	 
H 	 -15.1206 	 -37.3036 	 -96.7591 	 
H 	 -14.4287 	 -35.7832 	 -96.8116 	 
C 	 -13.1334 	 -37.2934 	 -95.8739 	 
H 	 -13.1802 	 -38.1596 	 -95.238 	 
H 	 -12.7898 	 -37.6903 	 -96.8221 	 
H 	 -12.4652 	 -36.5819 	 -95.4071 	 
S 	 -18.3856 	 -31.6196 	 -97.629 	 
C 	 -18.0593 	 -29.9314 	 -97.4933 	 
C 	 -17.3973 	 -29.6446 	 -96.3339 	 
C 	 -17.1018 	 -30.8013 	 -95.4676 	 
C 	 -17.6708 	 -31.9342 	 -96.0141 	 
H 	 -16.9776 	 -28.7006 	 -96.035 	 
C 	 -16.3241 	 -30.7709 	 -94.1757 	 
H 	 -16.5496 	 -31.6208 	 -93.5178 	 
H 	 -16.6846 	 -29.8473 	 -93.6899 	 
C 	 -14.8106 	 -30.4778 	 -94.2764 	 
H 	 -14.5473 	 -29.7474 	 -95.0903 	 
H 	 -14.2351 	 -31.3785 	 -94.547 	 
C 	 -14.249 	 -29.9485 	 -92.9397 	 
H 	 -14.3389 	 -30.719 	 -92.1736 	 
H 	 -14.7022 	 -29.085 	 -92.4796 	 
H 	 -13.2326 	 -29.6584 	 -92.9901 	 
H 	 -18.0696 	 -36.4489 	 -93.9842 	 
H 	 -18.138 	 -29.29 	 -98.3405 	 
*
