! wB97X-D3 SP def2-SVP
%pal
nprocs 24
end

* xyz 0 1
S 	 -91.6284 	 0.621593 	 -0.070487 	 
C 	 -90.2174 	 -0.136625 	 0.86437 	 
C 	 -90.5923 	 -0.314693 	 2.20235 	 
C 	 -91.891 	 0.284297 	 2.51578 	 
C 	 -92.56 	 0.646195 	 1.37552 	 
H 	 -92.334 	 0.21944 	 3.5136 	 
C 	 -89.7937 	 -0.963527 	 3.28136 	 
H 	 -89.5499 	 -2.00346 	 2.8386 	 
H 	 -90.4641 	 -1.14823 	 4.08886 	 
C 	 -88.5073 	 -0.254491 	 3.64226 	 
H 	 -87.7311 	 -1.01089 	 3.76449 	 
H 	 -88.2107 	 0.278227 	 2.74593 	 
C 	 -88.717 	 0.637839 	 4.87437 	 
H 	 -89.4146 	 1.48809 	 4.80252 	 
H 	 -89.0893 	 0.0530684 	 5.72767 	 
H 	 -87.7485 	 1.08111 	 5.04957 	 
S 	 -95.3934 	 0.428576 	 1.23354 	 
C 	 -96.2858 	 1.90237 	 1.306 	 
C 	 -95.5501 	 3.03347 	 1.39611 	 
C 	 -94.1265 	 2.71983 	 1.44162 	 
C 	 -93.8504 	 1.36535 	 1.35537 	 
H 	 -96.0782 	 3.97986 	 1.50386 	 
C 	 -93.0889 	 3.72574 	 1.56022 	 
H 	 -92.2083 	 3.36338 	 2.21001 	 
H 	 -93.4309 	 4.54876 	 2.23238 	 
C 	 -92.5973 	 4.33285 	 0.245141 	 
H 	 -93.3775 	 4.73942 	 -0.351791 	 
H 	 -92.2489 	 3.50462 	 -0.406849 	 
C 	 -91.4288 	 5.29766 	 0.359542 	 
H 	 -91.704 	 6.14686 	 0.976643 	 
H 	 -91.0753 	 5.80984 	 -0.566595 	 
H 	 -90.5628 	 4.96928 	 0.79529 	 
H 	 -89.2477 	 -0.418814 	 0.500496 	 
H 	 -97.3821 	 1.89679 	 1.38854 	 
*
