! wB97X-D3 SP def2-SVP
%pal
nprocs 24
end

* xyz 0 1
S 	 -83.0041 	 -2.23652 	 -64.4964 	 
C 	 -82.9081 	 -0.717176 	 -65.3849 	 
C 	 -84.1314 	 -0.0312741 	 -65.278 	 
C 	 -85.1316 	 -0.709276 	 -64.4954 	 
C 	 -84.6748 	 -1.9763 	 -64.1803 	 
H 	 -86.1428 	 -0.478954 	 -64.3219 	 
C 	 -84.3799 	 1.22725 	 -66.0194 	 
H 	 -84.6482 	 0.909062 	 -67.0249 	 
H 	 -83.4413 	 1.71784 	 -66.1285 	 
C 	 -85.4873 	 2.23614 	 -65.57 	 
H 	 -85.6653 	 2.91697 	 -66.3953 	 
H 	 -86.4191 	 1.74693 	 -65.3361 	 
C 	 -85.0851 	 3.00724 	 -64.2787 	 
H 	 -84.2509 	 3.68425 	 -64.3934 	 
H 	 -85.8703 	 3.69358 	 -63.8488 	 
H 	 -84.8678 	 2.3034 	 -63.4743 	 
S 	 -84.8403 	 -3.87683 	 -62.1519 	 
C 	 -86.3982 	 -4.68923 	 -61.9353 	 
C 	 -87.2556 	 -4.50837 	 -62.9889 	 
C 	 -86.7337 	 -3.51728 	 -63.868 	 
C 	 -85.4593 	 -3.03903 	 -63.584 	 
H 	 -88.2247 	 -4.97158 	 -62.917 	 
C 	 -87.7198 	 -2.9735 	 -64.9394 	 
H 	 -88.198 	 -3.8692 	 -65.3361 	 
H 	 -87.0245 	 -2.54928 	 -65.6503 	 
C 	 -88.7449 	 -1.91577 	 -64.4272 	 
H 	 -89.1724 	 -1.36296 	 -65.3458 	 
H 	 -88.2175 	 -1.1201 	 -63.8461 	 
C 	 -89.8417 	 -2.34477 	 -63.4933 	 
H 	 -89.4925 	 -2.92782 	 -62.705 	 
H 	 -90.5951 	 -2.98945 	 -64.0547 	 
H 	 -90.3445 	 -1.42673 	 -63.1696 	 
H 	 -82.1477 	 -0.416508 	 -66.0492 	 
H 	 -86.7191 	 -5.35582 	 -61.0984 	 
*
