! wB97X-D3 SP def2-SVP
%pal
nprocs 24
end

* xyz 0 1
S 	 28.2649 	 2.36205 	 -117.087 	 
C 	 28.6888 	 2.86388 	 -118.758 	 
C 	 30.0244 	 3.31559 	 -118.772 	 
C 	 30.7017 	 3.13206 	 -117.461 	 
C 	 29.9079 	 2.58333 	 -116.46 	 
H 	 31.757 	 3.39076 	 -117.106 	 
C 	 30.7012 	 3.86941 	 -120.025 	 
H 	 30.9808 	 3.03495 	 -120.629 	 
H 	 31.609 	 4.38089 	 -119.745 	 
C 	 29.8508 	 4.86082 	 -120.84 	 
H 	 28.8778 	 4.45334 	 -121.107 	 
H 	 29.5902 	 5.69281 	 -120.217 	 
C 	 30.5799 	 5.49409 	 -122.057 	 
H 	 30.1974 	 5.06177 	 -122.98 	 
H 	 30.3981 	 6.57509 	 -122.182 	 
H 	 31.6712 	 5.31815 	 -122.053 	 
S 	 29.0351 	 2.56435 	 -113.769 	 
C 	 30.0062 	 1.689 	 -112.663 	 
C 	 31.0531 	 1.07264 	 -113.219 	 
C 	 31.266 	 1.48059 	 -114.595 	 
C 	 30.2314 	 2.20498 	 -115.109 	 
H 	 31.5985 	 0.450878 	 -112.473 	 
C 	 32.5749 	 1.09258 	 -115.26 	 
H 	 32.426 	 0.715319 	 -116.295 	 
H 	 32.8096 	 0.191962 	 -114.754 	 
C 	 33.7228 	 2.11421 	 -115.406 	 
H 	 33.676 	 2.64693 	 -116.387 	 
H 	 34.6236 	 1.62402 	 -115.627 	 
C 	 34.0562 	 2.95278 	 -114.134 	 
H 	 34.2552 	 2.33121 	 -113.227 	 
H 	 33.1335 	 3.40101 	 -113.875 	 
H 	 34.8592 	 3.72444 	 -114.285 	 
H 	 28.0644 	 2.75618 	 -119.685 	 
H 	 29.7188 	 1.44393 	 -111.666 	 
*
