! wB97X-D3 SP def2-SVP
%pal
nprocs 24
end

* xyz 0 1
S 	 -63.6757 	 14.101 	 -91.4068 	 
C 	 -63.4131 	 15.6723 	 -92.1867 	 
C 	 -63.1176 	 16.6639 	 -91.3019 	 
C 	 -63.0873 	 16.1159 	 -89.9515 	 
C 	 -63.3247 	 14.7615 	 -89.8463 	 
H 	 -62.8289 	 16.6445 	 -89.0648 	 
C 	 -62.821 	 18.112 	 -91.4554 	 
H 	 -63.2847 	 18.3387 	 -92.413 	 
H 	 -61.735 	 18.2542 	 -91.7123 	 
C 	 -63.1471 	 19.1152 	 -90.2714 	 
H 	 -62.6683 	 18.8164 	 -89.3058 	 
H 	 -62.7328 	 20.0912 	 -90.4443 	 
C 	 -64.6263 	 19.3466 	 -89.983 	 
H 	 -65.0335 	 18.3494 	 -89.7766 	 
H 	 -64.7533 	 19.9682 	 -89.0123 	 
H 	 -65.113 	 19.7639 	 -90.8656 	 
S 	 -63.3331 	 12.2691 	 -88.8859 	 
C 	 -62.9796 	 11.9355 	 -87.2399 	 
C 	 -62.6682 	 13.1102 	 -86.547 	 
C 	 -62.7765 	 14.281 	 -87.3731 	 
C 	 -63.1824 	 13.983 	 -88.6067 	 
H 	 -62.3264 	 12.9942 	 -85.5087 	 
C 	 -62.3268 	 15.619 	 -86.8014 	 
H 	 -63.0868 	 16.3861 	 -86.9984 	 
H 	 -61.4054 	 16.0248 	 -87.2456 	 
C 	 -62.1117 	 15.5732 	 -85.2618 	 
H 	 -61.4343 	 14.7729 	 -84.9534 	 
H 	 -63.0816 	 15.4624 	 -84.6962 	 
C 	 -61.6836 	 16.9363 	 -84.6166 	 
H 	 -62.4423 	 17.6689 	 -84.6669 	 
H 	 -60.7818 	 17.2875 	 -85.1107 	 
H 	 -61.3079 	 16.9456 	 -83.5733 	 
H 	 -63.3654 	 15.7641 	 -93.2455 	 
H 	 -62.9489 	 10.9386 	 -86.7704 	 
*
