! wB97X-D3 SP def2-SVP
%pal
nprocs 24
end

* xyz 0 1
S 	 -52.2925 	 -48.4947 	 -80.1568 	 
C 	 -51.2366 	 -49.8354 	 -79.862 	 
C 	 -51.8528 	 -51.0647 	 -80.0786 	 
C 	 -53.2266 	 -50.8836 	 -80.5521 	 
C 	 -53.5923 	 -49.5451 	 -80.6695 	 
H 	 -53.8961 	 -51.7969 	 -80.7649 	 
C 	 -51.2006 	 -52.4288 	 -79.732 	 
H 	 -50.1252 	 -52.2833 	 -79.764 	 
H 	 -51.5321 	 -53.1067 	 -80.5088 	 
C 	 -51.4933 	 -53.0841 	 -78.3208 	 
H 	 -51.0576 	 -54.0691 	 -78.2555 	 
H 	 -51.1471 	 -52.5446 	 -77.4547 	 
C 	 -52.9703 	 -53.3163 	 -77.8832 	 
H 	 -53.6049 	 -52.5259 	 -78.2239 	 
H 	 -53.3782 	 -54.1999 	 -78.2395 	 
H 	 -53.0506 	 -53.3701 	 -76.834 	 
S 	 -55.8307 	 -47.925 	 -80.1938 	 
C 	 -57.3474 	 -48.3466 	 -81.0088 	 
C 	 -57.136 	 -49.2508 	 -82.0435 	 
C 	 -55.8159 	 -49.7277 	 -82.0294 	 
C 	 -54.93 	 -49.1239 	 -81.1128 	 
H 	 -57.8903 	 -49.5076 	 -82.8004 	 
C 	 -55.4448 	 -50.8139 	 -83.0494 	 
H 	 -56.0771 	 -51.7034 	 -83.052 	 
H 	 -54.4686 	 -51.3415 	 -82.6878 	 
C 	 -55.3324 	 -50.1628 	 -84.4458 	 
H 	 -54.4864 	 -49.5136 	 -84.5629 	 
H 	 -56.3012 	 -49.5781 	 -84.564 	 
C 	 -55.2485 	 -51.1548 	 -85.5543 	 
H 	 -55.9573 	 -51.9187 	 -85.6172 	 
H 	 -54.2516 	 -51.6662 	 -85.6127 	 
H 	 -55.3101 	 -50.6193 	 -86.5035 	 
H 	 -50.1756 	 -49.6999 	 -79.7848 	 
H 	 -58.2904 	 -47.8106 	 -80.8151 	 
*
