! wB97X-D3 SP def2-SVP
%pal
nprocs 24
end

* xyz 0 1
S 	 32.2255 	 -32.7069 	 -130.52 	 
C 	 32.2656 	 -32.7545 	 -128.725 	 
C 	 33.1298 	 -33.6904 	 -128.331 	 
C 	 33.6325 	 -34.5237 	 -129.366 	 
C 	 33.2135 	 -34.1777 	 -130.678 	 
H 	 34.2116 	 -35.5037 	 -129.223 	 
C 	 33.5027 	 -33.9083 	 -126.928 	 
H 	 33.5731 	 -34.9937 	 -126.829 	 
H 	 32.7601 	 -33.5959 	 -126.267 	 
C 	 34.8696 	 -33.2651 	 -126.569 	 
H 	 35.2833 	 -33.5543 	 -125.657 	 
H 	 35.6103 	 -33.6327 	 -127.312 	 
C 	 34.7571 	 -31.6899 	 -126.655 	 
H 	 35.7014 	 -31.1401 	 -126.648 	 
H 	 34.3027 	 -31.2568 	 -127.548 	 
H 	 34.2051 	 -31.3763 	 -125.807 	 
S 	 34.5112 	 -34.3429 	 -133.158 	 
C 	 34.2251 	 -35.828 	 -133.991 	 
C 	 33.1361 	 -36.5353 	 -133.522 	 
C 	 32.5867 	 -35.9467 	 -132.313 	 
C 	 33.3079 	 -34.8937 	 -131.945 	 
H 	 32.8422 	 -37.4209 	 -134.074 	 
C 	 31.4705 	 -36.6689 	 -131.597 	 
H 	 30.7842 	 -37.1928 	 -132.18 	 
H 	 30.7293 	 -35.9174 	 -131.3 	 
C 	 31.8816 	 -37.3966 	 -130.321 	 
H 	 31.0892 	 -38.0118 	 -129.952 	 
H 	 32.1248 	 -36.5902 	 -129.543 	 
C 	 33.1299 	 -38.3502 	 -130.394 	 
H 	 33.5288 	 -38.678 	 -129.391 	 
H 	 33.8325 	 -37.646 	 -130.684 	 
H 	 33.0546 	 -39.1364 	 -131.099 	 
H 	 31.7971 	 -32.0121 	 -128.015 	 
H 	 34.8488 	 -36.1871 	 -134.818 	 
*
