! wB97X-D3 SP def2-SVP
%pal
nprocs 24
end

* xyz 0 1
S 	 -108.476 	 46.8461 	 -7.58675 	 
C 	 -109.655 	 48.0194 	 -7.2081 	 
C 	 -110.443 	 48.397 	 -8.29116 	 
C 	 -110.206 	 47.5097 	 -9.40131 	 
C 	 -109.139 	 46.6471 	 -9.2326 	 
H 	 -110.64 	 47.5897 	 -10.3266 	 
C 	 -111.548 	 49.4037 	 -8.17102 	 
H 	 -112.043 	 49.2842 	 -7.20793 	 
H 	 -112.345 	 49.2168 	 -8.88948 	 
C 	 -111.073 	 50.8732 	 -8.12884 	 
H 	 -111.872 	 51.5263 	 -7.72504 	 
H 	 -110.249 	 51.066 	 -7.45945 	 
C 	 -110.834 	 51.4253 	 -9.48888 	 
H 	 -110.155 	 50.8491 	 -10.0342 	 
H 	 -111.675 	 51.475 	 -10.1652 	 
H 	 -110.455 	 52.4953 	 -9.51045 	 
S 	 -108.044 	 44.1778 	 -9.61863 	 
C 	 -107.834 	 43.6246 	 -11.2037 	 
C 	 -107.792 	 44.6435 	 -12.1296 	 
C 	 -108.305 	 45.8737 	 -11.5162 	 
C 	 -108.549 	 45.7163 	 -10.1579 	 
H 	 -107.561 	 44.4231 	 -13.1884 	 
C 	 -108.359 	 47.1945 	 -12.2494 	 
H 	 -107.592 	 47.2756 	 -13.0492 	 
H 	 -108.162 	 47.9022 	 -11.4995 	 
C 	 -109.625 	 47.4298 	 -13.0501 	 
H 	 -110.406 	 46.7988 	 -12.5968 	 
H 	 -109.658 	 46.8932 	 -13.997 	 
C 	 -110.009 	 48.9157 	 -13.1951 	 
H 	 -111.027 	 48.936 	 -13.5618 	 
H 	 -109.35 	 49.4859 	 -13.8622 	 
H 	 -110.034 	 49.4264 	 -12.1922 	 
H 	 -109.666 	 48.5783 	 -6.24379 	 
H 	 -107.498 	 42.6479 	 -11.4703 	 
*
