! wB97X-D3 SP def2-SVP
%pal
nprocs 24
end

* xyz 0 1
S 	 -121.325 	 51.7013 	 -35.3545 	 
C 	 -120.174 	 52.7435 	 -36.1113 	 
C 	 -120.756 	 53.6215 	 -37.0544 	 
C 	 -122.196 	 53.4735 	 -37.0176 	 
C 	 -122.658 	 52.4635 	 -36.2028 	 
H 	 -122.88 	 53.998 	 -37.6045 	 
C 	 -119.957 	 54.6184 	 -37.8164 	 
H 	 -120.253 	 54.6165 	 -38.9186 	 
H 	 -118.932 	 54.2587 	 -37.8676 	 
C 	 -120.004 	 55.9789 	 -37.2364 	 
H 	 -119.581 	 56.6248 	 -38.0049 	 
H 	 -121.053 	 56.2289 	 -36.9729 	 
C 	 -119.158 	 56.3108 	 -36.0648 	 
H 	 -119.172 	 57.4643 	 -35.9463 	 
H 	 -119.707 	 55.9201 	 -35.2261 	 
H 	 -118.193 	 55.8654 	 -36.1208 	 
S 	 -124.455 	 52.0993 	 -34.2608 	 
C 	 -126.189 	 51.9641 	 -34.6156 	 
C 	 -126.389 	 52.0641 	 -35.9744 	 
C 	 -125.192 	 52.3001 	 -36.7021 	 
C 	 -124.052 	 52.2675 	 -35.8913 	 
H 	 -127.437 	 52.0639 	 -36.3044 	 
C 	 -125.216 	 52.445 	 -38.2414 	 
H 	 -125.093 	 51.443 	 -38.6443 	 
H 	 -124.344 	 52.9687 	 -38.5116 	 
C 	 -126.41 	 53.1847 	 -38.7933 	 
H 	 -126.583 	 54.0618 	 -38.1511 	 
H 	 -127.288 	 52.6399 	 -38.633 	 
C 	 -126.366 	 53.5055 	 -40.2632 	 
H 	 -125.612 	 54.29 	 -40.4692 	 
H 	 -127.274 	 54.0956 	 -40.5676 	 
H 	 -126.224 	 52.7447 	 -41.0387 	 
H 	 -119.108 	 52.6324 	 -35.8375 	 
H 	 -126.993 	 51.7998 	 -33.9316 	 
*
