! wB97X-D3 SP def2-SVP
%pal
nprocs 24
end

* xyz 0 1
S 	 33.9288 	 -32.3302 	 -129.549 	 
C 	 35.1776 	 -32.0584 	 -128.336 	 
C 	 34.8099 	 -32.5679 	 -127.121 	 
C 	 33.5363 	 -33.1358 	 -127.197 	 
C 	 32.9695 	 -33.1621 	 -128.434 	 
H 	 32.9372 	 -33.5443 	 -126.354 	 
C 	 35.4932 	 -32.4967 	 -125.793 	 
H 	 36.1564 	 -33.3134 	 -125.694 	 
H 	 34.7306 	 -32.4128 	 -125.051 	 
C 	 36.4947 	 -31.2321 	 -125.772 	 
H 	 37.3636 	 -31.3248 	 -126.409 	 
H 	 36.0614 	 -30.3587 	 -126.173 	 
C 	 37.0611 	 -30.9721 	 -124.416 	 
H 	 37.7082 	 -31.7829 	 -124.136 	 
H 	 37.5835 	 -30.0623 	 -124.48 	 
H 	 36.1738 	 -30.9089 	 -123.803 	 
S 	 31.8514 	 -35.3677 	 -129.546 	 
C 	 30.1627 	 -35.6823 	 -129.259 	 
C 	 29.5278 	 -34.6515 	 -128.626 	 
C 	 30.4478 	 -33.59 	 -128.39 	 
C 	 31.7371 	 -33.8563 	 -128.761 	 
H 	 28.4699 	 -34.6551 	 -128.431 	 
C 	 29.9992 	 -32.2774 	 -127.846 	 
H 	 28.9572 	 -31.9861 	 -128.02 	 
H 	 30.408 	 -31.4435 	 -128.287 	 
C 	 30.1591 	 -32.2021 	 -126.25 	 
H 	 29.7775 	 -31.2289 	 -125.906 	 
H 	 31.2212 	 -32.189 	 -125.892 	 
C 	 29.2607 	 -33.2164 	 -125.621 	 
H 	 28.3929 	 -33.3532 	 -126.108 	 
H 	 29.0281 	 -32.9631 	 -124.539 	 
H 	 29.6898 	 -34.1801 	 -125.683 	 
H 	 36.0409 	 -31.4708 	 -128.598 	 
H 	 29.6105 	 -36.5165 	 -129.622 	 
*
