! wB97X-D3 SP def2-SVP
%pal
nprocs 24
end

* xyz 0 1
S 	 -124.901 	 52.2935 	 -36.4742 	 
C 	 -124.421 	 51.3981 	 -37.8474 	 
C 	 -123.942 	 50.1246 	 -37.5143 	 
C 	 -123.886 	 49.9773 	 -36.0374 	 
C 	 -124.378 	 51.0464 	 -35.3595 	 
H 	 -123.485 	 49.0838 	 -35.6119 	 
C 	 -123.589 	 49.016 	 -38.4807 	 
H 	 -123.466 	 49.5025 	 -39.4866 	 
H 	 -124.474 	 48.3612 	 -38.4932 	 
C 	 -122.486 	 48.0427 	 -38.052 	 
H 	 -122.714 	 47.6092 	 -37.0574 	 
H 	 -122.51 	 47.2687 	 -38.7854 	 
C 	 -121.058 	 48.4954 	 -38.0563 	 
H 	 -120.341 	 47.6662 	 -37.9691 	 
H 	 -120.951 	 49.0558 	 -38.9959 	 
H 	 -120.878 	 49.2383 	 -37.2679 	 
S 	 -126.303 	 50.9538 	 -33.3713 	 
C 	 -125.854 	 51.2734 	 -31.6985 	 
C 	 -124.491 	 50.9992 	 -31.5651 	 
C 	 -123.785 	 51.0054 	 -32.8474 	 
C 	 -124.621 	 51.1208 	 -33.974 	 
H 	 -123.986 	 50.9582 	 -30.5751 	 
C 	 -122.228 	 50.8225 	 -32.8795 	 
H 	 -121.768 	 51.6787 	 -32.4148 	 
H 	 -121.943 	 50.9227 	 -33.9387 	 
C 	 -121.662 	 49.5404 	 -32.2878 	 
H 	 -121.901 	 49.4217 	 -31.2479 	 
H 	 -120.616 	 49.6834 	 -32.1904 	 
C 	 -122.125 	 48.3172 	 -33.0915 	 
H 	 -121.724 	 47.4973 	 -32.5075 	 
H 	 -121.775 	 48.3673 	 -34.1065 	 
H 	 -123.207 	 48.166 	 -33.1146 	 
H 	 -124.647 	 51.5958 	 -38.8645 	 
H 	 -126.584 	 51.5567 	 -30.9783 	 
*
