! wB97X-D3 SP def2-SVP
%pal
nprocs 24
end

* xyz 0 1
S 	 -124.354 	 63.2926 	 -51.0455 	 
C 	 -124.114 	 64.6376 	 -49.9277 	 
C 	 -125.063 	 65.6331 	 -50.0872 	 
C 	 -126.131 	 65.104 	 -50.764 	 
C 	 -125.883 	 63.9058 	 -51.4137 	 
H 	 -127.115 	 65.6088 	 -50.847 	 
C 	 -125.226 	 67.078 	 -49.48 	 
H 	 -124.388 	 67.1357 	 -48.7317 	 
H 	 -126.163 	 67.2537 	 -49.0332 	 
C 	 -125.077 	 68.2268 	 -50.5242 	 
H 	 -125.905 	 68.3042 	 -51.2868 	 
H 	 -125.074 	 69.0797 	 -49.9389 	 
C 	 -123.629 	 68.1526 	 -51.2588 	 
H 	 -123.217 	 69.0333 	 -51.6711 	 
H 	 -122.791 	 67.8726 	 -50.642 	 
H 	 -123.735 	 67.2866 	 -52.0738 	 
S 	 -126.198 	 63.1628 	 -53.9407 	 
C 	 -127.548 	 62.2061 	 -54.4413 	 
C 	 -128.569 	 62.1851 	 -53.4771 	 
C 	 -128.105 	 62.8364 	 -52.2614 	 
C 	 -126.767 	 63.2482 	 -52.3266 	 
H 	 -129.532 	 61.6725 	 -53.6544 	 
C 	 -129.076 	 63.1213 	 -51.1047 	 
H 	 -129.681 	 63.9169 	 -51.443 	 
H 	 -128.576 	 63.7053 	 -50.2821 	 
C 	 -129.737 	 61.8285 	 -50.5562 	 
H 	 -129.017 	 60.9214 	 -50.5121 	 
H 	 -130.569 	 61.6564 	 -51.2798 	 
C 	 -130.318 	 62.1313 	 -49.1575 	 
H 	 -129.828 	 61.5047 	 -48.4597 	 
H 	 -131.379 	 61.961 	 -49.0666 	 
H 	 -130.215 	 63.1881 	 -48.8598 	 
H 	 -123.165 	 64.7483 	 -49.4229 	 
H 	 -127.677 	 61.8735 	 -55.4354 	 
*
