! wB97X-D3 SP def2-SVP
%pal
nprocs 24
end

* xyz 0 1
S 	 -67.1683 	 -46.9832 	 -88.9833 	 
C 	 -65.6385 	 -47.1516 	 -89.7364 	 
C 	 -64.6962 	 -47.7674 	 -88.986 	 
C 	 -65.2154 	 -47.9847 	 -87.6349 	 
C 	 -66.5606 	 -47.6626 	 -87.5375 	 
H 	 -64.8353 	 -48.5273 	 -86.7687 	 
C 	 -63.3004 	 -48.2118 	 -89.4909 	 
H 	 -62.5806 	 -47.7852 	 -88.7525 	 
H 	 -63.0413 	 -47.6737 	 -90.4283 	 
C 	 -63.1524 	 -49.7929 	 -89.6754 	 
H 	 -63.4069 	 -50.252 	 -88.7311 	 
H 	 -63.8109 	 -50.1667 	 -90.4006 	 
C 	 -61.6829 	 -50.176 	 -89.9725 	 
H 	 -61.4374 	 -49.8396 	 -90.9892 	 
H 	 -60.9904 	 -49.8339 	 -89.1823 	 
H 	 -61.5216 	 -51.2678 	 -89.8359 	 
S 	 -67.8827 	 -46.6998 	 -85.2542 	 
C 	 -68.5943 	 -47.8969 	 -84.1832 	 
C 	 -68.6862 	 -49.0884 	 -84.7866 	 
C 	 -68.1647 	 -49.1429 	 -86.1264 	 
C 	 -67.4304 	 -47.9859 	 -86.4129 	 
H 	 -68.9806 	 -49.949 	 -84.1122 	 
C 	 -68.0537 	 -50.3826 	 -86.9866 	 
H 	 -67.3922 	 -51.1195 	 -86.5313 	 
H 	 -67.6646 	 -49.9824 	 -87.9528 	 
C 	 -69.4087 	 -51.0149 	 -87.37 	 
H 	 -69.3052 	 -51.7313 	 -88.1759 	 
H 	 -69.9992 	 -50.2553 	 -87.7806 	 
C 	 -70.3236 	 -51.6024 	 -86.2733 	 
H 	 -70.6749 	 -50.7415 	 -85.6721 	 
H 	 -69.7333 	 -52.328 	 -85.6743 	 
H 	 -71.0838 	 -52.0976 	 -86.821 	 
H 	 -65.39 	 -46.7444 	 -90.6945 	 
H 	 -69.2304 	 -47.7573 	 -83.3018 	 
*
