! wB97X-D3 SP def2-SVP
%pal
nprocs 24
end

* xyz 0 1
S 	 -128.872 	 10.7364 	 -11.8018 	 
C 	 -127.175 	 10.7767 	 -11.544 	 
C 	 -126.498 	 11.0194 	 -12.7559 	 
C 	 -127.381 	 11.0379 	 -13.867 	 
C 	 -128.72 	 11.0404 	 -13.479 	 
H 	 -127.042 	 11.0649 	 -14.915 	 
C 	 -125.015 	 10.997 	 -12.9236 	 
H 	 -124.791 	 10.3111 	 -13.8318 	 
H 	 -124.52 	 10.5023 	 -12.1173 	 
C 	 -124.258 	 12.375 	 -13.1491 	 
H 	 -123.147 	 12.2307 	 -13.4228 	 
H 	 -124.706 	 12.7556 	 -14.0849 	 
C 	 -124.371 	 13.4302 	 -12.0851 	 
H 	 -124.272 	 12.954 	 -11.1235 	 
H 	 -123.435 	 14.0054 	 -12.0717 	 
H 	 -125.27 	 14.0697 	 -12.1502 	 
S 	 -129.962 	 12.7991 	 -15.133 	 
C 	 -131.413 	 12.3172 	 -15.9034 	 
C 	 -131.967 	 11.1348 	 -15.3251 	 
C 	 -131.135 	 10.6022 	 -14.3761 	 
C 	 -129.922 	 11.2896 	 -14.3007 	 
H 	 -132.887 	 10.6554 	 -15.7046 	 
C 	 -131.373 	 9.31364 	 -13.7499 	 
H 	 -130.467 	 8.93876 	 -13.3073 	 
H 	 -131.541 	 8.6695 	 -14.6149 	 
C 	 -132.589 	 9.21738 	 -12.8004 	 
H 	 -133.461 	 9.20542 	 -13.3046 	 
H 	 -132.41 	 10.0167 	 -12.0832 	 
C 	 -132.554 	 8.03024 	 -11.8754 	 
H 	 -133.474 	 8.04166 	 -11.2478 	 
H 	 -131.616 	 7.97661 	 -11.2772 	 
H 	 -132.503 	 6.9986 	 -12.3308 	 
H 	 -126.698 	 10.9318 	 -10.6273 	 
H 	 -131.787 	 12.6937 	 -16.8227 	 
*
