! wB97X-D3 SP def2-SVP
%pal
nprocs 24
end

* xyz 0 1
S 	 -101.634 	 -4.31241 	 -111.356 	 
C 	 -101.977 	 -5.83442 	 -112.09 	 
C 	 -102.182 	 -6.84125 	 -111.176 	 
C 	 -101.897 	 -6.31708 	 -109.826 	 
C 	 -101.553 	 -5.01117 	 -109.769 	 
H 	 -101.961 	 -7.02119 	 -109.037 	 
C 	 -102.47 	 -8.28486 	 -111.529 	 
H 	 -102.931 	 -8.12166 	 -112.555 	 
H 	 -103.232 	 -8.70763 	 -110.903 	 
C 	 -101.159 	 -9.13358 	 -111.702 	 
H 	 -100.676 	 -9.23271 	 -110.71 	 
H 	 -101.341 	 -10.1604 	 -112.101 	 
C 	 -100.077 	 -8.61769 	 -112.569 	 
H 	 -100.485 	 -8.40616 	 -113.578 	 
H 	 -99.6938 	 -7.76678 	 -112.043 	 
H 	 -99.2984 	 -9.38376 	 -112.737 	 
S 	 -101.841 	 -2.49259 	 -108.588 	 
C 	 -101.368 	 -2.21884 	 -106.894 	 
C 	 -100.882 	 -3.39147 	 -106.367 	 
C 	 -100.745 	 -4.47958 	 -107.381 	 
C 	 -101.285 	 -4.15457 	 -108.605 	 
H 	 -100.67 	 -3.49104 	 -105.28 	 
C 	 -100.223 	 -5.87556 	 -107.031 	 
H 	 -99.3362 	 -5.60683 	 -106.432 	 
H 	 -99.9128 	 -6.28096 	 -107.97 	 
C 	 -101.056 	 -6.85716 	 -106.219 	 
H 	 -102.058 	 -6.81818 	 -106.653 	 
H 	 -101.276 	 -6.53863 	 -105.217 	 
C 	 -100.469 	 -8.31392 	 -106.229 	 
H 	 -101.165 	 -8.93931 	 -105.722 	 
H 	 -99.4845 	 -8.4226 	 -105.718 	 
H 	 -100.435 	 -8.71362 	 -107.311 	 
H 	 -101.923 	 -5.92566 	 -113.155 	 
H 	 -101.407 	 -1.32584 	 -106.367 	 
*
