! wB97X-D3 SP def2-SVP
%pal
nprocs 24
end

* xyz 0 1
S 	 -52.4713 	 -45.1584 	 -80.4091 	 
C 	 -53.4447 	 -43.9418 	 -81.3661 	 
C 	 -53.8884 	 -44.5211 	 -82.5226 	 
C 	 -53.3554 	 -45.8825 	 -82.7499 	 
C 	 -52.5216 	 -46.3315 	 -81.7009 	 
H 	 -53.6078 	 -46.6224 	 -83.5385 	 
C 	 -54.8071 	 -43.8434 	 -83.5232 	 
H 	 -54.8181 	 -42.8729 	 -83.2216 	 
H 	 -55.804 	 -44.2598 	 -83.3159 	 
C 	 -54.4229 	 -44.0501 	 -85.0243 	 
H 	 -54.4977 	 -45.1045 	 -85.2404 	 
H 	 -55.1739 	 -43.5847 	 -85.7188 	 
C 	 -52.9917 	 -43.6068 	 -85.2924 	 
H 	 -52.8626 	 -42.5387 	 -85.0647 	 
H 	 -52.1172 	 -44.1718 	 -84.9192 	 
H 	 -52.891 	 -43.5775 	 -86.3814 	 
S 	 -52.5947 	 -48.9282 	 -82.0317 	 
C 	 -51.1928 	 -49.9841 	 -81.7052 	 
C 	 -50.1006 	 -49.1798 	 -81.3952 	 
C 	 -50.4053 	 -47.8179 	 -81.3558 	 
C 	 -51.7188 	 -47.501 	 -81.7586 	 
H 	 -49.1543 	 -49.6156 	 -81.2269 	 
C 	 -49.3796 	 -46.7308 	 -81.1283 	 
H 	 -48.5369 	 -47.2691 	 -80.6541 	 
H 	 -49.7185 	 -46.0622 	 -80.3477 	 
C 	 -48.9219 	 -45.9495 	 -82.3471 	 
H 	 -48.1022 	 -45.2937 	 -81.9924 	 
H 	 -49.7513 	 -45.3849 	 -82.7662 	 
C 	 -48.1039 	 -46.6412 	 -83.36 	 
H 	 -47.2504 	 -47.1334 	 -82.8669 	 
H 	 -47.7446 	 -45.9945 	 -84.1216 	 
H 	 -48.5921 	 -47.4711 	 -83.8091 	 
H 	 -53.5238 	 -42.8602 	 -81.2233 	 
H 	 -51.1477 	 -51.0394 	 -81.7655 	 
*
