! wB97X-D3 SP def2-SVP
%pal
nprocs 24
end

* xyz 0 1
S 	 -72.02 	 3.62504 	 -105.882 	 
C 	 -71.9355 	 4.93946 	 -104.719 	 
C 	 -71.0381 	 5.94757 	 -105.083 	 
C 	 -70.3435 	 5.56578 	 -106.24 	 
C 	 -70.6225 	 4.3051 	 -106.731 	 
H 	 -69.4482 	 5.96438 	 -106.695 	 
C 	 -70.7491 	 7.23489 	 -104.396 	 
H 	 -69.7444 	 7.46197 	 -104.626 	 
H 	 -70.9269 	 7.14497 	 -103.324 	 
C 	 -71.5688 	 8.3987 	 -104.869 	 
H 	 -71.4777 	 8.64239 	 -105.946 	 
H 	 -72.6561 	 8.06954 	 -104.755 	 
C 	 -71.3667 	 9.66669 	 -104.003 	 
H 	 -70.4906 	 10.1188 	 -104.444 	 
H 	 -72.192 	 10.3538 	 -104.138 	 
H 	 -71.1789 	 9.72865 	 -102.972 	 
S 	 -70.3483 	 3.66304 	 -109.361 	 
C 	 -69.1858 	 2.50297 	 -109.896 	 
C 	 -68.3577 	 2.1399 	 -108.799 	 
C 	 -68.6757 	 2.8183 	 -107.564 	 
C 	 -69.8378 	 3.53898 	 -107.703 	 
H 	 -67.4678 	 1.45541 	 -108.912 	 
C 	 -67.9513 	 2.61477 	 -106.231 	 
H 	 -67.8567 	 3.5668 	 -105.725 	 
H 	 -66.9519 	 2.39561 	 -106.52 	 
C 	 -68.5819 	 1.52203 	 -105.291 	 
H 	 -68.4852 	 0.55141 	 -105.778 	 
H 	 -69.6522 	 1.60151 	 -105.239 	 
C 	 -67.7709 	 1.49452 	 -103.971 	 
H 	 -67.7481 	 2.46268 	 -103.439 	 
H 	 -66.7295 	 1.26925 	 -104.106 	 
H 	 -67.997 	 0.785011 	 -103.242 	 
H 	 -72.4934 	 5.05516 	 -103.816 	 
H 	 -69.0729 	 1.99526 	 -110.82 	 
*
