! wB97X-D3 SP def2-SVP
%pal
nprocs 24
end

* xyz 0 1
S 	 -125.097 	 65.8707 	 -52.2246 	 
C 	 -124.205 	 65.6879 	 -53.7958 	 
C 	 -122.805 	 65.6956 	 -53.5473 	 
C 	 -122.521 	 65.7753 	 -52.1304 	 
C 	 -123.61 	 65.9058 	 -51.2863 	 
H 	 -121.475 	 65.8305 	 -51.6946 	 
C 	 -121.662 	 65.7302 	 -54.5655 	 
H 	 -121.986 	 65.0043 	 -55.272 	 
H 	 -120.671 	 65.4083 	 -54.2184 	 
C 	 -121.444 	 66.9902 	 -55.41 	 
H 	 -120.695 	 66.7906 	 -56.1742 	 
H 	 -122.389 	 67.3388 	 -55.8954 	 
C 	 -120.827 	 68.1386 	 -54.5902 	 
H 	 -120.125 	 68.8407 	 -55.0778 	 
H 	 -121.596 	 68.7312 	 -54.1047 	 
H 	 -120.415 	 67.7367 	 -53.6638 	 
S 	 -124.023 	 67.7969 	 -49.3632 	 
C 	 -124.15 	 67.2702 	 -47.6969 	 
C 	 -123.741 	 65.9569 	 -47.5299 	 
C 	 -123.278 	 65.3642 	 -48.7267 	 
C 	 -123.589 	 66.1122 	 -49.8729 	 
H 	 -123.783 	 65.5632 	 -46.5383 	 
C 	 -122.692 	 63.9243 	 -48.6977 	 
H 	 -122.062 	 63.693 	 -47.9244 	 
H 	 -122.048 	 63.9002 	 -49.6173 	 
C 	 -123.693 	 62.8039 	 -48.734 	 
H 	 -124.368 	 63.0211 	 -49.5536 	 
H 	 -124.196 	 62.7359 	 -47.8007 	 
C 	 -122.979 	 61.4545 	 -48.9978 	 
H 	 -123.58 	 60.5586 	 -48.9375 	 
H 	 -122.092 	 61.3532 	 -48.3417 	 
H 	 -122.466 	 61.4806 	 -49.9652 	 
H 	 -124.585 	 65.5089 	 -54.7968 	 
H 	 -124.54 	 67.7795 	 -46.8807 	 
*
