! wB97X-D3 SP def2-SVP
%pal
nprocs 24
end

* xyz 0 1
S 	 -63.4097 	 -45.5578 	 -81.915 	 
C 	 -62.1621 	 -46.1357 	 -82.9653 	 
C 	 -61.9941 	 -47.481 	 -82.8074 	 
C 	 -62.94 	 -48.0986 	 -81.9189 	 
C 	 -63.8542 	 -47.1792 	 -81.472 	 
H 	 -62.984 	 -49.1479 	 -81.6142 	 
C 	 -60.958 	 -48.2717 	 -83.6071 	 
H 	 -60.1497 	 -48.5033 	 -82.9886 	 
H 	 -60.5618 	 -47.6563 	 -84.4223 	 
C 	 -61.4777 	 -49.5741 	 -84.1936 	 
H 	 -60.7365 	 -50.2517 	 -84.6597 	 
H 	 -61.812 	 -50.2038 	 -83.355 	 
C 	 -62.6703 	 -49.4421 	 -85.1473 	 
H 	 -63.3799 	 -48.6892 	 -84.8108 	 
H 	 -62.2834 	 -48.998 	 -86.0794 	 
H 	 -63.1658 	 -50.4008 	 -85.2692 	 
S 	 -64.6099 	 -46.5429 	 -78.9155 	 
C 	 -65.9109 	 -47.4101 	 -78.1524 	 
C 	 -66.3764 	 -48.46 	 -78.864 	 
C 	 -65.7492 	 -48.4641 	 -80.1324 	 
C 	 -64.6787 	 -47.5309 	 -80.3062 	 
H 	 -67.1051 	 -49.1232 	 -78.4648 	 
C 	 -66.1023 	 -49.5955 	 -81.1406 	 
H 	 -65.4378 	 -50.4532 	 -81.1314 	 
H 	 -65.9138 	 -49.1755 	 -82.1381 	 
C 	 -67.527 	 -50.0631 	 -81.0685 	 
H 	 -67.7989 	 -50.6249 	 -80.1801 	 
H 	 -67.7185 	 -50.8128 	 -81.8342 	 
C 	 -68.5215 	 -48.9019 	 -81.3007 	 
H 	 -68.4268 	 -48.065 	 -80.5443 	 
H 	 -69.5998 	 -49.1144 	 -81.154 	 
H 	 -68.219 	 -48.5411 	 -82.3135 	 
H 	 -61.5337 	 -45.5199 	 -83.5702 	 
H 	 -66.179 	 -47.2273 	 -77.1408 	 
*
