! wB97X-D3 SP def2-SVP
%pal
nprocs 24
end

* xyz 0 1
S 	 -55.483 	 15.5889 	 29.0908 	 
C 	 -56.3784 	 14.2541 	 28.5154 	 
C 	 -55.5483 	 13.2297 	 28.1217 	 
C 	 -54.1247 	 13.5899 	 28.2661 	 
C 	 -53.9118 	 14.8792 	 28.7772 	 
H 	 -53.2617 	 12.9631 	 28.0535 	 
C 	 -56.0986 	 11.8627 	 27.7423 	 
H 	 -55.3202 	 11.1561 	 27.8795 	 
H 	 -56.3729 	 11.8968 	 26.7309 	 
C 	 -57.33 	 11.3696 	 28.5514 	 
H 	 -57.1905 	 11.6848 	 29.6244 	 
H 	 -58.1894 	 11.8925 	 28.1682 	 
C 	 -57.4581 	 9.86361 	 28.3023 	 
H 	 -58.3117 	 9.32606 	 28.8016 	 
H 	 -57.6166 	 9.67105 	 27.2158 	 
H 	 -56.5996 	 9.36216 	 28.5845 	 
S 	 -51.3622 	 14.9447 	 29.5902 	 
C 	 -50.4008 	 16.3353 	 29.1991 	 
C 	 -50.9704 	 17.045 	 28.172 	 
C 	 -52.3065 	 16.6094 	 27.8986 	 
C 	 -52.72 	 15.6064 	 28.701 	 
H 	 -50.4158 	 17.7645 	 27.6548 	 
C 	 -53.2372 	 17.2251 	 26.817 	 
H 	 -53.9503 	 16.4272 	 26.493 	 
H 	 -52.6148 	 17.4581 	 25.9441 	 
C 	 -54.0678 	 18.4948 	 27.1145 	 
H 	 -54.5537 	 18.2688 	 28.0466 	 
H 	 -54.8489 	 18.6499 	 26.39 	 
C 	 -53.1257 	 19.7044 	 27.1506 	 
H 	 -53.6437 	 20.6815 	 27.2063 	 
H 	 -52.5554 	 19.7073 	 26.2355 	 
H 	 -52.3854 	 19.7439 	 28.0185 	 
H 	 -57.4835 	 14.2432 	 28.6447 	 
H 	 -49.3264 	 16.3793 	 29.195 	 
*
