! wB97X-D3 SP def2-SVP
%pal
nprocs 24
end

* xyz 0 1
S 	 -78.2913 	 -19.3452 	 -53.342 	 
C 	 -78.9743 	 -18.6113 	 -51.8985 	 
C 	 -80.3573 	 -18.4064 	 -52.0217 	 
C 	 -80.9073 	 -19.1278 	 -53.1532 	 
C 	 -79.9018 	 -19.6967 	 -53.9109 	 
H 	 -81.9153 	 -19.203 	 -53.513 	 
C 	 -81.272 	 -17.5481 	 -51.0717 	 
H 	 -80.7838 	 -17.5359 	 -50.146 	 
H 	 -82.1859 	 -18.1212 	 -50.9021 	 
C 	 -81.4149 	 -16.1295 	 -51.5448 	 
H 	 -81.8927 	 -15.578 	 -50.7502 	 
H 	 -80.3957 	 -15.6404 	 -51.5577 	 
C 	 -82.2912 	 -16.0388 	 -52.8474 	 
H 	 -82.424 	 -14.9784 	 -53.1338 	 
H 	 -81.8018 	 -16.4906 	 -53.6863 	 
H 	 -83.2467 	 -16.6304 	 -52.7127 	 
S 	 -79.1192 	 -21.5757 	 -55.7474 	 
C 	 -79.9413 	 -21.6284 	 -57.2743 	 
C 	 -80.686 	 -20.4851 	 -57.5605 	 
C 	 -80.81 	 -19.7035 	 -56.3807 	 
C 	 -80.037 	 -20.1581 	 -55.2733 	 
H 	 -81.2434 	 -20.3554 	 -58.4979 	 
C 	 -81.6728 	 -18.5082 	 -56.4175 	 
H 	 -81.4747 	 -17.9884 	 -57.3886 	 
H 	 -81.4664 	 -17.7303 	 -55.687 	 
C 	 -83.2147 	 -18.8204 	 -56.5181 	 
H 	 -83.4085 	 -19.6005 	 -57.2411 	 
H 	 -83.741 	 -18.0056 	 -57.0587 	 
C 	 -83.9406 	 -19.2311 	 -55.2049 	 
H 	 -83.3848 	 -20.0777 	 -54.7449 	 
H 	 -84.8437 	 -19.7888 	 -55.5241 	 
H 	 -84.244 	 -18.4012 	 -54.563 	 
H 	 -78.323 	 -18.0576 	 -51.1926 	 
H 	 -79.8654 	 -22.3547 	 -57.957 	 
*
