! wB97X-D3 SP def2-SVP
%pal
nprocs 24
end

* xyz 0 1
S 	 -106.496 	 55.345 	 -84.052 	 
C 	 -108.145 	 54.7303 	 -83.9612 	 
C 	 -108.844 	 55.1784 	 -85.0812 	 
C 	 -108.062 	 56.042 	 -85.9466 	 
C 	 -106.807 	 56.3101 	 -85.5058 	 
H 	 -108.353 	 56.3861 	 -86.8896 	 
C 	 -110.282 	 54.9028 	 -85.3868 	 
H 	 -110.688 	 54.281 	 -84.609 	 
H 	 -110.226 	 54.2887 	 -86.268 	 
C 	 -111.099 	 56.1695 	 -85.4385 	 
H 	 -110.752 	 56.8293 	 -86.2136 	 
H 	 -112.072 	 55.755 	 -85.6393 	 
C 	 -111.088 	 56.7939 	 -84.1003 	 
H 	 -111.678 	 56.1964 	 -83.3612 	 
H 	 -110.055 	 57.1377 	 -83.7558 	 
H 	 -111.545 	 57.7196 	 -84.1135 	 
S 	 -104.114 	 56.7335 	 -86.009 	 
C 	 -103.711 	 57.8126 	 -87.2658 	 
C 	 -104.78 	 58.642 	 -87.6648 	 
C 	 -105.972 	 58.3067 	 -86.9462 	 
C 	 -105.826 	 57.1554 	 -86.2042 	 
H 	 -104.449 	 59.3643 	 -88.3615 	 
C 	 -107.255 	 59.1366 	 -87.1641 	 
H 	 -108.051 	 58.5128 	 -87.564 	 
H 	 -107.009 	 59.9702 	 -87.8809 	 
C 	 -107.798 	 59.8749 	 -85.9011 	 
H 	 -106.902 	 60.3633 	 -85.5912 	 
H 	 -108.033 	 59.1072 	 -85.1158 	 
C 	 -108.901 	 60.8908 	 -86.1887 	 
H 	 -108.62 	 61.7545 	 -86.7936 	 
H 	 -109.092 	 61.2485 	 -85.1715 	 
H 	 -109.745 	 60.3565 	 -86.4881 	 
H 	 -108.486 	 53.9348 	 -83.3244 	 
H 	 -102.651 	 57.959 	 -87.6333 	 
*
