! wB97X-D3 SP def2-SVP
%pal
nprocs 24
end

* xyz 0 1
S 	 -107.289 	 12.4519 	 -9.85022 	 
C 	 -106.083 	 12.5874 	 -8.57674 	 
C 	 -106.536 	 12.2959 	 -7.33491 	 
C 	 -107.912 	 11.9283 	 -7.404 	 
C 	 -108.428 	 11.913 	 -8.69529 	 
H 	 -108.573 	 11.675 	 -6.56817 	 
C 	 -105.743 	 12.4513 	 -6.07067 	 
H 	 -106.405 	 11.9564 	 -5.33943 	 
H 	 -105.653 	 13.4793 	 -5.7678 	 
C 	 -104.353 	 11.8586 	 -6.02259 	 
H 	 -103.66 	 12.2362 	 -6.87001 	 
H 	 -103.882 	 12.1794 	 -5.10815 	 
C 	 -104.256 	 10.346 	 -6.01049 	 
H 	 -105.153 	 9.95735 	 -5.54248 	 
H 	 -104.414 	 9.9605 	 -7.02779 	 
H 	 -103.292 	 9.92618 	 -5.62256 	 
S 	 -110.573 	 10.2484 	 -8.83762 	 
C 	 -112.183 	 11.0222 	 -9.14253 	 
C 	 -112.177 	 12.3947 	 -9.23205 	 
C 	 -110.841 	 12.8779 	 -8.99415 	 
C 	 -109.908 	 11.8545 	 -8.85956 	 
H 	 -113.091 	 12.9301 	 -9.49348 	 
C 	 -110.635 	 14.3763 	 -8.9718 	 
H 	 -109.682 	 14.6829 	 -8.46954 	 
H 	 -111.419 	 14.7894 	 -8.3024 	 
C 	 -110.695 	 14.992 	 -10.4213 	 
H 	 -111.569 	 14.5988 	 -10.879 	 
H 	 -109.897 	 14.4873 	 -11.0549 	 
C 	 -110.458 	 16.5171 	 -10.4774 	 
H 	 -111.08 	 17.102 	 -9.84728 	 
H 	 -110.532 	 16.9824 	 -11.3933 	 
H 	 -109.423 	 16.5881 	 -10.2841 	 
H 	 -105.09 	 12.9407 	 -8.71409 	 
H 	 -113.045 	 10.4335 	 -9.36578 	 
*
