! wB97X-D3 SP def2-SVP
%pal
nprocs 24
end

* xyz 0 1
S 	 -68.4439 	 -44.5061 	 -90.5786 	 
C 	 -66.8279 	 -44.1383 	 -91.0479 	 
C 	 -65.9392 	 -45.1227 	 -90.77 	 
C 	 -66.6487 	 -46.3248 	 -90.3953 	 
C 	 -67.9743 	 -46.1597 	 -90.3233 	 
H 	 -66.2108 	 -47.3336 	 -90.08 	 
C 	 -64.442 	 -45.0148 	 -90.8226 	 
H 	 -64.2976 	 -44.309 	 -91.678 	 
H 	 -64.0432 	 -45.8905 	 -91.2505 	 
C 	 -63.8327 	 -44.5142 	 -89.4988 	 
H 	 -62.7437 	 -44.5075 	 -89.6066 	 
H 	 -64.0986 	 -43.4912 	 -89.3405 	 
C 	 -64.1727 	 -45.3386 	 -88.246 	 
H 	 -65.2501 	 -45.5377 	 -88.2088 	 
H 	 -63.5413 	 -46.2628 	 -88.243 	 
H 	 -63.8605 	 -44.6933 	 -87.3361 	 
S 	 -70.2816 	 -46.8502 	 -88.9833 	 
C 	 -70.9239 	 -48.4207 	 -89.0544 	 
C 	 -70.2676 	 -49.2618 	 -90.0398 	 
C 	 -69.2061 	 -48.5629 	 -90.6353 	 
C 	 -68.9578 	 -47.2675 	 -90.1072 	 
H 	 -70.6329 	 -50.2716 	 -90.1533 	 
C 	 -68.3975 	 -49.3347 	 -91.6747 	 
H 	 -67.7826 	 -48.6691 	 -92.3107 	 
H 	 -69.12 	 -49.8285 	 -92.3697 	 
C 	 -67.5641 	 -50.4571 	 -91.0786 	 
H 	 -67.3448 	 -51.1264 	 -91.8758 	 
H 	 -68.2293 	 -50.9718 	 -90.4057 	 
C 	 -66.2671 	 -50.0805 	 -90.3989 	 
H 	 -65.5844 	 -49.5167 	 -90.969 	 
H 	 -65.6552 	 -50.9188 	 -90.0514 	 
H 	 -66.3959 	 -49.4982 	 -89.4715 	 
H 	 -66.565 	 -43.1135 	 -91.356 	 
H 	 -71.7336 	 -48.6683 	 -88.4432 	 
*
