! wB97X-D3 SP def2-SVP
%pal
nprocs 24
end

* xyz 0 1
S 	 35.4243 	 -31.7724 	 -115.059 	 
C 	 34.1591 	 -32.6456 	 -114.147 	 
C 	 34.6147 	 -33.4896 	 -113.14 	 
C 	 36.034 	 -33.4735 	 -113.09 	 
C 	 36.6378 	 -32.5722 	 -114.036 	 
H 	 36.666 	 -34.1935 	 -112.653 	 
C 	 33.714 	 -34.502 	 -112.456 	 
H 	 33.9892 	 -35.4646 	 -112.99 	 
H 	 32.7081 	 -34.1721 	 -112.668 	 
C 	 33.8397 	 -34.5614 	 -110.953 	 
H 	 34.7911 	 -35.0675 	 -110.804 	 
H 	 33.8019 	 -33.5867 	 -110.55 	 
C 	 32.5974 	 -35.1814 	 -110.25 	 
H 	 32.3765 	 -36.1345 	 -110.597 	 
H 	 32.7954 	 -35.4035 	 -109.159 	 
H 	 31.5853 	 -34.7991 	 -110.47 	 
S 	 38.9864 	 -32.8542 	 -115.593 	 
C 	 40.4844 	 -32.2613 	 -114.945 	 
C 	 40.263 	 -31.7661 	 -113.668 	 
C 	 38.8516 	 -31.7256 	 -113.22 	 
C 	 38.0403 	 -32.3016 	 -114.174 	 
H 	 41.175 	 -31.4325 	 -113.161 	 
C 	 38.3774 	 -31.168 	 -111.863 	 
H 	 38.9052 	 -31.6959 	 -111.068 	 
H 	 37.3354 	 -31.2764 	 -111.731 	 
C 	 38.649 	 -29.6925 	 -111.549 	 
H 	 37.8874 	 -29.3913 	 -110.876 	 
H 	 38.5897 	 -29.0837 	 -112.44 	 
C 	 40.0069 	 -29.4966 	 -110.85 	 
H 	 40.0512 	 -29.983 	 -109.926 	 
H 	 40.2863 	 -28.47 	 -110.709 	 
H 	 40.852 	 -29.7973 	 -111.417 	 
H 	 33.1294 	 -32.5599 	 -114.274 	 
H 	 41.507 	 -32.1073 	 -115.387 	 
*
