! wB97X-D3 SP def2-SVP
%pal
nprocs 24
end

* xyz 0 1
S 	 -53.2236 	 7.29431 	 -18.8921 	 
C 	 -51.6779 	 6.42448 	 -18.9011 	 
C 	 -50.5937 	 7.32831 	 -18.9684 	 
C 	 -51.1595 	 8.68177 	 -19.0224 	 
C 	 -52.5044 	 8.84257 	 -18.9334 	 
H 	 -50.4786 	 9.48319 	 -19.12 	 
C 	 -49.0705 	 7.07409 	 -19.0059 	 
H 	 -48.5671 	 8.08218 	 -19.0869 	 
H 	 -48.7925 	 6.47817 	 -19.8445 	 
C 	 -48.5855 	 6.44302 	 -17.635 	 
H 	 -48.5611 	 7.1294 	 -16.9109 	 
H 	 -49.1385 	 5.58587 	 -17.3828 	 
C 	 -47.0732 	 6.09881 	 -17.8426 	 
H 	 -46.9291 	 5.49923 	 -18.7057 	 
H 	 -46.4488 	 6.95059 	 -17.8729 	 
H 	 -46.6961 	 5.52542 	 -16.9964 	 
S 	 -53.3106 	 11.3038 	 -19.9392 	 
C 	 -54.0889 	 12.3727 	 -18.8403 	 
C 	 -54.4722 	 11.7822 	 -17.6284 	 
C 	 -53.9773 	 10.4386 	 -17.5184 	 
C 	 -53.2135 	 10.0866 	 -18.6608 	 
H 	 -55.0822 	 12.2999 	 -16.908 	 
C 	 -54.1913 	 9.59098 	 -16.2916 	 
H 	 -54.612 	 8.64239 	 -16.5106 	 
H 	 -54.9005 	 10.2027 	 -15.6073 	 
C 	 -53.0005 	 9.15464 	 -15.4078 	 
H 	 -52.4711 	 10.0397 	 -15.0697 	 
H 	 -52.2295 	 8.71948 	 -15.9463 	 
C 	 -53.442 	 8.23305 	 -14.2195 	 
H 	 -54.1144 	 8.81858 	 -13.5423 	 
H 	 -52.5764 	 7.89628 	 -13.6683 	 
H 	 -53.8831 	 7.26986 	 -14.6061 	 
H 	 -51.6197 	 5.35186 	 -18.9504 	 
H 	 -54.436 	 13.418 	 -19.0275 	 
*
