! wB97X-D3 SP def2-SVP
%pal
nprocs 24
end

* xyz 0 1
S 	 -121.195 	 66.5354 	 -64.5957 	 
C 	 -121.791 	 64.9384 	 -65.0787 	 
C 	 -121.281 	 63.9984 	 -64.1741 	 
C 	 -120.683 	 64.5979 	 -63.0482 	 
C 	 -120.626 	 65.9623 	 -63.0259 	 
H 	 -120.311 	 63.9819 	 -62.1909 	 
C 	 -121.418 	 62.4844 	 -64.3728 	 
H 	 -120.521 	 62.2389 	 -64.8909 	 
H 	 -122.226 	 62.3418 	 -65.0183 	 
C 	 -121.573 	 61.7698 	 -63 	 
H 	 -120.739 	 62.0541 	 -62.4021 	 
H 	 -122.435 	 62.0687 	 -62.3938 	 
C 	 -121.626 	 60.2789 	 -62.9736 	 
H 	 -122.281 	 59.9178 	 -63.7752 	 
H 	 -120.687 	 59.928 	 -63.2781 	 
H 	 -121.919 	 59.8691 	 -62.0238 	 
S 	 -119.236 	 68.1645 	 -62.2162 	 
C 	 -119.222 	 68.6213 	 -60.5436 	 
C 	 -119.788 	 67.6063 	 -59.7804 	 
C 	 -120.436 	 66.5493 	 -60.5277 	 
C 	 -120.251 	 66.7836 	 -61.9174 	 
H 	 -119.856 	 67.8436 	 -58.7287 	 
C 	 -121.13 	 65.4176 	 -59.877 	 
H 	 -121.78 	 64.9877 	 -60.5817 	 
H 	 -121.803 	 65.7794 	 -59.086 	 
C 	 -120.236 	 64.3002 	 -59.3805 	 
H 	 -119.508 	 63.9903 	 -60.1624 	 
H 	 -120.855 	 63.3647 	 -59.1745 	 
C 	 -119.425 	 64.7214 	 -58.1043 	 
H 	 -118.955 	 63.8625 	 -57.728 	 
H 	 -120.128 	 64.9236 	 -57.3199 	 
H 	 -118.667 	 65.4907 	 -58.2277 	 
H 	 -122.287 	 64.6723 	 -66.0297 	 
H 	 -118.779 	 69.576 	 -60.1632 	 
*
