! wB97X-D3 SP def2-SVP
%pal
nprocs 24
end

* xyz 0 1
S 	 31.1729 	 -28.7967 	 -129.092 	 
C 	 30.095 	 -27.7524 	 -129.951 	 
C 	 29.1116 	 -28.4081 	 -130.593 	 
C 	 29.2694 	 -29.7633 	 -130.482 	 
C 	 30.2705 	 -30.2401 	 -129.643 	 
H 	 28.6349 	 -30.4492 	 -131.014 	 
C 	 28.0783 	 -27.6209 	 -131.388 	 
H 	 28.4623 	 -26.5959 	 -131.354 	 
H 	 27.045 	 -27.5837 	 -131.062 	 
C 	 27.9951 	 -28.0277 	 -132.868 	 
H 	 28.9466 	 -27.9907 	 -133.437 	 
H 	 27.6412 	 -29.0497 	 -132.884 	 
C 	 26.8911 	 -27.2106 	 -133.578 	 
H 	 27.345 	 -26.2065 	 -133.736 	 
H 	 26.5192 	 -27.622 	 -134.568 	 
H 	 25.9655 	 -27.0468 	 -133.02 	 
S 	 32.0361 	 -32.3511 	 -130.144 	 
C 	 31.6161 	 -33.9855 	 -129.632 	 
C 	 30.5675 	 -33.9154 	 -128.725 	 
C 	 29.972 	 -32.603 	 -128.639 	 
C 	 30.6435 	 -31.5876 	 -129.357 	 
H 	 30.2574 	 -34.7883 	 -128.137 	 
C 	 28.8677 	 -32.2924 	 -127.723 	 
H 	 28.3815 	 -33.2853 	 -127.447 	 
H 	 28.1229 	 -31.7289 	 -128.262 	 
C 	 29.3536 	 -31.4512 	 -126.512 	 
H 	 28.4782 	 -31.1243 	 -125.944 	 
H 	 29.8158 	 -30.5302 	 -126.806 	 
C 	 30.1139 	 -32.403 	 -125.659 	 
H 	 29.4662 	 -33.2321 	 -125.323 	 
H 	 30.6668 	 -31.8302 	 -124.893 	 
H 	 30.9393 	 -32.8463 	 -126.205 	 
H 	 30.1413 	 -26.694 	 -129.851 	 
H 	 32.1858 	 -34.8694 	 -129.672 	 
*
