! wB97X-D3 SP def2-SVP
%pal
nprocs 24
end

* xyz 0 1
S 	 -55.3851 	 12.9875 	 25.6403 	 
C 	 -54.2206 	 11.7873 	 25.2282 	 
C 	 -53.5476 	 12.1572 	 24.0577 	 
C 	 -53.9534 	 13.4309 	 23.5948 	 
C 	 -54.9376 	 14.0312 	 24.3103 	 
H 	 -53.5375 	 13.9488 	 22.6782 	 
C 	 -52.3225 	 11.4791 	 23.5189 	 
H 	 -51.7369 	 11.0418 	 24.3472 	 
H 	 -51.5998 	 12.2548 	 23.3713 	 
C 	 -52.4425 	 10.4644 	 22.335 	 
H 	 -51.3947 	 10.0977 	 22.0947 	 
H 	 -52.8922 	 9.52242 	 22.529 	 
C 	 -53.0978 	 10.9639 	 21.0486 	 
H 	 -53.2007 	 10.0992 	 20.3401 	 
H 	 -54.1298 	 11.3115 	 21.213 	 
H 	 -52.4253 	 11.7239 	 20.6219 	 
S 	 -57.2204 	 15.6036 	 24.0057 	 
C 	 -56.9816 	 17.2162 	 23.4865 	 
C 	 -55.6447 	 17.6416 	 23.4224 	 
C 	 -54.7908 	 16.5654 	 23.7332 	 
C 	 -55.4647 	 15.4074 	 24.0923 	 
H 	 -55.5084 	 18.6657 	 23.1031 	 
C 	 -53.3053 	 16.7832 	 23.6821 	 
H 	 -52.6888 	 16.0249 	 24.2004 	 
H 	 -53.0572 	 17.6976 	 24.2726 	 
C 	 -52.5944 	 16.9179 	 22.3308 	 
H 	 -53.015 	 17.6877 	 21.6333 	 
H 	 -52.706 	 15.9481 	 21.7399 	 
C 	 -51.1584 	 17.2083 	 22.6175 	 
H 	 -50.7599 	 16.3955 	 23.1079 	 
H 	 -51.1411 	 18.1638 	 23.1585 	 
H 	 -50.6569 	 17.4513 	 21.6561 	 
H 	 -54.0759 	 10.8213 	 25.7333 	 
H 	 -57.7857 	 17.9519 	 23.3617 	 
*
