! wB97X-D3 SP def2-SVP
%pal
nprocs 24
end

* xyz 0 1
S 	 -52.0903 	 21.7259 	 34.3005 	 
C 	 -50.4061 	 21.8994 	 34.143 	 
C 	 -49.849 	 20.8451 	 33.418 	 
C 	 -50.7527 	 19.8029 	 33.0706 	 
C 	 -52.0235 	 20.1938 	 33.4601 	 
H 	 -50.5445 	 18.9152 	 32.5297 	 
C 	 -48.4163 	 20.9247 	 33.0277 	 
H 	 -47.8169 	 20.3298 	 33.79 	 
H 	 -48.0714 	 21.8983 	 33.2556 	 
C 	 -48.1251 	 20.6554 	 31.5962 	 
H 	 -48.808 	 21.2024 	 30.9545 	 
H 	 -47.2368 	 21.1953 	 31.3117 	 
C 	 -47.9139 	 19.194 	 31.2078 	 
H 	 -47.6181 	 19.0354 	 30.1594 	 
H 	 -47.0568 	 18.7859 	 31.7329 	 
H 	 -48.6594 	 18.4337 	 31.4848 	 
S 	 -53.9205 	 18.6833 	 34.8224 	 
C 	 -55.0071 	 17.6977 	 33.9205 	 
C 	 -54.7905 	 17.7778 	 32.5369 	 
C 	 -53.7065 	 18.6445 	 32.1721 	 
C 	 -53.2099 	 19.3128 	 33.2903 	 
H 	 -55.4077 	 17.2641 	 31.8663 	 
C 	 -53.209 	 18.8453 	 30.7243 	 
H 	 -52.1192 	 18.9374 	 30.7261 	 
H 	 -53.5636 	 19.8396 	 30.4113 	 
C 	 -53.6651 	 17.8178 	 29.6771 	 
H 	 -54.7233 	 17.6218 	 29.6712 	 
H 	 -53.2782 	 16.8014 	 29.9121 	 
C 	 -53.2505 	 18.3027 	 28.2929 	 
H 	 -53.8877 	 19.1397 	 27.9504 	 
H 	 -53.3407 	 17.5008 	 27.567 	 
H 	 -52.1494 	 18.5454 	 28.4098 	 
H 	 -49.9013 	 22.7379 	 34.5994 	 
H 	 -55.8461 	 17.0206 	 34.2602 	 
*
