! wB97X-D3 SP def2-SVP
%pal
nprocs 24
end

* xyz 0 1
S 	 -65.8333 	 10.9406 	 -74.1886 	 
C 	 -65.4675 	 11.4481 	 -72.5527 	 
C 	 -66.3862 	 11.0456 	 -71.6351 	 
C 	 -67.5224 	 10.4152 	 -72.2697 	 
C 	 -67.1523 	 10.0185 	 -73.5764 	 
H 	 -68.4698 	 10.1477 	 -71.8031 	 
C 	 -66.4412 	 11.5336 	 -70.2196 	 
H 	 -67.128 	 12.406 	 -70.1299 	 
H 	 -65.4492 	 11.859 	 -69.9616 	 
C 	 -66.7699 	 10.487 	 -69.1755 	 
H 	 -66.4134 	 10.8349 	 -68.1758 	 
H 	 -67.8402 	 10.3568 	 -69.2337 	 
C 	 -65.9755 	 9.20545 	 -69.3536 	 
H 	 -66.3008 	 8.48216 	 -68.5591 	 
H 	 -66.3532 	 8.70573 	 -70.3391 	 
H 	 -64.8807 	 9.14295 	 -69.212 	 
S 	 -68.3005 	 9.47448 	 -76.0445 	 
C 	 -68.8299 	 7.93528 	 -76.4196 	 
C 	 -69.0406 	 7.19902 	 -75.2798 	 
C 	 -68.3019 	 7.7299 	 -74.1268 	 
C 	 -67.8177 	 8.99838 	 -74.4367 	 
H 	 -69.3565 	 6.15423 	 -75.3987 	 
C 	 -68.2102 	 7.07654 	 -72.8099 	 
H 	 -68.8287 	 6.2083 	 -72.6845 	 
H 	 -68.5203 	 7.88395 	 -72.0846 	 
C 	 -66.8098 	 6.60919 	 -72.3624 	 
H 	 -66.7229 	 6.36578 	 -71.3099 	 
H 	 -66.1654 	 7.46778 	 -72.6038 	 
C 	 -66.3883 	 5.38276 	 -73.2066 	 
H 	 -67.2061 	 4.62612 	 -73.3399 	 
H 	 -65.4474 	 4.89551 	 -72.7873 	 
H 	 -66.0377 	 5.582 	 -74.1433 	 
H 	 -64.6189 	 11.9933 	 -72.2821 	 
H 	 -69.0045 	 7.57279 	 -77.4161 	 
*
