! wB97X-D3 SP def2-SVP
%pal
nprocs 24
end

* xyz 0 1
S 	 -70.8599 	 14.6652 	 -74.5486 	 
C 	 -69.9392 	 15.1712 	 -73.1905 	 
C 	 -69.0785 	 16.1922 	 -73.5035 	 
C 	 -69.0744 	 16.5126 	 -74.9119 	 
C 	 -70.101 	 15.9181 	 -75.5722 	 
H 	 -68.3751 	 17.1446 	 -75.4932 	 
C 	 -68.0623 	 16.7326 	 -72.5731 	 
H 	 -67.1997 	 16.2036 	 -72.8449 	 
H 	 -68.2477 	 16.3096 	 -71.5539 	 
C 	 -67.9428 	 18.2678 	 -72.4517 	 
H 	 -67.0481 	 18.6075 	 -71.8972 	 
H 	 -67.8024 	 18.8143 	 -73.4483 	 
C 	 -69.1373 	 18.9865 	 -71.737 	 
H 	 -70.0337 	 18.9165 	 -72.339 	 
H 	 -69.3645 	 18.5526 	 -70.7562 	 
H 	 -68.8518 	 20.0009 	 -71.5596 	 
S 	 -69.9914 	 14.606 	 -78.1033 	 
C 	 -70.4141 	 15.4714 	 -79.5529 	 
C 	 -70.836 	 16.7654 	 -79.2389 	 
C 	 -70.7675 	 16.993 	 -77.7943 	 
C 	 -70.3671 	 15.9381 	 -76.9971 	 
H 	 -71.199 	 17.424 	 -80.0153 	 
C 	 -71.3009 	 18.259 	 -77.1505 	 
H 	 -71.7097 	 17.8811 	 -76.2445 	 
H 	 -72.1737 	 18.5172 	 -77.8266 	 
C 	 -70.3981 	 19.4842 	 -77.0275 	 
H 	 -70.129 	 20.1509 	 -77.8908 	 
H 	 -69.4521 	 19.1235 	 -76.8058 	 
C 	 -70.9224 	 20.4833 	 -75.9988 	 
H 	 -71.0182 	 20.112 	 -75.0258 	 
H 	 -71.8839 	 20.8102 	 -76.1377 	 
H 	 -70.2681 	 21.351 	 -75.8999 	 
H 	 -69.9715 	 14.6872 	 -72.2242 	 
H 	 -70.2773 	 15.0428 	 -80.5629 	 
*
