! wB97X-D3 SP def2-SVP
%pal
nprocs 24
end

* xyz 0 1
S 	 -60.9535 	 -58.3121 	 -76.5016 	 
C 	 -61.6045 	 -57.7204 	 -75.0485 	 
C 	 -62.0001 	 -56.398 	 -75.0801 	 
C 	 -61.6109 	 -55.7841 	 -76.3016 	 
C 	 -60.9942 	 -56.6822 	 -77.1577 	 
H 	 -61.7873 	 -54.7482 	 -76.7029 	 
C 	 -62.5743 	 -55.6847 	 -73.8302 	 
H 	 -61.9572 	 -55.8926 	 -72.958 	 
H 	 -63.4724 	 -56.3266 	 -73.511 	 
C 	 -62.6613 	 -54.1569 	 -73.8087 	 
H 	 -63.0178 	 -53.8438 	 -74.8636 	 
H 	 -63.4399 	 -53.8099 	 -73.149 	 
C 	 -61.3617 	 -53.3753 	 -73.4442 	 
H 	 -61.4228 	 -52.3247 	 -73.6375 	 
H 	 -61.1036 	 -53.5787 	 -72.4006 	 
H 	 -60.5148 	 -53.6383 	 -74.0295 	 
S 	 -60.9826 	 -57.1354 	 -79.8797 	 
C 	 -59.9348 	 -56.3052 	 -80.9383 	 
C 	 -59.1743 	 -55.4428 	 -80.1537 	 
C 	 -59.4951 	 -55.3661 	 -78.7814 	 
C 	 -60.4557 	 -56.3106 	 -78.4543 	 
H 	 -58.3626 	 -54.9668 	 -80.6567 	 
C 	 -58.7323 	 -54.6275 	 -77.7149 	 
H 	 -59.0607 	 -54.964 	 -76.7023 	 
H 	 -59.264 	 -53.7117 	 -77.7366 	 
C 	 -57.2379 	 -54.4062 	 -77.838 	 
H 	 -56.8793 	 -53.7424 	 -77.0359 	 
H 	 -57.0373 	 -53.89 	 -78.6881 	 
C 	 -56.5608 	 -55.7766 	 -77.8628 	 
H 	 -55.4688 	 -55.699 	 -77.896 	 
H 	 -56.7795 	 -56.3442 	 -78.7536 	 
H 	 -56.9734 	 -56.3945 	 -77.0755 	 
H 	 -61.9043 	 -58.4398 	 -74.3028 	 
H 	 -59.6775 	 -56.5253 	 -81.9498 	 
*
