! wB97X-D3 SP def2-SVP
%pal
nprocs 24
end

* xyz 0 1
S 	 -40.6218 	 7.9036 	 -7.20207 	 
C 	 -40.1918 	 6.43906 	 -8.04556 	 
C 	 -40.1481 	 5.40195 	 -7.17035 	 
C 	 -40.5433 	 5.81855 	 -5.84797 	 
C 	 -40.6575 	 7.16074 	 -5.6548 	 
H 	 -40.605 	 5.12438 	 -4.99685 	 
C 	 -39.975 	 3.96303 	 -7.5905 	 
H 	 -40.8415 	 3.67278 	 -8.04631 	 
H 	 -40.0079 	 3.33623 	 -6.64887 	 
C 	 -38.697 	 3.61067 	 -8.35574 	 
H 	 -38.7918 	 4.02339 	 -9.33963 	 
H 	 -37.7266 	 3.96913 	 -8.02319 	 
C 	 -38.471 	 2.09981 	 -8.69669 	 
H 	 -39.3603 	 1.73484 	 -9.13182 	 
H 	 -37.632 	 2.02679 	 -9.37883 	 
H 	 -38.3777 	 1.50868 	 -7.85523 	 
S 	 -42.8691 	 7.97855 	 -4.14346 	 
C 	 -42.5773 	 8.8617 	 -2.73224 	 
C 	 -41.233 	 8.77951 	 -2.31641 	 
C 	 -40.4185 	 8.16312 	 -3.3365 	 
C 	 -41.1415 	 7.84915 	 -4.48127 	 
H 	 -40.9315 	 9.17083 	 -1.3213 	 
C 	 -38.9211 	 7.97814 	 -3.21927 	 
H 	 -38.3872 	 8.04603 	 -4.18663 	 
H 	 -38.7792 	 6.94637 	 -2.95376 	 
C 	 -38.1383 	 8.77839 	 -2.16496 	 
H 	 -37.0546 	 8.60762 	 -2.09482 	 
H 	 -38.5295 	 8.49897 	 -1.23134 	 
C 	 -38.1878 	 10.3045 	 -2.27476 	 
H 	 -37.764 	 10.7657 	 -3.06238 	 
H 	 -37.6381 	 10.7807 	 -1.42655 	 
H 	 -39.1668 	 10.6833 	 -2.24512 	 
H 	 -40.0409 	 6.31435 	 -9.10643 	 
H 	 -43.3074 	 9.14919 	 -2.0337 	 
*
