! wB97X-D3 SP def2-SVP
%pal
nprocs 24
end

* xyz 0 1
S 	 -70.7003 	 3.64648 	 -70.027 	 
C 	 -70.8404 	 5.03131 	 -68.9835 	 
C 	 -71.5623 	 4.66016 	 -67.8208 	 
C 	 -71.9914 	 3.31006 	 -67.8018 	 
C 	 -71.5987 	 2.65492 	 -68.9513 	 
H 	 -72.606 	 2.80426 	 -67.0642 	 
C 	 -71.9083 	 5.55909 	 -66.6244 	 
H 	 -71.011 	 5.76201 	 -66.0827 	 
H 	 -72.4621 	 4.92244 	 -65.9329 	 
C 	 -72.7264 	 6.88949 	 -66.873 	 
H 	 -72.1293 	 7.64968 	 -67.3392 	 
H 	 -73.5036 	 6.63984 	 -67.5657 	 
C 	 -73.3764 	 7.41897 	 -65.5431 	 
H 	 -74.0938 	 6.70991 	 -65.1286 	 
H 	 -72.66 	 7.59384 	 -64.7802 	 
H 	 -73.9227 	 8.386 	 -65.7242 	 
S 	 -70.4266 	 0.283147 	 -69.6631 	 
C 	 -71.4115 	 -1.13759 	 -69.8648 	 
C 	 -72.7076 	 -0.901765 	 -69.5387 	 
C 	 -72.9568 	 0.3896 	 -69.0746 	 
C 	 -71.8254 	 1.2355 	 -69.2158 	 
H 	 -73.5775 	 -1.60866 	 -69.7055 	 
C 	 -74.3024 	 0.844355 	 -68.5818 	 
H 	 -74.5651 	 1.78577 	 -69.0203 	 
H 	 -74.1312 	 1.01998 	 -67.5338 	 
C 	 -75.5137 	 -0.198198 	 -68.6633 	 
H 	 -75.3336 	 -1.02939 	 -68.0512 	 
H 	 -75.6537 	 -0.562796 	 -69.6628 	 
C 	 -76.8219 	 0.325595 	 -68.0908 	 
H 	 -76.6267 	 0.763001 	 -67.1022 	 
H 	 -77.5291 	 -0.483961 	 -68.056 	 
H 	 -77.1797 	 1.12642 	 -68.7827 	 
H 	 -70.543 	 6.0098 	 -69.2775 	 
H 	 -71.0707 	 -2.01683 	 -70.4062 	 
*
