! wB97X-D3 SP def2-SVP
%pal
nprocs 24
end

* xyz 0 1
S 	 -103.427 	 22.6816 	 -121.799 	 
C 	 -102.351 	 23.315 	 -120.55 	 
C 	 -102.418 	 22.5266 	 -119.445 	 
C 	 -103.388 	 21.509 	 -119.579 	 
C 	 -104.01 	 21.3582 	 -120.872 	 
H 	 -103.664 	 20.6975 	 -118.875 	 
C 	 -101.506 	 22.6662 	 -118.201 	 
H 	 -101.599 	 23.706 	 -117.997 	 
H 	 -100.509 	 22.5359 	 -118.485 	 
C 	 -101.618 	 21.689 	 -116.991 	 
H 	 -101.602 	 20.6236 	 -117.288 	 
H 	 -100.802 	 21.8181 	 -116.294 	 
C 	 -102.888 	 21.8772 	 -116.208 	 
H 	 -102.795 	 22.8442 	 -115.584 	 
H 	 -103.811 	 21.9063 	 -116.749 	 
H 	 -102.902 	 21.1121 	 -115.436 	 
S 	 -106.504 	 21.3302 	 -121.773 	 
C 	 -107.411 	 19.8861 	 -122.025 	 
C 	 -106.704 	 18.7578 	 -121.592 	 
C 	 -105.37 	 19.0738 	 -121.194 	 
C 	 -105.103 	 20.4583 	 -121.31 	 
H 	 -107.236 	 17.8409 	 -121.604 	 
C 	 -104.414 	 17.9954 	 -120.836 	 
H 	 -103.508 	 18.1782 	 -121.337 	 
H 	 -104.636 	 17.0072 	 -121.267 	 
C 	 -104.021 	 17.6595 	 -119.391 	 
H 	 -104.839 	 17.6212 	 -118.684 	 
H 	 -103.466 	 18.5203 	 -119.029 	 
C 	 -103.104 	 16.4358 	 -119.146 	 
H 	 -102.938 	 16.3131 	 -118.078 	 
H 	 -102.2 	 16.6238 	 -119.672 	 
H 	 -103.589 	 15.4437 	 -119.392 	 
H 	 -101.599 	 24.0736 	 -120.643 	 
H 	 -108.484 	 19.9543 	 -122.248 	 
*
