! wB97X-D3 SP def2-SVP
%pal
nprocs 24
end

* xyz 0 1
S 	 -55.9631 	 -50.0775 	 -80.5342 	 
C 	 -55.9116 	 -50.2383 	 -82.2689 	 
C 	 -55.0569 	 -49.3864 	 -82.8984 	 
C 	 -54.2399 	 -48.7095 	 -81.9377 	 
C 	 -54.7307 	 -48.8979 	 -80.6423 	 
H 	 -53.3176 	 -48.2284 	 -82.1501 	 
C 	 -54.8096 	 -49.3824 	 -84.434 	 
H 	 -54.4154 	 -50.3082 	 -84.6849 	 
H 	 -54.0468 	 -48.6667 	 -84.5481 	 
C 	 -55.9644 	 -48.9101 	 -85.3139 	 
H 	 -55.6946 	 -48.9612 	 -86.3439 	 
H 	 -56.709 	 -49.729 	 -85.2145 	 
C 	 -56.6124 	 -47.5502 	 -85.02 	 
H 	 -56.8016 	 -47.352 	 -83.964 	 
H 	 -55.9521 	 -46.7673 	 -85.1772 	 
H 	 -57.493 	 -47.3426 	 -85.6597 	 
S 	 -54.1023 	 -49.2259 	 -77.9172 	 
C 	 -53.163 	 -48.0525 	 -77.0573 	 
C 	 -53.1387 	 -46.915 	 -77.785 	 
C 	 -53.7568 	 -46.9488 	 -79.1055 	 
C 	 -54.3225 	 -48.2196 	 -79.3921 	 
H 	 -52.5056 	 -46.1036 	 -77.5149 	 
C 	 -53.6978 	 -45.7093 	 -80.0154 	 
H 	 -54.2062 	 -45.9425 	 -80.9908 	 
H 	 -52.6169 	 -45.5921 	 -80.2647 	 
C 	 -54.3255 	 -44.4212 	 -79.4096 	 
H 	 -53.9558 	 -44.371 	 -78.4309 	 
H 	 -55.4803 	 -44.6257 	 -79.2752 	 
C 	 -53.9454 	 -43.0825 	 -80.0635 	 
H 	 -53.6239 	 -43.1738 	 -81.0998 	 
H 	 -52.9837 	 -42.6207 	 -79.6852 	 
H 	 -54.8126 	 -42.4391 	 -79.9407 	 
H 	 -56.6309 	 -50.9064 	 -82.6943 	 
H 	 -52.593 	 -48.325 	 -76.1646 	 
*
