! wB97X-D3 SP def2-SVP
%pal
nprocs 24
end

* xyz 0 1
S 	 47.399 	 -12.7165 	 -110.673 	 
C 	 48.4972 	 -12.133 	 -111.831 	 
C 	 49.2159 	 -11.0771 	 -111.331 	 
C 	 48.8063 	 -10.6879 	 -109.971 	 
C 	 47.6989 	 -11.407 	 -109.534 	 
H 	 49.2213 	 -9.83755 	 -109.427 	 
C 	 50.1768 	 -10.2198 	 -112.135 	 
H 	 50.8304 	 -10.8629 	 -112.723 	 
H 	 50.8126 	 -9.67364 	 -111.429 	 
C 	 49.615 	 -9.11289 	 -113.019 	 
H 	 49.0451 	 -9.61369 	 -113.827 	 
H 	 48.7448 	 -8.49758 	 -112.594 	 
C 	 50.5675 	 -8.0836 	 -113.631 	 
H 	 50.1682 	 -7.46286 	 -114.462 	 
H 	 50.8338 	 -7.31508 	 -112.875 	 
H 	 51.425 	 -8.57559 	 -114.061 	 
S 	 45.161 	 -11.5393 	 -108.42 	 
C 	 44.874 	 -11.1822 	 -106.76 	 
C 	 45.965 	 -10.4905 	 -106.195 	 
C 	 47.1295 	 -10.5457 	 -107.068 	 
C 	 46.8918 	 -11.1214 	 -108.341 	 
H 	 45.9658 	 -10.0952 	 -105.127 	 
C 	 48.4537 	 -9.9552 	 -106.612 	 
H 	 49.2599 	 -10.4047 	 -107.232 	 
H 	 48.5876 	 -10.2894 	 -105.601 	 
C 	 48.5357 	 -8.42118 	 -106.631 	 
H 	 49.5193 	 -8.05579 	 -106.324 	 
H 	 47.9745 	 -8.03414 	 -105.727 	 
C 	 48.0675 	 -7.7201 	 -107.873 	 
H 	 48.8444 	 -7.8244 	 -108.67 	 
H 	 48.099 	 -6.69271 	 -107.695 	 
H 	 47.0658 	 -7.89615 	 -108.147 	 
H 	 48.8159 	 -12.6291 	 -112.67 	 
H 	 43.9296 	 -11.244 	 -106.31 	 
*
