! wB97X-D3 SP def2-SVP
%pal
nprocs 24
end

* xyz 0 1
S 	 -131.843 	 15.1981 	 -7.98336 	 
C 	 -130.393 	 15.4278 	 -7.17175 	 
C 	 -129.619 	 14.3102 	 -7.05452 	 
C 	 -130.102 	 13.2789 	 -7.86873 	 
C 	 -131.257 	 13.6537 	 -8.53103 	 
H 	 -129.72 	 12.274 	 -7.97466 	 
C 	 -128.376 	 14.2746 	 -6.23664 	 
H 	 -128.568 	 13.747 	 -5.32269 	 
H 	 -128.056 	 15.2603 	 -5.7748 	 
C 	 -127.061 	 13.8521 	 -7.0302 	 
H 	 -126.253 	 13.6781 	 -6.29902 	 
H 	 -127.216 	 12.8593 	 -7.50021 	 
C 	 -126.558 	 14.9281 	 -7.99228 	 
H 	 -127.368 	 15.2022 	 -8.6054 	 
H 	 -126.302 	 15.9094 	 -7.48132 	 
H 	 -125.74 	 14.6212 	 -8.6186 	 
S 	 -132.92 	 13.788 	 -10.7887 	 
C 	 -133.551 	 12.317 	 -11.4838 	 
C 	 -133.14 	 11.2049 	 -10.7832 	 
C 	 -132.229 	 11.5322 	 -9.70173 	 
C 	 -132.076 	 12.9218 	 -9.54383 	 
H 	 -133.494 	 10.24 	 -11.0604 	 
C 	 -131.64 	 10.3762 	 -8.9566 	 
H 	 -132.49 	 9.57916 	 -9.01731 	 
H 	 -131.375 	 10.8102 	 -7.97789 	 
C 	 -130.286 	 9.71768 	 -9.40712 	 
H 	 -129.562 	 10.5536 	 -9.33468 	 
H 	 -130.341 	 9.38173 	 -10.4275 	 
C 	 -129.832 	 8.57968 	 -8.55578 	 
H 	 -129.65 	 8.78668 	 -7.54519 	 
H 	 -129.053 	 7.94384 	 -8.93467 	 
H 	 -130.604 	 7.8437 	 -8.67247 	 
H 	 -130.165 	 16.3599 	 -6.6521 	 
H 	 -134.412 	 12.2688 	 -12.164 	 
*
