! wB97X-D3 SP def2-SVP
%pal
nprocs 24
end

* xyz 0 1
S 	 -56.1769 	 9.86222 	 20.8905 	 
C 	 -55.8722 	 10.5585 	 19.2977 	 
C 	 -56.8619 	 10.1971 	 18.4107 	 
C 	 -57.7126 	 9.17884 	 18.9564 	 
C 	 -57.4995 	 8.88913 	 20.3119 	 
H 	 -58.5272 	 8.60777 	 18.4118 	 
C 	 -56.9172 	 10.5996 	 16.9367 	 
H 	 -56.0748 	 10.0518 	 16.5518 	 
H 	 -56.7088 	 11.7046 	 16.6975 	 
C 	 -58.2035 	 10.2808 	 16.1939 	 
H 	 -58.3028 	 9.25153 	 16.0495 	 
H 	 -59.0568 	 10.5138 	 16.8307 	 
C 	 -58.3803 	 10.8743 	 14.8038 	 
H 	 -59.3881 	 10.979 	 14.3928 	 
H 	 -57.9852 	 11.9016 	 14.8906 	 
H 	 -57.764 	 10.3029 	 14.1802 	 
S 	 -59.0211 	 8.62242 	 22.5126 	 
C 	 -59.4168 	 7.08684 	 23.2545 	 
C 	 -58.9875 	 6.07884 	 22.4843 	 
C 	 -58.1552 	 6.52741 	 21.3714 	 
C 	 -58.1298 	 7.91125 	 21.2078 	 
H 	 -59.1967 	 5.09939 	 22.8807 	 
C 	 -57.6652 	 5.59022 	 20.277 	 
H 	 -56.6032 	 5.3416 	 20.5259 	 
H 	 -57.6546 	 6.19123 	 19.4422 	 
C 	 -58.5314 	 4.42637 	 19.8993 	 
H 	 -59.5667 	 4.87403 	 19.9328 	 
H 	 -58.5109 	 3.60173 	 20.7074 	 
C 	 -58.2561 	 3.8364 	 18.4364 	 
H 	 -57.2963 	 3.37572 	 18.3543 	 
H 	 -58.4464 	 4.66661 	 17.7712 	 
H 	 -59.0326 	 3.15196 	 18.1314 	 
H 	 -55.1254 	 11.2803 	 19.0743 	 
H 	 -59.9289 	 6.90029 	 24.2357 	 
*
