! wB97X-D3 SP def2-SVP
%pal
nprocs 24
end

* xyz 0 1
S 	 -17.5756 	 -34.8732 	 -93.5139 	 
C 	 -16.2184 	 -35.9175 	 -93.9785 	 
C 	 -15.3811 	 -35.2037 	 -94.884 	 
C 	 -15.719 	 -33.8022 	 -94.9946 	 
C 	 -16.8501 	 -33.5173 	 -94.2666 	 
H 	 -15.2613 	 -33.0743 	 -95.6339 	 
C 	 -14.0551 	 -35.7244 	 -95.3456 	 
H 	 -13.7503 	 -36.4183 	 -94.525 	 
H 	 -13.3881 	 -34.8205 	 -95.406 	 
C 	 -14.0772 	 -36.2823 	 -96.7723 	 
H 	 -14.8326 	 -37.1617 	 -96.8553 	 
H 	 -14.4338 	 -35.4099 	 -97.3474 	 
C 	 -12.7037 	 -36.6888 	 -97.4505 	 
H 	 -12.2933 	 -37.5315 	 -96.857 	 
H 	 -13.0181 	 -37.0514 	 -98.389 	 
H 	 -12.0583 	 -35.8356 	 -97.6056 	 
S 	 -18.9874 	 -31.973 	 -95.0893 	 
C 	 -19.0547 	 -30.2889 	 -94.6197 	 
C 	 -17.9566 	 -29.9098 	 -93.913 	 
C 	 -17.0706 	 -31.0329 	 -93.5546 	 
C 	 -17.4756 	 -32.2244 	 -94.2139 	 
H 	 -18.0124 	 -28.858 	 -93.7132 	 
C 	 -15.7733 	 -30.8259 	 -92.8901 	 
H 	 -15.4031 	 -29.873 	 -93.2476 	 
H 	 -15.2406 	 -31.6404 	 -93.3156 	 
C 	 -15.71 	 -30.9073 	 -91.3081 	 
H 	 -15.8214 	 -31.9213 	 -90.8544 	 
H 	 -16.6288 	 -30.3952 	 -90.8657 	 
C 	 -14.4171 	 -30.2717 	 -90.8003 	 
H 	 -14.3675 	 -29.2072 	 -90.8885 	 
H 	 -13.5553 	 -30.8036 	 -91.1932 	 
H 	 -14.43 	 -30.3567 	 -89.7784 	 
H 	 -16.0295 	 -36.9714 	 -93.7039 	 
H 	 -19.8204 	 -29.5323 	 -94.8049 	 
*
