! wB97X-D3 SP def2-SVP
%pal
nprocs 24
end

* xyz 0 1
S 	 -81.4837 	 -8.30142 	 -58.1208 	 
C 	 -82.4069 	 -8.79424 	 -56.7168 	 
C 	 -83.0466 	 -7.77555 	 -56.0922 	 
C 	 -82.712 	 -6.5472 	 -56.7585 	 
C 	 -81.9399 	 -6.6477 	 -57.9016 	 
H 	 -83.0674 	 -5.58077 	 -56.4394 	 
C 	 -83.8052 	 -7.85943 	 -54.7591 	 
H 	 -84.8363 	 -7.69706 	 -54.9377 	 
H 	 -83.5518 	 -7.056 	 -54.1527 	 
C 	 -83.7405 	 -9.14 	 -53.9457 	 
H 	 -84.014 	 -9.98109 	 -54.64 	 
H 	 -82.735 	 -9.38762 	 -53.6954 	 
C 	 -84.6041 	 -9.05152 	 -52.6575 	 
H 	 -84.2891 	 -8.22679 	 -51.9968 	 
H 	 -85.6537 	 -8.719 	 -52.9933 	 
H 	 -84.7808 	 -10.1363 	 -52.2381 	 
S 	 -79.7839 	 -5.2383 	 -58.6202 	 
C 	 -79.8574 	 -4.33062 	 -60.175 	 
C 	 -80.9901 	 -4.62807 	 -60.8522 	 
C 	 -81.9861 	 -5.22168 	 -60.0229 	 
C 	 -81.4506 	 -5.62849 	 -58.8362 	 
H 	 -81.109 	 -4.30687 	 -61.9353 	 
C 	 -83.384 	 -5.60854 	 -60.6682 	 
H 	 -84.0147 	 -6.19771 	 -59.985 	 
H 	 -83.1768 	 -6.17613 	 -61.5538 	 
C 	 -84.4091 	 -4.4704 	 -61.0621 	 
H 	 -83.8809 	 -3.89294 	 -61.8237 	 
H 	 -84.6037 	 -3.76933 	 -60.2543 	 
C 	 -85.7348 	 -5.0139 	 -61.6195 	 
H 	 -86.0514 	 -5.92127 	 -61.2205 	 
H 	 -85.5074 	 -5.1203 	 -62.6677 	 
H 	 -86.6167 	 -4.26387 	 -61.6596 	 
H 	 -82.3393 	 -9.72586 	 -56.2961 	 
H 	 -78.8662 	 -3.98326 	 -60.6574 	 
*
