! wB97X-D3 SP def2-SVP
%pal
nprocs 24
end

* xyz 0 1
S 	 -46.434 	 20.3357 	 35.1385 	 
C 	 -44.7918 	 19.7048 	 34.7492 	 
C 	 -44.5546 	 20.0026 	 33.4539 	 
C 	 -45.6137 	 20.8429 	 32.8465 	 
C 	 -46.8319 	 20.799 	 33.4887 	 
H 	 -45.5678 	 21.5454 	 31.992 	 
C 	 -43.1017 	 20.0568 	 32.8259 	 
H 	 -42.6033 	 20.6615 	 33.5549 	 
H 	 -43.0504 	 20.5618 	 31.8787 	 
C 	 -42.3844 	 18.6484 	 32.6364 	 
H 	 -41.2906 	 18.8319 	 32.5855 	 
H 	 -42.6256 	 18.1041 	 33.5355 	 
C 	 -42.8676 	 17.9417 	 31.3873 	 
H 	 -42.6062 	 18.649 	 30.5937 	 
H 	 -42.3841 	 17.0169 	 31.2726 	 
H 	 -43.9582 	 17.8964 	 31.3755 	 
S 	 -48.8677 	 22.5339 	 34.2092 	 
C 	 -50.2312 	 22.6512 	 33.1063 	 
C 	 -49.8669 	 22.3034 	 31.8464 	 
C 	 -48.6292 	 21.5515 	 31.7959 	 
C 	 -48.0504 	 21.4719 	 33.0582 	 
H 	 -50.4803 	 22.3475 	 30.9674 	 
C 	 -48.0171 	 20.9467 	 30.5531 	 
H 	 -48.6403 	 20.1399 	 30.1415 	 
H 	 -47.0131 	 20.5105 	 30.7602 	 
C 	 -47.8847 	 21.897 	 29.3586 	 
H 	 -47.2934 	 22.7561 	 29.697 	 
H 	 -48.8789 	 22.3125 	 29.1425 	 
C 	 -47.181 	 21.2512 	 28.1905 	 
H 	 -46.3505 	 20.6591 	 28.5842 	 
H 	 -46.771 	 21.9702 	 27.4101 	 
H 	 -47.8805 	 20.6085 	 27.6693 	 
H 	 -44.1989 	 19.2783 	 35.5475 	 
H 	 -51.1898 	 23.1298 	 33.2784 	 
*
