! wB97X-D3 SP def2-SVP
%pal
nprocs 24
end

* xyz 0 1
S 	 12.5746 	 -12.8743 	 -126.42 	 
C 	 11.5066 	 -12.7962 	 -127.804 	 
C 	 12.0253 	 -13.3987 	 -128.94 	 
C 	 13.3159 	 -13.975 	 -128.598 	 
C 	 13.7885 	 -13.6696 	 -127.375 	 
H 	 13.9748 	 -14.4819 	 -129.251 	 
C 	 11.3326 	 -13.5149 	 -130.251 	 
H 	 11.847 	 -13.2225 	 -131.183 	 
H 	 10.4102 	 -12.9026 	 -130.233 	 
C 	 10.7067 	 -14.9658 	 -130.461 	 
H 	 10.4185 	 -14.8879 	 -131.507 	 
H 	 11.5452 	 -15.6685 	 -130.456 	 
C 	 9.54867 	 -15.3096 	 -129.481 	 
H 	 8.65685 	 -14.7376 	 -129.67 	 
H 	 9.37042 	 -16.3341 	 -129.565 	 
H 	 9.87357 	 -15.2289 	 -128.44 	 
S 	 16.4844 	 -13.8651 	 -127.813 	 
C 	 17.4586 	 -14.9179 	 -126.811 	 
C 	 16.7202 	 -15.2793 	 -125.696 	 
C 	 15.342 	 -14.9284 	 -125.77 	 
C 	 15.0404 	 -14.1878 	 -126.865 	 
H 	 17.2258 	 -15.7181 	 -124.867 	 
C 	 14.4256 	 -15.3373 	 -124.647 	 
H 	 13.7881 	 -14.515 	 -124.436 	 
H 	 15.0267 	 -15.5169 	 -123.752 	 
C 	 13.7064 	 -16.7273 	 -124.836 	 
H 	 13.1364 	 -16.9969 	 -123.93 	 
H 	 14.4694 	 -17.4004 	 -125.041 	 
C 	 12.792 	 -16.7643 	 -126.107 	 
H 	 12.4948 	 -17.7783 	 -126.239 	 
H 	 13.3118 	 -16.331 	 -126.954 	 
H 	 11.8193 	 -16.2211 	 -125.881 	 
H 	 10.5653 	 -12.3836 	 -127.748 	 
H 	 18.5292 	 -15.0257 	 -126.921 	 
*
