! wB97X-D3 SP def2-SVP
%pal
nprocs 24
end

* xyz 0 1
S 	 -61.1222 	 13.6913 	 -94.7861 	 
C 	 -62.5229 	 14.5133 	 -95.2399 	 
C 	 -63.4592 	 14.5863 	 -94.2232 	 
C 	 -62.9147 	 14.1256 	 -92.9977 	 
C 	 -61.619 	 13.7016 	 -93.0911 	 
H 	 -63.4138 	 14.1968 	 -91.9933 	 
C 	 -64.8069 	 15.2561 	 -94.3435 	 
H 	 -65.4923 	 14.7562 	 -93.6199 	 
H 	 -65.1053 	 15.176 	 -95.4557 	 
C 	 -64.8129 	 16.7144 	 -94.0142 	 
H 	 -64.1378 	 17.2768 	 -94.593 	 
H 	 -65.8185 	 17.186 	 -94.1908 	 
C 	 -64.252 	 17.0321 	 -92.6211 	 
H 	 -64.0753 	 18.0947 	 -92.3876 	 
H 	 -64.8945 	 16.6233 	 -91.7749 	 
H 	 -63.2645 	 16.6018 	 -92.6248 	 
S 	 -60.7216 	 11.2371 	 -92.0096 	 
C 	 -59.8317 	 11.2764 	 -90.471 	 
C 	 -59.5907 	 12.5834 	 -90.1074 	 
C 	 -60.208 	 13.6214 	 -90.9489 	 
C 	 -60.8371 	 13.0503 	 -92.0378 	 
H 	 -59.0763 	 12.8312 	 -89.1721 	 
C 	 -60.019 	 15.0705 	 -90.7124 	 
H 	 -60.6197 	 15.2638 	 -89.7632 	 
H 	 -60.4519 	 15.7122 	 -91.4628 	 
C 	 -58.5772 	 15.5959 	 -90.5367 	 
H 	 -58.0389 	 15.1408 	 -91.3374 	 
H 	 -58.2634 	 15.2412 	 -89.5604 	 
C 	 -58.4933 	 17.0759 	 -90.485 	 
H 	 -59.0703 	 17.5981 	 -89.6806 	 
H 	 -58.8242 	 17.4555 	 -91.4493 	 
H 	 -57.4652 	 17.3599 	 -90.2593 	 
H 	 -62.7276 	 14.8255 	 -96.1719 	 
H 	 -59.3867 	 10.4418 	 -89.9084 	 
*
