! wB97X-D3 SP def2-SVP
%pal
nprocs 24
end

* xyz 0 1
S 	 -82.6271 	 -37.3673 	 -74.0863 	 
C 	 -83.0074 	 -37.0939 	 -75.7248 	 
C 	 -82.9924 	 -38.2626 	 -76.4644 	 
C 	 -82.7801 	 -39.3842 	 -75.6284 	 
C 	 -82.6835 	 -39.0945 	 -74.2899 	 
H 	 -82.6456 	 -40.4194 	 -76.0031 	 
C 	 -83.2298 	 -38.3744 	 -77.9789 	 
H 	 -82.3681 	 -38.7156 	 -78.466 	 
H 	 -83.4476 	 -37.4699 	 -78.5467 	 
C 	 -84.3831 	 -39.4238 	 -78.1432 	 
H 	 -84.4847 	 -39.3346 	 -79.2174 	 
H 	 -83.9728 	 -40.45 	 -77.9685 	 
C 	 -85.7275 	 -39.2159 	 -77.5258 	 
H 	 -85.9453 	 -38.1507 	 -77.6747 	 
H 	 -86.4772 	 -39.84 	 -78.0536 	 
H 	 -85.7893 	 -39.4577 	 -76.4144 	 
S 	 -81.2053 	 -39.3568 	 -72.0049 	 
C 	 -81.319 	 -40.8354 	 -71.0714 	 
C 	 -82.0506 	 -41.783 	 -71.7571 	 
C 	 -82.6116 	 -41.3026 	 -72.9962 	 
C 	 -82.343 	 -39.9923 	 -73.1862 	 
H 	 -82.1831 	 -42.7583 	 -71.3058 	 
C 	 -83.4079 	 -42.3683 	 -73.718 	 
H 	 -84.0624 	 -41.8259 	 -74.473 	 
H 	 -84.0473 	 -42.8335 	 -72.9923 	 
C 	 -82.7778 	 -43.5754 	 -74.3816 	 
H 	 -83.4879 	 -44.2688 	 -74.7959 	 
H 	 -82.1382 	 -44.1294 	 -73.697 	 
C 	 -81.8247 	 -43.1181 	 -75.519 	 
H 	 -80.9001 	 -42.5985 	 -75.2297 	 
H 	 -82.231 	 -42.5162 	 -76.3008 	 
H 	 -81.6697 	 -43.9796 	 -76.1244 	 
H 	 -83.1626 	 -36.1027 	 -76.1652 	 
H 	 -80.7673 	 -41.0863 	 -70.1656 	 
*
