! wB97X-D3 SP def2-SVP
%pal
nprocs 24
end

* xyz 0 1
S 	 -43.9211 	 21.7968 	 28.9341 	 
C 	 -42.1868 	 21.4543 	 28.755 	 
C 	 -41.5147 	 21.7932 	 29.8969 	 
C 	 -42.3699 	 22.1277 	 30.9583 	 
C 	 -43.7346 	 22.1861 	 30.6492 	 
H 	 -42.0133 	 22.3912 	 31.9184 	 
C 	 -40.0089 	 21.7598 	 30.0508 	 
H 	 -39.7259 	 22.603 	 30.6769 	 
H 	 -39.6648 	 21.8621 	 28.9943 	 
C 	 -39.3585 	 20.4892 	 30.5664 	 
H 	 -39.6447 	 20.4904 	 31.6406 	 
H 	 -39.8278 	 19.5817 	 30.1093 	 
C 	 -37.8276 	 20.3371 	 30.4271 	 
H 	 -37.2727 	 20.5636 	 31.3595 	 
H 	 -37.5315 	 19.2667 	 30.3012 	 
H 	 -37.383 	 20.9613 	 29.7374 	 
S 	 -45.0529 	 21.8048 	 33.0607 	 
C 	 -46.4574 	 22.7589 	 33.4275 	 
C 	 -46.9052 	 23.4806 	 32.3351 	 
C 	 -46.0616 	 23.399 	 31.1908 	 
C 	 -44.9586 	 22.5949 	 31.4632 	 
H 	 -47.7499 	 24.1356 	 32.3734 	 
C 	 -46.4241 	 24.13 	 29.9061 	 
H 	 -47.4623 	 23.9781 	 29.7701 	 
H 	 -45.8936 	 23.6212 	 29.1204 	 
C 	 -46.1322 	 25.6752 	 29.9074 	 
H 	 -46.6932 	 25.9308 	 30.7903 	 
H 	 -46.5406 	 26.276 	 29.1003 	 
C 	 -44.7611 	 26.1649 	 30.2883 	 
H 	 -44.5325 	 25.7874 	 31.2507 	 
H 	 -44.7773 	 27.2293 	 30.2201 	 
H 	 -43.9711 	 25.6996 	 29.6554 	 
H 	 -41.6402 	 21.2792 	 27.7851 	 
H 	 -47.0359 	 22.6972 	 34.3284 	 
*
