! wB97X-D3 SP def2-SVP
%pal
nprocs 24
end

* xyz 0 1
S 	 -124.782 	 19.3884 	 -23.6318 	 
C 	 -124.048 	 20.6276 	 -22.6425 	 
C 	 -123.059 	 21.2423 	 -23.3854 	 
C 	 -123.067 	 20.9345 	 -24.7711 	 
C 	 -123.958 	 19.9272 	 -25.0286 	 
H 	 -122.566 	 21.4833 	 -25.5806 	 
C 	 -122.085 	 22.2794 	 -22.754 	 
H 	 -122.516 	 23.2793 	 -22.8546 	 
H 	 -121.227 	 22.3539 	 -23.4263 	 
C 	 -121.503 	 21.9062 	 -21.4784 	 
H 	 -122.299 	 21.4884 	 -20.8482 	 
H 	 -120.728 	 21.1908 	 -21.5474 	 
C 	 -120.888 	 23.1373 	 -20.7506 	 
H 	 -119.998 	 23.5034 	 -21.2771 	 
H 	 -121.611 	 23.9396 	 -20.5801 	 
H 	 -120.42 	 22.8873 	 -19.7939 	 
S 	 -125.746 	 19.6984 	 -27.1876 	 
C 	 -125.187 	 18.9555 	 -28.6795 	 
C 	 -123.924 	 18.4356 	 -28.5748 	 
C 	 -123.339 	 18.6524 	 -27.2615 	 
C 	 -124.173 	 19.377 	 -26.3488 	 
H 	 -123.477 	 17.8218 	 -29.3334 	 
C 	 -121.916 	 18.3351 	 -26.8237 	 
H 	 -121.766 	 18.6817 	 -25.7893 	 
H 	 -121.244 	 18.8935 	 -27.4456 	 
C 	 -121.594 	 16.8513 	 -26.8189 	 
H 	 -120.654 	 16.7607 	 -26.3184 	 
H 	 -121.429 	 16.5532 	 -27.8922 	 
C 	 -122.572 	 15.8902 	 -26.2109 	 
H 	 -122.074 	 14.8811 	 -26.4276 	 
H 	 -123.544 	 16.0129 	 -26.6559 	 
H 	 -122.656 	 16.1002 	 -25.1158 	 
H 	 -124.293 	 20.8033 	 -21.6089 	 
H 	 -125.609 	 18.9502 	 -29.6626 	 
*
