! wB97X-D3 SP def2-SVP
%pal
nprocs 24
end

* xyz 0 1
S 	 -101.913 	 -3.48659 	 -110.158 	 
C 	 -103.329 	 -4.45987 	 -109.734 	 
C 	 -103.564 	 -4.41813 	 -108.365 	 
C 	 -102.516 	 -3.79268 	 -107.703 	 
C 	 -101.669 	 -3.0018 	 -108.549 	 
H 	 -102.502 	 -3.55328 	 -106.652 	 
C 	 -104.766 	 -4.95583 	 -107.657 	 
H 	 -104.439 	 -5.52311 	 -106.794 	 
H 	 -105.145 	 -5.70182 	 -108.417 	 
C 	 -105.793 	 -3.83088 	 -107.403 	 
H 	 -105.848 	 -3.35932 	 -108.415 	 
H 	 -106.797 	 -4.28024 	 -107.154 	 
C 	 -105.552 	 -2.76289 	 -106.351 	 
H 	 -105.398 	 -3.33399 	 -105.375 	 
H 	 -104.732 	 -2.06084 	 -106.517 	 
H 	 -106.454 	 -2.20664 	 -106.267 	 
S 	 -100.033 	 -0.856173 	 -109.27 	 
C 	 -98.9812 	 -0.180508 	 -108.046 	 
C 	 -99.0435 	 -0.828147 	 -106.858 	 
C 	 -99.9183 	 -1.94373 	 -106.905 	 
C 	 -100.579 	 -2.09288 	 -108.143 	 
H 	 -98.5869 	 -0.471902 	 -105.95 	 
C 	 -100.19 	 -2.77526 	 -105.686 	 
H 	 -99.2781 	 -2.84157 	 -105.137 	 
H 	 -100.497 	 -3.7797 	 -106.044 	 
C 	 -101.175 	 -2.22714 	 -104.717 	 
H 	 -102.192 	 -2.05346 	 -105.171 	 
H 	 -100.88 	 -1.28581 	 -104.231 	 
C 	 -101.468 	 -3.18496 	 -103.547 	 
H 	 -101.775 	 -4.14955 	 -103.828 	 
H 	 -102.281 	 -2.83803 	 -102.833 	 
H 	 -100.731 	 -3.25697 	 -102.835 	 
H 	 -104.03 	 -4.92042 	 -110.384 	 
H 	 -98.342 	 0.60266 	 -108.298 	 
*
