! wB97X-D3 SP def2-SVP
%pal
nprocs 24
end

* xyz 0 1
S 	 -54.6779 	 -48.8202 	 -84.0276 	 
C 	 -55.2205 	 -49.3412 	 -85.6593 	 
C 	 -56.117 	 -48.393 	 -86.1354 	 
C 	 -56.3473 	 -47.2811 	 -85.2621 	 
C 	 -55.576 	 -47.2733 	 -84.1647 	 
H 	 -57.049 	 -46.4242 	 -85.3851 	 
C 	 -56.8498 	 -48.61 	 -87.5132 	 
H 	 -56.3569 	 -49.4338 	 -87.9594 	 
H 	 -56.6981 	 -47.7448 	 -88.1124 	 
C 	 -58.3749 	 -48.8029 	 -87.4295 	 
H 	 -58.6913 	 -47.9884 	 -86.6896 	 
H 	 -58.8525 	 -48.4992 	 -88.4252 	 
C 	 -58.851 	 -50.2621 	 -86.9371 	 
H 	 -59.9586 	 -50.3158 	 -86.9216 	 
H 	 -58.4076 	 -51.0507 	 -87.5293 	 
H 	 -58.4515 	 -50.4622 	 -85.9932 	 
S 	 -54.1411 	 -45.934 	 -82.2219 	 
C 	 -54.8776 	 -44.8199 	 -81.0599 	 
C 	 -56.1976 	 -44.7049 	 -81.4409 	 
C 	 -56.5904 	 -45.5308 	 -82.5084 	 
C 	 -55.5917 	 -46.2925 	 -83.0923 	 
H 	 -56.9242 	 -44.0628 	 -80.9191 	 
C 	 -58.0508 	 -45.5049 	 -82.8933 	 
H 	 -58.0956 	 -45.0754 	 -83.8978 	 
H 	 -58.494 	 -44.7486 	 -82.187 	 
C 	 -58.8347 	 -46.7628 	 -82.7777 	 
H 	 -58.7913 	 -47.1109 	 -81.7386 	 
H 	 -58.3404 	 -47.5709 	 -83.3961 	 
C 	 -60.3402 	 -46.6632 	 -83.1221 	 
H 	 -60.7894 	 -47.6361 	 -82.865 	 
H 	 -60.4393 	 -46.5061 	 -84.1939 	 
H 	 -60.8467 	 -45.8667 	 -82.6048 	 
H 	 -55.0837 	 -50.2593 	 -86.2176 	 
H 	 -54.4713 	 -44.299 	 -80.1918 	 
*
