! wB97X-D3 SP def2-SVP
%pal
nprocs 24
end

* xyz 0 1
S 	 -126.342 	 63.9017 	 -39.214 	 
C 	 -125.101 	 63.0734 	 -40.1047 	 
C 	 -123.883 	 63.7258 	 -40.1174 	 
C 	 -124.049 	 64.9294 	 -39.3933 	 
C 	 -125.276 	 65.2435 	 -38.9614 	 
H 	 -123.336 	 65.7691 	 -39.2283 	 
C 	 -122.671 	 63.1894 	 -40.7651 	 
H 	 -122.628 	 62.0487 	 -40.5983 	 
H 	 -121.875 	 63.7305 	 -40.1819 	 
C 	 -122.607 	 63.5059 	 -42.3349 	 
H 	 -121.633 	 63.1259 	 -42.7051 	 
H 	 -123.406 	 62.9143 	 -42.8242 	 
C 	 -122.861 	 64.9764 	 -42.8037 	 
H 	 -122.14 	 65.6409 	 -42.2906 	 
H 	 -122.555 	 65.1165 	 -43.8645 	 
H 	 -123.818 	 65.4607 	 -42.5979 	 
S 	 -126.385 	 66.0338 	 -36.6058 	 
C 	 -126.357 	 67.7024 	 -36.1661 	 
C 	 -125.904 	 68.4904 	 -37.1817 	 
C 	 -125.285 	 67.7597 	 -38.2647 	 
C 	 -125.61 	 66.4369 	 -38.1043 	 
H 	 -125.952 	 69.5617 	 -37.2458 	 
C 	 -124.713 	 68.3589 	 -39.4962 	 
H 	 -125.185 	 69.2596 	 -39.723 	 
H 	 -125.108 	 67.8196 	 -40.2894 	 
C 	 -123.165 	 68.6844 	 -39.4654 	 
H 	 -122.669 	 67.8953 	 -38.948 	 
H 	 -123.026 	 69.5846 	 -38.8075 	 
C 	 -122.591 	 68.7733 	 -40.9677 	 
H 	 -123.024 	 69.6272 	 -41.4392 	 
H 	 -122.741 	 67.9263 	 -41.533 	 
H 	 -121.517 	 68.9227 	 -40.999 	 
H 	 -125.184 	 62.1318 	 -40.5467 	 
H 	 -126.708 	 68.1358 	 -35.2292 	 
*
