! wB97X-D3 SP def2-SVP
%pal
nprocs 24
end

* xyz 0 1
S 	 -82.5324 	 -43.1036 	 -89.9073 	 
C 	 -81.5138 	 -41.8147 	 -90.464 	 
C 	 -82.2902 	 -40.7444 	 -90.9398 	 
C 	 -83.664 	 -41.0706 	 -90.9142 	 
C 	 -83.9239 	 -42.3532 	 -90.5027 	 
H 	 -84.4491 	 -40.5287 	 -91.3478 	 
C 	 -81.867 	 -39.4199 	 -91.524 	 
H 	 -82.6464 	 -38.7151 	 -91.1306 	 
H 	 -82.0637 	 -39.5191 	 -92.5673 	 
C 	 -80.3566 	 -39.0829 	 -91.213 	 
H 	 -80.3491 	 -39.3185 	 -90.1029 	 
H 	 -79.6098 	 -39.7972 	 -91.622 	 
C 	 -80.0364 	 -37.5992 	 -91.439 	 
H 	 -80.8987 	 -37.016 	 -91.1375 	 
H 	 -79.1018 	 -37.4254 	 -90.9542 	 
H 	 -79.7848 	 -37.3724 	 -92.4315 	 
S 	 -85.8971 	 -43.3174 	 -92.0724 	 
C 	 -87.2691 	 -44.1632 	 -91.2976 	 
C 	 -87.0741 	 -44.2646 	 -89.9364 	 
C 	 -86.0189 	 -43.5003 	 -89.3856 	 
C 	 -85.2523 	 -42.994 	 -90.4631 	 
H 	 -87.7002 	 -44.9563 	 -89.3879 	 
C 	 -85.7389 	 -43.5119 	 -87.9529 	 
H 	 -86.6513 	 -43.4534 	 -87.497 	 
H 	 -85.1833 	 -42.5612 	 -87.8068 	 
C 	 -84.887 	 -44.6594 	 -87.3118 	 
H 	 -84.769 	 -44.4045 	 -86.2479 	 
H 	 -83.8977 	 -44.6352 	 -87.8204 	 
C 	 -85.4315 	 -46.0965 	 -87.4037 	 
H 	 -84.8012 	 -46.9007 	 -86.9683 	 
H 	 -85.382 	 -46.4242 	 -88.494 	 
H 	 -86.4378 	 -46.1193 	 -86.9884 	 
H 	 -80.4707 	 -41.9317 	 -90.4283 	 
H 	 -87.9166 	 -44.7669 	 -91.9267 	 
*
