! wB97X-D3 SP def2-SVP
%pal
nprocs 24
end

* xyz 0 1
S 	 -61.1444 	 -0.87548 	 -19.956 	 
C 	 -62.3187 	 -0.296814 	 -18.762 	 
C 	 -62.1426 	 -0.993009 	 -17.5441 	 
C 	 -61.1276 	 -2.02243 	 -17.6614 	 
C 	 -60.525 	 -2.09258 	 -18.9148 	 
H 	 -60.7744 	 -2.55277 	 -16.8223 	 
C 	 -62.7988 	 -0.762156 	 -16.1828 	 
H 	 -62.8885 	 0.377177 	 -16.1383 	 
H 	 -62.2558 	 -1.09536 	 -15.4586 	 
C 	 -64.2236 	 -1.22608 	 -15.9649 	 
H 	 -64.2517 	 -2.31158 	 -16.0614 	 
H 	 -64.4861 	 -0.991687 	 -14.9683 	 
C 	 -65.2823 	 -0.691147 	 -16.9398 	 
H 	 -65.1024 	 -1.10917 	 -17.8917 	 
H 	 -66.3198 	 -1.04709 	 -16.7256 	 
H 	 -65.1644 	 0.386518 	 -17.0059 	 
S 	 -58.1824 	 -2.15959 	 -20.4104 	 
C 	 -57.1192 	 -3.55902 	 -20.2295 	 
C 	 -57.6422 	 -4.55822 	 -19.4108 	 
C 	 -58.8756 	 -4.12079 	 -18.7776 	 
C 	 -59.3832 	 -2.90934 	 -19.3068 	 
H 	 -57.0593 	 -5.47957 	 -19.2632 	 
C 	 -59.6433 	 -5.11699 	 -17.8874 	 
H 	 -60.6286 	 -4.7167 	 -17.5857 	 
H 	 -59.1914 	 -5.12836 	 -16.9584 	 
C 	 -59.6623 	 -6.5525 	 -18.3272 	 
H 	 -60.323 	 -7.14844 	 -17.5878 	 
H 	 -58.6432 	 -6.96556 	 -18.1576 	 
C 	 -60.0956 	 -6.70821 	 -19.7214 	 
H 	 -61.0978 	 -6.44511 	 -19.8784 	 
H 	 -60.1059 	 -7.65896 	 -20.1826 	 
H 	 -59.411 	 -6.15659 	 -20.3572 	 
H 	 -62.9983 	 0.479638 	 -18.9855 	 
H 	 -56.1931 	 -3.74715 	 -20.6903 	 
*
