! wB97X-D3 SP def2-SVP
%pal
nprocs 24
end

* xyz 0 1
S 	 -36.8712 	 17.7936 	 14.1492 	 
C 	 -37.137 	 17.3335 	 15.8519 	 
C 	 -37.2163 	 18.4446 	 16.5967 	 
C 	 -37.0592 	 19.6867 	 15.8423 	 
C 	 -36.923 	 19.5258 	 14.5101 	 
H 	 -37.0787 	 20.6619 	 16.3412 	 
C 	 -37.3535 	 18.4601 	 18.1574 	 
H 	 -36.5586 	 19.034 	 18.5192 	 
H 	 -37.1911 	 17.4792 	 18.4777 	 
C 	 -38.764 	 18.992 	 18.6773 	 
H 	 -39.0265 	 19.9903 	 18.3509 	 
H 	 -39.5821 	 18.4233 	 18.1548 	 
C 	 -38.9789 	 18.9012 	 20.1784 	 
H 	 -39.2788 	 17.9014 	 20.4801 	 
H 	 -38.0743 	 19.0825 	 20.8073 	 
H 	 -39.7481 	 19.5762 	 20.5185 	 
S 	 -35.8732 	 20.039 	 12.039 	 
C 	 -35.4389 	 21.6509 	 11.6169 	 
C 	 -35.9627 	 22.6275 	 12.4682 	 
C 	 -36.717 	 22.0472 	 13.5464 	 
C 	 -36.5825 	 20.6348 	 13.5804 	 
H 	 -35.927 	 23.5965 	 12.0591 	 
C 	 -37.3813 	 22.8937 	 14.5996 	 
H 	 -36.6644 	 23.0299 	 15.4078 	 
H 	 -38.2037 	 22.4048 	 15.077 	 
C 	 -37.7354 	 24.3711 	 14.1084 	 
H 	 -36.8077 	 24.8697 	 13.8258 	 
H 	 -38.1165 	 24.98 	 15.0311 	 
C 	 -38.8586 	 24.4227 	 13.0773 	 
H 	 -38.6164 	 23.6344 	 12.2159 	 
H 	 -38.9813 	 25.406 	 12.7029 	 
H 	 -39.8454 	 24.1526 	 13.4671 	 
H 	 -37.0846 	 16.2891 	 16.2067 	 
H 	 -34.7731 	 21.9564 	 10.7852 	 
*
