! wB97X-D3 SP def2-SVP
%pal
nprocs 24
end

* xyz 0 1
S 	 -109.325 	 41.4075 	 -13.1368 	 
C 	 -109.053 	 43.1678 	 -13.2535 	 
C 	 -109.106 	 43.7742 	 -12.0305 	 
C 	 -109.161 	 42.8454 	 -10.9075 	 
C 	 -109.161 	 41.4899 	 -11.3507 	 
H 	 -109.245 	 43.0393 	 -9.87406 	 
C 	 -108.877 	 45.2468 	 -11.8063 	 
H 	 -107.884 	 45.4976 	 -12.0329 	 
H 	 -108.989 	 45.3698 	 -10.7475 	 
C 	 -109.775 	 46.1614 	 -12.4182 	 
H 	 -109.434 	 47.1583 	 -12.0709 	 
H 	 -109.796 	 46.1142 	 -13.4824 	 
C 	 -111.27 	 45.9466 	 -11.9526 	 
H 	 -111.433 	 46.3016 	 -10.9531 	 
H 	 -111.808 	 46.6926 	 -12.5277 	 
H 	 -111.529 	 44.9429 	 -12.1408 	 
S 	 -110.499 	 39.1435 	 -11.0227 	 
C 	 -110.222 	 38.0447 	 -9.59355 	 
C 	 -109.199 	 38.5837 	 -8.83129 	 
C 	 -108.74 	 39.825 	 -9.32111 	 
C 	 -109.291 	 40.2841 	 -10.4671 	 
H 	 -108.807 	 38.0136 	 -8.01916 	 
C 	 -107.539 	 40.4305 	 -8.63258 	 
H 	 -107.344 	 41.4057 	 -9.03672 	 
H 	 -106.717 	 39.7743 	 -8.8372 	 
C 	 -107.785 	 40.7012 	 -7.15173 	 
H 	 -106.957 	 41.2669 	 -6.77429 	 
H 	 -107.72 	 39.8238 	 -6.64501 	 
C 	 -109.137 	 41.4181 	 -6.95013 	 
H 	 -109.152 	 41.9512 	 -6.0632 	 
H 	 -109.884 	 40.6801 	 -6.91559 	 
H 	 -109.273 	 42.1382 	 -7.75276 	 
H 	 -108.998 	 43.7216 	 -14.1719 	 
H 	 -110.651 	 37.0716 	 -9.39479 	 
*
