! wB97X-D3 SP def2-SVP
%pal
nprocs 24
end

* xyz 0 1
S 	 -123.679 	 63.721 	 -50.8198 	 
C 	 -122.617 	 64.48 	 -51.9449 	 
C 	 -121.872 	 65.4826 	 -51.3503 	 
C 	 -122.249 	 65.7107 	 -50.0126 	 
C 	 -123.437 	 65.0553 	 -49.7141 	 
H 	 -121.885 	 66.5265 	 -49.3696 	 
C 	 -120.72 	 66.108 	 -52.142 	 
H 	 -120.244 	 65.214 	 -52.5988 	 
H 	 -119.884 	 66.6262 	 -51.5902 	 
C 	 -121.202 	 67.0399 	 -53.3129 	 
H 	 -120.243 	 67.4027 	 -53.6859 	 
H 	 -121.694 	 66.4588 	 -54.0913 	 
C 	 -122.055 	 68.2569 	 -52.9405 	 
H 	 -122.258 	 68.8326 	 -53.8222 	 
H 	 -122.848 	 68.0421 	 -52.1875 	 
H 	 -121.387 	 68.9462 	 -52.3869 	 
S 	 -125.286 	 66.6209 	 -48.358 	 
C 	 -125.931 	 66.0521 	 -46.8042 	 
C 	 -125.536 	 64.7417 	 -46.5562 	 
C 	 -124.559 	 64.2636 	 -47.4929 	 
C 	 -124.256 	 65.1767 	 -48.4925 	 
H 	 -125.988 	 64.1392 	 -45.832 	 
C 	 -123.869 	 62.9551 	 -47.2194 	 
H 	 -123.294 	 62.673 	 -48.1653 	 
H 	 -124.611 	 62.1121 	 -47.079 	 
C 	 -122.888 	 63.075 	 -46.0257 	 
H 	 -123.451 	 63.3903 	 -45.1221 	 
H 	 -122.094 	 63.8335 	 -46.3407 	 
C 	 -122.158 	 61.7168 	 -45.8213 	 
H 	 -121.58 	 61.7601 	 -44.8641 	 
H 	 -121.423 	 61.5464 	 -46.6741 	 
H 	 -122.81 	 60.8297 	 -45.674 	 
H 	 -122.419 	 64.0283 	 -52.8887 	 
H 	 -126.746 	 66.586 	 -46.3349 	 
*
