! wB97X-D3 SP def2-SVP
%pal
nprocs 24
end

* xyz 0 1
S 	 27.6992 	 2.38948 	 -114.029 	 
C 	 26.0815 	 2.70816 	 -113.609 	 
C 	 25.5087 	 1.65066 	 -112.867 	 
C 	 26.3453 	 0.532276 	 -112.824 	 
C 	 27.5743 	 0.70807 	 -113.375 	 
H 	 26.1527 	 -0.337796 	 -112.355 	 
C 	 24.1976 	 1.80408 	 -112.212 	 
H 	 23.5631 	 1.10459 	 -112.727 	 
H 	 23.6779 	 2.77264 	 -112.391 	 
C 	 24.2512 	 1.57809 	 -110.692 	 
H 	 24.6974 	 0.653155 	 -110.471 	 
H 	 24.7709 	 2.40948 	 -110.243 	 
C 	 22.8679 	 1.57154 	 -110.153 	 
H 	 22.33 	 0.740682 	 -110.535 	 
H 	 22.7169 	 1.56486 	 -109.038 	 
H 	 22.4554 	 2.47141 	 -110.549 	 
S 	 29.4647 	 -0.635972 	 -114.861 	 
C 	 30.5708 	 -1.73844 	 -114.118 	 
C 	 30.1862 	 -1.93873 	 -112.804 	 
C 	 29.1026 	 -1.08136 	 -112.469 	 
C 	 28.7297 	 -0.17793 	 -113.414 	 
H 	 30.8493 	 -2.52317 	 -112.217 	 
C 	 28.6874 	 -0.93075 	 -110.988 	 
H 	 28.979 	 -1.77694 	 -110.41 	 
H 	 27.6087 	 -1.093 	 -110.942 	 
C 	 29.2412 	 0.317334 	 -110.225 	 
H 	 28.9341 	 1.22636 	 -110.758 	 
H 	 30.3232 	 0.181013 	 -110.274 	 
C 	 28.7444 	 0.460868 	 -108.734 	 
H 	 27.7211 	 0.177653 	 -108.574 	 
H 	 28.7664 	 1.52076 	 -108.518 	 
H 	 29.3615 	 -0.160346 	 -108.025 	 
H 	 25.6193 	 3.63345 	 -113.936 	 
H 	 31.4457 	 -2.2627 	 -114.549 	 
*
