! wB97X-D3 SP def2-SVP
%pal
nprocs 24
end

* xyz 0 1
S 	 -97.5705 	 1.44205 	 -118.572 	 
C 	 -97.398 	 0.656402 	 -120.151 	 
C 	 -98.5221 	 0.837181 	 -120.953 	 
C 	 -99.4595 	 1.56702 	 -120.249 	 
C 	 -99.2629 	 1.79993 	 -118.92 	 
H 	 -100.384 	 2.03 	 -120.542 	 
C 	 -98.554 	 0.615864 	 -122.4 	 
H 	 -97.6944 	 0.136437 	 -122.847 	 
H 	 -98.4268 	 1.60111 	 -122.713 	 
C 	 -99.8098 	 -0.0483655 	 -123.054 	 
H 	 -100.734 	 0.504858 	 -122.919 	 
H 	 -99.6267 	 -0.130713 	 -124.183 	 
C 	 -100.051 	 -1.41346 	 -122.503 	 
H 	 -99.3801 	 -2.10337 	 -122.922 	 
H 	 -100.018 	 -1.41728 	 -121.409 	 
H 	 -101.135 	 -1.56971 	 -122.721 	 
S 	 -99.236 	 3.38445 	 -116.542 	 
C 	 -100.751 	 3.75042 	 -115.725 	 
C 	 -101.827 	 3.19826 	 -116.372 	 
C 	 -101.432 	 2.52747 	 -117.585 	 
C 	 -100.045 	 2.45659 	 -117.832 	 
H 	 -102.87 	 3.2838 	 -116.055 	 
C 	 -102.369 	 1.74911 	 -118.484 	 
H 	 -103.14 	 1.26467 	 -117.819 	 
H 	 -101.884 	 0.899684 	 -119.034 	 
C 	 -103.168 	 2.63847 	 -119.393 	 
H 	 -102.491 	 3.21521 	 -120.056 	 
H 	 -103.668 	 3.38586 	 -118.762 	 
C 	 -104.2 	 1.95621 	 -120.21 	 
H 	 -103.701 	 1.20625 	 -120.87 	 
H 	 -104.932 	 2.59862 	 -120.722 	 
H 	 -104.822 	 1.4826 	 -119.516 	 
H 	 -96.4178 	 0.235572 	 -120.496 	 
H 	 -100.919 	 4.24743 	 -114.76 	 
*
