! wB97X-D3 SP def2-SVP
%pal
nprocs 24
end

* xyz 0 1
S 	 -36.9709 	 18.5661 	 24.9129 	 
C 	 -37.4124 	 17.2958 	 26.0116 	 
C 	 -38.5424 	 16.6812 	 25.5698 	 
C 	 -39.0653 	 17.2717 	 24.3449 	 
C 	 -38.3118 	 18.272 	 23.8075 	 
H 	 -40.0733 	 17.0337 	 23.9723 	 
C 	 -39.1626 	 15.4935 	 26.3724 	 
H 	 -40.261 	 15.4766 	 26.2457 	 
H 	 -38.981 	 15.8208 	 27.4631 	 
C 	 -38.5875 	 14.1364 	 26.0582 	 
H 	 -38.9954 	 13.928 	 25.067 	 
H 	 -37.4819 	 14.1039 	 26.1442 	 
C 	 -39.1047 	 12.995 	 26.9237 	 
H 	 -38.6543 	 12.0699 	 26.5426 	 
H 	 -38.9489 	 13.1111 	 27.9913 	 
H 	 -40.1278 	 12.9245 	 26.8775 	 
S 	 -40.3151 	 19.0369 	 21.902 	 
C 	 -39.8055 	 19.9322 	 20.5005 	 
C 	 -38.4406 	 20.1966 	 20.5239 	 
C 	 -37.7091 	 19.6123 	 21.6342 	 
C 	 -38.6003 	 19.0177 	 22.5634 	 
H 	 -37.9763 	 20.7803 	 19.6514 	 
C 	 -36.2168 	 19.6365 	 21.7671 	 
H 	 -35.9762 	 19.2922 	 20.7307 	 
H 	 -35.9 	 18.9526 	 22.5366 	 
C 	 -35.5297 	 21.0034 	 21.8834 	 
H 	 -35.7314 	 21.6684 	 21.0805 	 
H 	 -34.5139 	 21.0444 	 22.0445 	 
C 	 -36.156 	 21.7345 	 23.0977 	 
H 	 -35.5537 	 22.5848 	 23.418 	 
H 	 -36.1151 	 21.1539 	 24.0203 	 
H 	 -37.1765 	 22.0354 	 22.8267 	 
H 	 -36.839 	 17.0334 	 26.92 	 
H 	 -40.4954 	 20.3093 	 19.7854 	 
*
