! wB97X-D3 SP def2-SVP
%pal
nprocs 24
end

* xyz 0 1
S 	 -32.9005 	 -30.3724 	 -99.1114 	 
C 	 -32.9917 	 -30.1855 	 -100.877 	 
C 	 -32.9766 	 -31.3893 	 -101.497 	 
C 	 -32.7031 	 -32.5065 	 -100.603 	 
C 	 -32.4891 	 -32.0951 	 -99.3019 	 
H 	 -32.7258 	 -33.5616 	 -100.876 	 
C 	 -33.2779 	 -31.6221 	 -102.968 	 
H 	 -32.6931 	 -32.4629 	 -103.19 	 
H 	 -32.9263 	 -30.8421 	 -103.698 	 
C 	 -34.7526 	 -31.9397 	 -103.333 	 
H 	 -35.4315 	 -31.1946 	 -102.919 	 
H 	 -34.8394 	 -31.8917 	 -104.454 	 
C 	 -35.2557 	 -33.3095 	 -102.818 	 
H 	 -35.2571 	 -33.3302 	 -101.67 	 
H 	 -36.3207 	 -33.536 	 -103.078 	 
H 	 -34.6675 	 -34.1347 	 -103.209 	 
S 	 -33.0555 	 -33.2692 	 -96.7049 	 
C 	 -31.7264 	 -33.8912 	 -95.7307 	 
C 	 -30.6004 	 -34.0361 	 -96.5499 	 
C 	 -30.7402 	 -33.4127 	 -97.8627 	 
C 	 -31.9971 	 -32.9055 	 -98.1372 	 
H 	 -29.6778 	 -34.3822 	 -96.0875 	 
C 	 -29.5589 	 -33.3655 	 -98.818 	 
H 	 -29.8452 	 -32.7062 	 -99.7095 	 
H 	 -29.238 	 -34.3999 	 -99.1339 	 
C 	 -28.3905 	 -32.4156 	 -98.3117 	 
H 	 -28.0402 	 -32.9618 	 -97.4373 	 
H 	 -28.6612 	 -31.3947 	 -98.0069 	 
C 	 -27.193 	 -32.2126 	 -99.2598 	 
H 	 -26.5081 	 -31.5753 	 -98.6991 	 
H 	 -27.4956 	 -31.8066 	 -100.188 	 
H 	 -26.5887 	 -33.1168 	 -99.4058 	 
H 	 -33.3811 	 -29.3714 	 -101.425 	 
H 	 -31.7523 	 -34.3304 	 -94.7189 	 
*
