! wB97X-D3 SP def2-SVP
%pal
nprocs 24
end

* xyz 0 1
S 	 -117.55 	 41.8965 	 -111.819 	 
C 	 -118.788 	 42.1966 	 -112.962 	 
C 	 -118.301 	 42.7227 	 -114.135 	 
C 	 -116.904 	 42.9795 	 -114.021 	 
C 	 -116.359 	 42.7491 	 -112.81 	 
H 	 -116.263 	 43.4019 	 -114.779 	 
C 	 -119.081 	 43.008 	 -115.427 	 
H 	 -118.698 	 43.9446 	 -115.76 	 
H 	 -120.09 	 43.0216 	 -115.071 	 
C 	 -118.859 	 42.0017 	 -116.603 	 
H 	 -117.786 	 41.6545 	 -116.609 	 
H 	 -119.463 	 41.1585 	 -116.37 	 
C 	 -119.165 	 42.4936 	 -118.02 	 
H 	 -118.97 	 41.6546 	 -118.657 	 
H 	 -120.187 	 42.9188 	 -118.229 	 
H 	 -118.458 	 43.2181 	 -118.395 	 
S 	 -114.278 	 44.5041 	 -112.46 	 
C 	 -112.668 	 43.9501 	 -112.074 	 
C 	 -112.664 	 42.624 	 -111.821 	 
C 	 -113.92 	 41.9569 	 -112.031 	 
C 	 -114.928 	 42.8436 	 -112.463 	 
H 	 -111.662 	 42.2965 	 -111.458 	 
C 	 -114.113 	 40.5281 	 -111.821 	 
H 	 -115.102 	 40.2959 	 -111.397 	 
H 	 -113.37 	 40.2193 	 -111.071 	 
C 	 -113.951 	 39.5813 	 -113.008 	 
H 	 -113.949 	 38.5352 	 -112.695 	 
H 	 -113.084 	 39.7116 	 -113.686 	 
C 	 -115.197 	 39.6742 	 -113.908 	 
H 	 -115.155 	 38.9946 	 -114.712 	 
H 	 -115.327 	 40.6689 	 -114.309 	 
H 	 -116.061 	 39.547 	 -113.283 	 
H 	 -119.803 	 41.7438 	 -112.904 	 
H 	 -111.818 	 44.5748 	 -111.953 	 
*
