! wB97X-D3 SP def2-SVP
%pal
nprocs 24
end

* xyz 0 1
S 	 -97.1025 	 -0.213719 	 -102.36 	 
C 	 -97.6 	 0.635503 	 -100.939 	 
C 	 -97.9917 	 1.93307 	 -101.248 	 
C 	 -97.5641 	 2.32274 	 -102.56 	 
C 	 -96.9178 	 1.34323 	 -103.287 	 
H 	 -97.7739 	 3.23516 	 -103.086 	 
C 	 -98.5481 	 2.88954 	 -100.301 	 
H 	 -98.5595 	 3.77928 	 -100.861 	 
H 	 -97.8807 	 2.91365 	 -99.4931 	 
C 	 -99.9638 	 2.51948 	 -99.9087 	 
H 	 -100.506 	 2.30415 	 -100.846 	 
H 	 -99.9807 	 1.559 	 -99.4427 	 
C 	 -100.608 	 3.62243 	 -99.1429 	 
H 	 -100.064 	 3.78187 	 -98.164 	 
H 	 -100.52 	 4.48847 	 -99.6784 	 
H 	 -101.639 	 3.32972 	 -98.9362 	 
S 	 -97.7988 	 0.557945 	 -105.782 	 
C 	 -97.1012 	 1.28383 	 -107.221 	 
C 	 -95.9776 	 2.00441 	 -106.857 	 
C 	 -95.7094 	 2.15329 	 -105.436 	 
C 	 -96.5802 	 1.34225 	 -104.734 	 
H 	 -95.518 	 2.4541 	 -107.641 	 
C 	 -94.5835 	 3.0074 	 -104.873 	 
H 	 -93.7367 	 2.66135 	 -105.489 	 
H 	 -94.3999 	 2.73015 	 -103.811 	 
C 	 -94.8829 	 4.50988 	 -105.003 	 
H 	 -95.7972 	 4.74082 	 -104.59 	 
H 	 -95.0318 	 4.71784 	 -106.072 	 
C 	 -93.889 	 5.52838 	 -104.449 	 
H 	 -93.025 	 5.66168 	 -105.167 	 
H 	 -93.6742 	 5.39757 	 -103.398 	 
H 	 -94.3969 	 6.50727 	 -104.431 	 
H 	 -97.8762 	 0.194205 	 -99.9969 	 
H 	 -97.2583 	 0.957322 	 -108.278 	 
*
