! wB97X-D3 SP def2-SVP
%pal
nprocs 24
end

* xyz 0 1
S 	 -33.3477 	 7.38523 	 14.7312 	 
C 	 -34.1273 	 7.96986 	 13.3034 	 
C 	 -35.1865 	 8.74685 	 13.6554 	 
C 	 -35.4297 	 8.69292 	 15.0513 	 
C 	 -34.6441 	 7.93571 	 15.8072 	 
H 	 -36.2629 	 9.28994 	 15.4279 	 
C 	 -36.0501 	 9.533 	 12.6587 	 
H 	 -36.8805 	 8.85847 	 12.3819 	 
H 	 -35.3663 	 9.59457 	 11.7989 	 
C 	 -36.565 	 10.8031 	 13.13 	 
H 	 -37.0657 	 11.2509 	 12.3257 	 
H 	 -37.2812 	 10.6054 	 13.8585 	 
C 	 -35.4142 	 11.7265 	 13.6397 	 
H 	 -34.5352 	 11.6407 	 12.9893 	 
H 	 -35.6142 	 12.7853 	 13.714 	 
H 	 -35.1072 	 11.4262 	 14.5813 	 
S 	 -33.1616 	 7.91784 	 18.0633 	 
C 	 -33.9735 	 7.80634 	 19.6579 	 
C 	 -35.3256 	 7.6532 	 19.5679 	 
C 	 -35.7712 	 7.72845 	 18.1866 	 
C 	 -34.7116 	 7.8087 	 17.2687 	 
H 	 -35.949 	 7.57292 	 20.3977 	 
C 	 -37.2684 	 7.60678 	 17.9122 	 
H 	 -37.5413 	 6.73665 	 18.4121 	 
H 	 -37.4579 	 7.46828 	 16.8248 	 
C 	 -38.0536 	 8.84601 	 18.3213 	 
H 	 -37.5979 	 9.77397 	 17.9266 	 
H 	 -38.0482 	 8.74247 	 19.4364 	 
C 	 -39.5076 	 8.64281 	 17.8031 	 
H 	 -39.9036 	 7.67869 	 18.1326 	 
H 	 -39.5589 	 8.72905 	 16.7357 	 
H 	 -40.1091 	 9.47007 	 18.1931 	 
H 	 -33.6219 	 8.13202 	 12.3585 	 
H 	 -33.5754 	 7.89016 	 20.6271 	 
*
