! wB97X-D3 SP def2-SVP
%pal
nprocs 24
end

* xyz 0 1
S 	 -145.781 	 26.4513 	 -20.3596 	 
C 	 -147.059 	 25.309 	 -20.6401 	 
C 	 -146.508 	 24.1894 	 -21.1459 	 
C 	 -145.095 	 24.3134 	 -21.5091 	 
C 	 -144.55 	 25.5253 	 -21.1848 	 
H 	 -144.483 	 23.5994 	 -22.0409 	 
C 	 -147.304 	 22.9277 	 -21.3159 	 
H 	 -148.071 	 22.8423 	 -20.625 	 
H 	 -146.676 	 22.0442 	 -21.0722 	 
C 	 -147.754 	 22.7639 	 -22.8051 	 
H 	 -148.513 	 23.4204 	 -23.1555 	 
H 	 -146.974 	 23.1038 	 -23.5073 	 
C 	 -148.173 	 21.325 	 -23.1594 	 
H 	 -148.917 	 20.96 	 -22.4995 	 
H 	 -148.541 	 21.1672 	 -24.2107 	 
H 	 -147.392 	 20.6521 	 -23.1326 	 
S 	 -142.994 	 27.5244 	 -22.2023 	 
C 	 -141.165 	 27.3875 	 -22.1586 	 
C 	 -140.86 	 26.1406 	 -21.687 	 
C 	 -141.941 	 25.424 	 -21.144 	 
C 	 -143.182 	 26.0437 	 -21.293 	 
H 	 -139.789 	 25.7996 	 -21.5974 	 
C 	 -141.667 	 24.0605 	 -20.4201 	 
H 	 -141.307 	 23.3431 	 -21.109 	 
H 	 -142.627 	 23.7655 	 -19.9711 	 
C 	 -140.729 	 24.1625 	 -19.1695 	 
H 	 -141.287 	 24.6568 	 -18.2728 	 
H 	 -139.858 	 24.8047 	 -19.3974 	 
C 	 -140.449 	 22.7827 	 -18.5764 	 
H 	 -140.215 	 22.772 	 -17.4527 	 
H 	 -139.545 	 22.3923 	 -19.074 	 
H 	 -141.211 	 22.0028 	 -18.8466 	 
H 	 -148.054 	 25.3916 	 -20.2956 	 
H 	 -140.418 	 28.089 	 -22.4663 	 
*
