! wB97X-D3 SP def2-SVP
%pal
nprocs 24
end

* xyz 0 1
S 	 -62.5306 	 -3.51862 	 -22.9522 	 
C 	 -64.1726 	 -4.0087 	 -22.8437 	 
C 	 -64.9791 	 -2.89396 	 -22.4746 	 
C 	 -64.3011 	 -1.60475 	 -22.652 	 
C 	 -62.9663 	 -1.79906 	 -22.7504 	 
H 	 -64.5972 	 -0.573382 	 -22.6354 	 
C 	 -66.4916 	 -3.01335 	 -22.3989 	 
H 	 -66.8107 	 -2.23189 	 -21.7198 	 
H 	 -66.891 	 -3.90661 	 -21.9457 	 
C 	 -67.2192 	 -2.73748 	 -23.6716 	 
H 	 -66.921 	 -1.78158 	 -24.1218 	 
H 	 -67.0229 	 -3.54241 	 -24.326 	 
C 	 -68.6877 	 -2.66979 	 -23.4558 	 
H 	 -69.0677 	 -3.56896 	 -23.0663 	 
H 	 -68.9659 	 -1.97649 	 -22.6346 	 
H 	 -69.3031 	 -2.48197 	 -24.3463 	 
S 	 -61.2833 	 -0.353365 	 -21.1599 	 
C 	 -60.4346 	 0.974122 	 -21.8298 	 
C 	 -60.6232 	 1.07554 	 -23.1594 	 
C 	 -61.551 	 0.136625 	 -23.6926 	 
C 	 -61.9678 	 -0.74336 	 -22.7194 	 
H 	 -60.1227 	 1.80997 	 -23.7359 	 
C 	 -62.1028 	 0.262016 	 -25.106 	 
H 	 -61.6362 	 1.12824 	 -25.5723 	 
H 	 -63.1789 	 0.428562 	 -25.0443 	 
C 	 -61.7207 	 -0.866584 	 -26.08 	 
H 	 -62.2013 	 -0.833077 	 -27.0637 	 
H 	 -61.9464 	 -1.79747 	 -25.5803 	 
C 	 -60.2377 	 -0.79099 	 -26.476 	 
H 	 -60.056 	 -0.0351568 	 -27.2859 	 
H 	 -60.1064 	 -1.67434 	 -27.0545 	 
H 	 -59.6389 	 -0.782045 	 -25.5775 	 
H 	 -64.5821 	 -5.04757 	 -22.85 	 
H 	 -59.6618 	 1.53574 	 -21.3457 	 
*
