! wB97X-D3 SP def2-SVP
%pal
nprocs 24
end

* xyz 0 1
S 	 40.0273 	 -9.92113 	 -107.91 	 
C 	 41.0364 	 -8.58025 	 -108.467 	 
C 	 40.6915 	 -8.28172 	 -109.781 	 
C 	 39.6914 	 -9.12658 	 -110.341 	 
C 	 39.2063 	 -10.0178 	 -109.42 	 
H 	 39.1968 	 -9.1002 	 -111.318 	 
C 	 41.1433 	 -7.05453 	 -110.508 	 
H 	 40.8605 	 -7.22143 	 -111.54 	 
H 	 42.2339 	 -7.04049 	 -110.492 	 
C 	 40.5513 	 -5.78155 	 -110.031 	 
H 	 39.4642 	 -5.84897 	 -110.018 	 
H 	 40.7916 	 -5.5114 	 -109.031 	 
C 	 40.9963 	 -4.60646 	 -110.897 	 
H 	 40.6289 	 -4.71922 	 -111.953 	 
H 	 40.5039 	 -3.69692 	 -110.531 	 
H 	 42.0595 	 -4.33881 	 -110.947 	 
S 	 38.3279 	 -12.5785 	 -109.566 	 
C 	 36.5972 	 -12.8893 	 -109.545 	 
C 	 35.8596 	 -11.6934 	 -109.628 	 
C 	 36.6342 	 -10.5681 	 -109.693 	 
C 	 37.9994 	 -10.8601 	 -109.504 	 
H 	 34.7646 	 -11.7955 	 -109.625 	 
C 	 36.0725 	 -9.1618 	 -109.775 	 
H 	 34.9819 	 -9.34421 	 -109.93 	 
H 	 36.44 	 -8.68349 	 -110.698 	 
C 	 36.2036 	 -8.15377 	 -108.606 	 
H 	 35.5818 	 -7.26998 	 -108.868 	 
H 	 37.2442 	 -7.88052 	 -108.481 	 
C 	 35.6004 	 -8.73245 	 -107.3 	 
H 	 36.0949 	 -9.53009 	 -106.832 	 
H 	 34.6272 	 -9.16037 	 -107.501 	 
H 	 35.5244 	 -7.93248 	 -106.583 	 
H 	 41.7731 	 -8.09086 	 -107.862 	 
H 	 36.1819 	 -13.895 	 -109.343 	 
*
