! wB97X-D3 SP def2-SVP
%pal
nprocs 24
end

* xyz 0 1
S 	 -95.9247 	 -7.48663 	 -119.203 	 
C 	 -96.6901 	 -7.47633 	 -120.75 	 
C 	 -97.2424 	 -8.68188 	 -121.103 	 
C 	 -97.0651 	 -9.63766 	 -120.045 	 
C 	 -96.4005 	 -9.17592 	 -118.96 	 
H 	 -97.5682 	 -10.6014 	 -120.032 	 
C 	 -97.8613 	 -9.05204 	 -122.429 	 
H 	 -97.4645 	 -10.0489 	 -122.772 	 
H 	 -97.7623 	 -8.29092 	 -123.215 	 
C 	 -99.3168 	 -9.37386 	 -122.232 	 
H 	 -99.5386 	 -10.0517 	 -121.472 	 
H 	 -99.8137 	 -8.41193 	 -121.981 	 
C 	 -99.9263 	 -9.95269 	 -123.462 	 
H 	 -99.8171 	 -9.28691 	 -124.259 	 
H 	 -99.4238 	 -10.9573 	 -123.675 	 
H 	 -101.002 	 -10.0577 	 -123.323 	 
S 	 -95.7224 	 -8.80036 	 -116.291 	 
C 	 -95.7951 	 -10.2197 	 -115.212 	 
C 	 -96.2672 	 -11.3309 	 -115.877 	 
C 	 -96.4827 	 -11.1578 	 -117.282 	 
C 	 -96.2893 	 -9.83106 	 -117.659 	 
H 	 -96.2007 	 -12.2039 	 -115.269 	 
C 	 -96.8806 	 -12.3259 	 -118.096 	 
H 	 -97.8209 	 -12.0442 	 -118.582 	 
H 	 -97.1922 	 -13.1887 	 -117.461 	 
C 	 -95.8028 	 -12.8155 	 -119.118 	 
H 	 -95.4125 	 -12.0834 	 -119.848 	 
H 	 -96.3052 	 -13.5446 	 -119.717 	 
C 	 -94.6704 	 -13.6461 	 -118.553 	 
H 	 -95.0491 	 -14.3879 	 -117.804 	 
H 	 -93.8534 	 -13.1066 	 -118.063 	 
H 	 -94.1961 	 -14.3447 	 -119.207 	 
H 	 -96.7869 	 -6.51105 	 -121.241 	 
H 	 -95.4678 	 -10.259 	 -114.163 	 
*
