! wB97X-D3 SP def2-SVP
%pal
nprocs 24
end

* xyz 0 1
S 	 -54.0134 	 18.9007 	 24.1313 	 
C 	 -54.4305 	 17.4773 	 25.1173 	 
C 	 -55.7469 	 17.4624 	 25.5126 	 
C 	 -56.4312 	 18.5896 	 24.9173 	 
C 	 -55.66 	 19.3562 	 24.0467 	 
H 	 -57.5052 	 18.6375 	 24.9817 	 
C 	 -56.3792 	 16.3587 	 26.3992 	 
H 	 -57.0481 	 16.8503 	 27.0717 	 
H 	 -55.6056 	 15.98 	 27.1058 	 
C 	 -56.9777 	 15.2046 	 25.6015 	 
H 	 -57.3502 	 15.6736 	 24.6705 	 
H 	 -56.1231 	 14.5482 	 25.3537 	 
C 	 -57.9956 	 14.411 	 26.3191 	 
H 	 -58.3235 	 13.5429 	 25.7411 	 
H 	 -57.758 	 13.9307 	 27.2762 	 
H 	 -58.9532 	 14.8907 	 26.5565 	 
S 	 -55.6573 	 21.9344 	 23.149 	 
C 	 -56.7198 	 22.4556 	 21.8755 	 
C 	 -57.3012 	 21.3358 	 21.2973 	 
C 	 -56.8834 	 20.0759 	 21.862 	 
C 	 -56.2447 	 20.308 	 23.0502 	 
H 	 -57.8948 	 21.4058 	 20.4455 	 
C 	 -57.6372 	 18.8437 	 21.4684 	 
H 	 -58.7054 	 19.0616 	 21.4476 	 
H 	 -57.4523 	 18.0813 	 22.293 	 
C 	 -57.2061 	 18.1795 	 20.1779 	 
H 	 -57.2441 	 18.8493 	 19.3553 	 
H 	 -57.889 	 17.3336 	 19.9406 	 
C 	 -55.7999 	 17.4758 	 20.1247 	 
H 	 -55.6669 	 16.9263 	 19.2442 	 
H 	 -55.6746 	 16.9144 	 21.0092 	 
H 	 -55.0093 	 18.2776 	 20.1925 	 
H 	 -53.6977 	 16.669 	 25.3409 	 
H 	 -56.6993 	 23.3914 	 21.3588 	 
*
