! wB97X-D3 SP def2-SVP
%pal
nprocs 24
end

* xyz 0 1
S 	 -106.507 	 22.9658 	 -116.848 	 
C 	 -106.587 	 23.229 	 -115.179 	 
C 	 -106.766 	 22.0907 	 -114.363 	 
C 	 -106.694 	 20.9278 	 -115.207 	 
C 	 -106.604 	 21.2124 	 -116.549 	 
H 	 -106.837 	 19.8785 	 -114.958 	 
C 	 -106.951 	 22.0255 	 -112.874 	 
H 	 -107.551 	 21.2125 	 -112.5 	 
H 	 -107.535 	 22.8703 	 -112.54 	 
C 	 -105.671 	 22.0756 	 -112.093 	 
H 	 -105.108 	 22.9761 	 -112.311 	 
H 	 -106.039 	 22.0629 	 -111.058 	 
C 	 -104.747 	 20.8517 	 -112.371 	 
H 	 -104.872 	 20.4889 	 -113.35 	 
H 	 -103.723 	 20.9821 	 -112.245 	 
H 	 -104.945 	 20.0904 	 -111.666 	 
S 	 -107.815 	 20.5859 	 -118.933 	 
C 	 -107.575 	 19.0001 	 -119.64 	 
C 	 -106.688 	 18.2353 	 -118.849 	 
C 	 -106.157 	 18.9381 	 -117.727 	 
C 	 -106.656 	 20.2741 	 -117.675 	 
H 	 -106.367 	 17.2271 	 -119.188 	 
C 	 -105.157 	 18.3791 	 -116.824 	 
H 	 -105.715 	 17.8583 	 -116.009 	 
H 	 -104.555 	 19.1782 	 -116.358 	 
C 	 -104.208 	 17.3109 	 -117.551 	 
H 	 -104.727 	 16.4222 	 -117.83 	 
H 	 -103.429 	 16.9336 	 -116.994 	 
C 	 -103.587 	 17.9917 	 -118.713 	 
H 	 -104.218 	 18.26 	 -119.586 	 
H 	 -102.792 	 17.398 	 -119.112 	 
H 	 -103.026 	 18.919 	 -118.517 	 
H 	 -106.428 	 24.163 	 -114.719 	 
H 	 -108.101 	 18.5864 	 -120.481 	 
*
