! wB97X-D3 SP def2-SVP
%pal
nprocs 24
end

* xyz 0 1
S 	 -138.913 	 23.685 	 -18.5688 	 
C 	 -140.162 	 22.5717 	 -18.0513 	 
C 	 -139.633 	 21.3313 	 -17.7176 	 
C 	 -138.205 	 21.2506 	 -17.9144 	 
C 	 -137.678 	 22.5111 	 -18.1894 	 
H 	 -137.485 	 20.4528 	 -17.7779 	 
C 	 -140.43 	 20.0903 	 -17.4952 	 
H 	 -139.907 	 19.2527 	 -17.8324 	 
H 	 -141.289 	 20.1531 	 -18.0968 	 
C 	 -140.957 	 19.8895 	 -16.0794 	 
H 	 -141.311 	 18.875 	 -15.8521 	 
H 	 -140.187 	 20.1425 	 -15.3334 	 
C 	 -142.05 	 20.8624 	 -15.7066 	 
H 	 -142.149 	 21.0864 	 -14.6441 	 
H 	 -141.9 	 21.8223 	 -16.1507 	 
H 	 -143.064 	 20.5983 	 -16.0074 	 
S 	 -135.561 	 23.426 	 -16.6201 	 
C 	 -133.988 	 23.6072 	 -17.2136 	 
C 	 -133.88 	 22.9409 	 -18.3847 	 
C 	 -135.123 	 22.4039 	 -18.8843 	 
C 	 -136.246 	 22.8233 	 -18.147 	 
H 	 -132.888 	 22.9777 	 -18.7863 	 
C 	 -135.313 	 21.6473 	 -20.1826 	 
H 	 -136.36 	 21.5431 	 -20.2939 	 
H 	 -135.141 	 20.603 	 -20.1399 	 
C 	 -134.854 	 22.3862 	 -21.4794 	 
H 	 -133.827 	 22.7109 	 -21.5673 	 
H 	 -135.361 	 23.3074 	 -21.5197 	 
C 	 -135.197 	 21.5431 	 -22.6433 	 
H 	 -136.262 	 21.2327 	 -22.74 	 
H 	 -134.609 	 20.6079 	 -22.7009 	 
H 	 -134.944 	 21.9394 	 -23.6211 	 
H 	 -141.238 	 22.8365 	 -18.0544 	 
H 	 -133.23 	 24.0532 	 -16.6299 	 
*
