! wB97X-D3 SP def2-SVP
%pal
nprocs 24
end

* xyz 0 1
S 	 -121.771 	 53.5474 	 -32.5668 	 
C 	 -121.33 	 52.6163 	 -34.0318 	 
C 	 -120.229 	 51.9098 	 -33.7473 	 
C 	 -119.726 	 52.0287 	 -32.424 	 
C 	 -120.395 	 52.951 	 -31.6616 	 
H 	 -118.845 	 51.6545 	 -31.9474 	 
C 	 -119.434 	 51.1895 	 -34.8282 	 
H 	 -118.39 	 51.2153 	 -34.5893 	 
H 	 -119.563 	 51.6888 	 -35.7642 	 
C 	 -119.797 	 49.6431 	 -34.9807 	 
H 	 -119.744 	 49.1393 	 -34.0124 	 
H 	 -120.839 	 49.5742 	 -35.3316 	 
C 	 -118.81 	 48.9841 	 -36.0639 	 
H 	 -118.843 	 47.9494 	 -36.204 	 
H 	 -119.009 	 49.2834 	 -37.0628 	 
H 	 -117.788 	 49.0845 	 -35.7793 	 
S 	 -118.392 	 53.8397 	 -30.088 	 
C 	 -118.693 	 54.1484 	 -28.4405 	 
C 	 -120.002 	 53.9791 	 -28.0483 	 
C 	 -120.812 	 53.5804 	 -29.1543 	 
C 	 -120.093 	 53.3525 	 -30.3312 	 
H 	 -120.256 	 54.1206 	 -26.9375 	 
C 	 -122.264 	 53.3013 	 -28.9503 	 
H 	 -122.329 	 52.7257 	 -28.013 	 
H 	 -122.722 	 52.5883 	 -29.5517 	 
C 	 -123.081 	 54.5945 	 -28.6195 	 
H 	 -122.86 	 55.2383 	 -29.4571 	 
H 	 -122.626 	 55.1047 	 -27.7145 	 
C 	 -124.599 	 54.4616 	 -28.2891 	 
H 	 -124.988 	 53.721 	 -27.6191 	 
H 	 -125.085 	 54.3664 	 -29.1874 	 
H 	 -124.823 	 55.4359 	 -27.8101 	 
H 	 -121.8 	 52.848 	 -34.9946 	 
H 	 -117.883 	 54.4676 	 -27.7548 	 
*
