! wB97X-D3 SP def2-SVP
%pal
nprocs 24
end

* xyz 0 1
S 	 -81.8839 	 -42.8813 	 -88.8868 	 
C 	 -80.3408 	 -42.8154 	 -88.03 	 
C 	 -80.1241 	 -43.989 	 -87.3235 	 
C 	 -81.2587 	 -44.8915 	 -87.4418 	 
C 	 -82.2035 	 -44.4803 	 -88.4079 	 
H 	 -81.5158 	 -45.8031 	 -86.9112 	 
C 	 -79.0231 	 -44.2467 	 -86.3491 	 
H 	 -78.2921 	 -43.4522 	 -86.4798 	 
H 	 -78.4857 	 -45.1468 	 -86.598 	 
C 	 -79.4787 	 -44.3158 	 -84.8737 	 
H 	 -80.1264 	 -43.5326 	 -84.5571 	 
H 	 -80.074 	 -45.2011 	 -84.7621 	 
C 	 -78.3182 	 -44.4376 	 -83.8228 	 
H 	 -77.8518 	 -45.4007 	 -83.8739 	 
H 	 -77.4952 	 -43.7514 	 -83.8488 	 
H 	 -78.804 	 -44.3623 	 -82.8604 	 
S 	 -84.9309 	 -44.3527 	 -88.6131 	 
C 	 -85.8499 	 -45.5896 	 -89.2962 	 
C 	 -85.0549 	 -46.6769 	 -89.6537 	 
C 	 -83.698 	 -46.4627 	 -89.3133 	 
C 	 -83.4031 	 -45.1772 	 -88.742 	 
H 	 -85.434 	 -47.6988 	 -90.0279 	 
C 	 -82.6677 	 -47.5391 	 -89.5068 	 
H 	 -83.2109 	 -48.4712 	 -89.7996 	 
H 	 -82.1327 	 -47.7598 	 -88.5924 	 
C 	 -81.5846 	 -47.3773 	 -90.567 	 
H 	 -81.0538 	 -48.3626 	 -90.719 	 
H 	 -80.8151 	 -46.7093 	 -90.2265 	 
C 	 -82.1057 	 -47.0632 	 -91.9573 	 
H 	 -81.3511 	 -47.288 	 -92.7942 	 
H 	 -82.5128 	 -45.9664 	 -92.1073 	 
H 	 -82.9286 	 -47.7234 	 -92.1945 	 
H 	 -79.776 	 -41.9354 	 -87.8728 	 
H 	 -86.9492 	 -45.6017 	 -89.3848 	 
*
