! wB97X-D3 SP def2-SVP
%pal
nprocs 24
end

* xyz 0 1
S 	 -34.6888 	 11.0466 	 -2.74421 	 
C 	 -35.3477 	 9.39742 	 -2.5937 	 
C 	 -34.8746 	 8.82377 	 -1.4198 	 
C 	 -34.055 	 9.6887 	 -0.706152 	 
C 	 -34.0882 	 11.0331 	 -1.06172 	 
H 	 -33.554 	 9.4869 	 0.228306 	 
C 	 -35.3259 	 7.43882 	 -0.966875 	 
H 	 -34.5358 	 7.05254 	 -0.324794 	 
H 	 -35.4437 	 6.75991 	 -1.7613 	 
C 	 -36.5858 	 7.48545 	 -0.0690376 	 
H 	 -36.493 	 8.1745 	 0.76313 	 
H 	 -37.3416 	 8.03612 	 -0.684982 	 
C 	 -37.0369 	 6.08417 	 0.476908 	 
H 	 -36.2837 	 5.67069 	 1.05092 	 
H 	 -37.8984 	 6.19321 	 1.12716 	 
H 	 -37.3383 	 5.48253 	 -0.40372 	 
S 	 -32.7937 	 13.3944 	 -1.39903 	 
C 	 -32.5766 	 14.5085 	 -0.073815 	 
C 	 -32.9597 	 13.9301 	 1.11954 	 
C 	 -33.5843 	 12.6587 	 0.933592 	 
C 	 -33.6053 	 12.2065 	 -0.380831 	 
H 	 -32.7545 	 14.279 	 2.09255 	 
C 	 -34.0891 	 11.8337 	 2.14216 	 
H 	 -33.4295 	 11.9117 	 3.0264 	 
H 	 -34.0287 	 10.7606 	 1.92592 	 
C 	 -35.4973 	 12.1401 	 2.70175 	 
H 	 -35.4622 	 13.2326 	 2.87295 	 
H 	 -35.5825 	 11.5619 	 3.64721 	 
C 	 -36.6505 	 11.9892 	 1.72053 	 
H 	 -36.8845 	 10.9185 	 1.68133 	 
H 	 -36.3288 	 12.328 	 0.677403 	 
H 	 -37.5449 	 12.541 	 1.99513 	 
H 	 -36.0491 	 8.91557 	 -3.25651 	 
H 	 -32.2424 	 15.5409 	 -0.175717 	 
*
