! wB97X-D3 SP def2-SVP
%pal
nprocs 24
end

* xyz 0 1
S 	 -53.1236 	 20.7916 	 35.4759 	 
C 	 -51.5861 	 21.6253 	 35.6165 	 
C 	 -50.7044 	 21.0502 	 34.7138 	 
C 	 -51.2238 	 19.9929 	 33.9851 	 
C 	 -52.5526 	 19.6677 	 34.2782 	 
H 	 -50.75 	 19.4599 	 33.1792 	 
C 	 -49.312 	 21.6359 	 34.477 	 
H 	 -48.9204 	 22.1084 	 35.4093 	 
H 	 -49.3326 	 22.3815 	 33.716 	 
C 	 -48.1555 	 20.6216 	 33.9182 	 
H 	 -48.3044 	 20.5008 	 32.8525 	 
H 	 -47.2033 	 21.1638 	 34.052 	 
C 	 -47.9374 	 19.2669 	 34.514 	 
H 	 -47.0416 	 18.8463 	 34.1327 	 
H 	 -47.9776 	 19.2739 	 35.5952 	 
H 	 -48.6859 	 18.6041 	 34.1192 	 
S 	 -54.4128 	 17.6609 	 34.7467 	 
C 	 -54.7449 	 16.522 	 33.4806 	 
C 	 -54.1732 	 16.8066 	 32.2571 	 
C 	 -53.3925 	 18.0207 	 32.3746 	 
C 	 -53.3178 	 18.5534 	 33.6944 	 
H 	 -54.3406 	 16.1609 	 31.4306 	 
C 	 -52.716 	 18.574 	 31.1884 	 
H 	 -51.6275 	 18.5096 	 31.3679 	 
H 	 -52.9575 	 19.629 	 31.1175 	 
C 	 -52.8712 	 17.8871 	 29.7597 	 
H 	 -53.8622 	 17.5358 	 29.6683 	 
H 	 -52.3216 	 17.0009 	 29.8773 	 
C 	 -52.6093 	 18.7216 	 28.4351 	 
H 	 -51.896 	 19.4646 	 28.6266 	 
H 	 -53.5125 	 19.2851 	 28.2527 	 
H 	 -52.4391 	 18.0624 	 27.5599 	 
H 	 -51.4267 	 22.4701 	 36.2756 	 
H 	 -55.3944 	 15.7113 	 33.6497 	 
*
