! wB97X-D3 SP def2-SVP
%pal
nprocs 24
end

* xyz 0 1
S 	 28.3212 	 -30.9621 	 -132.414 	 
C 	 28.5969 	 -29.6578 	 -133.434 	 
C 	 28.2899 	 -28.4578 	 -132.893 	 
C 	 28.0811 	 -28.6013 	 -131.468 	 
C 	 27.9656 	 -29.9439 	 -131.038 	 
H 	 27.9047 	 -27.7982 	 -130.827 	 
C 	 28.2182 	 -27.1105 	 -133.65 	 
H 	 27.2565 	 -26.6152 	 -133.35 	 
H 	 27.9745 	 -27.3329 	 -134.707 	 
C 	 29.377 	 -26.1051 	 -133.48 	 
H 	 29.6385 	 -25.7751 	 -132.438 	 
H 	 30.277 	 -26.6742 	 -133.748 	 
C 	 29.2742 	 -24.8498 	 -134.439 	 
H 	 29.1771 	 -25.1317 	 -135.484 	 
H 	 28.5423 	 -24.0984 	 -134.017 	 
H 	 30.2022 	 -24.2902 	 -134.398 	 
S 	 27.1555 	 -32.0832 	 -129.517 	 
C 	 27.2964 	 -32.0223 	 -127.782 	 
C 	 27.6719 	 -30.8243 	 -127.367 	 
C 	 27.9351 	 -29.8788 	 -128.425 	 
C 	 27.7639 	 -30.4551 	 -129.668 	 
H 	 27.7637 	 -30.6028 	 -126.324 	 
C 	 28.6475 	 -28.5715 	 -128.107 	 
H 	 29.2699 	 -28.1877 	 -128.865 	 
H 	 29.2855 	 -28.8319 	 -127.275 	 
C 	 27.6154 	 -27.4603 	 -127.729 	 
H 	 27.1196 	 -27.6648 	 -126.78 	 
H 	 26.8845 	 -27.479 	 -128.414 	 
C 	 28.4994 	 -26.1318 	 -127.616 	 
H 	 28.9275 	 -25.7599 	 -128.5 	 
H 	 29.3838 	 -26.3714 	 -127.028 	 
H 	 27.9392 	 -25.2834 	 -127.138 	 
H 	 28.9919 	 -29.7176 	 -134.381 	 
H 	 27.1762 	 -32.9125 	 -127.138 	 
*
