! wB97X-D3 SP def2-SVP
%pal
nprocs 24
end

* xyz 0 1
S 	 -105.303 	 59.2697 	 -12.7582 	 
C 	 -104.77 	 59.7409 	 -14.3704 	 
C 	 -104.743 	 58.6213 	 -15.1886 	 
C 	 -105.177 	 57.4056 	 -14.548 	 
C 	 -105.419 	 57.6677 	 -13.203 	 
H 	 -105.101 	 56.3347 	 -14.9141 	 
C 	 -104.346 	 58.7428 	 -16.6807 	 
H 	 -104.736 	 59.6318 	 -17.0695 	 
H 	 -104.884 	 58.0084 	 -17.3073 	 
C 	 -102.878 	 58.6326 	 -16.9735 	 
H 	 -102.428 	 59.6887 	 -17.0558 	 
H 	 -102.347 	 58.1242 	 -16.224 	 
C 	 -102.541 	 57.8875 	 -18.2634 	 
H 	 -101.509 	 57.9063 	 -18.2656 	 
H 	 -102.906 	 56.845 	 -18.3147 	 
H 	 -102.998 	 58.4086 	 -19.1091 	 
S 	 -106.721 	 56.9167 	 -10.8775 	 
C 	 -106.494 	 55.3089 	 -10.2607 	 
C 	 -105.305 	 54.8425 	 -10.79 	 
C 	 -104.806 	 55.5096 	 -11.9115 	 
C 	 -105.534 	 56.6957 	 -12.0997 	 
H 	 -104.871 	 53.9504 	 -10.364 	 
C 	 -103.711 	 55.0281 	 -12.8842 	 
H 	 -103.462 	 55.858 	 -13.5399 	 
H 	 -104.228 	 54.2098 	 -13.4733 	 
C 	 -102.404 	 54.5783 	 -12.1748 	 
H 	 -101.708 	 54.1873 	 -12.903 	 
H 	 -102.529 	 53.8456 	 -11.3719 	 
C 	 -101.76 	 55.7304 	 -11.3952 	 
H 	 -100.867 	 55.388 	 -10.7944 	 
H 	 -102.459 	 55.9831 	 -10.6252 	 
H 	 -101.543 	 56.598 	 -11.9803 	 
H 	 -104.462 	 60.7133 	 -14.612 	 
H 	 -107.024 	 54.8304 	 -9.47311 	 
*
