! wB97X-D3 SP def2-SVP
%pal
nprocs 24
end

* xyz 0 1
S 	 -137.909 	 9.59029 	 -3.50169 	 
C 	 -139.27 	 10.6752 	 -3.39055 	 
C 	 -140.49 	 10.0514 	 -3.38543 	 
C 	 -140.278 	 8.65196 	 -3.27273 	 
C 	 -138.935 	 8.22038 	 -3.26942 	 
H 	 -141.036 	 7.95384 	 -3.34208 	 
C 	 -141.901 	 10.6344 	 -3.33875 	 
H 	 -141.705 	 11.6813 	 -2.9983 	 
H 	 -142.466 	 10.1299 	 -2.54617 	 
C 	 -142.614 	 10.7806 	 -4.78322 	 
H 	 -141.868 	 10.7355 	 -5.53917 	 
H 	 -143.222 	 9.91858 	 -4.8923 	 
C 	 -143.579 	 11.9722 	 -4.77833 	 
H 	 -143.049 	 12.8961 	 -4.76163 	 
H 	 -144.183 	 11.9828 	 -5.65439 	 
H 	 -144.191 	 11.8549 	 -3.90334 	 
S 	 -136.867 	 6.6902 	 -4.07657 	 
C 	 -136.7 	 5.09347 	 -3.36517 	 
C 	 -137.874 	 4.57416 	 -2.80882 	 
C 	 -138.874 	 5.5881 	 -2.76902 	 
C 	 -138.453 	 6.82963 	 -3.33435 	 
H 	 -137.942 	 3.53108 	 -2.5395 	 
C 	 -140.201 	 5.36757 	 -1.96681 	 
H 	 -140.365 	 4.28003 	 -1.79445 	 
H 	 -141.037 	 5.75581 	 -2.55636 	 
C 	 -140.112 	 5.90604 	 -0.563881 	 
H 	 -139.686 	 6.89802 	 -0.687264 	 
H 	 -139.38 	 5.35248 	 -0.017417 	 
C 	 -141.47 	 6.02027 	 0.144096 	 
H 	 -142.273 	 6.25114 	 -0.581597 	 
H 	 -141.429 	 6.80341 	 0.867207 	 
H 	 -141.743 	 5.22559 	 0.81069 	 
H 	 -139.106 	 11.7294 	 -3.3402 	 
H 	 -135.756 	 4.55883 	 -3.32036 	 
*
