! wB97X-D3 SP def2-SVP
%pal
nprocs 24
end

* xyz 0 1
S 	 -99.0771 	 49.5368 	 -97.8414 	 
C 	 -100.364 	 50.457 	 -97.0739 	 
C 	 -101.308 	 50.9805 	 -97.9082 	 
C 	 -100.882 	 50.681 	 -99.2562 	 
C 	 -99.7314 	 49.8453 	 -99.4694 	 
H 	 -101.217 	 51.2151 	 -100.143 	 
C 	 -102.463 	 51.9541 	 -97.6018 	 
H 	 -102.291 	 52.8622 	 -98.1303 	 
H 	 -102.333 	 52.2968 	 -96.5718 	 
C 	 -103.811 	 51.3168 	 -97.8013 	 
H 	 -103.787 	 50.9884 	 -98.8549 	 
H 	 -103.849 	 50.3804 	 -97.2859 	 
C 	 -105.142 	 52.0979 	 -97.5512 	 
H 	 -105.272 	 53.0445 	 -98.0589 	 
H 	 -105.952 	 51.5042 	 -97.8284 	 
H 	 -105.293 	 52.3933 	 -96.5391 	 
S 	 -97.2773 	 49.9701 	 -100.712 	 
C 	 -97.099 	 49.616 	 -102.342 	 
C 	 -98.2575 	 49.1048 	 -102.906 	 
C 	 -99.3827 	 49.2646 	 -102.004 	 
C 	 -99.0185 	 49.6145 	 -100.719 	 
H 	 -98.3303 	 48.6262 	 -103.845 	 
C 	 -100.764 	 48.6731 	 -102.406 	 
H 	 -101.395 	 49.1065 	 -101.671 	 
H 	 -100.902 	 47.6303 	 -102.074 	 
C 	 -101.242 	 48.8687 	 -103.816 	 
H 	 -100.457 	 48.5692 	 -104.502 	 
H 	 -101.449 	 49.9209 	 -103.997 	 
C 	 -102.508 	 48.1128 	 -104.166 	 
H 	 -102.788 	 48.4478 	 -105.185 	 
H 	 -103.376 	 48.3869 	 -103.489 	 
H 	 -102.192 	 47.1615 	 -104.314 	 
H 	 -100.559 	 50.5895 	 -96.0331 	 
H 	 -96.112 	 49.6442 	 -102.932 	 
*
