! wB97X-D3 SP def2-SVP
%pal
nprocs 24
end

* xyz 0 1
S 	 34.1236 	 -31.0539 	 -117.588 	 
C 	 34.4466 	 -29.6506 	 -116.666 	 
C 	 35.7173 	 -29.6541 	 -116.12 	 
C 	 36.3457 	 -30.9272 	 -116.352 	 
C 	 35.7244 	 -31.7617 	 -117.213 	 
H 	 37.3961 	 -31.1338 	 -115.939 	 
C 	 36.2973 	 -28.5769 	 -115.253 	 
H 	 35.7681 	 -27.6302 	 -115.415 	 
H 	 37.348 	 -28.4813 	 -115.626 	 
C 	 36.2528 	 -28.8933 	 -113.779 	 
H 	 36.404 	 -29.9522 	 -113.689 	 
H 	 37.0461 	 -28.2339 	 -113.314 	 
C 	 34.841 	 -28.717 	 -113.039 	 
H 	 34.7358 	 -29.0393 	 -111.987 	 
H 	 34.7938 	 -27.5912 	 -113.022 	 
H 	 34.0102 	 -29.1843 	 -113.56 	 
S 	 35.8313 	 -33.1289 	 -119.534 	 
C 	 36.6431 	 -34.6708 	 -119.529 	 
C 	 37.115 	 -35.0197 	 -118.31 	 
C 	 36.6646 	 -34.1322 	 -117.26 	 
C 	 36.1655 	 -33.0048 	 -117.814 	 
H 	 37.5449 	 -35.9835 	 -118.331 	 
C 	 36.8477 	 -34.4105 	 -115.752 	 
H 	 37.499 	 -33.6097 	 -115.424 	 
H 	 37.3635 	 -35.3527 	 -115.556 	 
C 	 35.5049 	 -34.4766 	 -114.954 	 
H 	 34.7536 	 -35.0717 	 -115.568 	 
H 	 35.1159 	 -33.4996 	 -114.881 	 
C 	 35.6212 	 -35.1294 	 -113.57 	 
H 	 36.397 	 -35.8511 	 -113.553 	 
H 	 34.6913 	 -35.6147 	 -113.24 	 
H 	 35.8829 	 -34.4308 	 -112.825 	 
H 	 33.8824 	 -28.6862 	 -116.628 	 
H 	 36.5183 	 -35.3394 	 -120.358 	 
*
