! wB97X-D3 SP def2-SVP
%pal
nprocs 24
end

* xyz 0 1
S 	 -50.8334 	 9.86605 	 -22.6087 	 
C 	 -49.6574 	 10.4355 	 -21.3973 	 
C 	 -50.2769 	 11.1615 	 -20.4382 	 
C 	 -51.6908 	 11.1639 	 -20.5036 	 
C 	 -52.1624 	 10.5115 	 -21.6199 	 
H 	 -52.3956 	 11.7307 	 -19.9131 	 
C 	 -49.5765 	 11.9119 	 -19.3803 	 
H 	 -48.5118 	 11.6506 	 -19.3841 	 
H 	 -49.8817 	 11.5013 	 -18.5144 	 
C 	 -49.8903 	 13.3733 	 -19.389 	 
H 	 -50.9224 	 13.443 	 -19.0978 	 
H 	 -49.3859 	 13.8645 	 -18.6319 	 
C 	 -49.7366 	 13.9947 	 -20.7757 	 
H 	 -48.6936 	 13.7519 	 -21.0477 	 
H 	 -50.4163 	 13.6026 	 -21.4842 	 
H 	 -49.9503 	 15.1077 	 -20.5488 	 
S 	 -54.6246 	 9.17956 	 -22.4178 	 
C 	 -55.9423 	 10.1494 	 -22.9908 	 
C 	 -55.6415 	 11.5089 	 -22.7913 	 
C 	 -54.2636 	 11.7656 	 -22.4361 	 
C 	 -53.5493 	 10.5991 	 -22.1325 	 
H 	 -56.4929 	 12.2235 	 -22.8901 	 
C 	 -53.8263 	 13.1425 	 -21.9376 	 
H 	 -52.7744 	 13.171 	 -21.7154 	 
H 	 -54.1826 	 13.277 	 -20.8765 	 
C 	 -54.2383 	 14.2718 	 -22.9165 	 
H 	 -55.275 	 14.7389 	 -22.7136 	 
H 	 -54.2477 	 13.9302 	 -23.939 	 
C 	 -53.2243 	 15.4317 	 -22.7685 	 
H 	 -53.4669 	 16.1409 	 -23.4838 	 
H 	 -52.1957 	 15.0684 	 -22.916 	 
H 	 -53.2859 	 15.9035 	 -21.7822 	 
H 	 -48.6413 	 10.2188 	 -21.3146 	 
H 	 -56.8775 	 9.78258 	 -23.4475 	 
*
