! wB97X-D3 SP def2-SVP
%pal
nprocs 24
end

* xyz 0 1
S 	 -31.5658 	 11.079 	 10.6926 	 
C 	 -31.703 	 12.8017 	 10.2156 	 
C 	 -31.1596 	 13.6989 	 11.0787 	 
C 	 -30.7075 	 13.0251 	 12.2302 	 
C 	 -30.9399 	 11.644 	 12.2901 	 
H 	 -30.1927 	 13.5434 	 13.0837 	 
C 	 -30.9671 	 15.2487 	 10.9073 	 
H 	 -30.7241 	 15.7701 	 11.7851 	 
H 	 -31.9757 	 15.6745 	 10.6655 	 
C 	 -29.8414 	 15.6758 	 10.0258 	 
H 	 -28.991 	 15.6993 	 10.6698 	 
H 	 -29.5784 	 14.8726 	 9.29064 	 
C 	 -30.0425 	 16.9066 	 9.08518 	 
H 	 -30.6736 	 16.6531 	 8.23183 	 
H 	 -30.7169 	 17.595 	 9.56917 	 
H 	 -29.213 	 17.3373 	 8.68941 	 
S 	 -28.9237 	 10.0308 	 13.1595 	 
C 	 -28.9312 	 9.49229 	 14.8591 	 
C 	 -30.1228 	 9.77246 	 15.4732 	 
C 	 -31.0492 	 10.5626 	 14.5969 	 
C 	 -30.5021 	 10.7901 	 13.3417 	 
H 	 -30.2531 	 9.49092 	 16.5859 	 
C 	 -32.2963 	 11.1883 	 15.0815 	 
H 	 -32.7111 	 10.444 	 15.7343 	 
H 	 -33.0369 	 11.2345 	 14.2212 	 
C 	 -31.9986 	 12.4522 	 15.8254 	 
H 	 -31.5387 	 13.2157 	 15.125 	 
H 	 -31.169 	 12.2652 	 16.5434 	 
C 	 -33.2711 	 13.0023 	 16.5577 	 
H 	 -33.9723 	 13.5636 	 15.8953 	 
H 	 -32.8935 	 13.6533 	 17.2952 	 
H 	 -33.807 	 12.2435 	 17.0926 	 
H 	 -32.1558 	 13.1659 	 9.3364 	 
H 	 -28.2088 	 8.90009 	 15.4721 	 
*
