! wB97X-D3 SP def2-SVP
%pal
nprocs 24
end

* xyz 0 1
S 	 -122.584 	 35.365 	 -108.053 	 
C 	 -121.447 	 35.978 	 -109.148 	 
C 	 -121.406 	 35.1983 	 -110.272 	 
C 	 -122.41 	 34.1818 	 -110.354 	 
C 	 -123.131 	 34.0992 	 -109.192 	 
H 	 -122.517 	 33.5042 	 -111.191 	 
C 	 -120.408 	 35.4092 	 -111.343 	 
H 	 -120.053 	 34.3923 	 -111.607 	 
H 	 -119.501 	 35.8185 	 -110.821 	 
C 	 -120.763 	 36.307 	 -112.525 	 
H 	 -121.338 	 37.197 	 -112.198 	 
H 	 -119.806 	 36.7463 	 -112.82 	 
C 	 -121.367 	 35.6686 	 -113.77 	 
H 	 -120.62 	 35.1496 	 -114.309 	 
H 	 -122.204 	 34.9736 	 -113.512 	 
H 	 -121.796 	 36.4213 	 -114.452 	 
S 	 -124.311 	 32.7489 	 -107.305 	 
C 	 -125.997 	 32.1057 	 -107.542 	 
C 	 -126.257 	 31.9898 	 -108.859 	 
C 	 -125.306 	 32.7263 	 -109.667 	 
C 	 -124.303 	 33.2369 	 -108.913 	 
H 	 -127.143 	 31.4853 	 -109.188 	 
C 	 -125.453 	 32.8063 	 -111.192 	 
H 	 -125.125 	 31.8899 	 -111.67 	 
H 	 -124.801 	 33.5672 	 -111.493 	 
C 	 -126.913 	 32.994 	 -111.634 	 
H 	 -127.465 	 33.6895 	 -110.968 	 
H 	 -127.519 	 32.0716 	 -111.561 	 
C 	 -126.992 	 33.5292 	 -113.087 	 
H 	 -126.406 	 32.8283 	 -113.697 	 
H 	 -126.651 	 34.6162 	 -113.19 	 
H 	 -128.006 	 33.4568 	 -113.528 	 
H 	 -120.917 	 36.9519 	 -108.891 	 
H 	 -126.606 	 31.5758 	 -106.799 	 
*
