! wB97X-D3 SP def2-SVP
%pal
nprocs 24
end

* xyz 0 1
S 	 -44.8274 	 -48.5599 	 -71.8429 	 
C 	 -45.1429 	 -46.8101 	 -72.274 	 
C 	 -46.498 	 -46.5692 	 -72.2116 	 
C 	 -47.3019 	 -47.74 	 -71.9452 	 
C 	 -46.5847 	 -48.9104 	 -71.7416 	 
H 	 -48.387 	 -47.7936 	 -71.9833 	 
C 	 -47.057 	 -45.2476 	 -72.7273 	 
H 	 -46.1683 	 -44.6902 	 -72.6611 	 
H 	 -47.724 	 -44.7402 	 -72.0433 	 
C 	 -47.7499 	 -45.1946 	 -74.0883 	 
H 	 -47.8735 	 -44.1487 	 -74.3856 	 
H 	 -46.9629 	 -45.5415 	 -74.7223 	 
C 	 -49.0333 	 -45.9645 	 -74.286 	 
H 	 -49.6992 	 -45.8024 	 -73.4432 	 
H 	 -49.6982 	 -45.7842 	 -75.1407 	 
H 	 -48.9051 	 -47.0326 	 -74.3384 	 
S 	 -46.3074 	 -51.0043 	 -69.9923 	 
C 	 -47.2632 	 -52.4435 	 -70.1132 	 
C 	 -48.0838 	 -52.4209 	 -71.2373 	 
C 	 -48.0493 	 -51.1436 	 -71.8886 	 
C 	 -47.0882 	 -50.2589 	 -71.4106 	 
H 	 -48.6495 	 -53.2833 	 -71.4649 	 
C 	 -48.9894 	 -50.7885 	 -72.9759 	 
H 	 -48.502 	 -49.9743 	 -73.4853 	 
H 	 -49.9037 	 -50.3539 	 -72.5332 	 
C 	 -49.4949 	 -51.8813 	 -73.9019 	 
H 	 -50.0217 	 -52.7182 	 -73.3752 	 
H 	 -48.6103 	 -52.3537 	 -74.3711 	 
C 	 -50.5362 	 -51.3197 	 -74.9142 	 
H 	 -51.4985 	 -51.4792 	 -74.3931 	 
H 	 -50.6665 	 -51.9094 	 -75.8418 	 
H 	 -50.3533 	 -50.2736 	 -75.2683 	 
H 	 -44.3622 	 -46.1175 	 -72.5684 	 
H 	 -47.3882 	 -53.1489 	 -69.311 	 
*
