! wB97X-D3 SP def2-SVP
%pal
nprocs 24
end

* xyz 0 1
S 	 17.3684 	 -12.1987 	 -118.125 	 
C 	 15.9563 	 -11.4388 	 -118.759 	 
C 	 14.8211 	 -12.0341 	 -118.282 	 
C 	 15.1406 	 -12.8605 	 -117.118 	 
C 	 16.4714 	 -13.0674 	 -116.901 	 
H 	 14.4408 	 -13.4426 	 -116.531 	 
C 	 13.3812 	 -11.8794 	 -118.811 	 
H 	 13.3255 	 -10.8229 	 -118.935 	 
H 	 12.6835 	 -12.2433 	 -118.042 	 
C 	 13.0392 	 -12.5965 	 -120.144 	 
H 	 14.0424 	 -12.7105 	 -120.673 	 
H 	 12.8218 	 -13.6217 	 -120.036 	 
C 	 12.031 	 -11.8895 	 -121.072 	 
H 	 11.2131 	 -11.53 	 -120.491 	 
H 	 12.4829 	 -11.0347 	 -121.474 	 
H 	 11.6778 	 -12.5309 	 -121.901 	 
S 	 18.2049 	 -13.1227 	 -114.661 	 
C 	 18.0101 	 -14.4168 	 -113.52 	 
C 	 17.1879 	 -15.4113 	 -114.095 	 
C 	 16.6393 	 -15.0773 	 -115.383 	 
C 	 17.0472 	 -13.8561 	 -115.82 	 
H 	 16.8859 	 -16.2159 	 -113.503 	 
C 	 15.868 	 -16.1051 	 -116.143 	 
H 	 15.4424 	 -15.6999 	 -117.05 	 
H 	 15.0222 	 -16.403 	 -115.53 	 
C 	 16.7226 	 -17.3481 	 -116.422 	 
H 	 17.0683 	 -17.7545 	 -115.443 	 
H 	 17.689 	 -17.1416 	 -116.982 	 
C 	 15.9741 	 -18.4456 	 -117.11 	 
H 	 15.3026 	 -18.902 	 -116.361 	 
H 	 16.6162 	 -19.1926 	 -117.533 	 
H 	 15.4458 	 -18.1035 	 -117.964 	 
H 	 15.874 	 -10.861 	 -119.705 	 
H 	 18.3235 	 -14.4294 	 -112.566 	 
*
