! wB97X-D3 SP def2-SVP
%pal
nprocs 24
end

* xyz 0 1
S 	 -40.1828 	 17.0074 	 29.1197 	 
C 	 -41.0251 	 18.0551 	 28.0055 	 
C 	 -42.3977 	 17.8388 	 28.084 	 
C 	 -42.7551 	 16.6701 	 28.8751 	 
C 	 -41.6792 	 16.1222 	 29.5553 	 
H 	 -43.736 	 16.2029 	 29.1158 	 
C 	 -43.3715 	 18.6887 	 27.3524 	 
H 	 -44.3536 	 18.1709 	 27.4792 	 
H 	 -43.2201 	 18.4761 	 26.2872 	 
C 	 -43.306 	 20.1696 	 27.6231 	 
H 	 -42.3284 	 20.4938 	 27.3614 	 
H 	 -44.0027 	 20.6556 	 27.0526 	 
C 	 -43.4812 	 20.5994 	 29.0825 	 
H 	 -42.7677 	 20.0319 	 29.6307 	 
H 	 -43.2269 	 21.6681 	 29.3885 	 
H 	 -44.4047 	 20.4482 	 29.5397 	 
S 	 -42.004 	 13.4483 	 30.1399 	 
C 	 -41.8664 	 12.9076 	 31.8369 	 
C 	 -41.59 	 13.9569 	 32.6413 	 
C 	 -41.5407 	 15.225 	 32.0014 	 
C 	 -41.714 	 15.1016 	 30.6369 	 
H 	 -41.388 	 13.7378 	 33.6788 	 
C 	 -41.2787 	 16.5051 	 32.6894 	 
H 	 -40.6705 	 17.1279 	 31.9735 	 
H 	 -40.8223 	 16.296 	 33.6386 	 
C 	 -42.5405 	 17.3521 	 32.8882 	 
H 	 -43.3451 	 16.941 	 33.4882 	 
H 	 -42.9452 	 17.3381 	 31.8017 	 
C 	 -42.2809 	 18.7417 	 33.5692 	 
H 	 -43.2351 	 19.3132 	 33.6919 	 
H 	 -41.6557 	 19.2771 	 32.8686 	 
H 	 -41.8518 	 18.6419 	 34.567 	 
H 	 -40.6385 	 18.981 	 27.4711 	 
H 	 -41.8541 	 11.866 	 32.2182 	 
*
