! wB97X-D3 SP def2-SVP
%pal
nprocs 24
end

* xyz 0 1
S 	 -69.3113 	 -0.60915 	 -67.6015 	 
C 	 -69.0432 	 0.39268 	 -66.1578 	 
C 	 -70.1313 	 1.22049 	 -65.8421 	 
C 	 -71.2003 	 0.999418 	 -66.7936 	 
C 	 -70.9536 	 0.0462184 	 -67.7518 	 
H 	 -72.0963 	 1.5575 	 -66.8904 	 
C 	 -70.2535 	 2.18554 	 -64.7294 	 
H 	 -70.8741 	 3.02229 	 -65.0284 	 
H 	 -69.2834 	 2.61568 	 -64.5902 	 
C 	 -70.7789 	 1.57848 	 -63.4956 	 
H 	 -71.6015 	 0.864785 	 -63.6014 	 
H 	 -69.8994 	 1.10779 	 -63.0803 	 
C 	 -71.2754 	 2.57269 	 -62.5017 	 
H 	 -70.6418 	 3.45008 	 -62.4087 	 
H 	 -72.2758 	 2.94261 	 -62.4862 	 
H 	 -71.3509 	 2.05132 	 -61.5802 	 
S 	 -71.3341 	 -0.429029 	 -70.5027 	 
C 	 -72.947 	 -0.761948 	 -71.0544 	 
C 	 -73.7174 	 -1.1788 	 -70.0044 	 
C 	 -73.1817 	 -0.887577 	 -68.7369 	 
C 	 -71.9016 	 -0.333133 	 -68.818 	 
H 	 -74.7208 	 -1.45343 	 -70.1557 	 
C 	 -73.945 	 -1.13154 	 -67.437 	 
H 	 -73.2167 	 -0.938381 	 -66.569 	 
H 	 -74.2716 	 -2.16648 	 -67.302 	 
C 	 -75.1688 	 -0.385107 	 -67.3021 	 
H 	 -75.8429 	 -0.599996 	 -68.1381 	 
H 	 -74.8919 	 0.662928 	 -67.4567 	 
C 	 -75.7486 	 -0.565765 	 -65.876 	 
H 	 -76.436 	 0.273459 	 -65.675 	 
H 	 -74.9871 	 -0.435801 	 -65.0327 	 
H 	 -76.182 	 -1.53141 	 -65.7477 	 
H 	 -68.0649 	 0.535653 	 -65.7544 	 
H 	 -73.1918 	 -0.801306 	 -72.0523 	 
*
