! wB97X-D3 SP def2-SVP
%pal
nprocs 24
end

* xyz 0 1
S 	 -63.085 	 1.12951 	 -24.0712 	 
C 	 -64.3826 	 2.1801 	 -24.6714 	 
C 	 -64.7298 	 3.17172 	 -23.725 	 
C 	 -63.6828 	 3.27409 	 -22.7542 	 
C 	 -62.698 	 2.32984 	 -22.7868 	 
H 	 -63.602 	 4.10811 	 -22.1114 	 
C 	 -65.8451 	 4.20652 	 -23.7767 	 
H 	 -65.3179 	 5.20127 	 -23.717 	 
H 	 -66.3471 	 4.16347 	 -22.8022 	 
C 	 -66.9477 	 3.95687 	 -24.9162 	 
H 	 -66.3244 	 3.73805 	 -25.7808 	 
H 	 -67.5269 	 3.06139 	 -24.7342 	 
C 	 -67.8657 	 5.11818 	 -25.2169 	 
H 	 -68.1106 	 5.72046 	 -24.3558 	 
H 	 -67.2978 	 5.88682 	 -25.7843 	 
H 	 -68.7236 	 4.85577 	 -25.755 	 
S 	 -61.0764 	 0.802426 	 -21.1218 	 
C 	 -59.55 	 1.34961 	 -20.6053 	 
C 	 -59.4427 	 2.72055 	 -20.8727 	 
C 	 -60.5501 	 3.23939 	 -21.6174 	 
C 	 -61.575 	 2.33067 	 -21.8809 	 
H 	 -58.5533 	 3.30154 	 -20.7066 	 
C 	 -60.5098 	 4.65847 	 -22.2212 	 
H 	 -61.3691 	 4.90836 	 -22.8615 	 
H 	 -59.6313 	 4.75766 	 -22.8803 	 
C 	 -60.4919 	 5.81066 	 -21.2715 	 
H 	 -59.8587 	 5.51501 	 -20.4341 	 
H 	 -61.4596 	 5.86023 	 -20.7509 	 
C 	 -59.9757 	 7.08518 	 -21.8234 	 
H 	 -58.9497 	 6.96445 	 -22.2234 	 
H 	 -59.7302 	 7.79056 	 -20.9795 	 
H 	 -60.6108 	 7.68049 	 -22.441 	 
H 	 -64.9947 	 2.01219 	 -25.4952 	 
H 	 -58.7655 	 0.822269 	 -20.1332 	 
*
