! wB97X-D3 SP def2-SVP
%pal
nprocs 24
end

* xyz 0 1
S 	 23.675 	 0.286026 	 -109.971 	 
C 	 22.747 	 0.253161 	 -111.434 	 
C 	 23.4328 	 0.768911 	 -112.483 	 
C 	 24.7328 	 1.18292 	 -112.084 	 
C 	 25.1138 	 0.982902 	 -110.787 	 
H 	 25.5554 	 1.64114 	 -112.618 	 
C 	 22.9121 	 0.96254 	 -113.857 	 
H 	 22.2783 	 1.87955 	 -113.941 	 
H 	 22.1632 	 0.162236 	 -113.928 	 
C 	 23.886 	 0.87611 	 -115.035 	 
H 	 24.7045 	 1.6211 	 -114.867 	 
H 	 24.3593 	 -0.0973665 	 -115.035 	 
C 	 23.3454 	 1.0173 	 -116.505 	 
H 	 24.1038 	 1.39422 	 -117.248 	 
H 	 23.0075 	 0.0598278 	 -116.912 	 
H 	 22.5265 	 1.82272 	 -116.559 	 
S 	 26.8712 	 0.54909 	 -108.928 	 
C 	 28.0016 	 1.74337 	 -108.435 	 
C 	 27.947 	 2.89889 	 -109.225 	 
C 	 26.9373 	 2.77444 	 -110.209 	 
C 	 26.2834 	 1.55174 	 -110.107 	 
H 	 28.6074 	 3.71933 	 -109.013 	 
C 	 26.5003 	 3.89146 	 -111.188 	 
H 	 25.4095 	 3.68666 	 -111.295 	 
H 	 27.1212 	 3.72967 	 -112.095 	 
C 	 26.7577 	 5.35323 	 -110.709 	 
H 	 27.5053 	 5.48082 	 -109.919 	 
H 	 25.7655 	 5.64455 	 -110.36 	 
C 	 27.0422 	 6.29976 	 -111.907 	 
H 	 28.0645 	 6.29644 	 -112.239 	 
H 	 26.7238 	 7.38605 	 -111.711 	 
H 	 26.4444 	 5.96957 	 -112.763 	 
H 	 21.753 	 -0.23322 	 -111.489 	 
H 	 28.3804 	 1.79996 	 -107.457 	 
*
