! wB97X-D3 SP def2-SVP
%pal
nprocs 24
end

* xyz 0 1
S 	 -145.259 	 5.48024 	 5.10748 	 
C 	 -145.554 	 4.9946 	 6.70104 	 
C 	 -145.236 	 5.96789 	 7.60612 	 
C 	 -144.689 	 7.12488 	 7.01639 	 
C 	 -144.866 	 7.13967 	 5.65836 	 
H 	 -144.417 	 8.04224 	 7.5503 	 
C 	 -145.336 	 5.80973 	 9.12843 	 
H 	 -145.442 	 4.79374 	 9.36613 	 
H 	 -146.272 	 6.26259 	 9.42744 	 
C 	 -144.191 	 6.47104 	 9.97199 	 
H 	 -144.216 	 7.53052 	 9.85937 	 
H 	 -144.366 	 6.28812 	 11.0714 	 
C 	 -142.8 	 6.00941 	 9.66075 	 
H 	 -142.627 	 4.966 	 10.0018 	 
H 	 -142.697 	 5.92598 	 8.61223 	 
H 	 -141.98 	 6.62609 	 10.1093 	 
S 	 -146.375 	 8.9934 	 4.15119 	 
C 	 -145.401 	 9.92742 	 3.05039 	 
C 	 -144.052 	 9.6757 	 3.25273 	 
C 	 -143.711 	 8.79215 	 4.27253 	 
C 	 -144.855 	 8.26677 	 4.77602 	 
H 	 -143.354 	 10.1821 	 2.657 	 
C 	 -142.277 	 8.3375 	 4.49524 	 
H 	 -141.851 	 8.1786 	 3.5009 	 
H 	 -142.298 	 7.42509 	 5.06566 	 
C 	 -141.441 	 9.42647 	 5.34601 	 
H 	 -141.953 	 9.50516 	 6.29226 	 
H 	 -141.487 	 10.3726 	 4.8017 	 
C 	 -139.994 	 8.98578 	 5.49758 	 
H 	 -139.351 	 9.54061 	 6.14299 	 
H 	 -139.625 	 9.02446 	 4.46894 	 
H 	 -140.085 	 7.99241 	 5.8941 	 
H 	 -145.891 	 4.03569 	 7.04709 	 
H 	 -145.777 	 10.7018 	 2.45418 	 
*
