! wB97X-D3 SP def2-SVP
%pal
nprocs 24
end

* xyz 0 1
S 	 -54.4038 	 12.0688 	 -104.051 	 
C 	 -54.2052 	 12.9511 	 -102.597 	 
C 	 -55.2975 	 13.7691 	 -102.323 	 
C 	 -56.1429 	 13.7631 	 -103.521 	 
C 	 -55.8303 	 12.9334 	 -104.562 	 
H 	 -57.098 	 14.2874 	 -103.52 	 
C 	 -55.4461 	 14.5947 	 -101.059 	 
H 	 -55.0007 	 14.0224 	 -100.294 	 
H 	 -56.4573 	 14.8314 	 -100.886 	 
C 	 -54.7851 	 15.9618 	 -101.107 	 
H 	 -53.8097 	 15.9734 	 -101.576 	 
H 	 -55.3675 	 16.4964 	 -101.827 	 
C 	 -54.7454 	 16.6936 	 -99.7686 	 
H 	 -54.3013 	 17.6208 	 -99.8443 	 
H 	 -55.7208 	 16.926 	 -99.407 	 
H 	 -54.3033 	 16.0846 	 -98.9673 	 
S 	 -55.4138 	 11.8819 	 -107.029 	 
C 	 -56.7228 	 11.7427 	 -108.128 	 
C 	 -57.9483 	 12.1259 	 -107.546 	 
C 	 -57.778 	 12.8583 	 -106.306 	 
C 	 -56.5073 	 12.6554 	 -105.827 	 
H 	 -58.8989 	 11.9135 	 -108.068 	 
C 	 -58.9379 	 13.5677 	 -105.627 	 
H 	 -58.8888 	 13.3242 	 -104.578 	 
H 	 -59.9127 	 13.1499 	 -105.925 	 
C 	 -59.0593 	 15.0646 	 -105.875 	 
H 	 -58.2308 	 15.6625 	 -105.316 	 
H 	 -59.9936 	 15.4107 	 -105.471 	 
C 	 -58.9334 	 15.55 	 -107.379 	 
H 	 -58.8618 	 16.6131 	 -107.409 	 
H 	 -59.6994 	 15.185 	 -108.036 	 
H 	 -58.0452 	 15.1424 	 -107.822 	 
H 	 -53.4313 	 12.7963 	 -101.855 	 
H 	 -56.6352 	 11.3258 	 -109.147 	 
*
