! wB97X-D3 SP def2-SVP
%pal
nprocs 24
end

* xyz 0 1
S 	 -120.248 	 50.3221 	 -30.032 	 
C 	 -121.671 	 49.5539 	 -30.647 	 
C 	 -122.49 	 50.4641 	 -31.3937 	 
C 	 -121.816 	 51.7124 	 -31.5524 	 
C 	 -120.595 	 51.8232 	 -30.8429 	 
H 	 -122.282 	 52.5248 	 -32.0356 	 
C 	 -123.879 	 50.1451 	 -31.9759 	 
H 	 -123.885 	 49.0951 	 -32.1328 	 
H 	 -123.896 	 50.5887 	 -32.9772 	 
C 	 -124.987 	 50.5861 	 -31.0519 	 
H 	 -125.207 	 51.6677 	 -31.3851 	 
H 	 -125.915 	 50.0509 	 -31.2507 	 
C 	 -124.855 	 50.3635 	 -29.557 	 
H 	 -125.814 	 50.4839 	 -28.9717 	 
H 	 -124.511 	 49.3737 	 -29.3733 	 
H 	 -124.051 	 51.0618 	 -29.1972 	 
S 	 -118.017 	 52.5896 	 -30.7081 	 
C 	 -117.632 	 54.3248 	 -30.88 	 
C 	 -118.789 	 55.1634 	 -30.7332 	 
C 	 -119.999 	 54.346 	 -30.6178 	 
C 	 -119.77 	 52.998 	 -30.7547 	 
H 	 -118.777 	 56.2252 	 -30.8567 	 
C 	 -121.333 	 55.0802 	 -30.476 	 
H 	 -121.268 	 55.6798 	 -29.5166 	 
H 	 -122.082 	 54.3728 	 -30.2603 	 
C 	 -121.758 	 55.8935 	 -31.6719 	 
H 	 -120.895 	 56.3382 	 -32.1324 	 
H 	 -122.377 	 56.6857 	 -31.3604 	 
C 	 -122.587 	 55.2157 	 -32.7834 	 
H 	 -123.502 	 54.7324 	 -32.3827 	 
H 	 -122.045 	 54.4074 	 -33.2155 	 
H 	 -122.875 	 55.975 	 -33.4529 	 
H 	 -121.939 	 48.5711 	 -30.4345 	 
H 	 -116.616 	 54.7082 	 -30.8824 	 
*
