! wB97X-D3 SP def2-SVP
%pal
nprocs 24
end

* xyz 0 1
S 	 -32.6979 	 2.73387 	 6.01689 	 
C 	 -32.7846 	 4.45766 	 6.39304 	 
C 	 -33.7323 	 5.12654 	 5.67132 	 
C 	 -34.0354 	 4.37044 	 4.47694 	 
C 	 -33.5436 	 3.1192 	 4.48837 	 
H 	 -34.7338 	 4.80924 	 3.74204 	 
C 	 -34.1321 	 6.55732 	 5.92784 	 
H 	 -34.1571 	 6.7391 	 6.98876 	 
H 	 -35.2557 	 6.62922 	 5.6512 	 
C 	 -33.251 	 7.60688 	 5.16665 	 
H 	 -33.5661 	 7.7342 	 4.09988 	 
H 	 -33.5489 	 8.52378 	 5.53977 	 
C 	 -31.7503 	 7.46135 	 5.21911 	 
H 	 -31.2798 	 8.44065 	 5.21654 	 
H 	 -31.4861 	 7.01348 	 6.22078 	 
H 	 -31.2785 	 6.86249 	 4.37022 	 
S 	 -34.1781 	 0.494115 	 3.94514 	 
C 	 -34.1523 	 -0.047994 	 2.24362 	 
C 	 -33.8078 	 0.992442 	 1.39059 	 
C 	 -33.5482 	 2.23511 	 2.07564 	 
C 	 -33.6879 	 2.08815 	 3.42167 	 
H 	 -33.829 	 0.745207 	 0.323623 	 
C 	 -33.1961 	 3.51577 	 1.28402 	 
H 	 -33.2655 	 4.30572 	 2.07703 	 
H 	 -34.041 	 3.77298 	 0.575252 	 
C 	 -31.7975 	 3.56787 	 0.694575 	 
H 	 -31.8066 	 4.47856 	 0.0863261 	 
H 	 -31.7174 	 2.70105 	 -0.026685 	 
C 	 -30.681 	 3.53971 	 1.76294 	 
H 	 -30.7551 	 2.54851 	 2.22965 	 
H 	 -30.7071 	 4.23749 	 2.574 	 
H 	 -29.674 	 3.60045 	 1.36193 	 
H 	 -32.3007 	 4.89906 	 7.22963 	 
H 	 -34.4458 	 -1.01314 	 1.85831 	 
*
