! wB97X-D3 SP def2-SVP
%pal
nprocs 24
end

* xyz 0 1
S 	 -53.9309 	 -48.3967 	 -80.8719 	 
C 	 -54.1064 	 -46.6468 	 -80.6523 	 
C 	 -54.8627 	 -46.1398 	 -81.6966 	 
C 	 -55.2172 	 -47.0778 	 -82.7521 	 
C 	 -54.6959 	 -48.3468 	 -82.4685 	 
H 	 -55.9088 	 -46.9717 	 -83.5707 	 
C 	 -55.5428 	 -44.8565 	 -81.7219 	 
H 	 -56.2778 	 -44.8447 	 -82.5613 	 
H 	 -54.6774 	 -44.2402 	 -82.1314 	 
C 	 -56.3145 	 -44.3355 	 -80.4625 	 
H 	 -55.6891 	 -44.0355 	 -79.6113 	 
H 	 -56.7538 	 -43.3689 	 -80.7589 	 
C 	 -57.4851 	 -45.2909 	 -79.9452 	 
H 	 -58.0788 	 -44.8058 	 -79.1623 	 
H 	 -58.0591 	 -45.7507 	 -80.6793 	 
H 	 -57.0653 	 -46.1776 	 -79.5115 	 
S 	 -56.5781 	 -50.1616 	 -83.3521 	 
C 	 -56.0036 	 -51.6589 	 -84.1423 	 
C 	 -54.6244 	 -51.7495 	 -84.1571 	 
C 	 -54.0053 	 -50.5247 	 -83.6985 	 
C 	 -54.8867 	 -49.5855 	 -83.2461 	 
H 	 -54.1 	 -52.65 	 -84.5268 	 
C 	 -52.4804 	 -50.3921 	 -83.6394 	 
H 	 -52.1023 	 -51.4187 	 -84.0091 	 
H 	 -52.3266 	 -50.3696 	 -82.5542 	 
C 	 -51.6704 	 -49.2774 	 -84.3361 	 
H 	 -50.7315 	 -49.2072 	 -83.7704 	 
H 	 -52.0521 	 -48.3006 	 -84.1847 	 
C 	 -51.4606 	 -49.6029 	 -85.8049 	 
H 	 -51.4525 	 -50.723 	 -86.0018 	 
H 	 -50.502 	 -49.1778 	 -86.0819 	 
H 	 -52.2445 	 -49.1294 	 -86.363 	 
H 	 -54.007 	 -46.0688 	 -79.7309 	 
H 	 -56.6572 	 -52.3689 	 -84.6609 	 
*
