! wB97X-D3 SP def2-SVP
%pal
nprocs 24
end

* xyz 0 1
S 	 -92.9004 	 2.99957 	 -2.45117 	 
C 	 -91.3279 	 2.76925 	 -3.19295 	 
C 	 -90.4227 	 3.72089 	 -2.81953 	 
C 	 -91.0293 	 4.75775 	 -2.0819 	 
C 	 -92.4124 	 4.58013 	 -1.89273 	 
H 	 -90.5102 	 5.6324 	 -1.65443 	 
C 	 -88.9017 	 3.76271 	 -3.04933 	 
H 	 -88.4782 	 4.83677 	 -2.93524 	 
H 	 -88.6718 	 3.37438 	 -4.04774 	 
C 	 -88.1715 	 2.85158 	 -2.09828 	 
H 	 -88.4313 	 3.12065 	 -1.11249 	 
H 	 -88.564 	 1.81665 	 -2.25298 	 
C 	 -86.6884 	 2.93506 	 -2.25684 	 
H 	 -86.2393 	 3.94663 	 -2.26322 	 
H 	 -86.2686 	 2.33075 	 -1.49454 	 
H 	 -86.2246 	 2.47416 	 -3.10281 	 
S 	 -94.9505 	 5.83921 	 -2.13339 	 
C 	 -95.5837 	 6.76166 	 -0.771361 	 
C 	 -94.6901 	 6.80058 	 0.232954 	 
C 	 -93.5358 	 6.00932 	 0.0719914 	 
C 	 -93.4894 	 5.39391 	 -1.19917 	 
H 	 -94.8751 	 7.4707 	 1.02187 	 
C 	 -92.345 	 5.91422 	 0.992724 	 
H 	 -92.1133 	 6.88785 	 1.21531 	 
H 	 -91.479 	 5.48474 	 0.469841 	 
C 	 -92.7089 	 5.16697 	 2.20062 	 
H 	 -93.5062 	 5.62681 	 2.7185 	 
H 	 -91.854 	 5.1816 	 2.88867 	 
C 	 -93.1373 	 3.73076 	 1.99038 	 
H 	 -92.3716 	 3.2569 	 1.30901 	 
H 	 -94.1647 	 3.65764 	 1.65722 	 
H 	 -93.0187 	 3.12286 	 2.89815 	 
H 	 -91.028 	 1.94106 	 -3.88262 	 
H 	 -96.5448 	 7.26595 	 -0.761655 	 
*
