! wB97X-D3 SP def2-SVP
%pal
nprocs 24
end

* xyz 0 1
S 	 -45.3289 	 26.7289 	 31.7803 	 
C 	 -46.3722 	 27.5727 	 32.9326 	 
C 	 -47.1046 	 26.6979 	 33.7543 	 
C 	 -46.9733 	 25.332 	 33.2778 	 
C 	 -45.8989 	 25.1349 	 32.3959 	 
H 	 -47.4141 	 24.5176 	 33.7267 	 
C 	 -48.0863 	 27.1002 	 34.8106 	 
H 	 -48.9981 	 26.5235 	 34.7872 	 
H 	 -48.4314 	 28.1331 	 34.5997 	 
C 	 -47.4518 	 26.9744 	 36.2633 	 
H 	 -48.2566 	 27.3099 	 37.003 	 
H 	 -47.2558 	 25.9729 	 36.5724 	 
C 	 -46.1294 	 27.6951 	 36.5603 	 
H 	 -46.1136 	 28.7308 	 36.3317 	 
H 	 -45.8615 	 27.6606 	 37.6563 	 
H 	 -45.3343 	 27.2213 	 36.0118 	 
S 	 -45.9684 	 23.5546 	 30.1862 	 
C 	 -45.1473 	 22.0271 	 30.2385 	 
C 	 -44.7306 	 21.6861 	 31.5287 	 
C 	 -45.0062 	 22.7379 	 32.4797 	 
C 	 -45.5557 	 23.8612 	 31.831 	 
H 	 -44.4075 	 20.6626 	 31.7163 	 
C 	 -44.8996 	 22.6525 	 33.966 	 
H 	 -45.9209 	 22.6567 	 34.4105 	 
H 	 -44.4182 	 23.5944 	 34.2389 	 
C 	 -43.9954 	 21.5811 	 34.5657 	 
H 	 -43.0372 	 21.9628 	 34.35 	 
H 	 -44.1062 	 20.5913 	 34.0657 	 
C 	 -43.9826 	 21.3565 	 36.0735 	 
H 	 -43.0189 	 21.6249 	 36.5602 	 
H 	 -44.0965 	 20.2808 	 36.4244 	 
H 	 -44.6988 	 21.9857 	 36.6407 	 
H 	 -46.4298 	 28.6425 	 32.9598 	 
H 	 -45.0456 	 21.4218 	 29.3742 	 
*
