! wB97X-D3 SP def2-SVP
%pal
nprocs 24
end

* xyz 0 1
S 	 -100.198 	 0.979953 	 -119.063 	 
C 	 -100.468 	 2.14136 	 -120.403 	 
C 	 -100.013 	 3.35463 	 -119.995 	 
C 	 -99.7073 	 3.42581 	 -118.555 	 
C 	 -99.7257 	 2.19487 	 -117.909 	 
H 	 -99.4989 	 4.34976 	 -118.029 	 
C 	 -100.141 	 4.58384 	 -120.863 	 
H 	 -99.768 	 4.25809 	 -121.863 	 
H 	 -99.5079 	 5.36948 	 -120.395 	 
C 	 -101.56 	 5.24897 	 -120.892 	 
H 	 -102.272 	 4.81411 	 -121.641 	 
H 	 -102.111 	 5.28017 	 -119.903 	 
C 	 -101.385 	 6.65669 	 -121.491 	 
H 	 -100.537 	 7.21287 	 -121.042 	 
H 	 -101.13 	 6.54284 	 -122.553 	 
H 	 -102.346 	 7.1145 	 -121.484 	 
S 	 -98.1077 	 2.33061 	 -115.69 	 
C 	 -98.7244 	 1.82513 	 -114.162 	 
C 	 -100.033 	 1.39769 	 -114.263 	 
C 	 -100.547 	 1.41483 	 -115.61 	 
C 	 -99.5532 	 1.87888 	 -116.503 	 
H 	 -100.529 	 1.18611 	 -113.297 	 
C 	 -101.937 	 1.00665 	 -115.988 	 
H 	 -102.357 	 0.478377 	 -115.106 	 
H 	 -101.713 	 0.108893 	 -116.632 	 
C 	 -102.848 	 2.20889 	 -116.436 	 
H 	 -102.406 	 2.84917 	 -117.317 	 
H 	 -102.98 	 2.95342 	 -115.668 	 
C 	 -104.305 	 1.83854 	 -116.812 	 
H 	 -104.326 	 1.26616 	 -117.732 	 
H 	 -104.858 	 2.81645 	 -116.85 	 
H 	 -104.754 	 1.35424 	 -115.99 	 
H 	 -100.818 	 1.8933 	 -121.388 	 
H 	 -98.4111 	 2.13787 	 -113.203 	 
*
