! wB97X-D3 SP def2-SVP
%pal
nprocs 24
end

* xyz 0 1
S 	 -131.209 	 8.89584 	 -3.42604 	 
C 	 -130.499 	 9.08966 	 -1.8863 	 
C 	 -131.402 	 8.8598 	 -0.850866 	 
C 	 -132.621 	 8.4205 	 -1.43244 	 
C 	 -132.582 	 8.13025 	 -2.77583 	 
H 	 -133.413 	 8.263 	 -0.764461 	 
C 	 -131.26 	 9.05971 	 0.625996 	 
H 	 -131.191 	 8.08683 	 1.15156 	 
H 	 -132.118 	 9.60018 	 0.979681 	 
C 	 -130.073 	 9.92947 	 1.053 	 
H 	 -129.15 	 9.5023 	 0.753598 	 
H 	 -130.188 	 10.8954 	 0.573239 	 
C 	 -129.902 	 10.2876 	 2.54439 	 
H 	 -130.768 	 10.8242 	 2.95483 	 
H 	 -129.73 	 9.4623 	 3.26517 	 
H 	 -129.12 	 11.0058 	 2.77797 	 
S 	 -133.175 	 7.37748 	 -5.3669 	 
C 	 -134.763 	 6.86103 	 -5.75641 	 
C 	 -135.503 	 6.63776 	 -4.58498 	 
C 	 -134.831 	 7.05042 	 -3.38315 	 
C 	 -133.617 	 7.57328 	 -3.63073 	 
H 	 -136.54 	 6.23553 	 -4.58256 	 
C 	 -135.504 	 7.01141 	 -2.04361 	 
H 	 -136.569 	 7.03533 	 -2.21106 	 
H 	 -135.319 	 8.02191 	 -1.6416 	 
C 	 -135.065 	 5.84929 	 -1.14672 	 
H 	 -134.037 	 5.60274 	 -1.14977 	 
H 	 -135.404 	 4.88754 	 -1.59159 	 
C 	 -135.621 	 6.08571 	 0.246949 	 
H 	 -135.354 	 6.99408 	 0.704867 	 
H 	 -135.205 	 5.41398 	 0.97519 	 
H 	 -136.707 	 6.01657 	 0.155829 	 
H 	 -129.497 	 9.50391 	 -1.75 	 
H 	 -135.07 	 6.5991 	 -6.75623 	 
*
