! wB97X-D3 SP def2-SVP
%pal
nprocs 24
end

* xyz 0 1
S 	 -65.954 	 8.73355 	 -77.3638 	 
C 	 -65.1685 	 7.47158 	 -76.3894 	 
C 	 -65.9019 	 7.0388 	 -75.3127 	 
C 	 -67.0422 	 7.91912 	 -75.2025 	 
C 	 -67.1809 	 8.88545 	 -76.1771 	 
H 	 -67.8034 	 7.90623 	 -74.356 	 
C 	 -65.5275 	 5.85634 	 -74.4211 	 
H 	 -65.2312 	 6.3719 	 -73.5364 	 
H 	 -64.6451 	 5.34253 	 -74.6472 	 
C 	 -66.6682 	 4.87944 	 -74.1385 	 
H 	 -66.3638 	 4.44973 	 -73.1654 	 
H 	 -67.5642 	 5.38071 	 -73.9298 	 
C 	 -66.8955 	 3.79208 	 -75.1452 	 
H 	 -67.8645 	 3.46848 	 -75.2598 	 
H 	 -66.629 	 4.22557 	 -76.0977 	 
H 	 -66.2674 	 2.89275 	 -75.031 	 
S 	 -68.1782 	 11.4998 	 -76.4609 	 
C 	 -69.8812 	 11.7226 	 -76.4449 	 
C 	 -70.5413 	 10.502 	 -76.3599 	 
C 	 -69.658 	 9.31573 	 -76.2911 	 
C 	 -68.3527 	 9.71466 	 -76.3868 	 
H 	 -71.6218 	 10.5866 	 -76.2865 	 
C 	 -70.2869 	 7.97693 	 -76.0686 	 
H 	 -69.5072 	 7.20621 	 -75.9411 	 
H 	 -70.7838 	 7.77806 	 -77.0251 	 
C 	 -71.2612 	 7.85451 	 -74.866 	 
H 	 -72.0869 	 8.5998 	 -75.0495 	 
H 	 -70.5781 	 8.27561 	 -74.0312 	 
C 	 -71.8942 	 6.44776 	 -74.6439 	 
H 	 -71.2287 	 5.63935 	 -74.5654 	 
H 	 -72.4943 	 6.22685 	 -75.5087 	 
H 	 -72.4749 	 6.56274 	 -73.8072 	 
H 	 -64.3432 	 6.85059 	 -76.7227 	 
H 	 -70.43 	 12.6789 	 -76.3737 	 
*
