! wB97X-D3 SP def2-SVP
%pal
nprocs 24
end

* xyz 0 1
S 	 -75.1026 	 0.762437 	 -65.2956 	 
C 	 -74.7756 	 1.26148 	 -66.9969 	 
C 	 -75.6847 	 2.10313 	 -67.4432 	 
C 	 -76.8115 	 2.14857 	 -66.5933 	 
C 	 -76.7339 	 1.36681 	 -65.4391 	 
H 	 -77.6814 	 2.78047 	 -66.8158 	 
C 	 -75.5266 	 3.03221 	 -68.616 	 
H 	 -75.9102 	 2.53186 	 -69.4524 	 
H 	 -74.5246 	 3.079 	 -68.865 	 
C 	 -75.993 	 4.4936 	 -68.4718 	 
H 	 -76.9654 	 4.6363 	 -68.0792 	 
H 	 -75.2836 	 5.10193 	 -67.8704 	 
C 	 -76.1048 	 5.12643 	 -69.8566 	 
H 	 -76.6177 	 6.14928 	 -69.7591 	 
H 	 -75.1394 	 5.23523 	 -70.3468 	 
H 	 -76.869 	 4.65184 	 -70.4228 	 
S 	 -77.2076 	 1.85697 	 -62.7162 	 
C 	 -78.8821 	 2.09672 	 -62.2191 	 
C 	 -79.7585 	 1.69015 	 -63.2369 	 
C 	 -79.1393 	 1.29675 	 -64.4603 	 
C 	 -77.7146 	 1.37114 	 -64.3293 	 
H 	 -80.8112 	 1.81055 	 -63.1148 	 
C 	 -79.8595 	 1.09768 	 -65.7406 	 
H 	 -80.6063 	 0.37622 	 -65.5186 	 
H 	 -79.3699 	 0.644838 	 -66.5711 	 
C 	 -80.4902 	 2.39894 	 -66.2382 	 
H 	 -80.6638 	 2.28624 	 -67.3413 	 
H 	 -79.813 	 3.27517 	 -66.11 	 
C 	 -81.9055 	 2.74002 	 -65.6532 	 
H 	 -81.7778 	 2.82432 	 -64.6053 	 
H 	 -82.6351 	 1.97995 	 -65.9273 	 
H 	 -82.3287 	 3.68881 	 -65.9736 	 
H 	 -73.7796 	 1.24723 	 -67.3104 	 
H 	 -79.2519 	 2.47371 	 -61.2945 	 
*
