! wB97X-D3 SP def2-SVP
%pal
nprocs 24
end

* xyz 0 1
S 	 -33.8011 	 -11.2862 	 13.4258 	 
C 	 -34.6491 	 -10.3661 	 14.597 	 
C 	 -35.746 	 -9.62026 	 14.0887 	 
C 	 -35.8442 	 -9.82715 	 12.6622 	 
C 	 -34.7854 	 -10.5641 	 12.1317 	 
H 	 -36.633 	 -9.41115 	 12.0406 	 
C 	 -36.784 	 -8.91807 	 14.9232 	 
H 	 -37.2644 	 -9.78161 	 15.4249 	 
H 	 -37.5414 	 -8.43116 	 14.287 	 
C 	 -36.0918 	 -8.03391 	 15.9464 	 
H 	 -36.8431 	 -7.72937 	 16.6914 	 
H 	 -35.4372 	 -8.60065 	 16.5991 	 
C 	 -35.2636 	 -6.79714 	 15.42 	 
H 	 -34.2928 	 -7.0338 	 15.016 	 
H 	 -35.7648 	 -6.18699 	 14.6165 	 
H 	 -35.0464 	 -6.14235 	 16.2999 	 
S 	 -34.0198 	 -12.5245 	 10.3948 	 
C 	 -33.946 	 -12.1046 	 8.66939 	 
C 	 -34.1734 	 -10.7603 	 8.43984 	 
C 	 -34.5313 	 -10.0726 	 9.66359 	 
C 	 -34.5469 	 -10.9109 	 10.7523 	 
H 	 -34.055 	 -10.4297 	 7.41281 	 
C 	 -34.8042 	 -8.61171 	 9.62125 	 
H 	 -35.4661 	 -8.37826 	 10.4015 	 
H 	 -35.2395 	 -8.18901 	 8.72285 	 
C 	 -33.516 	 -7.75954 	 9.6247 	 
H 	 -32.7603 	 -8.05299 	 8.90482 	 
H 	 -33.0098 	 -8.01517 	 10.5443 	 
C 	 -33.7465 	 -6.17198 	 9.71524 	 
H 	 -33.0687 	 -5.58501 	 9.23105 	 
H 	 -33.8766 	 -5.73355 	 10.7152 	 
H 	 -34.7342 	 -5.93841 	 9.24616 	 
H 	 -34.5311 	 -10.4918 	 15.673 	 
H 	 -33.7707 	 -12.8147 	 7.88304 	 
*
