! wB97X-D3 SP def2-SVP
%pal
nprocs 24
end

* xyz 0 1
S 	 18.5091 	 -15.1751 	 -122.589 	 
C 	 17.6819 	 -16.0009 	 -123.922 	 
C 	 18.5779 	 -16.5342 	 -124.825 	 
C 	 19.939 	 -16.1546 	 -124.487 	 
C 	 20.0835 	 -15.518 	 -123.315 	 
H 	 20.7454 	 -16.3806 	 -125.07 	 
C 	 18.2065 	 -17.175 	 -126.15 	 
H 	 18.9721 	 -16.9046 	 -126.933 	 
H 	 17.2875 	 -16.6983 	 -126.414 	 
C 	 17.9809 	 -18.636 	 -126.012 	 
H 	 18.811 	 -19.2398 	 -125.743 	 
H 	 17.2632 	 -18.7413 	 -125.205 	 
C 	 17.3681 	 -19.2703 	 -127.249 	 
H 	 16.492 	 -18.7986 	 -127.625 	 
H 	 18.0893 	 -19.2631 	 -127.984 	 
H 	 17.0268 	 -20.3052 	 -126.989 	 
S 	 21.7306 	 -13.4037 	 -123.499 	 
C 	 23.2237 	 -13.3011 	 -122.568 	 
C 	 23.5112 	 -14.462 	 -121.933 	 
C 	 22.4363 	 -15.4523 	 -121.992 	 
C 	 21.3873 	 -15.0122 	 -122.857 	 
H 	 24.4592 	 -14.5716 	 -121.503 	 
C 	 22.4594 	 -16.7861 	 -121.267 	 
H 	 21.3981 	 -17.0268 	 -121.191 	 
H 	 22.723 	 -16.667 	 -120.201 	 
C 	 23.5501 	 -17.7033 	 -121.82 	 
H 	 24.4286 	 -17.1831 	 -121.804 	 
H 	 23.3549 	 -17.6665 	 -122.9 	 
C 	 23.5895 	 -19.0837 	 -121.18 	 
H 	 23.9976 	 -18.9226 	 -120.196 	 
H 	 24.368 	 -19.7462 	 -121.722 	 
H 	 22.5456 	 -19.6358 	 -121.153 	 
H 	 16.6547 	 -16.2391 	 -124.049 	 
H 	 23.8957 	 -12.4538 	 -122.706 	 
*
