! wB97X-D3 SP def2-SVP
%pal
nprocs 24
end

* xyz 0 1
S 	 24.2091 	 -7.38624 	 -119.071 	 
C 	 23.9356 	 -7.32401 	 -120.862 	 
C 	 25.029 	 -6.82802 	 -121.535 	 
C 	 26.103 	 -6.48462 	 -120.628 	 
C 	 25.758 	 -6.63761 	 -119.317 	 
H 	 27.1552 	 -6.1117 	 -120.781 	 
C 	 25.171 	 -6.83514 	 -123.008 	 
H 	 25.4899 	 -5.7974 	 -123.354 	 
H 	 24.1843 	 -7.00955 	 -123.405 	 
C 	 26.0816 	 -7.87264 	 -123.667 	 
H 	 25.8971 	 -8.85354 	 -123.217 	 
H 	 25.8231 	 -7.94564 	 -124.725 	 
C 	 27.557 	 -7.49661 	 -123.556 	 
H 	 27.8748 	 -7.77516 	 -122.535 	 
H 	 28.2086 	 -8.1315 	 -124.157 	 
H 	 27.7485 	 -6.42112 	 -123.839 	 
S 	 26.7039 	 -4.81446 	 -117.429 	 
C 	 27.9562 	 -5.35504 	 -116.285 	 
C 	 28.3583 	 -6.6677 	 -116.551 	 
C 	 27.5745 	 -7.31072 	 -117.558 	 
C 	 26.6485 	 -6.39769 	 -118.189 	 
H 	 29.0877 	 -7.1403 	 -115.953 	 
C 	 27.8346 	 -8.72329 	 -117.973 	 
H 	 28.5986 	 -8.80267 	 -118.713 	 
H 	 26.9095 	 -8.99868 	 -118.483 	 
C 	 28.1456 	 -9.73601 	 -116.858 	 
H 	 27.4667 	 -9.8911 	 -116.04 	 
H 	 29.0449 	 -9.3734 	 -116.353 	 
C 	 28.5208 	 -11.0227 	 -117.477 	 
H 	 27.6992 	 -11.4806 	 -117.987 	 
H 	 28.8894 	 -11.7022 	 -116.676 	 
H 	 29.3457 	 -10.8061 	 -118.262 	 
H 	 23.0127 	 -7.59096 	 -121.231 	 
H 	 28.4753 	 -4.60009 	 -115.62 	 
*
