! wB97X-D3 SP def2-SVP
%pal
nprocs 24
end

* xyz 0 1
S 	 -75.6536 	 -45.0959 	 -92.4185 	 
C 	 -75.4034 	 -43.4353 	 -92.1604 	 
C 	 -75.5799 	 -42.6603 	 -93.2652 	 
C 	 -75.9413 	 -43.4784 	 -94.377 	 
C 	 -76.131 	 -44.7757 	 -94.0991 	 
H 	 -75.9845 	 -43.1609 	 -95.4316 	 
C 	 -75.4013 	 -41.1462 	 -93.3991 	 
H 	 -76.1982 	 -40.5957 	 -93.137 	 
H 	 -75.3564 	 -41.0584 	 -94.4576 	 
C 	 -74.0752 	 -40.6402 	 -92.7045 	 
H 	 -73.8892 	 -39.5501 	 -92.8653 	 
H 	 -74.1213 	 -40.6326 	 -91.5876 	 
C 	 -72.7972 	 -41.1813 	 -93.3092 	 
H 	 -71.873 	 -40.6797 	 -93.1282 	 
H 	 -72.733 	 -42.1738 	 -93.0359 	 
H 	 -72.8127 	 -41.1231 	 -94.4305 	 
S 	 -75.4502 	 -47.1136 	 -95.2285 	 
C 	 -76.3989 	 -47.9395 	 -96.428 	 
C 	 -77.4719 	 -47.1675 	 -96.8085 	 
C 	 -77.6087 	 -45.9547 	 -96.0163 	 
C 	 -76.5846 	 -45.8117 	 -95.057 	 
H 	 -78.1287 	 -47.3721 	 -97.7048 	 
C 	 -78.7425 	 -44.9551 	 -96.1795 	 
H 	 -79.4707 	 -45.5405 	 -96.7983 	 
H 	 -78.5347 	 -43.9932 	 -96.6924 	 
C 	 -79.4091 	 -44.6922 	 -94.8966 	 
H 	 -80.1211 	 -43.9284 	 -94.9925 	 
H 	 -78.8047 	 -44.2048 	 -94.1627 	 
C 	 -80.0864 	 -45.9401 	 -94.2801 	 
H 	 -80.8513 	 -46.2344 	 -94.9263 	 
H 	 -80.4789 	 -45.8175 	 -93.3066 	 
H 	 -79.4537 	 -46.8864 	 -94.3637 	 
H 	 -75.0946 	 -43.0307 	 -91.221 	 
H 	 -76.0429 	 -48.8578 	 -96.9487 	 
*
