! wB97X-D3 SP def2-SVP
%pal
nprocs 24
end

* xyz 0 1
S 	 21.3765 	 -0.194235 	 -115.009 	 
C 	 20.1831 	 -0.0914929 	 -116.248 	 
C 	 19.4955 	 1.12433 	 -116.197 	 
C 	 19.8854 	 1.96694 	 -115.101 	 
C 	 20.9503 	 1.43199 	 -114.39 	 
H 	 19.465 	 2.94347 	 -114.71 	 
C 	 18.3703 	 1.45248 	 -117.071 	 
H 	 18.202 	 0.782101 	 -117.902 	 
H 	 18.6462 	 2.42585 	 -117.5 	 
C 	 16.9592 	 1.70355 	 -116.367 	 
H 	 16.6131 	 0.851626 	 -115.768 	 
H 	 17.132 	 2.43 	 -115.671 	 
C 	 15.9051 	 2.20499 	 -117.399 	 
H 	 16.1095 	 3.22178 	 -117.752 	 
H 	 15.8932 	 1.5565 	 -118.249 	 
H 	 14.8667 	 2.22744 	 -117.073 	 
S 	 23.1964 	 2.02828 	 -113.368 	 
C 	 23.4292 	 3.14239 	 -112.071 	 
C 	 22.2337 	 3.43587 	 -111.506 	 
C 	 21.0871 	 2.89027 	 -112.189 	 
C 	 21.5315 	 2.08526 	 -113.25 	 
H 	 22.1403 	 4.05407 	 -110.637 	 
C 	 19.6283 	 2.91397 	 -111.786 	 
H 	 18.9559 	 3.30711 	 -112.614 	 
H 	 19.3796 	 3.55493 	 -110.955 	 
C 	 19.0827 	 1.48624 	 -111.481 	 
H 	 19.7167 	 1.02144 	 -110.69 	 
H 	 19.2911 	 0.778299 	 -112.369 	 
C 	 17.6459 	 1.43694 	 -111.062 	 
H 	 17.4416 	 1.76344 	 -110.051 	 
H 	 17.3371 	 0.393369 	 -111.215 	 
H 	 16.9656 	 2.06118 	 -111.679 	 
H 	 19.9061 	 -0.803544 	 -117.055 	 
H 	 24.2964 	 3.52229 	 -111.668 	 
*
