! wB97X-D3 SP def2-SVP
%pal
nprocs 24
end

* xyz 0 1
S 	 -37.7062 	 16.1219 	 14.9098 	 
C 	 -37.4314 	 15.3754 	 16.4507 	 
C 	 -37.745 	 16.2691 	 17.4461 	 
C 	 -38.1824 	 17.546 	 16.9799 	 
C 	 -38.0048 	 17.6952 	 15.6038 	 
H 	 -38.4819 	 18.3436 	 17.5362 	 
C 	 -37.6018 	 15.9061 	 18.9 	 
H 	 -37.0692 	 16.723 	 19.3246 	 
H 	 -36.9033 	 14.956 	 18.9923 	 
C 	 -38.8972 	 15.4181 	 19.6197 	 
H 	 -39.4636 	 16.3886 	 19.6995 	 
H 	 -39.4708 	 14.7731 	 19.0087 	 
C 	 -38.6482 	 14.7987 	 21.0534 	 
H 	 -37.8361 	 14.027 	 21.0876 	 
H 	 -38.2706 	 15.5744 	 21.7085 	 
H 	 -39.4923 	 14.3685 	 21.5138 	 
S 	 -39.5115 	 18.7656 	 13.6471 	 
C 	 -39.4707 	 20.4157 	 13.2185 	 
C 	 -38.5163 	 21.0608 	 13.9733 	 
C 	 -37.9027 	 20.1943 	 14.98 	 
C 	 -38.3018 	 18.8737 	 14.8482 	 
H 	 -38.2418 	 22.0395 	 13.7424 	 
C 	 -36.8517 	 20.6945 	 15.9515 	 
H 	 -35.967 	 20.9675 	 15.3738 	 
H 	 -36.4054 	 19.8342 	 16.5601 	 
C 	 -37.2398 	 21.9075 	 16.7978 	 
H 	 -37.2376 	 22.6534 	 16.027 	 
H 	 -36.3136 	 22.1636 	 17.3384 	 
C 	 -38.5383 	 21.7752 	 17.7099 	 
H 	 -38.5052 	 22.4689 	 18.4222 	 
H 	 -38.5617 	 20.8208 	 18.2723 	 
H 	 -39.5003 	 21.9193 	 17.1988 	 
H 	 -37.249 	 14.3428 	 16.6326 	 
H 	 -39.9795 	 20.9132 	 12.4221 	 
*
