! wB97X-D3 SP def2-SVP
%pal
nprocs 24
end

* xyz 0 1
S 	 -103.383 	 23.0658 	 -112.625 	 
C 	 -102.617 	 23.197 	 -111.028 	 
C 	 -103.303 	 22.439 	 -110.075 	 
C 	 -104.435 	 21.8237 	 -110.613 	 
C 	 -104.694 	 22.1251 	 -111.937 	 
H 	 -105.09 	 21.186 	 -110.101 	 
C 	 -102.974 	 22.3011 	 -108.536 	 
H 	 -101.866 	 22.4104 	 -108.452 	 
H 	 -103.369 	 21.4144 	 -108.055 	 
C 	 -103.483 	 23.4799 	 -107.666 	 
H 	 -103.074 	 23.443 	 -106.652 	 
H 	 -102.979 	 24.3948 	 -108.131 	 
C 	 -104.99 	 23.663 	 -107.509 	 
H 	 -105.428 	 22.8241 	 -106.962 	 
H 	 -105.278 	 24.5478 	 -106.943 	 
H 	 -105.496 	 23.8821 	 -108.392 	 
S 	 -105.425 	 20.4715 	 -114.058 	 
C 	 -107.139 	 20.3027 	 -114.309 	 
C 	 -107.918 	 21.264 	 -113.698 	 
C 	 -107.15 	 22.0436 	 -112.814 	 
C 	 -105.795 	 21.6724 	 -112.777 	 
H 	 -109.034 	 21.2587 	 -113.894 	 
C 	 -107.833 	 23.0572 	 -111.884 	 
H 	 -108.889 	 23.1988 	 -112.263 	 
H 	 -107.3 	 24.0324 	 -112.027 	 
C 	 -108.022 	 22.7762 	 -110.381 	 
H 	 -107 	 22.7326 	 -109.893 	 
H 	 -108.494 	 21.7726 	 -110.273 	 
C 	 -108.755 	 23.9019 	 -109.676 	 
H 	 -108.079 	 24.7012 	 -109.545 	 
H 	 -109.198 	 23.6994 	 -108.704 	 
H 	 -109.635 	 24.2831 	 -110.192 	 
H 	 -101.811 	 23.8441 	 -110.825 	 
H 	 -107.571 	 19.644 	 -115.051 	 
*
