! wB97X-D3 SP def2-SVP
%pal
nprocs 24
end

* xyz 0 1
S 	 -83.9533 	 -34.8612 	 -76.8653 	 
C 	 -83.4856 	 -34.9858 	 -78.5101 	 
C 	 -84.5082 	 -34.4688 	 -79.2484 	 
C 	 -85.5549 	 -33.8448 	 -78.5025 	 
C 	 -85.3083 	 -33.7614 	 -77.1399 	 
H 	 -86.4865 	 -33.3978 	 -78.9167 	 
C 	 -84.6292 	 -34.658 	 -80.8127 	 
H 	 -84.7575 	 -35.7524 	 -80.983 	 
H 	 -83.6587 	 -34.4158 	 -81.1992 	 
C 	 -85.6926 	 -33.7981 	 -81.5116 	 
H 	 -85.7014 	 -34.1036 	 -82.5843 	 
H 	 -86.7056 	 -34.1171 	 -81.1999 	 
C 	 -85.5463 	 -32.2736 	 -81.3698 	 
H 	 -85.7062 	 -31.9244 	 -80.3393 	 
H 	 -84.503 	 -31.9674 	 -81.6743 	 
H 	 -86.174 	 -31.7538 	 -82.0216 	 
S 	 -86.7462 	 -34.1956 	 -74.7772 	 
C 	 -87.4964 	 -32.8771 	 -73.9924 	 
C 	 -87.4238 	 -31.7349 	 -74.7613 	 
C 	 -86.6583 	 -31.9067 	 -75.9847 	 
C 	 -86.1598 	 -33.1945 	 -76.1244 	 
H 	 -87.9666 	 -30.9085 	 -74.4049 	 
C 	 -86.5613 	 -30.7697 	 -76.9763 	 
H 	 -87.3918 	 -30.0933 	 -76.7158 	 
H 	 -86.6026 	 -31.1205 	 -77.9503 	 
C 	 -85.2242 	 -29.9926 	 -76.8801 	 
H 	 -84.3752 	 -30.6772 	 -76.9524 	 
H 	 -85.065 	 -29.6578 	 -75.8472 	 
C 	 -85.1935 	 -28.8852 	 -77.8852 	 
H 	 -85.4413 	 -29.1619 	 -78.8973 	 
H 	 -84.1925 	 -28.4675 	 -77.9039 	 
H 	 -85.9679 	 -28.1405 	 -77.5566 	 
H 	 -82.6746 	 -35.5774 	 -78.9017 	 
H 	 -88.1432 	 -33.0377 	 -73.1232 	 
*
