! wB97X-D3 SP def2-SVP
%pal
nprocs 24
end

* xyz 0 1
S 	 -122.855 	 65.802 	 -39.2666 	 
C 	 -122.138 	 67.0995 	 -38.4305 	 
C 	 -121.436 	 68.0073 	 -39.2935 	 
C 	 -121.466 	 67.5362 	 -40.6664 	 
C 	 -122.169 	 66.3772 	 -40.794 	 
H 	 -121.053 	 68.0147 	 -41.5594 	 
C 	 -120.832 	 69.3129 	 -38.9041 	 
H 	 -119.873 	 69.2572 	 -39.3078 	 
H 	 -120.846 	 69.2943 	 -37.8051 	 
C 	 -121.672 	 70.5697 	 -39.224 	 
H 	 -121.296 	 71.5097 	 -38.6899 	 
H 	 -121.62 	 70.814 	 -40.3368 	 
C 	 -123.128 	 70.5481 	 -38.801 	 
H 	 -123.844 	 69.9158 	 -39.4199 	 
H 	 -123.27 	 70.0554 	 -37.8749 	 
H 	 -123.582 	 71.5159 	 -38.6957 	 
S 	 -122.01 	 63.9545 	 -42.1645 	 
C 	 -122.521 	 63.9333 	 -43.8076 	 
C 	 -123.153 	 65.0741 	 -44.1884 	 
C 	 -123.044 	 66.1216 	 -43.2083 	 
C 	 -122.35 	 65.7314 	 -42.1109 	 
H 	 -123.599 	 65.2305 	 -45.1701 	 
C 	 -123.757 	 67.4769 	 -43.3584 	 
H 	 -123.464 	 67.9742 	 -42.4702 	 
H 	 -124.798 	 67.3843 	 -43.3042 	 
C 	 -123.24 	 68.3895 	 -44.5249 	 
H 	 -123.761 	 69.3356 	 -44.4731 	 
H 	 -123.729 	 67.9188 	 -45.3801 	 
C 	 -121.724 	 68.6113 	 -44.5904 	 
H 	 -121.468 	 69.0857 	 -45.5051 	 
H 	 -121.234 	 67.5872 	 -44.5686 	 
H 	 -121.445 	 69.3168 	 -43.8005 	 
H 	 -122.146 	 67.3035 	 -37.3831 	 
H 	 -122.659 	 63.05 	 -44.4045 	 
*
