! wB97X-D3 SP def2-SVP
%pal
nprocs 24
end

* xyz 0 1
S 	 -31.5871 	 10.7304 	 9.94181 	 
C 	 -31.7874 	 12.2707 	 9.12611 	 
C 	 -32.4706 	 13.1581 	 9.88702 	 
C 	 -32.7818 	 12.5732 	 11.202 	 
C 	 -32.47 	 11.2128 	 11.3022 	 
H 	 -33.2753 	 13.0295 	 12.0724 	 
C 	 -32.9809 	 14.5668 	 9.529 	 
H 	 -34.068 	 14.4207 	 9.661 	 
H 	 -32.6537 	 14.688 	 8.49311 	 
C 	 -32.4121 	 15.7522 	 10.2723 	 
H 	 -32.5686 	 15.7272 	 11.3858 	 
H 	 -31.3141 	 15.9408 	 10.1273 	 
C 	 -33.0668 	 17.0559 	 9.80015 	 
H 	 -34.1595 	 16.8251 	 9.92121 	 
H 	 -32.8329 	 17.9565 	 10.2512 	 
H 	 -32.9017 	 17.2177 	 8.7181 	 
S 	 -31.1725 	 9.7446 	 13.2882 	 
C 	 -32.0847 	 9.12663 	 14.5722 	 
C 	 -33.4463 	 9.30668 	 14.3878 	 
C 	 -33.7997 	 10.034 	 13.201 	 
C 	 -32.6313 	 10.3644 	 12.4715 	 
H 	 -34.098 	 8.83962 	 15.1211 	 
C 	 -35.2618 	 10.3337 	 12.7366 	 
H 	 -35.0849 	 10.3441 	 11.6518 	 
H 	 -35.6125 	 11.2795 	 13.1245 	 
C 	 -36.3148 	 9.25203 	 12.9588 	 
H 	 -36.1512 	 9.08691 	 14.0288 	 
H 	 -35.9996 	 8.42947 	 12.4478 	 
C 	 -37.7827 	 9.79965 	 12.6503 	 
H 	 -37.8806 	 10.1126 	 11.5905 	 
H 	 -38.0314 	 10.6449 	 13.32 	 
H 	 -38.6103 	 9.07377 	 12.8418 	 
H 	 -31.4892 	 12.5171 	 8.09519 	 
H 	 -31.7586 	 8.63481 	 15.4703 	 
*
