! wB97X-D3 SP def2-SVP
%pal
nprocs 24
end

* xyz 0 1
S 	 -34.7472 	 -3.45037 	 5.64756 	 
C 	 -36.2997 	 -3.53885 	 6.35262 	 
C 	 -37.2853 	 -3.8577 	 5.43366 	 
C 	 -36.7225 	 -4.0588 	 4.11503 	 
C 	 -35.4163 	 -3.68871 	 4.06583 	 
H 	 -37.1595 	 -4.51602 	 3.23455 	 
C 	 -38.8048 	 -3.95838 	 5.67349 	 
H 	 -38.9282 	 -4.06545 	 6.76624 	 
H 	 -39.1361 	 -4.90333 	 5.20268 	 
C 	 -39.6107 	 -2.83087 	 5.09014 	 
H 	 -39.3465 	 -2.57701 	 4.03741 	 
H 	 -40.6553 	 -3.0482 	 5.00646 	 
C 	 -39.3616 	 -1.56512 	 5.89966 	 
H 	 -40.1247 	 -0.865953 	 5.65939 	 
H 	 -39.3954 	 -1.66561 	 6.97456 	 
H 	 -38.4145 	 -1.15792 	 5.68 	 
S 	 -33.4448 	 -5.24448 	 3.1208 	 
C 	 -32.963 	 -5.25949 	 1.463 	 
C 	 -33.6276 	 -4.2151 	 0.861723 	 
C 	 -34.5586 	 -3.49479 	 1.63713 	 
C 	 -34.5828 	 -3.96916 	 2.93801 	 
H 	 -33.3362 	 -4.1901 	 -0.167304 	 
C 	 -35.3806 	 -2.29608 	 1.0814 	 
H 	 -34.61 	 -1.7672 	 0.519939 	 
H 	 -35.4141 	 -1.53345 	 1.8842 	 
C 	 -36.6594 	 -2.5397 	 0.331962 	 
H 	 -37.3869 	 -3.03671 	 1.02598 	 
H 	 -36.514 	 -3.18199 	 -0.483051 	 
C 	 -37.3338 	 -1.26419 	 -0.118687 	 
H 	 -36.7172 	 -0.848876 	 -0.870208 	 
H 	 -37.4879 	 -0.538426 	 0.66956 	 
H 	 -38.077 	 -1.63665 	 -0.690091 	 
H 	 -36.4875 	 -3.50008 	 7.35773 	 
H 	 -32.2317 	 -5.95311 	 1.14792 	 
*
