! wB97X-D3 SP def2-SVP
%pal
nprocs 24
end

* xyz 0 1
S 	 17.8372 	 -16.2851 	 -123.135 	 
C 	 17.1158 	 -16.8939 	 -124.548 	 
C 	 17.8863 	 -16.5376 	 -125.652 	 
C 	 19.2595 	 -16.1452 	 -125.256 	 
C 	 19.3656 	 -16.0185 	 -123.874 	 
H 	 20.1416 	 -16.0818 	 -125.893 	 
C 	 17.5626 	 -16.7257 	 -127.091 	 
H 	 17.603 	 -15.7552 	 -127.637 	 
H 	 16.486 	 -16.9007 	 -127.201 	 
C 	 18.269 	 -17.7964 	 -127.868 	 
H 	 19.3541 	 -17.5992 	 -127.622 	 
H 	 17.8896 	 -18.7907 	 -127.571 	 
C 	 17.9011 	 -17.572 	 -129.357 	 
H 	 16.8885 	 -17.9096 	 -129.384 	 
H 	 17.9087 	 -16.5376 	 -129.828 	 
H 	 18.3725 	 -18.2667 	 -130.064 	 
S 	 20.6761 	 -14.0635 	 -122.423 	 
C 	 22.4144 	 -14.2967 	 -122.131 	 
C 	 22.8126 	 -15.583 	 -122.556 	 
C 	 21.7823 	 -16.2393 	 -123.29 	 
C 	 20.5638 	 -15.6049 	 -123.243 	 
H 	 23.842 	 -15.9443 	 -122.407 	 
C 	 21.9701 	 -17.6239 	 -123.975 	 
H 	 22.7213 	 -17.6767 	 -124.735 	 
H 	 21.051 	 -17.9832 	 -124.43 	 
C 	 22.479 	 -18.7155 	 -123.038 	 
H 	 21.6735 	 -18.9629 	 -122.308 	 
H 	 23.3349 	 -18.5035 	 -122.339 	 
C 	 22.754 	 -20.0367 	 -123.811 	 
H 	 21.9494 	 -20.4804 	 -124.309 	 
H 	 23.0218 	 -20.8235 	 -123.136 	 
H 	 23.5735 	 -20.1011 	 -124.544 	 
H 	 16.0602 	 -17.1062 	 -124.588 	 
H 	 22.948 	 -13.6599 	 -121.394 	 
*
