! wB97X-D3 SP def2-SVP
%pal
nprocs 24
end

* xyz 0 1
S 	 -126.28 	 67.6567 	 -43.0357 	 
C 	 -126.701 	 69.2237 	 -43.5268 	 
C 	 -125.832 	 70.1295 	 -43.0439 	 
C 	 -124.717 	 69.576 	 -42.3267 	 
C 	 -124.828 	 68.2126 	 -42.2146 	 
H 	 -123.861 	 70.0282 	 -41.776 	 
C 	 -126.106 	 71.6275 	 -43.1559 	 
H 	 -126.667 	 71.9156 	 -44.0162 	 
H 	 -125.171 	 72.1035 	 -43.2865 	 
C 	 -126.785 	 72.238 	 -41.8982 	 
H 	 -127.722 	 71.7081 	 -41.7612 	 
H 	 -126.14 	 71.9696 	 -41.0875 	 
C 	 -127.003 	 73.7153 	 -41.8492 	 
H 	 -127.773 	 73.9902 	 -42.5113 	 
H 	 -127.468 	 74.0609 	 -40.9156 	 
H 	 -126.031 	 74.2928 	 -41.9646 	 
S 	 -123.878 	 67.5762 	 -39.7188 	 
C 	 -123.09 	 66.0541 	 -39.5368 	 
C 	 -122.885 	 65.4573 	 -40.7654 	 
C 	 -123.272 	 66.1664 	 -41.9065 	 
C 	 -124.002 	 67.3036 	 -41.4894 	 
H 	 -122.275 	 64.5808 	 -40.7418 	 
C 	 -123.235 	 65.6331 	 -43.3726 	 
H 	 -124.246 	 65.5934 	 -43.785 	 
H 	 -122.981 	 64.5228 	 -43.1436 	 
C 	 -122.153 	 66.3257 	 -44.329 	 
H 	 -121.191 	 66.103 	 -43.8726 	 
H 	 -122.167 	 67.4324 	 -44.1662 	 
C 	 -122.24 	 65.9346 	 -45.878 	 
H 	 -123.112 	 66.2198 	 -46.4798 	 
H 	 -122.108 	 64.9043 	 -45.9976 	 
H 	 -121.473 	 66.5334 	 -46.3163 	 
H 	 -127.537 	 69.504 	 -44.1537 	 
H 	 -122.792 	 65.5962 	 -38.576 	 
*
