! wB97X-D3 SP def2-SVP
%pal
nprocs 24
end

* xyz 0 1
S 	 27.3182 	 -23.2333 	 -121.577 	 
C 	 28.5333 	 -22.3143 	 -122.47 	 
C 	 28.0842 	 -21.827 	 -123.655 	 
C 	 26.6369 	 -21.8913 	 -123.663 	 
C 	 26.1335 	 -22.6992 	 -122.655 	 
H 	 25.9837 	 -21.5595 	 -124.503 	 
C 	 28.876 	 -21.1376 	 -124.649 	 
H 	 29.8721 	 -20.9249 	 -124.226 	 
H 	 28.5136 	 -20.1854 	 -124.85 	 
C 	 28.9439 	 -21.8362 	 -126.032 	 
H 	 27.8307 	 -22.0073 	 -126.271 	 
H 	 29.4137 	 -21.2149 	 -126.815 	 
C 	 29.6662 	 -23.2047 	 -125.888 	 
H 	 29.2263 	 -23.9326 	 -125.194 	 
H 	 29.546 	 -23.4988 	 -126.876 	 
H 	 30.7694 	 -23.1066 	 -125.791 	 
S 	 24.1374 	 -24.5219 	 -123.005 	 
C 	 22.6167 	 -24.2562 	 -122.35 	 
C 	 22.4519 	 -22.9966 	 -121.79 	 
C 	 23.6342 	 -22.2481 	 -121.947 	 
C 	 24.7031 	 -22.9954 	 -122.51 	 
H 	 21.4322 	 -22.8492 	 -121.442 	 
C 	 23.7248 	 -20.7741 	 -121.463 	 
H 	 23.8627 	 -20.2551 	 -122.351 	 
H 	 24.6178 	 -20.8073 	 -120.923 	 
C 	 22.5093 	 -20.1232 	 -120.692 	 
H 	 21.7564 	 -20.2111 	 -121.458 	 
H 	 22.6309 	 -18.9773 	 -120.439 	 
C 	 22.1868 	 -20.7013 	 -119.369 	 
H 	 22.1866 	 -21.8023 	 -119.505 	 
H 	 21.1634 	 -20.4887 	 -119.166 	 
H 	 22.9379 	 -20.4355 	 -118.641 	 
H 	 29.5557 	 -22.1797 	 -122.146 	 
H 	 21.7171 	 -24.8758 	 -122.4 	 
*
