! wB97X-D3 SP def2-SVP
%pal
nprocs 24
end

* xyz 0 1
S 	 20.466 	 -7.3885 	 -112.349 	 
C 	 20.6666 	 -7.60438 	 -110.591 	 
C 	 20.0204 	 -8.72638 	 -110.159 	 
C 	 19.2288 	 -9.36248 	 -111.222 	 
C 	 19.2753 	 -8.67783 	 -112.427 	 
H 	 18.6894 	 -10.3194 	 -111.052 	 
C 	 20.0751 	 -9.2142 	 -108.741 	 
H 	 19.1784 	 -9.81134 	 -108.572 	 
H 	 20.1818 	 -8.3757 	 -108.09 	 
C 	 21.3461 	 -10.0312 	 -108.424 	 
H 	 22.212 	 -9.34006 	 -108.761 	 
H 	 21.4994 	 -10.1646 	 -107.392 	 
C 	 21.6015 	 -11.3754 	 -109.127 	 
H 	 22.432 	 -11.9428 	 -108.745 	 
H 	 20.7654 	 -12.0073 	 -108.916 	 
H 	 21.6018 	 -11.3074 	 -110.244 	 
S 	 19.2641 	 -9.11833 	 -115.121 	 
C 	 17.806 	 -9.60736 	 -115.906 	 
C 	 16.7339 	 -9.31355 	 -115.134 	 
C 	 17.0722 	 -8.9247 	 -113.794 	 
C 	 18.4782 	 -8.89248 	 -113.604 	 
H 	 15.7534 	 -9.34324 	 -115.501 	 
C 	 16.0196 	 -8.79036 	 -112.762 	 
H 	 16.2349 	 -8.03151 	 -111.988 	 
H 	 15.9842 	 -9.70943 	 -112.151 	 
C 	 14.5933 	 -8.48733 	 -113.19 	 
H 	 14.2244 	 -9.30698 	 -113.86 	 
H 	 14.6842 	 -7.60246 	 -113.774 	 
C 	 13.5526 	 -8.2018 	 -112.142 	 
H 	 12.6048 	 -7.69257 	 -112.409 	 
H 	 14.0311 	 -7.50979 	 -111.41 	 
H 	 13.3221 	 -9.05963 	 -111.543 	 
H 	 21.4317 	 -7.12189 	 -110.048 	 
H 	 17.7434 	 -9.8306 	 -116.952 	 
*
