! wB97X-D3 SP def2-SVP
%pal
nprocs 24
end

* xyz 0 1
S 	 -103.569 	 6.95776 	 -2.81579 	 
C 	 -102.123 	 7.84251 	 -3.11295 	 
C 	 -102.185 	 8.74547 	 -4.11882 	 
C 	 -103.572 	 8.94531 	 -4.48372 	 
C 	 -104.392 	 7.98137 	 -3.98698 	 
H 	 -104.012 	 9.76024 	 -5.00881 	 
C 	 -101.052 	 9.61904 	 -4.61761 	 
H 	 -101.295 	 10.2047 	 -5.52031 	 
H 	 -100.18 	 9.12024 	 -5.01458 	 
C 	 -100.415 	 10.6318 	 -3.6395 	 
H 	 -99.9477 	 10.0435 	 -2.85832 	 
H 	 -99.595 	 11.1931 	 -4.06323 	 
C 	 -101.49 	 11.6439 	 -3.13423 	 
H 	 -102.423 	 11.154 	 -2.85787 	 
H 	 -101.194 	 12.3482 	 -2.39079 	 
H 	 -101.607 	 12.3441 	 -3.95066 	 
S 	 -106.377 	 7.00682 	 -5.65003 	 
C 	 -108.09 	 7.14958 	 -5.18995 	 
C 	 -108.155 	 7.66537 	 -3.92564 	 
C 	 -106.88 	 7.91039 	 -3.28917 	 
C 	 -105.821 	 7.76604 	 -4.18839 	 
H 	 -109.088 	 7.77008 	 -3.47522 	 
C 	 -106.722 	 8.37016 	 -1.92218 	 
H 	 -106.119 	 7.59389 	 -1.37426 	 
H 	 -107.736 	 8.28669 	 -1.52657 	 
C 	 -106.139 	 9.79229 	 -1.75972 	 
H 	 -106.745 	 10.4867 	 -2.24125 	 
H 	 -105.162 	 9.88005 	 -2.28345 	 
C 	 -105.887 	 10.1471 	 -0.266163 	 
H 	 -105.401 	 9.35808 	 0.298803 	 
H 	 -106.868 	 10.2143 	 0.187272 	 
H 	 -105.451 	 11.1142 	 -0.232402 	 
H 	 -101.153 	 7.57637 	 -2.70835 	 
H 	 -108.925 	 6.92514 	 -5.70153 	 
*
