! wB97X-D3 SP def2-SVP
%pal
nprocs 24
end

* xyz 0 1
S 	 -128.471 	 58.7282 	 -62.8293 	 
C 	 -129.688 	 59.4264 	 -63.7914 	 
C 	 -130.885 	 58.7269 	 -63.6848 	 
C 	 -130.758 	 57.5718 	 -62.8128 	 
C 	 -129.54 	 57.4476 	 -62.2295 	 
H 	 -131.493 	 56.7879 	 -62.693 	 
C 	 -132.175 	 59.0671 	 -64.3544 	 
H 	 -131.942 	 59.0117 	 -65.4274 	 
H 	 -132.387 	 60.1225 	 -64.3041 	 
C 	 -133.422 	 58.2481 	 -63.9957 	 
H 	 -133.357 	 57.3045 	 -64.4691 	 
H 	 -133.444 	 58.2093 	 -62.9171 	 
C 	 -134.698 	 58.9736 	 -64.3979 	 
H 	 -135.651 	 58.6855 	 -63.8821 	 
H 	 -134.655 	 60.052 	 -64.2419 	 
H 	 -134.883 	 58.794 	 -65.4732 	 
S 	 -128.69 	 56.844 	 -59.7172 	 
C 	 -128.351 	 55.1339 	 -59.296 	 
C 	 -128.836 	 54.2823 	 -60.2458 	 
C 	 -129.215 	 55.0128 	 -61.4527 	 
C 	 -129.146 	 56.3705 	 -61.2746 	 
H 	 -128.996 	 53.2606 	 -60.1083 	 
C 	 -129.806 	 54.1933 	 -62.6626 	 
H 	 -129.013 	 53.4563 	 -63.0055 	 
H 	 -130.035 	 54.8143 	 -63.5411 	 
C 	 -131.096 	 53.5446 	 -62.2332 	 
H 	 -131.756 	 54.4661 	 -62.0722 	 
H 	 -130.932 	 53.0964 	 -61.2892 	 
C 	 -131.549 	 52.5333 	 -63.3288 	 
H 	 -132.545 	 52.2285 	 -63.2146 	 
H 	 -130.957 	 51.591 	 -63.2393 	 
H 	 -131.33 	 52.891 	 -64.3401 	 
H 	 -129.57 	 60.2826 	 -64.3918 	 
H 	 -128.146 	 54.7777 	 -58.3102 	 
*
