! wB97X-D3 SP def2-SVP
%pal
nprocs 24
end

* xyz 0 1
S 	 -144.254 	 5.69686 	 1.18718 	 
C 	 -143.007 	 5.69507 	 -0.0734996 	 
C 	 -141.728 	 5.60499 	 0.498378 	 
C 	 -141.793 	 5.58779 	 1.95191 	 
C 	 -143.122 	 5.65141 	 2.47974 	 
H 	 -140.997 	 5.57703 	 2.68259 	 
C 	 -140.416 	 5.70268 	 -0.23555 	 
H 	 -140.646 	 6.42442 	 -1.01001 	 
H 	 -140.053 	 4.76526 	 -0.764718 	 
C 	 -139.184 	 6.28498 	 0.530544 	 
H 	 -139.326 	 7.0384 	 1.37629 	 
H 	 -138.709 	 5.4189 	 0.962223 	 
C 	 -138.096 	 6.87116 	 -0.459056 	 
H 	 -138.357 	 7.92535 	 -0.725902 	 
H 	 -137.099 	 6.59333 	 -0.077534 	 
H 	 -138.016 	 6.35187 	 -1.34432 	 
S 	 -144.674 	 7.09598 	 4.3284 	 
C 	 -144.628 	 6.60913 	 6.04396 	 
C 	 -143.748 	 5.60884 	 6.27531 	 
C 	 -142.976 	 5.29281 	 5.08781 	 
C 	 -143.518 	 5.80628 	 3.89555 	 
H 	 -143.696 	 5.24371 	 7.30673 	 
C 	 -141.97 	 4.12842 	 5.16529 	 
H 	 -141.653 	 3.86195 	 4.0671 	 
H 	 -142.352 	 3.23145 	 5.63553 	 
C 	 -140.626 	 4.54189 	 5.86145 	 
H 	 -140.72 	 4.45115 	 6.9475 	 
H 	 -140.489 	 5.63265 	 5.83488 	 
C 	 -139.487 	 3.69212 	 5.45974 	 
H 	 -138.678 	 3.79394 	 6.21029 	 
H 	 -138.988 	 4.00506 	 4.57763 	 
H 	 -139.683 	 2.65701 	 5.53763 	 
H 	 -143.206 	 5.83728 	 -1.15412 	 
H 	 -145.272 	 7.01669 	 6.77072 	 
*
