! wB97X-D3 SP def2-SVP
%pal
nprocs 24
end

* xyz 0 1
S 	 -49.6222 	 -44.0489 	 -78.1647 	 
C 	 -49.5011 	 -42.4437 	 -78.7488 	 
C 	 -48.4008 	 -41.7858 	 -78.2585 	 
C 	 -47.582 	 -42.6283 	 -77.5361 	 
C 	 -48.0497 	 -43.9329 	 -77.4949 	 
H 	 -46.6388 	 -42.2299 	 -77.1023 	 
C 	 -48.0197 	 -40.3919 	 -78.3923 	 
H 	 -47.9538 	 -40.1835 	 -79.4429 	 
H 	 -47.0557 	 -40.2342 	 -77.8614 	 
C 	 -49.0963 	 -39.2978 	 -77.9818 	 
H 	 -49.9609 	 -39.5744 	 -78.6143 	 
H 	 -49.2769 	 -39.3188 	 -76.8781 	 
C 	 -48.6249 	 -37.8557 	 -78.2742 	 
H 	 -48.5508 	 -37.5109 	 -79.3477 	 
H 	 -49.3036 	 -37.1481 	 -77.7922 	 
H 	 -47.6547 	 -37.6998 	 -77.7456 	 
S 	 -48.4175 	 -45.3233 	 -75.386 	 
C 	 -47.2187 	 -46.4939 	 -74.8135 	 
C 	 -46.0498 	 -46.4623 	 -75.5107 	 
C 	 -46.1919 	 -45.6076 	 -76.7142 	 
C 	 -47.4182 	 -44.9464 	 -76.6836 	 
H 	 -45.2498 	 -47.1421 	 -75.2246 	 
C 	 -45.2209 	 -45.5826 	 -77.8412 	 
H 	 -45.6358 	 -44.9526 	 -78.6097 	 
H 	 -45.2835 	 -46.5914 	 -78.2774 	 
C 	 -43.7015 	 -45.2664 	 -77.5761 	 
H 	 -43.4523 	 -45.8053 	 -76.6344 	 
H 	 -43.6318 	 -44.2279 	 -77.391 	 
C 	 -42.6682 	 -45.5222 	 -78.6561 	 
H 	 -42.7909 	 -44.9876 	 -79.5768 	 
H 	 -42.755 	 -46.5477 	 -79.0394 	 
H 	 -41.6594 	 -45.3973 	 -78.3112 	 
H 	 -50.2366 	 -42.0552 	 -79.4025 	 
H 	 -47.3222 	 -47.0441 	 -73.8753 	 
*
