! wB97X-D3 SP def2-SVP
%pal
nprocs 24
end

* xyz 0 1
S 	 -123.748 	 67.1653 	 -42.0939 	 
C 	 -125.386 	 67.1953 	 -41.5712 	 
C 	 -125.842 	 68.4722 	 -41.3476 	 
C 	 -124.734 	 69.4315 	 -41.3167 	 
C 	 -123.521 	 68.8879 	 -41.8297 	 
H 	 -124.782 	 70.4392 	 -40.9944 	 
C 	 -127.212 	 68.9485 	 -40.9491 	 
H 	 -127.944 	 68.3452 	 -41.5515 	 
H 	 -127.35 	 69.9306 	 -41.3498 	 
C 	 -127.521 	 68.9458 	 -39.4477 	 
H 	 -127.339 	 67.9012 	 -39.1024 	 
H 	 -126.74 	 69.5821 	 -38.9814 	 
C 	 -128.915 	 69.4509 	 -39.077 	 
H 	 -129 	 70.4601 	 -39.4503 	 
H 	 -129.732 	 68.8753 	 -39.6254 	 
H 	 -129.102 	 69.5861 	 -38.0153 	 
S 	 -121.38 	 70.3519 	 -40.8224 	 
C 	 -120.105 	 70.8667 	 -41.8016 	 
C 	 -120.322 	 70.3734 	 -43.1321 	 
C 	 -121.532 	 69.6168 	 -43.3106 	 
C 	 -122.264 	 69.5768 	 -42.1057 	 
H 	 -119.516 	 70.4948 	 -43.7462 	 
C 	 -121.994 	 69.1529 	 -44.7193 	 
H 	 -122.686 	 69.9589 	 -45.1334 	 
H 	 -122.487 	 68.2078 	 -44.4869 	 
C 	 -120.858 	 68.7579 	 -45.5883 	 
H 	 -120.066 	 68.2998 	 -45.0047 	 
H 	 -120.55 	 69.7737 	 -45.9185 	 
C 	 -121.317 	 67.8748 	 -46.7507 	 
H 	 -122.084 	 68.3667 	 -47.3687 	 
H 	 -121.702 	 66.9562 	 -46.3755 	 
H 	 -120.462 	 67.6424 	 -47.3083 	 
H 	 -126.159 	 66.4618 	 -41.5847 	 
H 	 -119.274 	 71.538 	 -41.5775 	 
*
