! wB97X-D3 SP def2-SVP
%pal
nprocs 24
end

* xyz 0 1
S 	 -52.3214 	 17.6421 	 23.5925 	 
C 	 -50.765 	 17.2639 	 23.0013 	 
C 	 -49.8674 	 17.0148 	 24.0036 	 
C 	 -50.4453 	 17.1886 	 25.2883 	 
C 	 -51.7847 	 17.5573 	 25.2542 	 
H 	 -49.9801 	 16.9833 	 26.1856 	 
C 	 -48.4285 	 16.4942 	 23.7727 	 
H 	 -47.8469 	 17.1114 	 23.1294 	 
H 	 -48.3793 	 15.5071 	 23.2104 	 
C 	 -47.5798 	 16.2526 	 25.0574 	 
H 	 -48.0804 	 15.554 	 25.7678 	 
H 	 -46.6591 	 15.7206 	 24.7299 	 
C 	 -47.3008 	 17.5674 	 25.8049 	 
H 	 -48.2113 	 18.1391 	 26.0581 	 
H 	 -46.8456 	 17.338 	 26.7391 	 
H 	 -46.5184 	 18.134 	 25.3011 	 
S 	 -53.7019 	 19.3142 	 26.2875 	 
C 	 -54.461 	 18.8619 	 27.8197 	 
C 	 -53.9077 	 17.7519 	 28.3788 	 
C 	 -52.9001 	 17.2016 	 27.5623 	 
C 	 -52.6765 	 17.8244 	 26.3825 	 
H 	 -54.3295 	 17.3399 	 29.244 	 
C 	 -52.0956 	 15.9794 	 28.0698 	 
H 	 -51.4419 	 15.7704 	 27.2096 	 
H 	 -52.786 	 15.1278 	 28.2257 	 
C 	 -51.3283 	 16.1006 	 29.3914 	 
H 	 -51.7835 	 15.5023 	 30.18 	 
H 	 -51.4141 	 17.1083 	 29.7161 	 
C 	 -49.8195 	 15.9257 	 29.2214 	 
H 	 -49.3139 	 16.3245 	 30.1226 	 
H 	 -49.316 	 16.5412 	 28.5213 	 
H 	 -49.5126 	 14.8935 	 29.0295 	 
H 	 -50.4463 	 17.1581 	 21.994 	 
H 	 -55.2348 	 19.3702 	 28.2844 	 
*
