! wB97X-D3 SP def2-SVP
%pal
nprocs 24
end

* xyz 0 1
S 	 36.2968 	 -25.3054 	 -123.021 	 
C 	 36.1746 	 -24.2585 	 -124.417 	 
C 	 37.3614 	 -23.9907 	 -125.034 	 
C 	 38.4289 	 -24.8427 	 -124.524 	 
C 	 38.025 	 -25.6031 	 -123.445 	 
H 	 39.4825 	 -24.7832 	 -124.829 	 
C 	 37.6029 	 -23.0073 	 -126.113 	 
H 	 36.5865 	 -22.6808 	 -126.466 	 
H 	 38.0865 	 -23.5238 	 -126.946 	 
C 	 38.3203 	 -21.6204 	 -125.727 	 
H 	 39.2972 	 -21.964 	 -125.404 	 
H 	 38.277 	 -20.9775 	 -126.648 	 
C 	 37.5828 	 -21.0625 	 -124.517 	 
H 	 37.9769 	 -20.0866 	 -124.222 	 
H 	 36.509 	 -20.9652 	 -124.667 	 
H 	 37.6704 	 -21.7543 	 -123.609 	 
S 	 38.8403 	 -25.8515 	 -120.911 	 
C 	 40.4097 	 -26.5922 	 -120.625 	 
C 	 40.8931 	 -27.2531 	 -121.724 	 
C 	 40.0245 	 -27.0762 	 -122.876 	 
C 	 38.9133 	 -26.307 	 -122.574 	 
H 	 41.8489 	 -27.8098 	 -121.66 	 
C 	 40.3273 	 -27.6061 	 -124.28 	 
H 	 39.3858 	 -27.5691 	 -124.853 	 
H 	 40.5076 	 -28.6459 	 -124.063 	 
C 	 41.5823 	 -26.9465 	 -124.975 	 
H 	 42.6086 	 -27.1806 	 -124.421 	 
H 	 41.4978 	 -25.8577 	 -125.058 	 
C 	 41.663 	 -27.7398 	 -126.345 	 
H 	 41.5575 	 -28.8115 	 -126.214 	 
H 	 42.5645 	 -27.5301 	 -126.891 	 
H 	 40.8336 	 -27.3942 	 -126.876 	 
H 	 35.2941 	 -23.7782 	 -124.622 	 
H 	 40.9128 	 -26.4475 	 -119.647 	 
*
