! wB97X-D3 SP def2-SVP
%pal
nprocs 24
end

* xyz 0 1
S 	 -67.9946 	 9.24557 	 -102.206 	 
C 	 -67.2011 	 7.64735 	 -102.005 	 
C 	 -67.8513 	 6.68947 	 -102.838 	 
C 	 -69.0283 	 7.17123 	 -103.511 	 
C 	 -69.2317 	 8.50618 	 -103.233 	 
H 	 -69.7097 	 6.61077 	 -104.184 	 
C 	 -67.4714 	 5.20524 	 -102.883 	 
H 	 -66.4334 	 5.14089 	 -102.548 	 
H 	 -67.3039 	 4.83313 	 -103.946 	 
C 	 -68.3513 	 4.21056 	 -102.016 	 
H 	 -69.341 	 4.4367 	 -102.234 	 
H 	 -68.1879 	 3.17821 	 -102.242 	 
C 	 -67.9024 	 4.21807 	 -100.507 	 
H 	 -68.456 	 3.45311 	 -99.8592 	 
H 	 -66.8811 	 3.92608 	 -100.428 	 
H 	 -68.0962 	 5.19112 	 -100.095 	 
S 	 -69.982 	 10.9515 	 -104.507 	 
C 	 -71.6652 	 11.1262 	 -105.077 	 
C 	 -72.3938 	 10.0022 	 -104.685 	 
C 	 -71.636 	 8.95247 	 -104.057 	 
C 	 -70.3121 	 9.33826 	 -103.843 	 
H 	 -73.4965 	 9.9293 	 -104.82 	 
C 	 -72.4161 	 7.6929 	 -103.754 	 
H 	 -71.7501 	 6.98416 	 -103.224 	 
H 	 -72.7118 	 7.20833 	 -104.71 	 
C 	 -73.6934 	 8.02597 	 -102.945 	 
H 	 -74.4569 	 8.49769 	 -103.597 	 
H 	 -73.4474 	 8.78868 	 -102.233 	 
C 	 -74.2943 	 6.81493 	 -102.22 	 
H 	 -74.9686 	 7.23067 	 -101.459 	 
H 	 -73.5475 	 6.10925 	 -101.806 	 
H 	 -74.8805 	 6.17368 	 -102.908 	 
H 	 -66.3599 	 7.46592 	 -101.328 	 
H 	 -72.1975 	 11.8973 	 -105.647 	 
*
