! wB97X-D3 SP def2-SVP
%pal
nprocs 24
end

* xyz 0 1
S 	 47.2488 	 -25.0123 	 -117.25 	 
C 	 47.0243 	 -26.3306 	 -116.045 	 
C 	 48.2225 	 -26.9998 	 -115.766 	 
C 	 49.3504 	 -26.5626 	 -116.589 	 
C 	 48.9693 	 -25.508 	 -117.426 	 
H 	 50.3514 	 -26.8825 	 -116.488 	 
C 	 48.494 	 -28.0019 	 -114.682 	 
H 	 49.4799 	 -28.5032 	 -114.738 	 
H 	 47.7285 	 -28.8224 	 -114.979 	 
C 	 48.1673 	 -27.5389 	 -113.268 	 
H 	 47.4134 	 -26.7679 	 -113.129 	 
H 	 47.6183 	 -28.3673 	 -112.841 	 
C 	 49.4276 	 -27.2168 	 -112.431 	 
H 	 49.1156 	 -26.9772 	 -111.404 	 
H 	 50.0068 	 -28.0723 	 -112.284 	 
H 	 49.971 	 -26.3721 	 -112.861 	 
S 	 51.2074 	 -25.4091 	 -118.933 	 
C 	 51.9568 	 -23.8235 	 -119.251 	 
C 	 51.2101 	 -22.7746 	 -118.766 	 
C 	 50.0033 	 -23.2661 	 -118.181 	 
C 	 49.9914 	 -24.5897 	 -118.021 	 
H 	 51.6505 	 -21.8328 	 -118.89 	 
C 	 48.9007 	 -22.2685 	 -117.836 	 
H 	 49.3045 	 -21.273 	 -117.586 	 
H 	 48.3732 	 -22.6 	 -116.971 	 
C 	 47.7826 	 -22.0161 	 -118.824 	 
H 	 47.1548 	 -22.8569 	 -118.998 	 
H 	 48.1425 	 -21.6469 	 -119.745 	 
C 	 46.7272 	 -21.1442 	 -118.005 	 
H 	 45.7818 	 -20.8584 	 -118.528 	 
H 	 47.153 	 -20.1721 	 -117.642 	 
H 	 46.52 	 -21.6229 	 -117.075 	 
H 	 46.088 	 -26.4862 	 -115.414 	 
H 	 52.958 	 -23.7178 	 -119.596 	 
*
