! wB97X-D3 SP def2-SVP
%pal
nprocs 24
end

* xyz 0 1
S 	 -52.8702 	 11.1633 	 -104.48 	 
C 	 -54.0528 	 10.1893 	 -105.394 	 
C 	 -55.0884 	 10.9811 	 -105.868 	 
C 	 -54.9999 	 12.3127 	 -105.271 	 
C 	 -53.8432 	 12.5791 	 -104.51 	 
H 	 -55.71 	 13.1329 	 -105.401 	 
C 	 -56.2266 	 10.543 	 -106.698 	 
H 	 -56.0975 	 9.53113 	 -106.782 	 
H 	 -56.0325 	 11.0187 	 -107.666 	 
C 	 -57.6426 	 10.9638 	 -106.27 	 
H 	 -57.8236 	 10.3513 	 -105.376 	 
H 	 -57.6756 	 11.97 	 -105.933 	 
C 	 -58.7765 	 10.8797 	 -107.383 	 
H 	 -59.6754 	 11.3738 	 -107.021 	 
H 	 -58.5778 	 11.5399 	 -108.191 	 
H 	 -59.1079 	 9.93146 	 -107.675 	 
S 	 -53.8742 	 13.6306 	 -101.982 	 
C 	 -53.8034 	 15.355 	 -101.781 	 
C 	 -53.4638 	 15.9713 	 -102.983 	 
C 	 -53.6708 	 15.0848 	 -104.13 	 
C 	 -53.6682 	 13.7807 	 -103.735 	 
H 	 -53.3829 	 17.0467 	 -102.989 	 
C 	 -53.7296 	 15.5673 	 -105.524 	 
H 	 -53.9694 	 14.7803 	 -106.184 	 
H 	 -52.8071 	 16.0981 	 -105.81 	 
C 	 -54.7528 	 16.7101 	 -105.687 	 
H 	 -54.6508 	 16.94 	 -106.686 	 
H 	 -54.5548 	 17.5258 	 -105.038 	 
C 	 -56.255 	 16.17 	 -105.467 	 
H 	 -56.4487 	 16.0676 	 -104.427 	 
H 	 -56.5494 	 15.1044 	 -105.756 	 
H 	 -56.8801 	 16.9827 	 -105.823 	 
H 	 -53.8633 	 9.16537 	 -105.757 	 
H 	 -53.8432 	 15.9251 	 -100.927 	 
*
