! wB97X-D3 SP def2-SVP
%pal
nprocs 24
end

* xyz 0 1
S 	 -127.646 	 58.9722 	 -54.5286 	 
C 	 -126.126 	 59.7852 	 -54.8117 	 
C 	 -125.941 	 60.8884 	 -53.9882 	 
C 	 -127.144 	 61.2146 	 -53.3277 	 
C 	 -128.155 	 60.2605 	 -53.4887 	 
H 	 -127.402 	 62.0799 	 -52.7014 	 
C 	 -124.794 	 61.9423 	 -54.0577 	 
H 	 -124.095 	 61.6111 	 -54.829 	 
H 	 -124.283 	 61.9417 	 -53.0745 	 
C 	 -125.284 	 63.2944 	 -54.532 	 
H 	 -125.861 	 63.8748 	 -53.7968 	 
H 	 -124.385 	 63.9114 	 -54.5844 	 
C 	 -126.098 	 63.271 	 -55.8342 	 
H 	 -126.42 	 64.3235 	 -55.9633 	 
H 	 -125.516 	 62.8022 	 -56.6688 	 
H 	 -127.036 	 62.6725 	 -55.6951 	 
S 	 -130.907 	 60.2243 	 -53.9204 	 
C 	 -132.006 	 60.339 	 -52.5802 	 
C 	 -131.331 	 60.4616 	 -51.3875 	 
C 	 -129.888 	 60.5288 	 -51.5156 	 
C 	 -129.494 	 60.3573 	 -52.8744 	 
H 	 -131.918 	 60.4748 	 -50.4842 	 
C 	 -129.031 	 60.697 	 -50.2892 	 
H 	 -127.952 	 60.8394 	 -50.5316 	 
H 	 -129.042 	 59.6949 	 -49.7959 	 
C 	 -129.595 	 61.6583 	 -49.2528 	 
H 	 -130.568 	 61.423 	 -48.7804 	 
H 	 -129.802 	 62.6089 	 -49.7151 	 
C 	 -128.531 	 61.9555 	 -48.1186 	 
H 	 -127.714 	 62.5331 	 -48.5025 	 
H 	 -128.049 	 61.0205 	 -47.6743 	 
H 	 -129.031 	 62.3951 	 -47.2219 	 
H 	 -125.373 	 59.458 	 -55.5924 	 
H 	 -133.129 	 60.2088 	 -52.5349 	 
*
