! wB97X-D3 SP def2-SVP
%pal
nprocs 24
end

* xyz 0 1
S 	 -120.388 	 58.4061 	 -38.4853 	 
C 	 -122.115 	 58.372 	 -38.9003 	 
C 	 -122.965 	 58.0605 	 -37.7646 	 
C 	 -122.219 	 58.1802 	 -36.5599 	 
C 	 -120.819 	 58.1215 	 -36.764 	 
H 	 -122.388 	 57.9039 	 -35.5167 	 
C 	 -124.452 	 57.7668 	 -37.7906 	 
H 	 -124.773 	 58.5205 	 -37.0979 	 
H 	 -124.656 	 56.833 	 -37.3362 	 
C 	 -125.296 	 58.0561 	 -39.0366 	 
H 	 -126.28 	 58.1812 	 -38.5637 	 
H 	 -124.986 	 58.9745 	 -39.509 	 
C 	 -125.271 	 57.0114 	 -40.174 	 
H 	 -125.601 	 56.046 	 -39.8111 	 
H 	 -126.11 	 57.3021 	 -40.8921 	 
H 	 -124.258 	 56.9727 	 -40.5856 	 
S 	 -118.272 	 57.168 	 -36.1221 	 
C 	 -117.651 	 57.3134 	 -34.5106 	 
C 	 -118.531 	 57.9515 	 -33.7024 	 
C 	 -119.687 	 58.4186 	 -34.4027 	 
C 	 -119.785 	 58.0098 	 -35.7171 	 
H 	 -118.214 	 58.174 	 -32.6951 	 
C 	 -120.66 	 59.2589 	 -33.5211 	 
H 	 -121.466 	 59.5665 	 -34.2163 	 
H 	 -120.121 	 60.0632 	 -33.1837 	 
C 	 -121.21 	 58.4909 	 -32.3198 	 
H 	 -121.815 	 59.269 	 -31.7866 	 
H 	 -120.53 	 58.2693 	 -31.514 	 
C 	 -122.229 	 57.4184 	 -32.7176 	 
H 	 -123.069 	 57.8379 	 -33.3411 	 
H 	 -122.646 	 57.0989 	 -31.8025 	 
H 	 -121.731 	 56.7361 	 -33.4152 	 
H 	 -122.457 	 58.3895 	 -39.9117 	 
H 	 -116.798 	 56.8478 	 -34.0996 	 
*
