! wB97X-D3 SP def2-SVP
%pal
nprocs 24
end

* xyz 0 1
S 	 -107.942 	 41.9076 	 -12.9622 	 
C 	 -107.307 	 43.521 	 -13.2925 	 
C 	 -107.308 	 44.2796 	 -12.1253 	 
C 	 -107.739 	 43.5749 	 -10.9918 	 
C 	 -108.056 	 42.2557 	 -11.2554 	 
H 	 -107.721 	 43.9346 	 -9.97439 	 
C 	 -106.945 	 45.8184 	 -11.9091 	 
H 	 -105.934 	 45.9237 	 -12.2644 	 
H 	 -107.001 	 45.9232 	 -10.8425 	 
C 	 -107.751 	 46.8825 	 -12.5975 	 
H 	 -107.296 	 47.8768 	 -12.4339 	 
H 	 -107.83 	 46.7587 	 -13.7209 	 
C 	 -109.083 	 47.1481 	 -11.9921 	 
H 	 -109.857 	 46.4434 	 -12.2438 	 
H 	 -108.954 	 47.1383 	 -10.9657 	 
H 	 -109.459 	 48.1201 	 -12.2578 	 
S 	 -110.011 	 40.4257 	 -10.54 	 
C 	 -110.042 	 39.7757 	 -8.91921 	 
C 	 -108.801 	 40.0356 	 -8.322 	 
C 	 -107.905 	 40.895 	 -9.0772 	 
C 	 -108.481 	 41.2874 	 -10.2918 	 
H 	 -108.707 	 39.4299 	 -7.4255 	 
C 	 -106.59 	 41.3303 	 -8.45548 	 
H 	 -106.049 	 42.0631 	 -9.10129 	 
H 	 -105.944 	 40.4445 	 -8.42698 	 
C 	 -106.55 	 41.9306 	 -7.05145 	 
H 	 -105.683 	 42.5976 	 -6.98444 	 
H 	 -106.531 	 41.1475 	 -6.35339 	 
C 	 -107.748 	 42.7617 	 -6.74985 	 
H 	 -108.641 	 42.0892 	 -6.63237 	 
H 	 -107.848 	 43.6577 	 -7.38034 	 
H 	 -107.646 	 43.1575 	 -5.66432 	 
H 	 -107.01 	 43.9553 	 -14.2542 	 
H 	 -110.789 	 39.0734 	 -8.49122 	 
*
