! wB97X-D3 SP def2-SVP
%pal
nprocs 24
end

* xyz 0 1
S 	 33.3904 	 -30.7347 	 -111.993 	 
C 	 32.6982 	 -31.0671 	 -110.455 	 
C 	 33.6912 	 -31.0705 	 -109.426 	 
C 	 35.0069 	 -30.9656 	 -110.084 	 
C 	 34.9976 	 -30.7956 	 -111.456 	 
H 	 35.8551 	 -31.0987 	 -109.475 	 
C 	 33.6778 	 -31.414 	 -107.943 	 
H 	 34.6504 	 -31.7196 	 -107.662 	 
H 	 32.9628 	 -32.1665 	 -107.706 	 
C 	 33.4237 	 -30.1208 	 -107.206 	 
H 	 34.2676 	 -29.4988 	 -107.383 	 
H 	 32.537 	 -29.6636 	 -107.525 	 
C 	 33.3642 	 -30.2854 	 -105.656 	 
H 	 32.6915 	 -31.1831 	 -105.553 	 
H 	 34.3245 	 -30.5085 	 -105.136 	 
H 	 32.8473 	 -29.4861 	 -105.222 	 
S 	 35.9759 	 -32.0852 	 -113.716 	 
C 	 37.5553 	 -31.8421 	 -114.328 	 
C 	 38.0979 	 -30.8031 	 -113.655 	 
C 	 37.315 	 -30.2641 	 -112.602 	 
C 	 36.0919 	 -30.9381 	 -112.406 	 
H 	 39.021 	 -30.4524 	 -114.057 	 
C 	 37.6322 	 -29.0524 	 -111.795 	 
H 	 38.6371 	 -29.1144 	 -111.523 	 
H 	 37.1147 	 -28.9883 	 -110.849 	 
C 	 37.574 	 -27.7 	 -112.495 	 
H 	 36.57 	 -27.6593 	 -112.842 	 
H 	 38.2757 	 -27.6026 	 -113.422 	 
C 	 37.7542 	 -26.4576 	 -111.525 	 
H 	 37.0903 	 -26.6256 	 -110.741 	 
H 	 37.371 	 -25.5558 	 -111.985 	 
H 	 38.7614 	 -26.4389 	 -111.122 	 
H 	 31.5986 	 -31.1659 	 -110.336 	 
H 	 37.7991 	 -32.4331 	 -115.151 	 
*
