! wB97X-D3 SP def2-SVP
%pal
nprocs 24
end

* xyz 0 1
S 	 -132.431 	 26.0203 	 -12.7986 	 
C 	 -131.368 	 24.5405 	 -12.71 	 
C 	 -130.154 	 24.6505 	 -13.3919 	 
C 	 -130.056 	 25.9408 	 -13.9159 	 
C 	 -131.17 	 26.7702 	 -13.6979 	 
H 	 -129.208 	 26.2289 	 -14.4345 	 
C 	 -129.152 	 23.4987 	 -13.612 	 
H 	 -129.075 	 23.4168 	 -14.6836 	 
H 	 -129.614 	 22.6142 	 -13.27 	 
C 	 -127.751 	 23.827 	 -13.0197 	 
H 	 -127.279 	 22.8542 	 -13.2279 	 
H 	 -127.33 	 24.6299 	 -13.6179 	 
C 	 -127.81 	 24.0002 	 -11.5257 	 
H 	 -128.24 	 23.1102 	 -11.0849 	 
H 	 -126.773 	 24.0607 	 -11.1468 	 
H 	 -128.38 	 24.8628 	 -11.2208 	 
S 	 -131.091 	 29.4303 	 -12.7951 	 
C 	 -131.365 	 30.7285 	 -13.8871 	 
C 	 -131.474 	 30.2841 	 -15.133 	 
C 	 -131.273 	 28.8136 	 -15.242 	 
C 	 -131.248 	 28.1726 	 -14.0294 	 
H 	 -131.789 	 31.0146 	 -15.8531 	 
C 	 -131.313 	 28.1042 	 -16.6023 	 
H 	 -132.29 	 28.3175 	 -17.0973 	 
H 	 -131.261 	 27.0209 	 -16.4696 	 
C 	 -130.266 	 28.5945 	 -17.6044 	 
H 	 -129.346 	 28.4988 	 -17.0569 	 
H 	 -130.405 	 29.6558 	 -17.8966 	 
C 	 -130.126 	 27.6193 	 -18.8136 	 
H 	 -131.061 	 27.5299 	 -19.3422 	 
H 	 -129.842 	 26.645 	 -18.3887 	 
H 	 -129.455 	 27.9436 	 -19.6107 	 
H 	 -131.721 	 23.6139 	 -12.2688 	 
H 	 -131.43 	 31.7261 	 -13.5409 	 
*
