! wB97X-D3 SP def2-SVP
%pal
nprocs 24
end

* xyz 0 1
S 	 -120.909 	 63.2717 	 -34.8679 	 
C 	 -120.461 	 64.8608 	 -34.2814 	 
C 	 -119.282 	 65.2695 	 -34.9196 	 
C 	 -118.741 	 64.2763 	 -35.7945 	 
C 	 -119.499 	 63.1259 	 -35.8788 	 
H 	 -117.905 	 64.3183 	 -36.3883 	 
C 	 -118.626 	 66.6548 	 -34.7633 	 
H 	 -117.615 	 66.5637 	 -34.7162 	 
H 	 -119.059 	 67.0742 	 -33.8366 	 
C 	 -118.788 	 67.5868 	 -35.9238 	 
H 	 -118.233 	 68.4512 	 -35.669 	 
H 	 -118.457 	 67.0804 	 -36.8181 	 
C 	 -120.247 	 67.9943 	 -36.1774 	 
H 	 -120.76 	 67.0707 	 -36.4145 	 
H 	 -120.713 	 68.4306 	 -35.2341 	 
H 	 -120.431 	 68.6201 	 -36.9671 	 
S 	 -120.249 	 61.543 	 -37.9957 	 
C 	 -119.214 	 60.3118 	 -38.5642 	 
C 	 -118.148 	 60.1934 	 -37.7207 	 
C 	 -118.035 	 61.1706 	 -36.627 	 
C 	 -119.195 	 61.9839 	 -36.6534 	 
H 	 -117.427 	 59.4747 	 -37.9143 	 
C 	 -116.978 	 61.2231 	 -35.5772 	 
H 	 -117.153 	 60.3238 	 -34.9811 	 
H 	 -117.156 	 62.1621 	 -34.993 	 
C 	 -115.517 	 61.3034 	 -36.055 	 
H 	 -115.513 	 62.1709 	 -36.7048 	 
H 	 -115.167 	 60.4397 	 -36.6495 	 
C 	 -114.586 	 61.4639 	 -34.8577 	 
H 	 -114.788 	 60.5987 	 -34.1873 	 
H 	 -114.744 	 62.4318 	 -34.3185 	 
H 	 -113.497 	 61.416 	 -35.1277 	 
H 	 -121.017 	 65.4214 	 -33.4825 	 
H 	 -119.417 	 59.5796 	 -39.3065 	 
*
