! wB97X-D3 SP def2-SVP
%pal
nprocs 24
end

* xyz 0 1
S 	 -66.1293 	 20.1971 	 -118.773 	 
C 	 -64.4262 	 20.1409 	 -119.232 	 
C 	 -63.6276 	 19.9149 	 -118.09 	 
C 	 -64.431 	 19.7348 	 -116.919 	 
C 	 -65.8248 	 19.8164 	 -117.103 	 
H 	 -64.0838 	 19.5392 	 -115.872 	 
C 	 -62.1098 	 19.9368 	 -118.136 	 
H 	 -61.8077 	 20.7753 	 -117.425 	 
H 	 -61.8857 	 20.2545 	 -119.141 	 
C 	 -61.2547 	 18.6361 	 -117.852 	 
H 	 -61.3975 	 18.3118 	 -116.79 	 
H 	 -61.5123 	 17.7348 	 -118.465 	 
C 	 -59.7321 	 18.9445 	 -118.077 	 
H 	 -59.2335 	 19.4813 	 -117.27 	 
H 	 -59.1926 	 17.9991 	 -117.922 	 
H 	 -59.4293 	 19.3331 	 -119.086 	 
S 	 -67.4342 	 17.9511 	 -115.69 	 
C 	 -68.6232 	 18.5003 	 -114.52 	 
C 	 -68.5281 	 19.899 	 -114.438 	 
C 	 -67.6096 	 20.5354 	 -115.366 	 
C 	 -66.9304 	 19.5938 	 -116.08 	 
H 	 -69.2267 	 20.4845 	 -113.798 	 
C 	 -67.4816 	 22.0859 	 -115.536 	 
H 	 -66.4617 	 22.2213 	 -115.595 	 
H 	 -67.6965 	 22.6326 	 -114.709 	 
C 	 -68.2611 	 22.6586 	 -116.745 	 
H 	 -69.2575 	 22.9116 	 -116.317 	 
H 	 -68.3823 	 21.894 	 -117.507 	 
C 	 -67.5635 	 23.8217 	 -117.443 	 
H 	 -67.6277 	 24.7816 	 -116.988 	 
H 	 -67.9433 	 23.7814 	 -118.443 	 
H 	 -66.5497 	 23.6325 	 -117.551 	 
H 	 -64.0679 	 20.4446 	 -120.233 	 
H 	 -69.3213 	 17.844 	 -114.113 	 
*
