! wB97X-D3 SP def2-SVP
%pal
nprocs 24
end

* xyz 0 1
S 	 -60.9331 	 -59.2722 	 -80.7503 	 
C 	 -59.8838 	 -60.004 	 -79.4924 	 
C 	 -58.677 	 -59.3069 	 -79.4573 	 
C 	 -58.543 	 -58.3164 	 -80.4183 	 
C 	 -59.7271 	 -58.0433 	 -81.0615 	 
H 	 -57.6735 	 -57.7291 	 -80.6157 	 
C 	 -57.6602 	 -59.615 	 -78.3225 	 
H 	 -57.1681 	 -60.5406 	 -78.4665 	 
H 	 -58.2489 	 -59.7193 	 -77.4436 	 
C 	 -56.5956 	 -58.4471 	 -78.1597 	 
H 	 -56.1722 	 -58.0832 	 -79.0095 	 
H 	 -57.24 	 -57.7245 	 -77.6182 	 
C 	 -55.4414 	 -58.9665 	 -77.2916 	 
H 	 -55.8118 	 -59.5071 	 -76.4486 	 
H 	 -54.7471 	 -59.5631 	 -77.8121 	 
H 	 -54.8344 	 -58.1426 	 -76.803 	 
S 	 -60.1887 	 -57.7051 	 -83.7394 	 
C 	 -60.0272 	 -56.0642 	 -84.43 	 
C 	 -60.0873 	 -55.1103 	 -83.4438 	 
C 	 -59.9295 	 -55.6873 	 -82.1351 	 
C 	 -59.85 	 -57.0751 	 -82.139 	 
H 	 -60.1015 	 -54.0842 	 -83.6805 	 
C 	 -59.7865 	 -54.8362 	 -80.8724 	 
H 	 -59.3869 	 -55.4986 	 -80.0572 	 
H 	 -60.7258 	 -54.4788 	 -80.3845 	 
C 	 -58.8113 	 -53.612 	 -80.9071 	 
H 	 -58.7872 	 -53.0314 	 -81.808 	 
H 	 -57.8241 	 -54.0636 	 -81.0801 	 
C 	 -58.7094 	 -52.8071 	 -79.6741 	 
H 	 -58.0351 	 -52.0204 	 -79.8811 	 
H 	 -58.4452 	 -53.3652 	 -78.7437 	 
H 	 -59.6495 	 -52.3362 	 -79.5989 	 
H 	 -60.2653 	 -60.771 	 -78.8522 	 
H 	 -59.933 	 -55.7336 	 -85.4366 	 
*
