! wB97X-D3 SP def2-SVP
%pal
nprocs 24
end

* xyz 0 1
S 	 -100.9 	 0.120052 	 -106.654 	 
C 	 -101.923 	 0.26634 	 -105.218 	 
C 	 -102.332 	 1.59778 	 -105.112 	 
C 	 -101.849 	 2.45842 	 -106.157 	 
C 	 -101.122 	 1.79549 	 -107.077 	 
H 	 -101.983 	 3.56737 	 -106.22 	 
C 	 -103.298 	 2.09574 	 -104.03 	 
H 	 -103.64 	 1.21897 	 -103.454 	 
H 	 -104.26 	 2.38525 	 -104.45 	 
C 	 -102.788 	 3.18909 	 -103.121 	 
H 	 -101.727 	 3.03323 	 -102.842 	 
H 	 -102.913 	 4.13624 	 -103.489 	 
C 	 -103.487 	 2.96832 	 -101.747 	 
H 	 -103.036 	 2.13463 	 -101.206 	 
H 	 -103.338 	 3.90942 	 -101.154 	 
H 	 -104.558 	 2.77908 	 -101.734 	 
S 	 -100.868 	 1.34322 	 -109.689 	 
C 	 -99.9972 	 2.40097 	 -110.75 	 
C 	 -99.4036 	 3.44742 	 -110.018 	 
C 	 -99.8323 	 3.53295 	 -108.671 	 
C 	 -100.534 	 2.34984 	 -108.309 	 
H 	 -98.9023 	 4.3489 	 -110.45 	 
C 	 -99.4979 	 4.67843 	 -107.74 	 
H 	 -100.451 	 5.13821 	 -107.472 	 
H 	 -98.9653 	 5.43097 	 -108.293 	 
C 	 -98.6642 	 4.31447 	 -106.505 	 
H 	 -97.6222 	 3.99874 	 -106.743 	 
H 	 -99.148 	 3.47864 	 -106.026 	 
C 	 -98.3699 	 5.51339 	 -105.581 	 
H 	 -97.785 	 5.38911 	 -104.64 	 
H 	 -99.2613 	 6.04655 	 -105.27 	 
H 	 -97.7056 	 6.20525 	 -106.115 	 
H 	 -102.14 	 -0.5091 	 -104.508 	 
H 	 -99.9697 	 2.292 	 -111.827 	 
*
