! wB97X-D3 SP def2-SVP
%pal
nprocs 24
end

* xyz 0 1
S 	 -108.239 	 2.40064 	 -108.603 	 
C 	 -108.54 	 4.03428 	 -109.17 	 
C 	 -107.91 	 4.98011 	 -108.372 	 
C 	 -107.144 	 4.38105 	 -107.371 	 
C 	 -107.372 	 3.03368 	 -107.281 	 
H 	 -106.504 	 4.86129 	 -106.564 	 
C 	 -107.716 	 6.49685 	 -108.563 	 
H 	 -107.428 	 6.982 	 -107.616 	 
H 	 -108.683 	 6.92614 	 -108.681 	 
C 	 -106.793 	 6.98373 	 -109.654 	 
H 	 -105.852 	 6.70658 	 -109.296 	 
H 	 -106.98 	 6.57152 	 -110.656 	 
C 	 -106.889 	 8.52243 	 -110.002 	 
H 	 -106.945 	 8.97113 	 -109.078 	 
H 	 -106.107 	 8.88649 	 -110.675 	 
H 	 -107.868 	 8.8533 	 -110.454 	 
S 	 -105.302 	 1.26078 	 -106.989 	 
C 	 -105.081 	 0.468953 	 -105.438 	 
C 	 -105.916 	 0.90217 	 -104.471 	 
C 	 -106.858 	 1.83701 	 -104.977 	 
C 	 -106.633 	 2.19992 	 -106.303 	 
H 	 -105.801 	 0.476827 	 -103.468 	 
C 	 -108.076 	 2.27878 	 -104.126 	 
H 	 -108.494 	 3.09677 	 -104.723 	 
H 	 -107.829 	 2.8244 	 -103.182 	 
C 	 -109.041 	 1.15745 	 -103.738 	 
H 	 -109.828 	 1.69958 	 -103.14 	 
H 	 -108.581 	 0.471777 	 -103.065 	 
C 	 -109.76 	 0.54198 	 -104.968 	 
H 	 -110.459 	 -0.267771 	 -104.736 	 
H 	 -108.986 	 0.276852 	 -105.71 	 
H 	 -110.391 	 1.3723 	 -105.383 	 
H 	 -108.972 	 4.30336 	 -110.125 	 
H 	 -104.273 	 -0.278646 	 -105.258 	 
*
