! wB97X-D3 SP def2-SVP
%pal
nprocs 24
end

* xyz 0 1
S 	 -81.8218 	 0.726334 	 -113.362 	 
C 	 -81.9825 	 -1.03795 	 -113.319 	 
C 	 -82.8503 	 -1.51912 	 -114.309 	 
C 	 -83.2286 	 -0.472262 	 -115.186 	 
C 	 -82.7163 	 0.798387 	 -114.829 	 
H 	 -83.7026 	 -0.565913 	 -116.168 	 
C 	 -83.1306 	 -2.99274 	 -114.487 	 
H 	 -82.6201 	 -3.48728 	 -113.698 	 
H 	 -82.765 	 -3.30206 	 -115.467 	 
C 	 -84.547 	 -3.4132 	 -114.407 	 
H 	 -84.5491 	 -4.49031 	 -114.626 	 
H 	 -85.0192 	 -3.37773 	 -113.445 	 
C 	 -85.4878 	 -2.75442 	 -115.443 	 
H 	 -86.2988 	 -3.45026 	 -115.693 	 
H 	 -85.9519 	 -1.84913 	 -115.097 	 
H 	 -85.0915 	 -2.67844 	 -116.433 	 
S 	 -81.5059 	 3.22012 	 -115.681 	 
C 	 -82.3885 	 4.22854 	 -116.774 	 
C 	 -83.6902 	 3.83574 	 -116.848 	 
C 	 -84.0469 	 2.69665 	 -116.039 	 
C 	 -82.8976 	 2.12003 	 -115.497 	 
H 	 -84.4912 	 4.30157 	 -117.39 	 
C 	 -85.5022 	 2.16762 	 -116.183 	 
H 	 -85.3875 	 1.14766 	 -116.676 	 
H 	 -86.0421 	 2.81293 	 -116.88 	 
C 	 -86.305 	 1.98546 	 -114.903 	 
H 	 -85.9879 	 1.21915 	 -114.231 	 
H 	 -87.3199 	 1.64488 	 -115.175 	 
C 	 -86.5595 	 3.30557 	 -114.194 	 
H 	 -87.1832 	 4.03918 	 -114.763 	 
H 	 -85.5553 	 3.77521 	 -114.023 	 
H 	 -87.0778 	 3.10458 	 -113.262 	 
H 	 -81.431 	 -1.67714 	 -112.633 	 
H 	 -81.8252 	 5.0242 	 -117.326 	 
*
