! wB97X-D3 SP def2-SVP
%pal
nprocs 24
end

* xyz 0 1
S 	 -43.17 	 21.7771 	 29.1155 	 
C 	 -41.722 	 20.7841 	 28.8806 	 
C 	 -40.6426 	 21.1461 	 29.7047 	 
C 	 -41.1087 	 22.0067 	 30.7354 	 
C 	 -42.3866 	 22.4986 	 30.5642 	 
H 	 -40.6277 	 22.4016 	 31.6454 	 
C 	 -39.2644 	 20.7007 	 29.4254 	 
H 	 -38.6086 	 21.4936 	 29.0229 	 
H 	 -39.3282 	 19.9306 	 28.591 	 
C 	 -38.5086 	 20.0831 	 30.5417 	 
H 	 -38.1278 	 20.9969 	 31.1815 	 
H 	 -39.1193 	 19.3876 	 31.13 	 
C 	 -37.3596 	 19.2697 	 29.9231 	 
H 	 -36.5216 	 19.7326 	 29.3442 	 
H 	 -36.891 	 18.7767 	 30.7898 	 
H 	 -37.7055 	 18.3961 	 29.2636 	 
S 	 -42.7048 	 23.3355 	 33.116 	 
C 	 -44.08 	 24.3649 	 33.6438 	 
C 	 -44.8412 	 24.5727 	 32.5334 	 
C 	 -44.229 	 24.2013 	 31.2839 	 
C 	 -43.0907 	 23.4428 	 31.3943 	 
H 	 -45.7736 	 25.1308 	 32.5724 	 
C 	 -44.891 	 24.5484 	 29.9271 	 
H 	 -45.7905 	 23.8866 	 29.8557 	 
H 	 -44.1303 	 24.2172 	 29.2167 	 
C 	 -45.2001 	 26.041 	 29.6694 	 
H 	 -45.9756 	 26.4389 	 30.3173 	 
H 	 -45.6266 	 26.0037 	 28.6444 	 
C 	 -43.9953 	 26.9786 	 29.5958 	 
H 	 -43.4535 	 26.7945 	 30.6044 	 
H 	 -44.2969 	 28.0507 	 29.5484 	 
H 	 -43.2895 	 26.7902 	 28.7243 	 
H 	 -41.7052 	 20.0688 	 28.0191 	 
H 	 -44.4191 	 24.728 	 34.6321 	 
*
