! wB97X-D3 SP def2-SVP
%pal
nprocs 24
end

* xyz 0 1
S 	 -92.8507 	 -38.3 	 -55.9731 	 
C 	 -93.5787 	 -39.5931 	 -55.1219 	 
C 	 -94.8565 	 -39.2327 	 -54.87 	 
C 	 -95.1475 	 -37.8653 	 -55.0883 	 
C 	 -94.0922 	 -37.1698 	 -55.6178 	 
H 	 -96.0652 	 -37.4268 	 -54.8932 	 
C 	 -95.8659 	 -40.2175 	 -54.2405 	 
H 	 -96.8107 	 -39.7466 	 -54.3142 	 
H 	 -95.6973 	 -40.2506 	 -53.1587 	 
C 	 -95.8795 	 -41.6875 	 -54.7946 	 
H 	 -95.98 	 -41.7508 	 -55.861 	 
H 	 -94.9209 	 -42.1724 	 -54.6707 	 
C 	 -96.8986 	 -42.6996 	 -54.2598 	 
H 	 -96.6572 	 -43.7268 	 -54.4099 	 
H 	 -96.9504 	 -42.6451 	 -53.1239 	 
H 	 -97.8675 	 -42.4179 	 -54.5891 	 
S 	 -92.3905 	 -34.9916 	 -55.9757 	 
C 	 -93.08 	 -33.5164 	 -56.4218 	 
C 	 -94.4151 	 -33.5833 	 -56.7506 	 
C 	 -94.8978 	 -34.9273 	 -56.5585 	 
C 	 -93.966 	 -35.7507 	 -55.9544 	 
H 	 -94.9453 	 -32.6666 	 -57.0726 	 
C 	 -96.3017 	 -35.3153 	 -56.9299 	 
H 	 -96.664 	 -35.5616 	 -55.977 	 
H 	 -96.3388 	 -36.2793 	 -57.4141 	 
C 	 -97.1476 	 -34.4438 	 -57.7483 	 
H 	 -96.6922 	 -34.3529 	 -58.757 	 
H 	 -97.2086 	 -33.4166 	 -57.3016 	 
C 	 -98.5563 	 -34.9384 	 -58.0389 	 
H 	 -99.1518 	 -34.1389 	 -58.5256 	 
H 	 -99.0845 	 -35.2437 	 -57.1247 	 
H 	 -98.5096 	 -35.7706 	 -58.612 	 
H 	 -93.1713 	 -40.5712 	 -55.0938 	 
H 	 -92.5342 	 -32.6525 	 -56.6505 	 
*
