! wB97X-D3 SP def2-SVP
%pal
nprocs 24
end

* xyz 0 1
S 	 -90.9642 	 -35.0177 	 -64.5389 	 
C 	 -92.6424 	 -35.3579 	 -64.8415 	 
C 	 -93.1944 	 -34.4488 	 -65.6958 	 
C 	 -92.244 	 -33.4355 	 -66.0378 	 
C 	 -90.9639 	 -33.6185 	 -65.5123 	 
H 	 -92.3621 	 -32.5497 	 -66.6807 	 
C 	 -94.6047 	 -34.3889 	 -66.1843 	 
H 	 -94.7041 	 -33.4053 	 -66.4694 	 
H 	 -95.2573 	 -34.4365 	 -65.3787 	 
C 	 -95.0168 	 -35.3553 	 -67.3097 	 
H 	 -94.5113 	 -35.1742 	 -68.2526 	 
H 	 -94.7117 	 -36.3468 	 -67.0156 	 
C 	 -96.4929 	 -35.3009 	 -67.7371 	 
H 	 -97.0347 	 -35.8648 	 -67.0809 	 
H 	 -96.9436 	 -34.3198 	 -67.9026 	 
H 	 -96.5289 	 -35.8937 	 -68.6015 	 
S 	 -89.2654 	 -32.0702 	 -64.0299 	 
C 	 -87.8971 	 -31.3215 	 -64.8908 	 
C 	 -87.9466 	 -31.5374 	 -66.2406 	 
C 	 -89.0451 	 -32.3485 	 -66.6332 	 
C 	 -89.819 	 -32.6701 	 -65.5352 	 
H 	 -87.1826 	 -31.2183 	 -66.9485 	 
C 	 -89.2232 	 -32.862 	 -68.0771 	 
H 	 -90.1776 	 -33.4269 	 -68.1618 	 
H 	 -88.5054 	 -33.6862 	 -68.2046 	 
C 	 -89.2478 	 -31.9004 	 -69.288 	 
H 	 -88.6975 	 -31.0355 	 -68.9513 	 
H 	 -90.2892 	 -31.5747 	 -69.4652 	 
C 	 -88.7049 	 -32.5184 	 -70.6245 	 
H 	 -89.1055 	 -31.979 	 -71.4831 	 
H 	 -88.9581 	 -33.5371 	 -70.9053 	 
H 	 -87.6577 	 -32.5406 	 -70.6664 	 
H 	 -93.2486 	 -36.1836 	 -64.5027 	 
H 	 -87.2968 	 -30.4679 	 -64.5857 	 
*
