! wB97X-D3 SP def2-SVP
%pal
nprocs 24
end

* xyz 0 1
S 	 -108.524 	 61.8396 	 -7.9516 	 
C 	 -107.664 	 61.9318 	 -6.41948 	 
C 	 -108.23 	 62.802 	 -5.55588 	 
C 	 -109.451 	 63.3672 	 -6.03882 	 
C 	 -109.771 	 62.9168 	 -7.31475 	 
H 	 -110.03 	 64.1377 	 -5.58083 	 
C 	 -107.843 	 63.0131 	 -4.09763 	 
H 	 -108.382 	 63.9436 	 -3.86413 	 
H 	 -106.782 	 63.2173 	 -4.06912 	 
C 	 -108.393 	 61.9638 	 -3.1572 	 
H 	 -109.388 	 61.6674 	 -3.50338 	 
H 	 -107.72 	 61.0925 	 -3.31132 	 
C 	 -108.259 	 62.4172 	 -1.67132 	 
H 	 -107.17 	 62.3709 	 -1.39186 	 
H 	 -108.659 	 63.4105 	 -1.35723 	 
H 	 -108.771 	 61.6712 	 -1.0979 	 
S 	 -110.971 	 63.6735 	 -9.66806 	 
C 	 -112.732 	 63.7331 	 -9.69197 	 
C 	 -113.316 	 63.4388 	 -8.4708 	 
C 	 -112.316 	 63.013 	 -7.52161 	 
C 	 -111.043 	 63.2149 	 -8.03915 	 
H 	 -114.388 	 63.5386 	 -8.25554 	 
C 	 -112.684 	 62.5267 	 -6.15525 	 
H 	 -111.838 	 62.3203 	 -5.57489 	 
H 	 -113.097 	 61.5438 	 -6.24126 	 
C 	 -113.594 	 63.4944 	 -5.37822 	 
H 	 -114.612 	 63.4817 	 -5.82594 	 
H 	 -113.347 	 64.5607 	 -5.3975 	 
C 	 -113.761 	 63.0737 	 -3.94374 	 
H 	 -114.254 	 62.1119 	 -3.6782 	 
H 	 -114.403 	 63.8309 	 -3.49434 	 
H 	 -112.89 	 63.0484 	 -3.35819 	 
H 	 -106.704 	 61.4384 	 -6.24935 	 
H 	 -113.278 	 64.0331 	 -10.5659 	 
*
