! wB97X-D3 SP def2-SVP
%pal
nprocs 24
end

* xyz 0 1
S 	 -58.6863 	 -2.87994 	 -25.7062 	 
C 	 -59.2113 	 -3.37721 	 -27.2708 	 
C 	 -60.5701 	 -3.57768 	 -27.2735 	 
C 	 -61.2041 	 -3.0157 	 -26.1451 	 
C 	 -60.3291 	 -2.62476 	 -25.1736 	 
H 	 -62.2492 	 -2.82714 	 -25.9834 	 
C 	 -61.2917 	 -4.12111 	 -28.5024 	 
H 	 -62.0403 	 -4.79747 	 -28.1284 	 
H 	 -60.6246 	 -4.85203 	 -28.9541 	 
C 	 -61.874 	 -3.01889 	 -29.4148 	 
H 	 -62.721 	 -2.47275 	 -28.9466 	 
H 	 -61.1238 	 -2.27043 	 -29.6114 	 
C 	 -62.3999 	 -3.57644 	 -30.7985 	 
H 	 -63.1426 	 -4.38188 	 -30.7905 	 
H 	 -62.9192 	 -2.72508 	 -31.1597 	 
H 	 -61.5564 	 -3.77047 	 -31.4647 	 
S 	 -59.5372 	 -2.25578 	 -22.5357 	 
C 	 -60.2575 	 -1.07286 	 -21.5868 	 
C 	 -61.1224 	 -0.273622 	 -22.3166 	 
C 	 -61.3817 	 -0.833944 	 -23.6173 	 
C 	 -60.5919 	 -1.90034 	 -23.9145 	 
H 	 -61.645 	 0.542896 	 -21.8697 	 
C 	 -62.4017 	 -0.322394 	 -24.5425 	 
H 	 -63.1367 	 0.147307 	 -23.8832 	 
H 	 -62.9314 	 -1.21047 	 -24.8442 	 
C 	 -62.0656 	 0.773653 	 -25.5552 	 
H 	 -62.9796 	 0.825735 	 -26.1925 	 
H 	 -61.3105 	 0.432171 	 -26.2115 	 
C 	 -61.6597 	 2.12849 	 -24.9691 	 
H 	 -62.1962 	 2.64296 	 -24.1757 	 
H 	 -61.5847 	 2.84776 	 -25.8156 	 
H 	 -60.6529 	 2.18719 	 -24.6481 	 
H 	 -58.6444 	 -3.86665 	 -28.087 	 
H 	 -59.9947 	 -0.846847 	 -20.597 	 
*
