! wB97X-D3 SP def2-SVP
%pal
nprocs 24
end

* xyz 0 1
S 	 -129.208 	 62.5625 	 -58.2999 	 
C 	 -128.017 	 63.6411 	 -58.9718 	 
C 	 -127.072 	 62.9463 	 -59.732 	 
C 	 -127.229 	 61.4924 	 -59.5817 	 
C 	 -128.198 	 61.1678 	 -58.6714 	 
H 	 -126.569 	 60.7495 	 -60.1237 	 
C 	 -125.961 	 63.5339 	 -60.6337 	 
H 	 -125.129 	 62.9222 	 -60.715 	 
H 	 -125.619 	 64.3954 	 -59.9875 	 
C 	 -126.39 	 63.9883 	 -62.0013 	 
H 	 -127.231 	 64.6836 	 -61.9793 	 
H 	 -125.551 	 64.6479 	 -62.3671 	 
C 	 -126.587 	 62.824 	 -62.9437 	 
H 	 -126.488 	 62.9991 	 -63.9999 	 
H 	 -125.886 	 62.0741 	 -62.6153 	 
H 	 -127.606 	 62.4365 	 -62.9496 	 
S 	 -130.133 	 59.401 	 -59.4821 	 
C 	 -130.115 	 57.7628 	 -58.9786 	 
C 	 -129.056 	 57.596 	 -58.1114 	 
C 	 -128.356 	 58.7567 	 -57.738 	 
C 	 -128.825 	 59.8871 	 -58.402 	 
H 	 -128.824 	 56.5859 	 -57.7847 	 
C 	 -127.229 	 58.6518 	 -56.7056 	 
H 	 -126.258 	 59.021 	 -57.0798 	 
H 	 -127.105 	 57.5736 	 -56.5081 	 
C 	 -127.51 	 59.5154 	 -55.4731 	 
H 	 -128.442 	 59.093 	 -55.0801 	 
H 	 -127.929 	 60.5254 	 -55.524 	 
C 	 -126.39 	 59.376 	 -54.3741 	 
H 	 -126.268 	 58.2946 	 -54.1475 	 
H 	 -126.836 	 59.9665 	 -53.5736 	 
H 	 -125.474 	 59.8265 	 -54.8182 	 
H 	 -127.978 	 64.6685 	 -58.7221 	 
H 	 -130.761 	 57.0195 	 -59.315 	 
*
