! wB97X-D3 SP def2-SVP
%pal
nprocs 24
end

* xyz 0 1
S 	 -58.1794 	 -4.57787 	 -27.1518 	 
C 	 -57.4121 	 -4.6859 	 -25.5494 	 
C 	 -56.1416 	 -4.09452 	 -25.5748 	 
C 	 -55.9859 	 -3.31419 	 -26.8012 	 
C 	 -56.9972 	 -3.35829 	 -27.7754 	 
H 	 -55.1704 	 -2.71217 	 -26.983 	 
C 	 -55.0942 	 -4.247 	 -24.5675 	 
H 	 -54.2838 	 -3.57881 	 -24.8594 	 
H 	 -54.7415 	 -5.31903 	 -24.5924 	 
C 	 -55.5624 	 -3.86471 	 -23.1695 	 
H 	 -56.0779 	 -2.93367 	 -23.3439 	 
H 	 -56.3232 	 -4.48277 	 -22.8379 	 
C 	 -54.4946 	 -3.8061 	 -22.1323 	 
H 	 -53.8415 	 -4.66004 	 -21.9632 	 
H 	 -54.0012 	 -2.82324 	 -22.3333 	 
H 	 -54.9145 	 -3.77363 	 -21.1477 	 
S 	 -57.4684 	 -3.44486 	 -30.4997 	 
C 	 -57.4356 	 -1.98373 	 -31.4489 	 
C 	 -57.1583 	 -0.899158 	 -30.6245 	 
C 	 -57.0163 	 -1.19979 	 -29.2315 	 
C 	 -57.1335 	 -2.57723 	 -28.9832 	 
H 	 -57.1049 	 0.0505434 	 -31.0553 	 
C 	 -56.7133 	 -0.0989854 	 -28.1766 	 
H 	 -56.1161 	 0.689945 	 -28.598 	 
H 	 -56.0107 	 -0.506934 	 -27.3925 	 
C 	 -57.9896 	 0.446373 	 -27.5318 	 
H 	 -57.6394 	 1.03069 	 -26.735 	 
H 	 -58.5399 	 -0.323105 	 -27.0244 	 
C 	 -59.0001 	 1.23605 	 -28.3757 	 
H 	 -59.6081 	 0.571418 	 -29.0585 	 
H 	 -58.4674 	 1.83536 	 -29.1114 	 
H 	 -59.7021 	 1.77506 	 -27.8098 	 
H 	 -57.6657 	 -5.30366 	 -24.6795 	 
H 	 -57.6888 	 -2.03924 	 -32.5019 	 
*
