! wB97X-D3 SP def2-SVP
%pal
nprocs 24
end

* xyz 0 1
S 	 -16.762 	 -24.6066 	 -94.3834 	 
C 	 -15.5687 	 -25.3316 	 -93.3171 	 
C 	 -15.4085 	 -26.7205 	 -93.5521 	 
C 	 -16.3554 	 -27.2008 	 -94.5218 	 
C 	 -17.1446 	 -26.1569 	 -95.0742 	 
H 	 -16.5248 	 -28.3252 	 -94.7041 	 
C 	 -14.4819 	 -27.6598 	 -92.855 	 
H 	 -15.2144 	 -28.4744 	 -92.7455 	 
H 	 -14.1699 	 -27.3366 	 -91.8582 	 
C 	 -13.2094 	 -27.9769 	 -93.6329 	 
H 	 -12.6662 	 -28.8461 	 -93.3101 	 
H 	 -13.5656 	 -28.3701 	 -94.5924 	 
C 	 -12.3089 	 -26.7839 	 -93.7779 	 
H 	 -11.8577 	 -26.5758 	 -92.8334 	 
H 	 -11.4431 	 -27.0781 	 -94.366 	 
H 	 -12.8231 	 -25.9327 	 -94.3234 	 
S 	 -19.753 	 -25.5942 	 -95.7915 	 
C 	 -20.3892 	 -26.3493 	 -97.2224 	 
C 	 -19.4192 	 -27.0341 	 -97.9276 	 
C 	 -18.136 	 -27.0327 	 -97.2454 	 
C 	 -18.1502 	 -26.3889 	 -96.06 	 
H 	 -19.6824 	 -27.5446 	 -98.8373 	 
C 	 -16.9665 	 -27.7298 	 -97.8625 	 
H 	 -17.3432 	 -28.7533 	 -98.035 	 
H 	 -16.1608 	 -27.7774 	 -97.0728 	 
C 	 -16.3824 	 -27.0113 	 -99.162 	 
H 	 -17.1031 	 -26.849 	 -99.9481 	 
H 	 -15.7053 	 -27.6482 	 -99.7335 	 
C 	 -15.8117 	 -25.6369 	 -98.8074 	 
H 	 -15.3662 	 -25.3696 	 -99.7289 	 
H 	 -15.1236 	 -25.6847 	 -98.0168 	 
H 	 -16.632 	 -24.9549 	 -98.5566 	 
H 	 -14.8965 	 -24.7531 	 -92.695 	 
H 	 -21.4691 	 -26.3833 	 -97.4691 	 
*
