! wB97X-D3 SP def2-SVP
%pal
nprocs 24
end

* xyz 0 1
S 	 -51.3046 	 -46.3425 	 -75.9146 	 
C 	 -52.2936 	 -46.2336 	 -77.3906 	 
C 	 -51.5789 	 -45.4895 	 -78.3641 	 
C 	 -50.3755 	 -44.964 	 -77.8247 	 
C 	 -50.0466 	 -45.3975 	 -76.5613 	 
H 	 -49.7969 	 -44.3264 	 -78.4183 	 
C 	 -51.9527 	 -45.1701 	 -79.8316 	 
H 	 -52.8428 	 -45.7571 	 -80.1059 	 
H 	 -51.2044 	 -45.5392 	 -80.453 	 
C 	 -52.3827 	 -43.757 	 -80.1808 	 
H 	 -53.3295 	 -43.5106 	 -79.6556 	 
H 	 -51.6199 	 -43.103 	 -79.7672 	 
C 	 -52.5143 	 -43.4666 	 -81.6297 	 
H 	 -53.4779 	 -43.7148 	 -82.0251 	 
H 	 -52.5128 	 -42.349 	 -81.714 	 
H 	 -51.7729 	 -43.8082 	 -82.3231 	 
S 	 -48.8619 	 -45.4835 	 -74.0076 	 
C 	 -47.2677 	 -44.7417 	 -73.7737 	 
C 	 -46.7666 	 -44.2753 	 -75.0071 	 
C 	 -47.6507 	 -44.4949 	 -76.1701 	 
C 	 -48.8494 	 -45.076 	 -75.7766 	 
H 	 -45.7214 	 -43.8385 	 -75.0658 	 
C 	 -47.3542 	 -43.8208 	 -77.4669 	 
H 	 -46.5513 	 -43.145 	 -77.3458 	 
H 	 -48.284 	 -43.2045 	 -77.5957 	 
C 	 -46.9013 	 -44.7454 	 -78.5714 	 
H 	 -47.5751 	 -45.5627 	 -78.5629 	 
H 	 -45.9093 	 -45.1106 	 -78.3087 	 
C 	 -46.8601 	 -44.0122 	 -79.95 	 
H 	 -47.6967 	 -43.3687 	 -80.1193 	 
H 	 -46.652 	 -44.7088 	 -80.7319 	 
H 	 -46.0598 	 -43.3269 	 -79.9384 	 
H 	 -53.2348 	 -46.6652 	 -77.6793 	 
H 	 -46.7766 	 -44.6463 	 -72.7835 	 
*
