! wB97X-D3 SP def2-SVP
%pal
nprocs 24
end

* xyz 0 1
S 	 -87.1095 	 -3.39568 	 -62.8891 	 
C 	 -88.2411 	 -4.647 	 -63.2968 	 
C 	 -88.1138 	 -5.74478 	 -62.4775 	 
C 	 -87.0715 	 -5.56316 	 -61.5085 	 
C 	 -86.3808 	 -4.40899 	 -61.6458 	 
H 	 -86.7751 	 -6.27495 	 -60.7418 	 
C 	 -88.8372 	 -7.08238 	 -62.6125 	 
H 	 -88.1961 	 -7.92713 	 -62.3694 	 
H 	 -89.1526 	 -7.16708 	 -63.614 	 
C 	 -90.0561 	 -7.19925 	 -61.7389 	 
H 	 -89.7064 	 -7.16039 	 -60.7179 	 
H 	 -90.5427 	 -6.23438 	 -62.0157 	 
C 	 -90.923 	 -8.4382 	 -61.8678 	 
H 	 -90.4184 	 -9.27353 	 -61.3354 	 
H 	 -91.9049 	 -8.35148 	 -61.3962 	 
H 	 -91.0575 	 -8.49911 	 -62.9475 	 
S 	 -85.3761 	 -4.27479 	 -59.1951 	 
C 	 -83.7503 	 -3.63033 	 -58.9593 	 
C 	 -83.1611 	 -3.28331 	 -60.1729 	 
C 	 -84.0186 	 -3.4142 	 -61.381 	 
C 	 -85.219 	 -4.00723 	 -60.9421 	 
H 	 -82.1355 	 -3.01326 	 -60.164 	 
C 	 -83.5547 	 -3.0889 	 -62.8042 	 
H 	 -84.3553 	 -3.15967 	 -63.5066 	 
H 	 -82.9889 	 -3.9294 	 -63.1785 	 
C 	 -82.6302 	 -1.88886 	 -62.9176 	 
H 	 -81.6864 	 -2.15167 	 -62.4296 	 
H 	 -83.0223 	 -1.07707 	 -62.3561 	 
C 	 -82.4114 	 -1.3391 	 -64.3531 	 
H 	 -81.8035 	 -0.414981 	 -64.4543 	 
H 	 -83.4066 	 -0.996611 	 -64.7821 	 
H 	 -82.0541 	 -2.11124 	 -65.0179 	 
H 	 -89.0032 	 -4.56436 	 -64.0583 	 
H 	 -83.2311 	 -3.61142 	 -57.9784 	 
*
