! wB97X-D3 SP def2-SVP
%pal
nprocs 24
end

* xyz 0 1
S 	 -59.9809 	 -1.65624 	 -20.4521 	 
C 	 -61.0852 	 -2.15664 	 -19.2299 	 
C 	 -62.3595 	 -1.74408 	 -19.5032 	 
C 	 -62.3995 	 -1.10047 	 -20.7447 	 
C 	 -61.2301 	 -1.11117 	 -21.4618 	 
H 	 -63.2774 	 -0.643107 	 -21.1776 	 
C 	 -63.5639 	 -1.71364 	 -18.555 	 
H 	 -64.1164 	 -0.749734 	 -18.6018 	 
H 	 -63.2637 	 -1.80556 	 -17.4853 	 
C 	 -64.5222 	 -2.96945 	 -18.66 	 
H 	 -64.8738 	 -3.13647 	 -19.6638 	 
H 	 -63.9696 	 -3.91222 	 -18.4066 	 
C 	 -65.8021 	 -2.63465 	 -17.7694 	 
H 	 -65.5899 	 -2.37574 	 -16.6593 	 
H 	 -66.3271 	 -1.76615 	 -18.231 	 
H 	 -66.5472 	 -3.34529 	 -17.9057 	 
S 	 -59.6011 	 0.371694 	 -23.1504 	 
C 	 -60.0891 	 0.589726 	 -24.8054 	 
C 	 -61.2601 	 -0.0708897 	 -25.0851 	 
C 	 -61.7663 	 -0.703244 	 -23.9516 	 
C 	 -61.0641 	 -0.537322 	 -22.7691 	 
H 	 -61.5607 	 0.0128064 	 -26.1427 	 
C 	 -63.0384 	 -1.55709 	 -24.0117 	 
H 	 -63.5837 	 -1.45961 	 -24.944 	 
H 	 -63.6351 	 -1.14404 	 -23.2406 	 
C 	 -62.9407 	 -3.03132 	 -23.7244 	 
H 	 -63.8974 	 -3.56568 	 -24.0263 	 
H 	 -62.7734 	 -3.18919 	 -22.6407 	 
C 	 -61.8182 	 -3.65102 	 -24.5027 	 
H 	 -61.5124 	 -4.69549 	 -24.3678 	 
H 	 -60.8896 	 -3.10403 	 -24.2061 	 
H 	 -61.9525 	 -3.457 	 -25.5607 	 
H 	 -60.7029 	 -2.60816 	 -18.3514 	 
H 	 -59.4712 	 1.12962 	 -25.475 	 
*
