! wB97X-D3 SP def2-SVP
%pal
nprocs 24
end

* xyz 0 1
S 	 27.306 	 -1.70038 	 -107.018 	 
C 	 28.2879 	 -2.69701 	 -108.13 	 
C 	 27.467 	 -3.11371 	 -109.21 	 
C 	 26.0922 	 -2.65996 	 -109.045 	 
C 	 25.8195 	 -1.8242 	 -107.988 	 
H 	 25.223 	 -2.90385 	 -109.717 	 
C 	 27.8775 	 -3.99527 	 -110.355 	 
H 	 27.0228 	 -4.37443 	 -110.865 	 
H 	 28.3597 	 -4.87013 	 -109.977 	 
C 	 28.9454 	 -3.33303 	 -111.327 	 
H 	 29.7354 	 -3.1605 	 -110.736 	 
H 	 29.3126 	 -4.05091 	 -112.068 	 
C 	 28.4009 	 -2.12292 	 -112.043 	 
H 	 29.2732 	 -1.48194 	 -112.397 	 
H 	 27.7635 	 -2.37183 	 -112.89 	 
H 	 27.8248 	 -1.47814 	 -111.351 	 
S 	 24.3327 	 0.489856 	 -107.447 	 
C 	 22.6875 	 0.35503 	 -107.031 	 
C 	 22.2356 	 -0.947998 	 -107.033 	 
C 	 23.2547 	 -1.90718 	 -107.392 	 
C 	 24.4885 	 -1.26273 	 -107.516 	 
H 	 21.2083 	 -0.969659 	 -106.821 	 
C 	 23.1779 	 -3.45214 	 -107.44 	 
H 	 24.1794 	 -3.92885 	 -107.307 	 
H 	 22.9702 	 -3.78281 	 -108.476 	 
C 	 22.0438 	 -4.05599 	 -106.574 	 
H 	 21.1948 	 -3.38652 	 -106.576 	 
H 	 22.3726 	 -3.95481 	 -105.58 	 
C 	 21.7012 	 -5.54034 	 -106.798 	 
H 	 21.3154 	 -5.82427 	 -107.754 	 
H 	 20.9404 	 -5.68663 	 -106.106 	 
H 	 22.5285 	 -6.31233 	 -106.629 	 
H 	 29.3119 	 -2.89432 	 -107.982 	 
H 	 22.0619 	 1.19932 	 -106.949 	 
*
