! wB97X-D3 SP def2-SVP
%pal
nprocs 24
end

* xyz 0 1
S 	 -46.3771 	 25.2855 	 27.6134 	 
C 	 -47.0554 	 26.5489 	 26.5807 	 
C 	 -48.4039 	 26.7145 	 26.6964 	 
C 	 -48.9248 	 26.0354 	 27.8674 	 
C 	 -47.8443 	 25.4259 	 28.5507 	 
H 	 -49.8952 	 26.0823 	 28.3453 	 
C 	 -49.3197 	 27.6673 	 26.0252 	 
H 	 -48.6873 	 28.3507 	 25.4469 	 
H 	 -49.8526 	 28.2785 	 26.7632 	 
C 	 -50.2515 	 27.0996 	 24.9636 	 
H 	 -50.3366 	 27.753 	 24.0816 	 
H 	 -49.8904 	 26.186 	 24.5333 	 
C 	 -51.6195 	 26.6674 	 25.4995 	 
H 	 -51.519 	 25.9122 	 26.2781 	 
H 	 -52.1921 	 27.4822 	 25.7798 	 
H 	 -52.1643 	 26.3319 	 24.6053 	 
S 	 -47.2564 	 23.353 	 30.2844 	 
C 	 -47.6618 	 23.5436 	 31.9874 	 
C 	 -48.1908 	 24.7734 	 32.2196 	 
C 	 -48.4641 	 25.549 	 31.0399 	 
C 	 -47.966 	 24.9246 	 29.8957 	 
H 	 -48.4223 	 25.0611 	 33.2167 	 
C 	 -49.0625 	 26.9129 	 31.0753 	 
H 	 -49.6094 	 27.0946 	 32.0153 	 
H 	 -49.8585 	 27.0114 	 30.3084 	 
C 	 -48.0379 	 28.1071 	 30.9108 	 
H 	 -47.3417 	 27.9147 	 30.0808 	 
H 	 -47.4555 	 28.2829 	 31.8039 	 
C 	 -48.7504 	 29.4369 	 30.7473 	 
H 	 -48.0073 	 30.1547 	 30.9275 	 
H 	 -49.5162 	 29.507 	 31.5465 	 
H 	 -49.1421 	 29.6741 	 29.6755 	 
H 	 -46.5593 	 27.0771 	 25.7334 	 
H 	 -47.3441 	 22.8571 	 32.782 	 
*
