! wB97X-D3 SP def2-SVP
%pal
nprocs 24
end

* xyz 0 1
S 	 39.3855 	 -18.6675 	 -108.029 	 
C 	 38.152 	 -17.9757 	 -109.092 	 
C 	 37.2148 	 -17.1271 	 -108.384 	 
C 	 37.3853 	 -17.3404 	 -106.999 	 
C 	 38.567 	 -17.9384 	 -106.613 	 
H 	 36.7854 	 -17.0148 	 -106.156 	 
C 	 36.0882 	 -16.3564 	 -109.136 	 
H 	 36.3466 	 -15.2959 	 -109.393 	 
H 	 35.3154 	 -16.4018 	 -108.335 	 
C 	 35.5622 	 -16.9972 	 -110.513 	 
H 	 34.6289 	 -16.6181 	 -110.852 	 
H 	 36.3113 	 -16.7402 	 -111.242 	 
C 	 35.292 	 -18.5124 	 -110.398 	 
H 	 36.3245 	 -19.045 	 -110.252 	 
H 	 34.6324 	 -18.7791 	 -109.519 	 
H 	 34.9094 	 -18.8211 	 -111.33 	 
S 	 40.5673 	 -17.306 	 -104.851 	 
C 	 40.4851 	 -17.5899 	 -103.178 	 
C 	 39.3019 	 -18.23 	 -102.881 	 
C 	 38.4743 	 -18.4084 	 -104.041 	 
C 	 39.0597 	 -18.0178 	 -105.254 	 
H 	 39.0104 	 -18.4887 	 -101.803 	 
C 	 37.1112 	 -19.1413 	 -103.906 	 
H 	 36.5539 	 -18.6948 	 -104.78 	 
H 	 36.6153 	 -18.8911 	 -102.981 	 
C 	 37.3361 	 -20.6348 	 -104.082 	 
H 	 38.2257 	 -21.026 	 -103.523 	 
H 	 37.5076 	 -20.8984 	 -105.131 	 
C 	 36.1213 	 -21.4026 	 -103.56 	 
H 	 36.1097 	 -21.5166 	 -102.472 	 
H 	 36.1556 	 -22.3664 	 -103.961 	 
H 	 35.2175 	 -20.9502 	 -103.86 	 
H 	 38.2241 	 -18.0064 	 -110.206 	 
H 	 41.2324 	 -17.4009 	 -102.37 	 
*
