! wB97X-D3 SP def2-SVP
%pal
nprocs 24
end

* xyz 0 1
S 	 -83.1242 	 -38.5041 	 -74.6189 	 
C 	 -84.1142 	 -38.0687 	 -76.0653 	 
C 	 -84.85 	 -39.1279 	 -76.5171 	 
C 	 -84.599 	 -40.2993 	 -75.7781 	 
C 	 -83.7593 	 -40.0993 	 -74.6899 	 
H 	 -85.0335 	 -41.2815 	 -75.9497 	 
C 	 -85.7421 	 -39.0724 	 -77.7405 	 
H 	 -86.0797 	 -40.0882 	 -77.8656 	 
H 	 -85.1527 	 -38.928 	 -78.6115 	 
C 	 -86.9364 	 -38.0763 	 -77.8171 	 
H 	 -87.5748 	 -38.458 	 -78.6803 	 
H 	 -87.5728 	 -38.1345 	 -76.9848 	 
C 	 -86.4711 	 -36.6012 	 -78.207 	 
H 	 -85.837 	 -36.696 	 -79.0833 	 
H 	 -87.3223 	 -35.9669 	 -78.5312 	 
H 	 -85.9546 	 -36.0687 	 -77.4515 	 
S 	 -82.0188 	 -40.7356 	 -72.5705 	 
C 	 -82.3129 	 -42.1571 	 -71.6336 	 
C 	 -83.3576 	 -42.874 	 -72.1182 	 
C 	 -84.0468 	 -42.1946 	 -73.1706 	 
C 	 -83.3764 	 -41.0658 	 -73.6646 	 
H 	 -83.5894 	 -43.8279 	 -71.6773 	 
C 	 -85.4052 	 -42.6473 	 -73.6745 	 
H 	 -85.9307 	 -41.8904 	 -74.2073 	 
H 	 -86.0624 	 -42.8089 	 -72.7316 	 
C 	 -85.3538 	 -43.9304 	 -74.4829 	 
H 	 -86.2799 	 -44.3445 	 -74.7565 	 
H 	 -84.8684 	 -44.6976 	 -73.7805 	 
C 	 -84.3728 	 -43.9828 	 -75.7593 	 
H 	 -84.6994 	 -44.7923 	 -76.4056 	 
H 	 -83.2704 	 -44.0114 	 -75.551 	 
H 	 -84.5664 	 -43.1624 	 -76.4414 	 
H 	 -84.1477 	 -37.0827 	 -76.412 	 
H 	 -81.6806 	 -42.4371 	 -70.7638 	 
*
