! wB97X-D3 SP def2-SVP
%pal
nprocs 24
end

* xyz 0 1
S 	 -110.082 	 40.1229 	 -10.8563 	 
C 	 -109.864 	 41.6988 	 -11.4367 	 
C 	 -110.46 	 42.6305 	 -10.5903 	 
C 	 -111.109 	 42.0626 	 -9.5119 	 
C 	 -110.922 	 40.7087 	 -9.41892 	 
H 	 -111.609 	 42.5334 	 -8.71357 	 
C 	 -110.309 	 44.1466 	 -10.7928 	 
H 	 -109.278 	 44.2386 	 -10.691 	 
H 	 -110.767 	 44.597 	 -9.9634 	 
C 	 -110.75 	 44.8272 	 -12.0925 	 
H 	 -110.169 	 45.7551 	 -12.2314 	 
H 	 -110.467 	 44.1608 	 -12.9177 	 
C 	 -112.219 	 44.9483 	 -12.1799 	 
H 	 -112.584 	 45.2966 	 -13.2086 	 
H 	 -112.668 	 44.0946 	 -11.7985 	 
H 	 -112.519 	 45.7194 	 -11.4922 	 
S 	 -112.413 	 38.4563 	 -9.10522 	 
C 	 -112.992 	 38.0153 	 -7.53568 	 
C 	 -112.542 	 38.8868 	 -6.53311 	 
C 	 -111.768 	 39.9679 	 -7.09927 	 
C 	 -111.531 	 39.8562 	 -8.47254 	 
H 	 -112.808 	 38.7613 	 -5.52134 	 
C 	 -111.154 	 41.0372 	 -6.15188 	 
H 	 -110.663 	 41.8844 	 -6.6923 	 
H 	 -110.355 	 40.5313 	 -5.73025 	 
C 	 -112.031 	 41.5351 	 -5.04996 	 
H 	 -111.455 	 42.1946 	 -4.36415 	 
H 	 -112.438 	 40.7145 	 -4.51429 	 
C 	 -113.198 	 42.496 	 -5.51164 	 
H 	 -113.752 	 42.8071 	 -4.64115 	 
H 	 -113.792 	 41.8974 	 -6.26195 	 
H 	 -112.891 	 43.4384 	 -5.98849 	 
H 	 -109.235 	 41.9723 	 -12.3039 	 
H 	 -113.587 	 37.1059 	 -7.25744 	 
*
