! wB97X-D3 SP def2-SVP
%pal
nprocs 24
end

* xyz 0 1
S 	 -112.128 	 17.2998 	 -114.264 	 
C 	 -111.005 	 17.5708 	 -115.587 	 
C 	 -111.451 	 16.8983 	 -116.719 	 
C 	 -112.524 	 16.003 	 -116.374 	 
C 	 -113.04 	 16.071 	 -115.085 	 
H 	 -112.879 	 15.3017 	 -117.063 	 
C 	 -110.784 	 16.9507 	 -118.106 	 
H 	 -110.909 	 16.0447 	 -118.615 	 
H 	 -109.683 	 16.9683 	 -117.921 	 
C 	 -111.366 	 18.1376 	 -118.86 	 
H 	 -112.234 	 18.624 	 -118.398 	 
H 	 -110.503 	 18.8093 	 -119.031 	 
C 	 -111.785 	 17.8233 	 -120.293 	 
H 	 -112.629 	 17.1141 	 -120.559 	 
H 	 -112.035 	 18.7737 	 -120.836 	 
H 	 -110.929 	 17.4121 	 -120.891 	 
S 	 -113.906 	 13.4922 	 -114.884 	 
C 	 -115.321 	 13.1143 	 -113.896 	 
C 	 -115.98 	 14.2489 	 -113.519 	 
C 	 -115.232 	 15.4641 	 -113.82 	 
C 	 -114.049 	 15.1814 	 -114.484 	 
H 	 -116.911 	 14.0716 	 -112.997 	 
C 	 -115.703 	 16.8094 	 -113.352 	 
H 	 -115.171 	 17.5219 	 -113.927 	 
H 	 -115.281 	 17.0882 	 -112.34 	 
C 	 -117.237 	 17.0661 	 -113.327 	 
H 	 -117.378 	 18.0175 	 -112.789 	 
H 	 -117.608 	 16.2078 	 -112.856 	 
C 	 -117.999 	 17.1107 	 -114.688 	 
H 	 -117.579 	 17.9393 	 -115.295 	 
H 	 -118.998 	 17.4204 	 -114.448 	 
H 	 -118.127 	 16.1168 	 -115.202 	 
H 	 -110.228 	 18.3148 	 -115.706 	 
H 	 -115.794 	 12.1831 	 -113.794 	 
*
