! wB97X-D3 SP def2-SVP
%pal
nprocs 24
end

* xyz 0 1
S 	 -64.949 	 20.0253 	 -118.007 	 
C 	 -63.327 	 20.1492 	 -118.668 	 
C 	 -62.4086 	 20.6315 	 -117.75 	 
C 	 -63.0216 	 20.8864 	 -116.483 	 
C 	 -64.3912 	 20.786 	 -116.48 	 
H 	 -62.5151 	 21.0993 	 -115.582 	 
C 	 -60.9376 	 20.7121 	 -118.029 	 
H 	 -60.7537 	 21.4074 	 -118.788 	 
H 	 -60.5681 	 19.6878 	 -118.369 	 
C 	 -59.9991 	 21.1609 	 -116.808 	 
H 	 -60.4104 	 22.0404 	 -116.23 	 
H 	 -59.8507 	 20.3144 	 -116.052 	 
C 	 -58.4967 	 21.6344 	 -117.238 	 
H 	 -58.0264 	 20.9741 	 -117.905 	 
H 	 -58.443 	 22.5609 	 -117.738 	 
H 	 -57.8833 	 21.6281 	 -116.386 	 
S 	 -66.1162 	 19.4542 	 -114.928 	 
C 	 -66.6833 	 20.1723 	 -113.403 	 
C 	 -66.248 	 21.4575 	 -113.228 	 
C 	 -65.3507 	 21.8091 	 -114.326 	 
C 	 -65.1758 	 20.8864 	 -115.307 	 
H 	 -66.5164 	 22.0053 	 -112.295 	 
C 	 -64.5711 	 23.1165 	 -114.345 	 
H 	 -63.7155 	 22.9832 	 -114.964 	 
H 	 -64.1526 	 23.208 	 -113.31 	 
C 	 -65.3941 	 24.4165 	 -114.741 	 
H 	 -66.1754 	 24.359 	 -113.982 	 
H 	 -65.806 	 24.2376 	 -115.794 	 
C 	 -64.3773 	 25.6492 	 -114.777 	 
H 	 -63.393 	 25.3595 	 -115.197 	 
H 	 -64.0482 	 25.9443 	 -113.795 	 
H 	 -64.7635 	 26.6437 	 -115.129 	 
H 	 -63.0546 	 19.9492 	 -119.669 	 
H 	 -67.4019 	 19.7658 	 -112.791 	 
*
