! wB97X-D3 SP def2-SVP
%pal
nprocs 24
end

* xyz 0 1
S 	 38.5118 	 -32.2267 	 -119.684 	 
C 	 36.8728 	 -32.8494 	 -119.843 	 
C 	 36.6203 	 -33.7169 	 -118.747 	 
C 	 37.6556 	 -33.7419 	 -117.782 	 
C 	 38.7756 	 -33.0786 	 -118.147 	 
H 	 37.6535 	 -34.3011 	 -116.945 	 
C 	 35.2702 	 -34.4174 	 -118.546 	 
H 	 34.6136 	 -33.7285 	 -118.04 	 
H 	 35.4665 	 -35.2611 	 -117.804 	 
C 	 34.6225 	 -34.9679 	 -119.771 	 
H 	 33.7769 	 -35.5747 	 -119.447 	 
H 	 34.3178 	 -34.1902 	 -120.428 	 
C 	 35.5274 	 -35.8529 	 -120.624 	 
H 	 36.3845 	 -35.3193 	 -120.88 	 
H 	 35.7935 	 -36.8229 	 -120.126 	 
H 	 35.0943 	 -36.1183 	 -121.631 	 
S 	 41.2119 	 -32.0676 	 -118.201 	 
C 	 42.3649 	 -32.4584 	 -116.914 	 
C 	 41.7658 	 -33.0956 	 -115.835 	 
C 	 40.3486 	 -33.3713 	 -116.082 	 
C 	 39.969 	 -32.9538 	 -117.354 	 
H 	 42.3505 	 -33.3858 	 -114.97 	 
C 	 39.5838 	 -34.1712 	 -115.043 	 
H 	 38.5376 	 -33.8118 	 -115.044 	 
H 	 40.1027 	 -33.8641 	 -114.17 	 
C 	 39.6693 	 -35.6357 	 -115.205 	 
H 	 39.3666 	 -35.8772 	 -116.193 	 
H 	 39.0674 	 -36.115 	 -114.438 	 
C 	 41.0416 	 -36.3872 	 -115.087 	 
H 	 41.5942 	 -36.345 	 -116.022 	 
H 	 40.8665 	 -37.4506 	 -114.961 	 
H 	 41.6379 	 -36.1042 	 -114.152 	 
H 	 36.1595 	 -32.5221 	 -120.623 	 
H 	 43.3851 	 -32.2414 	 -117.041 	 
*
