! wB97X-D3 SP def2-SVP
%pal
nprocs 24
end

* xyz 0 1
S 	 -57.3042 	 13.5869 	 -95.2898 	 
C 	 -57.043 	 12.8629 	 -96.8751 	 
C 	 -58.1655 	 13.0215 	 -97.6446 	 
C 	 -59.0657 	 14.0314 	 -97.1158 	 
C 	 -58.7318 	 14.486 	 -95.8537 	 
H 	 -59.8966 	 14.3809 	 -97.6883 	 
C 	 -58.3423 	 12.4884 	 -99.0022 	 
H 	 -59.3825 	 12.6298 	 -99.3455 	 
H 	 -58.0599 	 11.4446 	 -99.0732 	 
C 	 -57.5666 	 13.2362 	 -100.1 	 
H 	 -57.8769 	 14.292 	 -100.093 	 
H 	 -56.4474 	 13.149 	 -99.9668 	 
C 	 -57.9048 	 12.7367 	 -101.497 	 
H 	 -58.8609 	 12.686 	 -101.865 	 
H 	 -57.3023 	 13.2847 	 -102.233 	 
H 	 -57.5633 	 11.7453 	 -101.559 	 
S 	 -60.4935 	 14.6989 	 -93.8049 	 
C 	 -61.0099 	 16.3003 	 -93.2123 	 
C 	 -60.315 	 17.3341 	 -93.8406 	 
C 	 -59.4673 	 16.8683 	 -94.8782 	 
C 	 -59.4567 	 15.4592 	 -94.978 	 
H 	 -60.3777 	 18.378 	 -93.6233 	 
C 	 -58.7115 	 17.8824 	 -95.705 	 
H 	 -57.714 	 17.3865 	 -95.8469 	 
H 	 -58.4238 	 18.7548 	 -95.1552 	 
C 	 -59.2757 	 18.249 	 -97.0569 	 
H 	 -59.3388 	 17.438 	 -97.8047 	 
H 	 -58.5893 	 18.9229 	 -97.513 	 
C 	 -60.6069 	 19.0276 	 -96.9587 	 
H 	 -60.3459 	 19.9985 	 -96.5996 	 
H 	 -61.373 	 18.607 	 -96.3067 	 
H 	 -61.0742 	 19.1411 	 -97.9486 	 
H 	 -56.3455 	 12.0957 	 -97.1587 	 
H 	 -61.7785 	 16.4661 	 -92.4432 	 
*
