! wB97X-D3 SP def2-SVP
%pal
nprocs 24
end

* xyz 0 1
S 	 -56.5419 	 -1.2453 	 -32.0903 	 
C 	 -58.275 	 -1.27708 	 -32.0445 	 
C 	 -58.9161 	 -0.445715 	 -32.92 	 
C 	 -57.9179 	 0.391208 	 -33.5405 	 
C 	 -56.6517 	 0.134162 	 -33.1631 	 
H 	 -57.9275 	 1.15181 	 -34.2564 	 
C 	 -60.4744 	 -0.266905 	 -33.1884 	 
H 	 -60.7489 	 0.765213 	 -33.5079 	 
H 	 -60.7298 	 -0.219049 	 -32.1545 	 
C 	 -61.2251 	 -1.39649 	 -33.8532 	 
H 	 -60.7982 	 -2.33646 	 -33.4651 	 
H 	 -62.2094 	 -1.52375 	 -33.4822 	 
C 	 -61.1055 	 -1.30011 	 -35.3705 	 
H 	 -60.0416 	 -1.17018 	 -35.6112 	 
H 	 -61.4996 	 -2.20485 	 -35.7635 	 
H 	 -61.6662 	 -0.458492 	 -35.8528 	 
S 	 -54.1819 	 0.323106 	 -34.4347 	 
C 	 -53.2627 	 1.71857 	 -34.2037 	 
C 	 -53.9068 	 2.64853 	 -33.4408 	 
C 	 -55.1897 	 2.25742 	 -32.9409 	 
C 	 -55.4314 	 0.944959 	 -33.3593 	 
H 	 -53.3396 	 3.57649 	 -33.3109 	 
C 	 -55.9887 	 3.16082 	 -32.0486 	 
H 	 -55.3302 	 3.39239 	 -31.235 	 
H 	 -56.9366 	 2.68759 	 -31.6611 	 
C 	 -56.4639 	 4.53937 	 -32.4935 	 
H 	 -57.071 	 4.39141 	 -33.3613 	 
H 	 -55.6006 	 5.17829 	 -32.6137 	 
C 	 -57.3151 	 5.31654 	 -31.4712 	 
H 	 -58.3442 	 5.06221 	 -31.503 	 
H 	 -57.3613 	 6.379 	 -31.5963 	 
H 	 -56.9866 	 5.02282 	 -30.4906 	 
H 	 -58.8244 	 -1.99443 	 -31.4698 	 
H 	 -52.1864 	 1.77353 	 -34.3018 	 
*
