! wB97X-D3 SP def2-SVP
%pal
nprocs 24
end

* xyz 0 1
S 	 -90.8069 	 -5.09029 	 -119.598 	 
C 	 -89.3298 	 -5.5851 	 -120.437 	 
C 	 -89.4923 	 -6.84323 	 -121.027 	 
C 	 -90.9021 	 -7.26824 	 -120.971 	 
C 	 -91.7117 	 -6.447 	 -120.179 	 
H 	 -91.2722 	 -8.16158 	 -121.373 	 
C 	 -88.5156 	 -7.46024 	 -122.01 	 
H 	 -88.9798 	 -8.02344 	 -122.76 	 
H 	 -87.8561 	 -7.9886 	 -121.331 	 
C 	 -87.6281 	 -6.3862 	 -122.667 	 
H 	 -88.1725 	 -5.60696 	 -123.239 	 
H 	 -87.1038 	 -5.80161 	 -121.88 	 
C 	 -86.5142 	 -7.03813 	 -123.523 	 
H 	 -85.951 	 -7.77185 	 -122.963 	 
H 	 -86.9001 	 -7.58561 	 -124.395 	 
H 	 -85.7864 	 -6.31063 	 -123.904 	 
S 	 -94.2639 	 -5.40507 	 -119.749 	 
C 	 -95.547 	 -6.44193 	 -119.195 	 
C 	 -95.0502 	 -7.67029 	 -118.95 	 
C 	 -93.6623 	 -7.85299 	 -119.232 	 
C 	 -93.0675 	 -6.65565 	 -119.682 	 
H 	 -95.629 	 -8.45662 	 -118.452 	 
C 	 -92.8803 	 -9.14778 	 -119.046 	 
H 	 -92.205 	 -9.35554 	 -119.915 	 
H 	 -93.664 	 -9.96131 	 -119.116 	 
C 	 -91.9735 	 -9.37951 	 -117.801 	 
H 	 -92.6912 	 -9.29866 	 -116.961 	 
H 	 -91.2216 	 -8.57731 	 -117.691 	 
C 	 -91.2391 	 -10.7692 	 -117.713 	 
H 	 -90.639 	 -11.0451 	 -118.545 	 
H 	 -91.9422 	 -11.5159 	 -117.642 	 
H 	 -90.5443 	 -10.8003 	 -116.826 	 
H 	 -88.3101 	 -5.14657 	 -120.213 	 
H 	 -96.4798 	 -6.11788 	 -118.757 	 
*
