! wB97X-D3 SP def2-SVP
%pal
nprocs 24
end

* xyz 0 1
S 	 34.7265 	 -31.2256 	 -113.393 	 
C 	 34.6735 	 -32.8982 	 -112.941 	 
C 	 35.7688 	 -33.556 	 -113.407 	 
C 	 36.8364 	 -32.7238 	 -113.933 	 
C 	 36.4735 	 -31.3593 	 -113.768 	 
H 	 37.7405 	 -33.0486 	 -114.325 	 
C 	 36.0277 	 -35.0297 	 -113.273 	 
H 	 36.9871 	 -35.3346 	 -112.803 	 
H 	 36.2453 	 -35.5082 	 -114.257 	 
C 	 35.0269 	 -35.8621 	 -112.561 	 
H 	 34.7063 	 -35.4287 	 -111.605 	 
H 	 34.1893 	 -35.9682 	 -113.237 	 
C 	 35.4241 	 -37.3675 	 -112.453 	 
H 	 36.4775 	 -37.4136 	 -112.224 	 
H 	 34.8135 	 -37.9093 	 -111.785 	 
H 	 35.1413 	 -37.9568 	 -113.366 	 
S 	 37.0457 	 -29.0819 	 -115.444 	 
C 	 38.4409 	 -28.0916 	 -114.94 	 
C 	 39.1769 	 -28.737 	 -113.969 	 
C 	 38.4347 	 -29.8213 	 -113.341 	 
C 	 37.2886 	 -30.1882 	 -114.017 	 
H 	 40.0876 	 -28.3494 	 -113.51 	 
C 	 38.9396 	 -30.5892 	 -112.071 	 
H 	 38.2447 	 -31.4706 	 -111.981 	 
H 	 38.6993 	 -30.0693 	 -111.124 	 
C 	 40.3538 	 -31.1323 	 -111.969 	 
H 	 40.6061 	 -31.3702 	 -110.97 	 
H 	 40.9094 	 -30.2378 	 -112.228 	 
C 	 40.8211 	 -32.2024 	 -113.059 	 
H 	 40.5125 	 -32.0154 	 -114.116 	 
H 	 40.5177 	 -33.2006 	 -112.801 	 
H 	 41.925 	 -32.2843 	 -113.098 	 
H 	 33.9148 	 -33.4539 	 -112.424 	 
H 	 38.7074 	 -27.2602 	 -115.548 	 
*
