! wB97X-D3 SP def2-SVP
%pal
nprocs 24
end

* xyz 0 1
S 	 34.8867 	 -29.9504 	 -117.685 	 
C 	 36.1909 	 -29.6335 	 -116.545 	 
C 	 37.4337 	 -29.8357 	 -117.149 	 
C 	 37.3162 	 -30.5145 	 -118.414 	 
C 	 36.0081 	 -30.7132 	 -118.789 	 
H 	 38.1219 	 -30.6702 	 -119.071 	 
C 	 38.6827 	 -29.3028 	 -116.464 	 
H 	 38.6273 	 -28.3191 	 -116.044 	 
H 	 39.5075 	 -29.2609 	 -117.271 	 
C 	 39.1873 	 -30.2231 	 -115.354 	 
H 	 39.595 	 -31.1388 	 -115.792 	 
H 	 40.0129 	 -29.6892 	 -114.97 	 
C 	 38.1413 	 -30.5461 	 -114.244 	 
H 	 37.594 	 -29.6809 	 -113.956 	 
H 	 37.3987 	 -31.1944 	 -114.659 	 
H 	 38.5583 	 -31.0932 	 -113.408 	 
S 	 34.5122 	 -30.1307 	 -121.078 	 
C 	 34.433 	 -31.2824 	 -122.479 	 
C 	 35.4572 	 -32.1639 	 -122.25 	 
C 	 36.0717 	 -32.1366 	 -120.964 	 
C 	 35.6002 	 -31.137 	 -120.164 	 
H 	 35.6769 	 -32.9109 	 -123.017 	 
C 	 37.0559 	 -33.2752 	 -120.597 	 
H 	 37.956 	 -32.6835 	 -120.398 	 
H 	 37.207 	 -33.9004 	 -121.452 	 
C 	 36.6212 	 -34.0656 	 -119.403 	 
H 	 35.8105 	 -34.5658 	 -119.766 	 
H 	 36.2255 	 -33.5132 	 -118.583 	 
C 	 37.7844 	 -34.9621 	 -118.889 	 
H 	 38.0165 	 -35.8142 	 -119.569 	 
H 	 37.5928 	 -35.3694 	 -117.875 	 
H 	 38.6297 	 -34.3005 	 -118.689 	 
H 	 36.206 	 -28.972 	 -115.689 	 
H 	 33.832 	 -31.3119 	 -123.378 	 
*
