! wB97X-D3 SP def2-SVP
%pal
nprocs 24
end

* xyz 0 1
S 	 -121.967 	 53.9136 	 -37.8396 	 
C 	 -122.212 	 52.8121 	 -39.1 	 
C 	 -121.272 	 52.9835 	 -40.0524 	 
C 	 -120.339 	 54.0169 	 -39.7829 	 
C 	 -120.624 	 54.7469 	 -38.6511 	 
H 	 -119.579 	 54.3733 	 -40.4923 	 
C 	 -121.256 	 52.1331 	 -41.3206 	 
H 	 -121.47 	 51.1153 	 -41.0106 	 
H 	 -120.155 	 51.9808 	 -41.6291 	 
C 	 -122.014 	 52.659 	 -42.4917 	 
H 	 -121.803 	 52.0314 	 -43.3251 	 
H 	 -123.112 	 52.6379 	 -42.283 	 
C 	 -121.679 	 54.1424 	 -42.9528 	 
H 	 -120.685 	 54.2316 	 -43.4809 	 
H 	 -122.448 	 54.544 	 -43.5549 	 
H 	 -121.476 	 54.7291 	 -42.1299 	 
S 	 -119.725 	 55.5883 	 -36.2638 	 
C 	 -118.524 	 56.8592 	 -36.1681 	 
C 	 -118.028 	 57.1169 	 -37.41 	 
C 	 -118.773 	 56.5626 	 -38.4696 	 
C 	 -119.795 	 55.7463 	 -37.9811 	 
H 	 -117.188 	 57.772 	 -37.5421 	 
C 	 -118.329 	 56.7889 	 -39.892 	 
H 	 -117.93 	 57.8045 	 -39.9651 	 
H 	 -119.157 	 56.687 	 -40.5951 	 
C 	 -117.183 	 55.746 	 -40.2154 	 
H 	 -117.528 	 54.7611 	 -40.0985 	 
H 	 -116.459 	 55.7392 	 -39.3337 	 
C 	 -116.545 	 55.8861 	 -41.5985 	 
H 	 -116.362 	 56.9513 	 -41.9295 	 
H 	 -117.235 	 55.3388 	 -42.2812 	 
H 	 -115.576 	 55.4389 	 -41.5564 	 
H 	 -123.09 	 52.1709 	 -39.2257 	 
H 	 -118.089 	 57.3959 	 -35.3098 	 
*
