! wB97X-D3 SP def2-SVP
%pal
nprocs 24
end

* xyz 0 1
S 	 -101.34 	 -1.26598 	 -111.242 	 
C 	 -102.374 	 -1.49228 	 -112.647 	 
C 	 -103.633 	 -1.97172 	 -112.252 	 
C 	 -103.854 	 -1.75331 	 -110.878 	 
C 	 -102.728 	 -1.3593 	 -110.201 	 
H 	 -104.701 	 -1.98978 	 -110.359 	 
C 	 -104.783 	 -2.57053 	 -113.117 	 
H 	 -105.577 	 -1.90211 	 -113.241 	 
H 	 -105.245 	 -3.29235 	 -112.521 	 
C 	 -104.498 	 -2.98768 	 -114.567 	 
H 	 -104.435 	 -2.0688 	 -115.189 	 
H 	 -103.495 	 -3.3663 	 -114.681 	 
C 	 -105.622 	 -3.73679 	 -115.239 	 
H 	 -106.465 	 -3.08131 	 -115.516 	 
H 	 -105.348 	 -4.11044 	 -116.204 	 
H 	 -105.93 	 -4.60819 	 -114.593 	 
S 	 -101.308 	 -2.48267 	 -108.122 	 
C 	 -101.596 	 -1.98603 	 -106.468 	 
C 	 -102.575 	 -1.01858 	 -106.483 	 
C 	 -103.137 	 -0.772408 	 -107.768 	 
C 	 -102.463 	 -1.36961 	 -108.771 	 
H 	 -102.896 	 -0.597085 	 -105.572 	 
C 	 -104.311 	 0.144495 	 -107.975 	 
H 	 -105.057 	 -0.361743 	 -107.304 	 
H 	 -104.676 	 0.0505599 	 -109.006 	 
C 	 -103.94 	 1.64703 	 -107.662 	 
H 	 -103.548 	 1.70252 	 -106.653 	 
H 	 -104.808 	 2.21062 	 -107.656 	 
C 	 -102.883 	 2.16144 	 -108.652 	 
H 	 -102.865 	 1.62881 	 -109.618 	 
H 	 -101.915 	 2.2469 	 -108.144 	 
H 	 -103.112 	 3.11729 	 -109.149 	 
H 	 -101.984 	 -1.63673 	 -113.659 	 
H 	 -100.937 	 -2.18107 	 -105.641 	 
*
