! wB97X-D3 SP def2-SVP
%pal
nprocs 24
end

* xyz 0 1
S 	 36.71 	 -3.9888 	 -119.626 	 
C 	 36.3914 	 -5.43057 	 -120.551 	 
C 	 35.3894 	 -6.21457 	 -119.978 	 
C 	 34.7482 	 -5.52087 	 -118.937 	 
C 	 35.3085 	 -4.27862 	 -118.681 	 
H 	 33.8966 	 -5.86174 	 -118.379 	 
C 	 34.9799 	 -7.5857 	 -120.446 	 
H 	 35.4763 	 -7.69617 	 -121.411 	 
H 	 33.934 	 -7.59214 	 -120.638 	 
C 	 35.3318 	 -8.81666 	 -119.527 	 
H 	 36.4084 	 -8.78371 	 -119.535 	 
H 	 34.962 	 -8.79426 	 -118.486 	 
C 	 34.8791 	 -10.1131 	 -120.209 	 
H 	 35.0968 	 -11.0012 	 -119.62 	 
H 	 33.7658 	 -10.1292 	 -120.29 	 
H 	 35.2813 	 -10.1266 	 -121.241 	 
S 	 33.6578 	 -2.28464 	 -117.934 	 
C 	 33.8643 	 -1.3987 	 -116.472 	 
C 	 34.9172 	 -1.88359 	 -115.792 	 
C 	 35.4726 	 -3.10999 	 -116.367 	 
C 	 34.9616 	 -3.34881 	 -117.609 	 
H 	 35.1523 	 -1.49099 	 -114.779 	 
C 	 36.6935 	 -3.84692 	 -115.755 	 
H 	 37.5504 	 -3.16414 	 -115.601 	 
H 	 37.0801 	 -4.54691 	 -116.514 	 
C 	 36.4413 	 -4.52616 	 -114.361 	 
H 	 35.3981 	 -4.90803 	 -114.407 	 
H 	 36.5353 	 -3.85873 	 -113.503 	 
C 	 37.5126 	 -5.60022 	 -114.105 	 
H 	 37.3389 	 -6.28263 	 -113.222 	 
H 	 38.4001 	 -5.04148 	 -113.859 	 
H 	 37.6238 	 -6.2598 	 -114.961 	 
H 	 36.868 	 -5.70864 	 -121.473 	 
H 	 33.2802 	 -0.503891 	 -116.132 	 
*
