! wB97X-D3 SP def2-SVP
%pal
nprocs 24
end

* xyz 0 1
S 	 -70.5698 	 -43.867 	 -93.0032 	 
C 	 -70.5347 	 -42.0801 	 -92.8959 	 
C 	 -70.6099 	 -41.4793 	 -94.1385 	 
C 	 -70.7329 	 -42.4402 	 -95.2 	 
C 	 -70.7761 	 -43.7502 	 -94.775 	 
H 	 -70.819 	 -42.3154 	 -96.2892 	 
C 	 -70.5995 	 -39.954 	 -94.4957 	 
H 	 -71.4243 	 -39.4421 	 -93.9975 	 
H 	 -70.817 	 -39.6953 	 -95.4961 	 
C 	 -69.2974 	 -39.2453 	 -94.0681 	 
H 	 -69.4212 	 -38.1583 	 -94.3623 	 
H 	 -69.0927 	 -39.366 	 -92.9695 	 
C 	 -68.1586 	 -39.8024 	 -94.9847 	 
H 	 -67.2291 	 -39.5306 	 -94.6059 	 
H 	 -68.1821 	 -40.875 	 -95.2211 	 
H 	 -68.3736 	 -39.3735 	 -96.0062 	 
S 	 -69.3335 	 -45.9806 	 -95.6087 	 
C 	 -69.9786 	 -46.9939 	 -96.8421 	 
C 	 -71.2493 	 -46.6347 	 -97.3448 	 
C 	 -71.6912 	 -45.4437 	 -96.6592 	 
C 	 -70.7146 	 -44.9013 	 -95.7548 	 
H 	 -71.6115 	 -47.1545 	 -98.1696 	 
C 	 -73.0838 	 -44.9931 	 -96.964 	 
H 	 -73.598 	 -45.8859 	 -97.345 	 
H 	 -73.0986 	 -44.3498 	 -97.8398 	 
C 	 -73.9643 	 -44.3984 	 -95.8807 	 
H 	 -74.9521 	 -44.2653 	 -96.309 	 
H 	 -73.6329 	 -43.3963 	 -95.5878 	 
C 	 -74.267 	 -45.3393 	 -94.6327 	 
H 	 -75.1765 	 -45.1629 	 -94.0444 	 
H 	 -73.5209 	 -45.1579 	 -93.9304 	 
H 	 -74.2393 	 -46.3777 	 -94.9225 	 
H 	 -70.629 	 -41.6058 	 -91.8891 	 
H 	 -69.513 	 -47.8031 	 -97.3442 	 
*
