! wB97X-D3 SP def2-SVP
%pal
nprocs 24
end

* xyz 0 1
S 	 25.7844 	 -1.43306 	 -112.355 	 
C 	 24.9328 	 -1.66376 	 -113.85 	 
C 	 23.8853 	 -0.770945 	 -114.007 	 
C 	 23.9265 	 0.201266 	 -112.957 	 
C 	 24.8423 	 0.0270549 	 -111.949 	 
H 	 23.3454 	 1.12751 	 -112.954 	 
C 	 22.8638 	 -0.922868 	 -115.079 	 
H 	 22.9158 	 -1.96458 	 -115.469 	 
H 	 23.2284 	 -0.308724 	 -115.96 	 
C 	 21.4807 	 -0.519717 	 -114.692 	 
H 	 21.2952 	 -0.742826 	 -113.665 	 
H 	 21.3776 	 0.572961 	 -114.794 	 
C 	 20.3701 	 -1.17825 	 -115.502 	 
H 	 19.4326 	 -0.605166 	 -115.317 	 
H 	 20.5557 	 -1.21531 	 -116.548 	 
H 	 20.1584 	 -2.11012 	 -115.093 	 
S 	 24.4542 	 0.0730861 	 -109.202 	 
C 	 24.8229 	 1.49886 	 -108.427 	 
C 	 25.2762 	 2.50238 	 -109.205 	 
C 	 25.3325 	 2.07905 	 -110.551 	 
C 	 25.0374 	 0.772819 	 -110.726 	 
H 	 25.3357 	 3.55358 	 -108.782 	 
C 	 25.5281 	 3.17743 	 -111.605 	 
H 	 25.6686 	 2.71717 	 -112.545 	 
H 	 26.4202 	 3.84862 	 -111.393 	 
C 	 24.3202 	 4.05412 	 -111.86 	 
H 	 23.522 	 3.52566 	 -112.41 	 
H 	 24.7024 	 4.85731 	 -112.515 	 
C 	 23.6815 	 4.70166 	 -110.624 	 
H 	 24.4613 	 5.00267 	 -109.92 	 
H 	 23.0324 	 3.98517 	 -110.142 	 
H 	 22.9307 	 5.55802 	 -110.806 	 
H 	 25.1573 	 -2.42783 	 -114.549 	 
H 	 24.6519 	 1.61249 	 -107.358 	 
*
