! wB97X-D3 SP def2-SVP
%pal
nprocs 24
end

* xyz 0 1
S 	 -116.681 	 34.0484 	 -17.068 	 
C 	 -115.958 	 32.7491 	 -17.9927 	 
C 	 -116.031 	 31.4293 	 -17.4133 	 
C 	 -116.884 	 31.4759 	 -16.2438 	 
C 	 -117.436 	 32.7351 	 -16.0305 	 
H 	 -117.252 	 30.6095 	 -15.6749 	 
C 	 -115.418 	 30.1749 	 -18.0203 	 
H 	 -114.595 	 29.8168 	 -17.357 	 
H 	 -114.804 	 30.4332 	 -18.9078 	 
C 	 -116.387 	 29.0224 	 -18.4398 	 
H 	 -116.78 	 28.4642 	 -17.6371 	 
H 	 -117.215 	 29.3754 	 -18.9808 	 
C 	 -115.619 	 28.1462 	 -19.5456 	 
H 	 -114.841 	 27.578 	 -18.9234 	 
H 	 -116.29 	 27.3023 	 -19.7986 	 
H 	 -115.106 	 28.5601 	 -20.3929 	 
S 	 -117.91 	 32.8016 	 -13.262 	 
C 	 -119.473 	 33.197 	 -12.6523 	 
C 	 -120.367 	 33.3489 	 -13.689 	 
C 	 -119.746 	 33.2998 	 -14.9841 	 
C 	 -118.363 	 33.1501 	 -14.9638 	 
H 	 -121.447 	 33.3732 	 -13.4413 	 
C 	 -120.599 	 33.3794 	 -16.2023 	 
H 	 -121.591 	 33.0524 	 -15.8807 	 
H 	 -120.311 	 32.6125 	 -16.9378 	 
C 	 -120.606 	 34.7263 	 -16.7997 	 
H 	 -119.717 	 35.0088 	 -17.4023 	 
H 	 -120.812 	 35.4518 	 -16.0151 	 
C 	 -121.729 	 34.9173 	 -17.7957 	 
H 	 -122.583 	 34.3375 	 -17.4061 	 
H 	 -121.348 	 34.4753 	 -18.6914 	 
H 	 -122.002 	 35.9993 	 -17.9263 	 
H 	 -115.277 	 32.8 	 -18.8742 	 
H 	 -119.986 	 33.0682 	 -11.6804 	 
*
