! wB97X-D3 SP def2-SVP
%pal
nprocs 24
end

* xyz 0 1
S 	 -67.7483 	 7.49704 	 -75.2288 	 
C 	 -66.4803 	 8.38653 	 -74.3983 	 
C 	 -66.7744 	 9.72146 	 -74.3963 	 
C 	 -68.0553 	 9.96091 	 -74.9457 	 
C 	 -68.7277 	 8.87995 	 -75.4315 	 
H 	 -68.351 	 10.9933 	 -74.9604 	 
C 	 -65.8424 	 10.7811 	 -73.8731 	 
H 	 -65.9573 	 11.5937 	 -74.5468 	 
H 	 -64.839 	 10.3392 	 -74.0324 	 
C 	 -65.9644 	 11.0537 	 -72.4127 	 
H 	 -65.2475 	 11.8203 	 -72.1132 	 
H 	 -67.0248 	 11.382 	 -72.2947 	 
C 	 -65.7743 	 9.89608 	 -71.4392 	 
H 	 -65.8573 	 10.2563 	 -70.39 	 
H 	 -66.4127 	 9.10549 	 -71.6923 	 
H 	 -64.7503 	 9.42877 	 -71.5176 	 
S 	 -70.2145 	 8.30525 	 -77.7621 	 
C 	 -71.9703 	 8.60738 	 -77.8321 	 
C 	 -72.3619 	 9.24784 	 -76.6415 	 
C 	 -71.3001 	 9.19838 	 -75.6558 	 
C 	 -70.0339 	 8.87954 	 -76.0739 	 
H 	 -73.4435 	 9.43045 	 -76.5007 	 
C 	 -71.6324 	 9.35094 	 -74.1794 	 
H 	 -70.8047 	 8.85692 	 -73.6689 	 
H 	 -72.6347 	 8.9015 	 -74.1558 	 
C 	 -71.8206 	 10.8207 	 -73.7387 	 
H 	 -72.5259 	 11.3254 	 -74.3175 	 
H 	 -70.8497 	 11.341 	 -73.8327 	 
C 	 -72.2239 	 10.8958 	 -72.2673 	 
H 	 -72.3442 	 11.8743 	 -71.8753 	 
H 	 -71.4968 	 10.488 	 -71.6226 	 
H 	 -73.1591 	 10.3928 	 -72.0709 	 
H 	 -65.5105 	 8.00519 	 -74.2922 	 
H 	 -72.5951 	 8.48916 	 -78.6888 	 
*
