! wB97X-D3 SP def2-SVP
%pal
nprocs 24
end

* xyz 0 1
S 	 -52.8628 	 22.0516 	 -94.7951 	 
C 	 -51.6073 	 21.8274 	 -93.6132 	 
C 	 -50.5685 	 21.1233 	 -94.0655 	 
C 	 -50.7598 	 20.7052 	 -95.4585 	 
C 	 -51.8971 	 21.2055 	 -96.0266 	 
H 	 -50.1278 	 20.0334 	 -96.0315 	 
C 	 -49.3602 	 20.7106 	 -93.3225 	 
H 	 -49.0611 	 21.3144 	 -92.4444 	 
H 	 -48.4756 	 20.7797 	 -94.019 	 
C 	 -49.4938 	 19.2648 	 -92.7524 	 
H 	 -50.0075 	 18.5568 	 -93.4526 	 
H 	 -48.4647 	 18.8908 	 -92.7292 	 
C 	 -50.0288 	 19.0814 	 -91.2499 	 
H 	 -51.0372 	 19.4162 	 -91.1717 	 
H 	 -50.061 	 18.0922 	 -90.864 	 
H 	 -49.4933 	 19.7412 	 -90.5143 	 
S 	 -53.1008 	 19.4033 	 -97.6582 	 
C 	 -53.2972 	 19.7856 	 -99.3653 	 
C 	 -52.533 	 20.8862 	 -99.7384 	 
C 	 -52.088 	 21.6198 	 -98.5872 	 
C 	 -52.3776 	 20.9467 	 -97.3803 	 
H 	 -52.3471 	 21.1682 	 -100.741 	 
C 	 -51.3274 	 22.9564 	 -98.7006 	 
H 	 -50.3057 	 22.8122 	 -99.0246 	 
H 	 -51.3368 	 23.5103 	 -97.7593 	 
C 	 -51.953 	 23.9168 	 -99.677 	 
H 	 -53.0183 	 24.011 	 -99.5224 	 
H 	 -51.9005 	 23.5295 	 -100.658 	 
C 	 -51.2449 	 25.3349 	 -99.8249 	 
H 	 -51.5757 	 25.9487 	 -100.689 	 
H 	 -50.1058 	 25.2319 	 -99.8696 	 
H 	 -51.4497 	 26.0146 	 -98.9072 	 
H 	 -51.6465 	 22.0809 	 -92.5509 	 
H 	 -53.8175 	 19.0914 	 -99.9036 	 
*
