! wB97X-D3 SP def2-SVP
%pal
nprocs 24
end

* xyz 0 1
S 	 -121.425 	 27.8274 	 -115.456 	 
C 	 -121.962 	 27.1051 	 -116.947 	 
C 	 -121.806 	 28.0386 	 -117.943 	 
C 	 -121.169 	 29.2474 	 -117.523 	 
C 	 -120.848 	 29.2942 	 -116.128 	 
H 	 -120.841 	 29.957 	 -118.28 	 
C 	 -122.082 	 27.7833 	 -119.417 	 
H 	 -122.012 	 26.6932 	 -119.601 	 
H 	 -121.356 	 28.3418 	 -120.036 	 
C 	 -123.477 	 28.2005 	 -119.963 	 
H 	 -123.599 	 29.2006 	 -119.544 	 
H 	 -123.473 	 28.2099 	 -121.048 	 
C 	 -124.628 	 27.2549 	 -119.539 	 
H 	 -124.628 	 26.3489 	 -120.12 	 
H 	 -124.471 	 26.9312 	 -118.545 	 
H 	 -125.587 	 27.8134 	 -119.642 	 
S 	 -120.277 	 31.9507 	 -116.219 	 
C 	 -118.86 	 32.5513 	 -115.37 	 
C 	 -118.471 	 31.6501 	 -114.352 	 
C 	 -119.15 	 30.3757 	 -114.482 	 
C 	 -120.138 	 30.3514 	 -115.504 	 
H 	 -117.828 	 31.9947 	 -113.499 	 
C 	 -118.74 	 29.2196 	 -113.569 	 
H 	 -118.129 	 28.5067 	 -114.254 	 
H 	 -119.718 	 28.7727 	 -113.291 	 
C 	 -117.783 	 29.4699 	 -112.328 	 
H 	 -117.895 	 28.6513 	 -111.62 	 
H 	 -118.067 	 30.4104 	 -111.86 	 
C 	 -116.271 	 29.6409 	 -112.61 	 
H 	 -115.85 	 29.0691 	 -113.427 	 
H 	 -115.619 	 29.5811 	 -111.738 	 
H 	 -116.093 	 30.6561 	 -113.071 	 
H 	 -122.443 	 26.1439 	 -117.039 	 
H 	 -118.649 	 33.5788 	 -115.312 	 
*
