! wB97X-D3 SP def2-SVP
%pal
nprocs 24
end

* xyz 0 1
S 	 -19.2448 	 -33.3308 	 -92.2662 	 
C 	 -17.7797 	 -33.6188 	 -93.0982 	 
C 	 -17.6904 	 -32.7762 	 -94.262 	 
C 	 -18.8984 	 -32.0927 	 -94.436 	 
C 	 -19.8058 	 -32.0978 	 -93.3819 	 
H 	 -19.0775 	 -31.4258 	 -95.3233 	 
C 	 -16.6363 	 -32.7047 	 -95.3289 	 
H 	 -15.8907 	 -32.0585 	 -94.9367 	 
H 	 -17.2183 	 -32.2027 	 -96.1309 	 
C 	 -16.0761 	 -34.0514 	 -95.8424 	 
H 	 -15.3864 	 -33.8133 	 -96.6335 	 
H 	 -15.4489 	 -34.4559 	 -95.065 	 
C 	 -17.216 	 -34.9805 	 -96.2893 	 
H 	 -16.7723 	 -35.8332 	 -96.807 	 
H 	 -17.9192 	 -35.3742 	 -95.5421 	 
H 	 -17.9039 	 -34.4523 	 -96.9163 	 
S 	 -22.4088 	 -32.7014 	 -93.0219 	 
C 	 -23.635 	 -31.4433 	 -93.2874 	 
C 	 -23.0356 	 -30.2341 	 -93.4928 	 
C 	 -21.6385 	 -30.3185 	 -93.5602 	 
C 	 -21.1233 	 -31.5498 	 -93.2645 	 
H 	 -23.6882 	 -29.3518 	 -93.5229 	 
C 	 -20.927 	 -28.9906 	 -93.7641 	 
H 	 -21.663 	 -28.3782 	 -94.2392 	 
H 	 -20.0367 	 -29.1526 	 -94.392 	 
C 	 -20.5554 	 -28.2592 	 -92.4448 	 
H 	 -19.881 	 -28.8734 	 -91.8818 	 
H 	 -21.4591 	 -28.362 	 -91.8456 	 
C 	 -20.1449 	 -26.8148 	 -92.4777 	 
H 	 -21.0213 	 -26.2364 	 -92.8787 	 
H 	 -19.2341 	 -26.6909 	 -93.1067 	 
H 	 -19.9688 	 -26.5217 	 -91.4163 	 
H 	 -17.2257 	 -34.4073 	 -92.7386 	 
H 	 -24.7153 	 -31.6691 	 -93.3294 	 
*
