! wB97X-D3 SP def2-SVP
%pal
nprocs 24
end

* xyz 0 1
S 	 -88.2289 	 -47.3549 	 -83.9986 	 
C 	 -89.5493 	 -46.3221 	 -83.5406 	 
C 	 -89.7704 	 -46.3813 	 -82.1332 	 
C 	 -88.8441 	 -47.2279 	 -81.451 	 
C 	 -87.9395 	 -47.823 	 -82.3165 	 
H 	 -88.7681 	 -47.4223 	 -80.3837 	 
C 	 -90.9536 	 -45.6969 	 -81.5383 	 
H 	 -91.2499 	 -44.7656 	 -81.9461 	 
H 	 -90.5921 	 -45.4642 	 -80.5381 	 
C 	 -92.2101 	 -46.6265 	 -81.2668 	 
H 	 -91.9501 	 -47.6761 	 -80.8697 	 
H 	 -92.7223 	 -46.1991 	 -80.3981 	 
C 	 -93.0017 	 -46.765 	 -82.5493 	 
H 	 -93.5461 	 -47.7093 	 -82.5525 	 
H 	 -93.7424 	 -45.9339 	 -82.6615 	 
H 	 -92.3709 	 -46.7573 	 -83.4181 	 
S 	 -86.6931 	 -50.2568 	 -82.9358 	 
C 	 -85.1687 	 -50.8469 	 -82.1913 	 
C 	 -84.8219 	 -49.834 	 -81.3461 	 
C 	 -85.6829 	 -48.6803 	 -81.1804 	 
C 	 -86.8018 	 -48.6982 	 -82.0664 	 
H 	 -83.8743 	 -49.9314 	 -80.9518 	 
C 	 -85.3643 	 -47.5342 	 -80.2614 	 
H 	 -86.1061 	 -46.7386 	 -80.2824 	 
H 	 -84.4387 	 -47.0334 	 -80.5659 	 
C 	 -85.0935 	 -47.907 	 -78.7764 	 
H 	 -84.2535 	 -48.6586 	 -78.6589 	 
H 	 -86.01 	 -48.4281 	 -78.4684 	 
C 	 -84.7623 	 -46.7241 	 -77.8447 	 
H 	 -85.6464 	 -46.2087 	 -77.54 	 
H 	 -84.0865 	 -46.0017 	 -78.3045 	 
H 	 -84.1677 	 -47.0473 	 -76.9544 	 
H 	 -90.186 	 -45.805 	 -84.2707 	 
H 	 -84.4902 	 -51.52 	 -82.6724 	 
*
