! wB97X-D3 SP def2-SVP
%pal
nprocs 24
end

* xyz 0 1
S 	 -42.415 	 -50.4272 	 -71.5195 	 
C 	 -40.8558 	 -49.8662 	 -70.8491 	 
C 	 -40.8413 	 -49.8465 	 -69.4613 	 
C 	 -42.0732 	 -50.2957 	 -68.9128 	 
C 	 -43.071 	 -50.4177 	 -69.8811 	 
H 	 -42.2681 	 -50.3484 	 -67.8633 	 
C 	 -39.6652 	 -49.4362 	 -68.5976 	 
H 	 -38.9847 	 -49.0233 	 -69.3183 	 
H 	 -39.2391 	 -50.3521 	 -68.181 	 
C 	 -40.1321 	 -48.5596 	 -67.4269 	 
H 	 -40.6508 	 -47.7358 	 -67.8464 	 
H 	 -40.6699 	 -49.1042 	 -66.6457 	 
C 	 -38.8277 	 -48.1158 	 -66.7879 	 
H 	 -38.9709 	 -47.4304 	 -65.9537 	 
H 	 -38.314 	 -49.0018 	 -66.4164 	 
H 	 -38.109 	 -47.6658 	 -67.5233 	 
S 	 -45.3855 	 -51.3688 	 -70.928 	 
C 	 -46.7827 	 -51.6008 	 -69.8519 	 
C 	 -46.4806 	 -51.2506 	 -68.5682 	 
C 	 -45.1833 	 -50.6379 	 -68.4572 	 
C 	 -44.4324 	 -50.782 	 -69.5981 	 
H 	 -47.2516 	 -51.3913 	 -67.7956 	 
C 	 -44.6966 	 -50.1571 	 -67.1307 	 
H 	 -45.4665 	 -49.7454 	 -66.6201 	 
H 	 -43.9636 	 -49.3268 	 -67.2357 	 
C 	 -44.1459 	 -51.2936 	 -66.2709 	 
H 	 -43.3219 	 -51.7162 	 -66.8426 	 
H 	 -44.8789 	 -52.0982 	 -66.1082 	 
C 	 -43.7732 	 -50.9882 	 -64.7798 	 
H 	 -43.1182 	 -50.143 	 -64.5806 	 
H 	 -43.3869 	 -51.8621 	 -64.2756 	 
H 	 -44.6795 	 -50.6288 	 -64.2662 	 
H 	 -39.929 	 -49.5961 	 -71.3517 	 
H 	 -47.7573 	 -51.8409 	 -70.1448 	 
*
