! wB97X-D3 SP def2-SVP
%pal
nprocs 24
end

* xyz 0 1
S 	 -63.9976 	 -50.1159 	 -81.5196 	 
C 	 -63.2072 	 -51.6403 	 -81.4957 	 
C 	 -64.0782 	 -52.7129 	 -81.669 	 
C 	 -65.3681 	 -52.2106 	 -81.9672 	 
C 	 -65.4962 	 -50.8094 	 -82.034 	 
H 	 -66.2735 	 -52.8064 	 -82.0873 	 
C 	 -63.6844 	 -54.22 	 -81.6041 	 
H 	 -62.5318 	 -54.342 	 -81.4511 	 
H 	 -63.8404 	 -54.6203 	 -82.608 	 
C 	 -64.3314 	 -55.0971 	 -80.5115 	 
H 	 -64.2471 	 -54.7942 	 -79.4947 	 
H 	 -65.4099 	 -55.2545 	 -80.6323 	 
C 	 -63.6869 	 -56.5143 	 -80.4286 	 
H 	 -62.7383 	 -56.4535 	 -79.8595 	 
H 	 -64.3786 	 -57.1974 	 -79.8397 	 
H 	 -63.275 	 -56.8702 	 -81.3993 	 
S 	 -67.3938 	 -49.2025 	 -80.9608 	 
C 	 -68.853 	 -48.8597 	 -81.8065 	 
C 	 -68.6932 	 -49.2109 	 -83.1299 	 
C 	 -67.4658 	 -49.8686 	 -83.4436 	 
C 	 -66.6871 	 -50.0473 	 -82.3148 	 
H 	 -69.4304 	 -48.9478 	 -83.8499 	 
C 	 -67.2537 	 -50.5042 	 -84.8027 	 
H 	 -66.22 	 -50.2547 	 -85.1132 	 
H 	 -68.0251 	 -49.9862 	 -85.4237 	 
C 	 -67.3727 	 -52.0698 	 -84.9095 	 
H 	 -66.4992 	 -52.4584 	 -84.3576 	 
H 	 -67.2647 	 -52.3909 	 -85.9575 	 
C 	 -68.7232 	 -52.63 	 -84.4309 	 
H 	 -68.8932 	 -52.542 	 -83.3667 	 
H 	 -68.7297 	 -53.7405 	 -84.4499 	 
H 	 -69.5445 	 -52.0889 	 -84.855 	 
H 	 -62.2687 	 -51.9664 	 -81.0838 	 
H 	 -69.6807 	 -48.3535 	 -81.29 	 
*
