! wB97X-D3 SP def2-SVP
%pal
nprocs 24
end

* xyz 0 1
S 	 1.81546 	 -16.784 	 -103.286 	 
C 	 2.32433 	 -16.9701 	 -104.938 	 
C 	 1.48173 	 -16.3277 	 -105.799 	 
C 	 0.339502 	 -15.7979 	 -105.222 	 
C 	 0.414585 	 -15.7986 	 -103.844 	 
H 	 -0.479033 	 -15.2181 	 -105.674 	 
C 	 1.66427 	 -16.4112 	 -107.32 	 
H 	 2.59485 	 -15.8952 	 -107.567 	 
H 	 0.756054 	 -15.8925 	 -107.648 	 
C 	 1.60998 	 -17.861 	 -108.003 	 
H 	 2.15493 	 -18.4707 	 -107.263 	 
H 	 0.602863 	 -18.1986 	 -108.073 	 
C 	 2.16321 	 -17.7585 	 -109.43 	 
H 	 2.17145 	 -18.7605 	 -109.922 	 
H 	 1.65678 	 -17.0785 	 -110.034 	 
H 	 3.18444 	 -17.4561 	 -109.357 	 
S 	 -1.43729 	 -16.6719 	 -102.002 	 
C 	 -2.18911 	 -15.5299 	 -100.942 	 
C 	 -1.84813 	 -14.211 	 -101.218 	 
C 	 -0.899227 	 -14.1518 	 -102.292 	 
C 	 -0.685677 	 -15.4102 	 -102.953 	 
H 	 -2.15373 	 -13.3585 	 -100.636 	 
C 	 -0.188412 	 -12.8403 	 -102.504 	 
H 	 0.156961 	 -13.008 	 -103.531 	 
H 	 0.779752 	 -12.834 	 -102.031 	 
C 	 -0.98184 	 -11.4895 	 -102.337 	 
H 	 -1.6459 	 -11.4134 	 -101.498 	 
H 	 -1.63795 	 -11.4848 	 -103.278 	 
C 	 -0.0608025 	 -10.2833 	 -102.642 	 
H 	 -0.658223 	 -9.37935 	 -102.682 	 
H 	 0.477117 	 -10.2629 	 -103.639 	 
H 	 0.698456 	 -10.1612 	 -101.848 	 
H 	 3.20734 	 -17.4057 	 -105.21 	 
H 	 -2.66091 	 -15.7424 	 -100.003 	 
*
