! wB97X-D3 SP def2-SVP
%pal
nprocs 24
end

* xyz 0 1
S 	 -58.6957 	 -1.65348 	 -30.9741 	 
C 	 -59.5603 	 -1.21917 	 -29.4945 	 
C 	 -59.0917 	 0.00825427 	 -29.0021 	 
C 	 -58.2118 	 0.634927 	 -29.9208 	 
C 	 -57.8735 	 -0.116198 	 -31.0127 	 
H 	 -57.7849 	 1.64003 	 -29.828 	 
C 	 -59.7221 	 0.642314 	 -27.727 	 
H 	 -59.0582 	 1.47237 	 -27.5635 	 
H 	 -59.6268 	 -0.129007 	 -26.9644 	 
C 	 -61.124 	 1.17552 	 -27.9204 	 
H 	 -61.1111 	 1.74155 	 -28.8874 	 
H 	 -61.8652 	 0.371853 	 -27.9278 	 
C 	 -61.5035 	 2.1053 	 -26.7227 	 
H 	 -60.8021 	 2.84977 	 -26.4474 	 
H 	 -62.5686 	 2.46167 	 -26.8395 	 
H 	 -61.5616 	 1.41223 	 -25.8279 	 
S 	 -58.0982 	 0.782657 	 -33.5021 	 
C 	 -56.7123 	 1.18043 	 -34.4901 	 
C 	 -55.5367 	 1.17868 	 -33.7418 	 
C 	 -55.7273 	 0.618848 	 -32.4203 	 
C 	 -57.1048 	 0.301745 	 -32.1479 	 
H 	 -54.6049 	 1.37721 	 -34.1536 	 
C 	 -54.5365 	 0.356194 	 -31.4351 	 
H 	 -53.8184 	 -0.0761763 	 -32.1343 	 
H 	 -54.7691 	 -0.448806 	 -30.7766 	 
C 	 -54.0588 	 1.61084 	 -30.6932 	 
H 	 -53.2321 	 1.23537 	 -30.0301 	 
H 	 -54.7627 	 1.96741 	 -29.9164 	 
C 	 -53.6704 	 2.82146 	 -31.5107 	 
H 	 -54.5579 	 3.20025 	 -32.0735 	 
H 	 -53.0237 	 2.60458 	 -32.352 	 
H 	 -53.4131 	 3.70859 	 -30.9799 	 
H 	 -60.2522 	 -1.85737 	 -29.0021 	 
H 	 -56.8711 	 1.34885 	 -35.5797 	 
*
