! wB97X-D3 SP def2-SVP
%pal
nprocs 24
end

* xyz 0 1
S 	 -63.7703 	 -51.3219 	 -84.3344 	 
C 	 -64.0188 	 -52.0984 	 -82.7565 	 
C 	 -65.0898 	 -51.6219 	 -82.0268 	 
C 	 -65.7378 	 -50.6244 	 -82.7459 	 
C 	 -65.1991 	 -50.3173 	 -83.9878 	 
H 	 -66.6796 	 -50.2229 	 -82.3764 	 
C 	 -65.6405 	 -52.0056 	 -80.6495 	 
H 	 -66.7369 	 -51.9901 	 -80.557 	 
H 	 -65.1831 	 -51.2518 	 -80.0038 	 
C 	 -65.204 	 -53.4254 	 -80.1076 	 
H 	 -65.3201 	 -54.1709 	 -80.8747 	 
H 	 -64.1043 	 -53.4226 	 -79.9555 	 
C 	 -65.9434 	 -53.9998 	 -78.8993 	 
H 	 -65.6939 	 -55.0275 	 -78.6695 	 
H 	 -65.6275 	 -53.407 	 -78.0471 	 
H 	 -66.9919 	 -53.853 	 -78.949 	 
S 	 -64.9087 	 -47.6717 	 -84.8843 	 
C 	 -66.0731 	 -47.1959 	 -86.1241 	 
C 	 -67.0154 	 -48.1613 	 -86.3654 	 
C 	 -66.7683 	 -49.4073 	 -85.7572 	 
C 	 -65.6775 	 -49.2697 	 -84.899 	 
H 	 -67.7138 	 -47.9566 	 -87.1737 	 
C 	 -67.6649 	 -50.6257 	 -85.8823 	 
H 	 -66.9634 	 -51.5205 	 -85.845 	 
H 	 -67.9592 	 -50.6944 	 -86.9055 	 
C 	 -68.8114 	 -50.6917 	 -84.8438 	 
H 	 -68.518 	 -50.4706 	 -83.8089 	 
H 	 -69.2664 	 -51.7067 	 -84.7545 	 
C 	 -70.0722 	 -49.8947 	 -85.3346 	 
H 	 -69.7667 	 -48.8473 	 -85.3132 	 
H 	 -70.9198 	 -50.0779 	 -84.7023 	 
H 	 -70.2254 	 -50.2973 	 -86.3156 	 
H 	 -63.3876 	 -52.918 	 -82.3712 	 
H 	 -66.1528 	 -46.2683 	 -86.6208 	 
*
