! wB97X-D3 SP def2-SVP
%pal
nprocs 24
end

* xyz 0 1
S 	 -95.6158 	 42.0568 	 -86.4619 	 
C 	 -95.9834 	 40.6933 	 -85.4018 	 
C 	 -96.0368 	 39.552 	 -86.1567 	 
C 	 -95.9832 	 39.7884 	 -87.5385 	 
C 	 -95.8726 	 41.1502 	 -87.8636 	 
H 	 -96.0794 	 39.0479 	 -88.3074 	 
C 	 -96.2867 	 38.1284 	 -85.6402 	 
H 	 -95.3275 	 37.6156 	 -85.8301 	 
H 	 -96.9049 	 37.6674 	 -86.3354 	 
C 	 -96.8726 	 37.8065 	 -84.2372 	 
H 	 -96.1063 	 37.9717 	 -83.3654 	 
H 	 -97.7454 	 38.4962 	 -84.0878 	 
C 	 -97.3573 	 36.3747 	 -84.1612 	 
H 	 -96.7388 	 35.6228 	 -84.75 	 
H 	 -97.2239 	 35.9592 	 -83.1226 	 
H 	 -98.3551 	 36.2292 	 -84.4488 	 
S 	 -95.513 	 43.4273 	 -89.3597 	 
C 	 -95.8636 	 43.4284 	 -91.0805 	 
C 	 -96.0273 	 42.1193 	 -91.5188 	 
C 	 -96.0252 	 41.1379 	 -90.4991 	 
C 	 -95.7811 	 41.6694 	 -89.2546 	 
H 	 -96.3295 	 41.9286 	 -92.4857 	 
C 	 -96.1935 	 39.7036 	 -90.8368 	 
H 	 -95.507 	 38.9894 	 -90.3834 	 
H 	 -96.036 	 39.5396 	 -91.9176 	 
C 	 -97.616 	 39.1231 	 -90.4339 	 
H 	 -98.0104 	 39.4017 	 -89.4401 	 
H 	 -97.5963 	 37.995 	 -90.4708 	 
C 	 -98.6509 	 39.6134 	 -91.4601 	 
H 	 -99.6258 	 39.2107 	 -91.1534 	 
H 	 -98.5226 	 39.2959 	 -92.4853 	 
H 	 -98.7189 	 40.6779 	 -91.5338 	 
H 	 -96.0236 	 40.6979 	 -84.3295 	 
H 	 -95.7952 	 44.256 	 -91.7513 	 
*
