! wB97X-D3 SP def2-SVP
%pal
nprocs 24
end

* xyz 0 1
S 	 -119.845 	 38.3651 	 -122.144 	 
C 	 -118.409 	 37.7825 	 -123.008 	 
C 	 -117.916 	 36.6861 	 -122.38 	 
C 	 -118.712 	 36.165 	 -121.368 	 
C 	 -119.694 	 37.0966 	 -121.006 	 
H 	 -118.404 	 35.3709 	 -120.686 	 
C 	 -116.614 	 35.9347 	 -122.781 	 
H 	 -116.963 	 35.3444 	 -123.576 	 
H 	 -116.383 	 35.2297 	 -121.984 	 
C 	 -115.387 	 36.7301 	 -123.241 	 
H 	 -114.677 	 36.0584 	 -123.797 	 
H 	 -115.684 	 37.3839 	 -124.021 	 
C 	 -114.543 	 37.1724 	 -122.047 	 
H 	 -113.455 	 37.2155 	 -122.3 	 
H 	 -114.821 	 38.1274 	 -121.748 	 
H 	 -114.594 	 36.4542 	 -121.219 	 
S 	 -122.162 	 36.871 	 -119.824 	 
C 	 -122.248 	 36.7493 	 -118.071 	 
C 	 -120.974 	 36.6952 	 -117.484 	 
C 	 -119.943 	 36.8626 	 -118.381 	 
C 	 -120.397 	 37.0384 	 -119.737 	 
H 	 -120.963 	 36.3847 	 -116.425 	 
C 	 -118.495 	 37.0065 	 -117.939 	 
H 	 -118.407 	 37.9415 	 -117.351 	 
H 	 -117.803 	 37.2197 	 -118.843 	 
C 	 -117.81 	 35.7945 	 -117.343 	 
H 	 -116.775 	 36.0631 	 -117.27 	 
H 	 -117.757 	 34.9173 	 -117.939 	 
C 	 -118.52 	 35.2283 	 -116.064 	 
H 	 -119.489 	 34.7516 	 -116.224 	 
H 	 -118.552 	 35.9481 	 -115.293 	 
H 	 -117.933 	 34.3783 	 -115.622 	 
H 	 -117.929 	 38.2465 	 -123.865 	 
H 	 -123.143 	 36.6972 	 -117.617 	 
*
