! wB97X-D3 SP def2-SVP
%pal
nprocs 24
end

* xyz 0 1
S 	 -72.1776 	 -43.4101 	 -93.5111 	 
C 	 -72.2549 	 -41.7495 	 -93.0484 	 
C 	 -72.7131 	 -40.9797 	 -94.1388 	 
C 	 -72.7561 	 -41.6864 	 -95.3434 	 
C 	 -72.5562 	 -42.9843 	 -95.184 	 
H 	 -73.0041 	 -41.2754 	 -96.2698 	 
C 	 -73.0118 	 -39.4855 	 -93.9639 	 
H 	 -73.488 	 -39.3632 	 -92.9916 	 
H 	 -73.8036 	 -39.133 	 -94.5748 	 
C 	 -71.7914 	 -38.5495 	 -94.1615 	 
H 	 -72.0777 	 -37.5434 	 -93.8155 	 
H 	 -70.9587 	 -38.9236 	 -93.5411 	 
C 	 -71.2466 	 -38.3912 	 -95.5706 	 
H 	 -70.3114 	 -37.832 	 -95.4909 	 
H 	 -70.8001 	 -39.3115 	 -96.0356 	 
H 	 -71.9475 	 -37.9293 	 -96.2999 	 
S 	 -71.1354 	 -45.0106 	 -96.4762 	 
C 	 -71.8724 	 -45.6948 	 -97.8883 	 
C 	 -73.1806 	 -45.2112 	 -98.0383 	 
C 	 -73.5598 	 -44.0975 	 -97.1627 	 
C 	 -72.5723 	 -43.9401 	 -96.2364 	 
H 	 -73.7262 	 -45.4995 	 -98.9749 	 
C 	 -74.8577 	 -43.3015 	 -97.2706 	 
H 	 -75.4798 	 -43.6925 	 -98.0313 	 
H 	 -74.775 	 -42.1772 	 -97.5619 	 
C 	 -75.7235 	 -43.4271 	 -96.0145 	 
H 	 -76.6232 	 -42.7883 	 -96.0115 	 
H 	 -75.1871 	 -43.1003 	 -95.1089 	 
C 	 -76.1482 	 -44.9835 	 -95.837 	 
H 	 -76.8773 	 -45.0155 	 -94.9589 	 
H 	 -75.2663 	 -45.5661 	 -95.5925 	 
H 	 -76.7452 	 -45.4207 	 -96.5877 	 
H 	 -72.1313 	 -41.5349 	 -91.9881 	 
H 	 -71.5213 	 -46.5498 	 -98.4525 	 
*
