! wB97X-D3 SP def2-SVP
%pal
nprocs 24
end

* xyz 0 1
S 	 29.2236 	 0.0555255 	 -117.943 	 
C 	 29.2994 	 0.976229 	 -119.427 	 
C 	 29.1695 	 2.33052 	 -119.197 	 
C 	 28.8698 	 2.61493 	 -117.818 	 
C 	 28.6975 	 1.5037 	 -117.065 	 
H 	 28.7092 	 3.54315 	 -117.376 	 
C 	 29.4355 	 3.40657 	 -120.132 	 
H 	 28.4973 	 3.85716 	 -120.434 	 
H 	 29.6807 	 2.94655 	 -121.07 	 
C 	 30.6197 	 4.37279 	 -119.792 	 
H 	 30.3029 	 4.94708 	 -118.968 	 
H 	 31.4381 	 3.76433 	 -119.383 	 
C 	 30.9539 	 5.33561 	 -120.945 	 
H 	 31.7745 	 5.97916 	 -120.751 	 
H 	 31.2532 	 4.81513 	 -121.861 	 
H 	 30.0687 	 5.97987 	 -121.138 	 
S 	 26.8884 	 1.77428 	 -114.997 	 
C 	 27.3871 	 1.42626 	 -113.365 	 
C 	 28.6826 	 0.988141 	 -113.365 	 
C 	 29.3206 	 0.983324 	 -114.626 	 
C 	 28.454 	 1.42642 	 -115.621 	 
H 	 29.1579 	 0.819057 	 -112.416 	 
C 	 30.725 	 0.613426 	 -114.864 	 
H 	 30.8138 	 -0.294775 	 -115.51 	 
H 	 31.1117 	 0.242438 	 -113.936 	 
C 	 31.5685 	 1.86605 	 -115.381 	 
H 	 31.2239 	 2.09324 	 -116.436 	 
H 	 32.6115 	 1.45135 	 -115.495 	 
C 	 31.7059 	 3.15831 	 -114.494 	 
H 	 32.3767 	 3.14429 	 -113.602 	 
H 	 30.7564 	 3.48208 	 -114.088 	 
H 	 32.0043 	 3.99893 	 -115.151 	 
H 	 29.6607 	 0.590035 	 -120.361 	 
H 	 26.8423 	 1.54286 	 -112.451 	 
*
