! wB97X-D3 SP def2-SVP
%pal
nprocs 24
end

* xyz 0 1
S 	 -46.6591 	 17.328 	 24.7943 	 
C 	 -48.0158 	 18.3021 	 25.3555 	 
C 	 -48.4361 	 17.8602 	 26.5788 	 
C 	 -47.5764 	 16.8524 	 27.1292 	 
C 	 -46.4321 	 16.6418 	 26.3839 	 
H 	 -47.6578 	 16.4111 	 28.1296 	 
C 	 -49.6955 	 18.3047 	 27.2777 	 
H 	 -49.7477 	 19.3856 	 27.095 	 
H 	 -49.5595 	 18.1768 	 28.3631 	 
C 	 -51.0234 	 17.4971 	 26.8563 	 
H 	 -50.8948 	 16.3974 	 26.798 	 
H 	 -51.8559 	 17.6341 	 27.5602 	 
C 	 -51.5835 	 18.0023 	 25.5318 	 
H 	 -50.8003 	 17.8216 	 24.8526 	 
H 	 -52.609 	 17.6701 	 25.2547 	 
H 	 -51.5688 	 19.1783 	 25.5106 	 
S 	 -44.6261 	 14.6867 	 25.7026 	 
C 	 -43.3207 	 14.4108 	 26.749 	 
C 	 -43.2869 	 15.2682 	 27.8346 	 
C 	 -44.3886 	 16.2274 	 27.82 	 
C 	 -45.2415 	 15.9615 	 26.7695 	 
H 	 -42.4286 	 15.2578 	 28.4975 	 
C 	 -44.6166 	 17.324 	 28.7806 	 
H 	 -45.1866 	 18.0398 	 28.3691 	 
H 	 -43.6551 	 17.8019 	 28.7628 	 
C 	 -45.1902 	 17.0071 	 30.1932 	 
H 	 -46.1236 	 16.478 	 30.0607 	 
H 	 -45.3286 	 17.876 	 30.8228 	 
C 	 -44.3713 	 16.0494 	 31.0766 	 
H 	 -43.3719 	 16.4949 	 31.3377 	 
H 	 -44.0976 	 15.2167 	 30.5015 	 
H 	 -44.9193 	 15.9444 	 32.0277 	 
H 	 -48.6738 	 19.0145 	 24.9063 	 
H 	 -42.432 	 13.7874 	 26.4846 	 
*
