! wB97X-D3 SP def2-SVP
%pal
nprocs 24
end

* xyz 0 1
S 	 -96.7019 	 9.36691 	 -4.46753 	 
C 	 -95.6656 	 10.0658 	 -5.69202 	 
C 	 -94.7653 	 9.15502 	 -6.11611 	 
C 	 -94.9475 	 7.89647 	 -5.53517 	 
C 	 -95.8174 	 7.84453 	 -4.53075 	 
H 	 -94.4175 	 7.07503 	 -5.90443 	 
C 	 -93.7778 	 9.49214 	 -7.21667 	 
H 	 -94.0998 	 10.3266 	 -7.79293 	 
H 	 -93.7333 	 8.57287 	 -7.84579 	 
C 	 -92.3157 	 9.69464 	 -6.66114 	 
H 	 -92.3051 	 10.5625 	 -5.95352 	 
H 	 -91.9523 	 8.87657 	 -6.0693 	 
C 	 -91.2516 	 10.0631 	 -7.68299 	 
H 	 -91.082 	 9.20392 	 -8.38542 	 
H 	 -91.4459 	 10.9698 	 -8.28246 	 
H 	 -90.2225 	 10.1097 	 -7.292 	 
S 	 -98.0439 	 6.54559 	 -3.68451 	 
C 	 -97.8555 	 4.98362 	 -2.98025 	 
C 	 -96.5507 	 4.7549 	 -2.48917 	 
C 	 -95.63 	 5.74521 	 -2.97977 	 
C 	 -96.3165 	 6.70545 	 -3.78081 	 
H 	 -96.3679 	 3.85758 	 -1.95624 	 
C 	 -94.159 	 5.58276 	 -2.77578 	 
H 	 -93.6526 	 6.13602 	 -3.55932 	 
H 	 -94.0073 	 4.48656 	 -2.82258 	 
C 	 -93.6326 	 6.31276 	 -1.54403 	 
H 	 -94.325 	 6.20915 	 -0.711656 	 
H 	 -93.6534 	 7.33848 	 -1.77405 	 
C 	 -92.2455 	 5.8557 	 -1.08898 	 
H 	 -91.6969 	 6.72567 	 -0.770771 	 
H 	 -91.6363 	 5.37708 	 -1.90424 	 
H 	 -92.3353 	 5.14858 	 -0.287286 	 
H 	 -95.4562 	 11.1024 	 -5.92666 	 
H 	 -98.7196 	 4.41189 	 -2.57812 	 
*
