! wB97X-D3 SP def2-SVP
%pal
nprocs 24
end

* xyz 0 1
S 	 -101.551 	 39.6923 	 -89.4085 	 
C 	 -101.756 	 39.4817 	 -87.6691 	 
C 	 -101.844 	 40.6613 	 -86.9675 	 
C 	 -101.726 	 41.7351 	 -87.9218 	 
C 	 -101.736 	 41.4071 	 -89.2404 	 
H 	 -101.746 	 42.7973 	 -87.5575 	 
C 	 -101.882 	 40.9209 	 -85.4581 	 
H 	 -101.155 	 41.7499 	 -85.2393 	 
H 	 -101.442 	 40.1107 	 -84.9194 	 
C 	 -103.325 	 41.2386 	 -85.0371 	 
H 	 -103.664 	 42.2041 	 -85.4921 	 
H 	 -103.962 	 40.3635 	 -85.4711 	 
C 	 -103.428 	 41.3146 	 -83.4677 	 
H 	 -102.557 	 41.9589 	 -83.0676 	 
H 	 -104.293 	 41.9003 	 -83.1856 	 
H 	 -103.334 	 40.2755 	 -82.977 	 
S 	 -100.066 	 42.3105 	 -91.1541 	 
C 	 -100.445 	 43.7837 	 -92.0607 	 
C 	 -101.719 	 44.2441 	 -91.8436 	 
C 	 -102.377 	 43.4677 	 -90.7865 	 
C 	 -101.631 	 42.2992 	 -90.3646 	 
H 	 -102.163 	 45.0633 	 -92.4024 	 
C 	 -103.731 	 43.8488 	 -90.196 	 
H 	 -103.549 	 44.2324 	 -89.1931 	 
H 	 -104.288 	 42.8722 	 -90.1045 	 
C 	 -104.64 	 44.6734 	 -91.1303 	 
H 	 -104.658 	 44.2026 	 -92.1016 	 
H 	 -104.211 	 45.7116 	 -91.2876 	 
C 	 -106.069 	 44.6644 	 -90.6837 	 
H 	 -106.423 	 43.685 	 -90.9267 	 
H 	 -106.632 	 45.439 	 -91.2742 	 
H 	 -106.161 	 44.978 	 -89.6023 	 
H 	 -101.947 	 38.483 	 -87.3311 	 
H 	 -99.7752 	 44.1231 	 -92.8959 	 
*
