! wB97X-D3 SP def2-SVP
%pal
nprocs 24
end

* xyz 0 1
S 	 -83.5524 	 -36.4112 	 -77.7999 	 
C 	 -83.4712 	 -36.4117 	 -79.535 	 
C 	 -83.7847 	 -35.1948 	 -80.137 	 
C 	 -83.9638 	 -34.1792 	 -79.1034 	 
C 	 -83.7419 	 -34.6847 	 -77.806 	 
H 	 -84.3605 	 -33.1729 	 -79.2802 	 
C 	 -83.896 	 -34.9269 	 -81.5983 	 
H 	 -84.7559 	 -34.313 	 -81.5978 	 
H 	 -84.09 	 -35.8019 	 -82.2317 	 
C 	 -82.7555 	 -34.1821 	 -82.2422 	 
H 	 -83.0155 	 -33.8193 	 -83.2382 	 
H 	 -82.5023 	 -33.2416 	 -81.6733 	 
C 	 -81.4854 	 -34.9634 	 -82.2849 	 
H 	 -81.3826 	 -35.7353 	 -81.4297 	 
H 	 -81.4573 	 -35.546 	 -83.2024 	 
H 	 -80.6424 	 -34.2738 	 -82.305 	 
S 	 -85.3852 	 -34.2967 	 -75.6745 	 
C 	 -85.1859 	 -33.0489 	 -74.5162 	 
C 	 -84.2135 	 -32.1663 	 -74.9703 	 
C 	 -83.5466 	 -32.5357 	 -76.1718 	 
C 	 -83.9778 	 -33.8436 	 -76.5898 	 
H 	 -84.0494 	 -31.2244 	 -74.4705 	 
C 	 -82.4615 	 -31.6575 	 -76.7979 	 
H 	 -81.7121 	 -32.3653 	 -77.1002 	 
H 	 -81.8695 	 -31.0507 	 -76.0443 	 
C 	 -82.9611 	 -30.6341 	 -77.8929 	 
H 	 -83.4111 	 -29.8012 	 -77.3351 	 
H 	 -83.885 	 -30.9687 	 -78.4501 	 
C 	 -81.9388 	 -29.9986 	 -78.8407 	 
H 	 -81.0996 	 -29.5974 	 -78.203 	 
H 	 -82.3342 	 -29.0806 	 -79.2419 	 
H 	 -81.4529 	 -30.5486 	 -79.6014 	 
H 	 -83.2338 	 -37.2696 	 -80.2111 	 
H 	 -85.6964 	 -32.949 	 -73.6591 	 
*
