! wB97X-D3 SP def2-SVP
%pal
nprocs 24
end

* xyz 0 1
S 	 -57.4062 	 16.5935 	 22.6308 	 
C 	 -58.5311 	 15.3862 	 22.0788 	 
C 	 -57.9072 	 14.1729 	 22.0408 	 
C 	 -56.4898 	 14.2236 	 22.0735 	 
C 	 -56.067 	 15.4617 	 22.5188 	 
H 	 -55.722 	 13.4695 	 22.1119 	 
C 	 -58.5915 	 12.9033 	 21.7069 	 
H 	 -58.1855 	 12.6176 	 20.7213 	 
H 	 -59.7022 	 13.0119 	 21.6531 	 
C 	 -58.4154 	 11.7302 	 22.7398 	 
H 	 -57.3694 	 11.6314 	 22.9966 	 
H 	 -58.9693 	 11.8396 	 23.667 	 
C 	 -58.7709 	 10.3281 	 22.1402 	 
H 	 -58.6069 	 9.52823 	 22.8656 	 
H 	 -59.8013 	 10.2708 	 21.764 	 
H 	 -58.1078 	 10.0697 	 21.256 	 
S 	 -54.6085 	 16.612 	 24.4239 	 
C 	 -52.8267 	 16.9529 	 24.2315 	 
C 	 -52.3833 	 16.5059 	 22.9924 	 
C 	 -53.4543 	 15.9667 	 22.2307 	 
C 	 -54.7221 	 15.9451 	 22.8634 	 
H 	 -51.3539 	 16.6727 	 22.6736 	 
C 	 -53.1478 	 15.2953 	 20.8716 	 
H 	 -54.0318 	 14.6611 	 20.5506 	 
H 	 -52.2882 	 14.6914 	 21.0933 	 
C 	 -52.9452 	 16.2169 	 19.6964 	 
H 	 -53.7994 	 16.813 	 19.4465 	 
H 	 -52.7325 	 15.6206 	 18.8439 	 
C 	 -51.7749 	 17.2188 	 19.8545 	 
H 	 -52.1263 	 18.0854 	 20.4474 	 
H 	 -51.4876 	 17.6176 	 18.8614 	 
H 	 -50.8929 	 16.6926 	 20.2411 	 
H 	 -59.5773 	 15.4627 	 21.9481 	 
H 	 -52.0821 	 17.3967 	 24.9645 	 
*
