! wB97X-D3 SP def2-SVP
%pal
nprocs 24
end

* xyz 0 1
S 	 -103.297 	 41.1778 	 -91.41 	 
C 	 -101.826 	 40.6347 	 -90.6322 	 
C 	 -100.676 	 40.668 	 -91.362 	 
C 	 -100.983 	 41.2843 	 -92.6186 	 
C 	 -102.301 	 41.7006 	 -92.7548 	 
H 	 -100.29 	 41.5884 	 -93.3834 	 
C 	 -99.2323 	 40.278 	 -90.9352 	 
H 	 -99.0769 	 39.2109 	 -91.1136 	 
H 	 -99.0646 	 40.4268 	 -89.8364 	 
C 	 -98.1498 	 41.0713 	 -91.6548 	 
H 	 -98.1816 	 40.8296 	 -92.7549 	 
H 	 -98.3364 	 42.1318 	 -91.5371 	 
C 	 -96.8469 	 40.5564 	 -91.1474 	 
H 	 -96.063 	 41.1983 	 -91.6409 	 
H 	 -96.6878 	 40.4324 	 -90.0981 	 
H 	 -96.6856 	 39.628 	 -91.6808 	 
S 	 -103.35 	 44.2207 	 -93.4782 	 
C 	 -103.664 	 44.6303 	 -95.082 	 
C 	 -103.545 	 43.4381 	 -95.8308 	 
C 	 -102.975 	 42.2537 	 -95.2047 	 
C 	 -102.879 	 42.5053 	 -93.8357 	 
H 	 -103.808 	 43.5155 	 -96.89 	 
C 	 -102.764 	 40.9695 	 -95.9802 	 
H 	 -101.848 	 40.5645 	 -95.4769 	 
H 	 -102.331 	 41.1661 	 -96.9385 	 
C 	 -103.974 	 39.9981 	 -96.1716 	 
H 	 -104.532 	 39.9323 	 -95.2015 	 
H 	 -103.711 	 38.9005 	 -96.3612 	 
C 	 -104.954 	 40.4619 	 -97.1865 	 
H 	 -105.636 	 41.2113 	 -96.8637 	 
H 	 -105.655 	 39.7435 	 -97.6371 	 
H 	 -104.357 	 40.8112 	 -98.0207 	 
H 	 -101.839 	 40.2063 	 -89.6627 	 
H 	 -104.163 	 45.5758 	 -95.4648 	 
*
