! wB97X-D3 SP def2-SVP
%pal
nprocs 24
end

* xyz 0 1
S 	 -31.6454 	 -50.2633 	 -76.5671 	 
C 	 -30.4327 	 -49.6465 	 -77.6777 	 
C 	 -30.1869 	 -48.3326 	 -77.4851 	 
C 	 -31.1399 	 -47.7874 	 -76.5038 	 
C 	 -32.0851 	 -48.6127 	 -76.0623 	 
H 	 -31.0979 	 -46.7308 	 -76.2828 	 
C 	 -29.0276 	 -47.5083 	 -78.0211 	 
H 	 -28.3351 	 -47.6335 	 -77.2655 	 
H 	 -29.413 	 -46.5302 	 -77.9137 	 
C 	 -28.5391 	 -47.8083 	 -79.4095 	 
H 	 -27.6435 	 -47.2201 	 -79.6532 	 
H 	 -28.2757 	 -48.882 	 -79.3276 	 
C 	 -29.5424 	 -47.5501 	 -80.5083 	 
H 	 -30.5097 	 -48.0529 	 -80.358 	 
H 	 -29.6793 	 -46.463 	 -80.4865 	 
H 	 -29.1505 	 -47.8594 	 -81.5418 	 
S 	 -33.3679 	 -49.4364 	 -73.717 	 
C 	 -34.7244 	 -48.4973 	 -73.2223 	 
C 	 -34.9429 	 -47.3977 	 -74.0268 	 
C 	 -33.9774 	 -47.2397 	 -75.1172 	 
C 	 -33.2057 	 -48.374 	 -75.2404 	 
H 	 -35.8202 	 -46.7921 	 -73.9434 	 
C 	 -33.9101 	 -45.9942 	 -76.0559 	 
H 	 -33.5112 	 -46.3292 	 -77.0447 	 
H 	 -32.9442 	 -45.5838 	 -75.5657 	 
C 	 -35.1764 	 -45.0733 	 -76.0313 	 
H 	 -35.2886 	 -44.6254 	 -74.9922 	 
H 	 -36.0552 	 -45.6681 	 -76.1887 	 
C 	 -35.0219 	 -43.8434 	 -77.0098 	 
H 	 -35.9568 	 -43.2013 	 -76.9086 	 
H 	 -34.7894 	 -44.0997 	 -78.0371 	 
H 	 -34.1873 	 -43.2885 	 -76.699 	 
H 	 -29.7946 	 -50.2311 	 -78.3045 	 
H 	 -35.3507 	 -48.8505 	 -72.4782 	 
*
