! wB97X-D3 SP def2-SVP
%pal
nprocs 24
end

* xyz 0 1
S 	 -27.722 	 13.3412 	 3.66404 	 
C 	 -29.2721 	 12.9425 	 3.19893 	 
C 	 -30.2222 	 13.6677 	 3.88272 	 
C 	 -29.6662 	 14.4398 	 4.97195 	 
C 	 -28.3027 	 14.3686 	 5.00805 	 
H 	 -30.3365 	 15.023 	 5.65065 	 
C 	 -31.6992 	 13.6899 	 3.48057 	 
H 	 -31.8154 	 13.4566 	 2.41409 	 
H 	 -32.2095 	 14.6701 	 3.56074 	 
C 	 -32.6022 	 12.7342 	 4.31375 	 
H 	 -32.3541 	 11.6783 	 4.12616 	 
H 	 -32.4029 	 12.9281 	 5.3525 	 
C 	 -34.0791 	 12.9295 	 4.14722 	 
H 	 -34.3786 	 13.8155 	 4.57201 	 
H 	 -34.4344 	 13.0095 	 3.14156 	 
H 	 -34.6888 	 12.174 	 4.71603 	 
S 	 -26.1368 	 16.0877 	 5.58149 	 
C 	 -25.7036 	 16.3764 	 7.23494 	 
C 	 -26.4684 	 15.6542 	 8.10572 	 
C 	 -27.4754 	 14.8786 	 7.45594 	 
C 	 -27.4143 	 14.9438 	 6.05617 	 
H 	 -26.3025 	 15.6803 	 9.18219 	 
C 	 -28.4502 	 14.0504 	 8.25874 	 
H 	 -29.4233 	 14.4218 	 8.08178 	 
H 	 -28.4027 	 14.2356 	 9.39245 	 
C 	 -28.3955 	 12.5443 	 7.9864 	 
H 	 -27.5104 	 12.1573 	 8.44073 	 
H 	 -28.3381 	 12.3922 	 6.95917 	 
C 	 -29.6171 	 11.7852 	 8.54314 	 
H 	 -29.5945 	 10.7817 	 8.11219 	 
H 	 -30.6324 	 12.2935 	 8.43413 	 
H 	 -29.5522 	 11.5372 	 9.55593 	 
H 	 -29.5487 	 12.3337 	 2.39396 	 
H 	 -24.922 	 16.9965 	 7.64731 	 
*
