! wB97X-D3 SP def2-SVP
%pal
nprocs 24
end

* xyz 0 1
S 	 39.082 	 -2.81643 	 -115.24 	 
C 	 40.3991 	 -3.691 	 -115.956 	 
C 	 39.9243 	 -4.54053 	 -116.96 	 
C 	 38.5229 	 -4.40871 	 -117.158 	 
C 	 37.944 	 -3.50357 	 -116.272 	 
H 	 38.0196 	 -5.0539 	 -117.897 	 
C 	 40.7817 	 -5.63952 	 -117.68 	 
H 	 40.5718 	 -6.4703 	 -117.012 	 
H 	 41.8579 	 -5.41479 	 -117.447 	 
C 	 40.445 	 -5.7281 	 -119.172 	 
H 	 39.4366 	 -6.08237 	 -119.363 	 
H 	 40.4098 	 -4.68532 	 -119.56 	 
C 	 41.3728 	 -6.72023 	 -119.896 	 
H 	 41.0288 	 -6.98601 	 -120.927 	 
H 	 42.3362 	 -6.38246 	 -119.979 	 
H 	 41.5879 	 -7.7333 	 -119.483 	 
S 	 35.8925 	 -3.52512 	 -114.428 	 
C 	 34.3032 	 -2.98835 	 -114.895 	 
C 	 34.2658 	 -2.70759 	 -116.229 	 
C 	 35.5041 	 -2.85267 	 -116.893 	 
C 	 36.5302 	 -3.17241 	 -116.03 	 
H 	 33.2525 	 -2.40675 	 -116.611 	 
C 	 35.784 	 -2.45214 	 -118.313 	 
H 	 36.6543 	 -3.07273 	 -118.602 	 
H 	 36.0712 	 -1.39758 	 -118.199 	 
C 	 34.6025 	 -2.42982 	 -119.308 	 
H 	 34.8526 	 -2.0554 	 -120.293 	 
H 	 33.8797 	 -1.6883 	 -118.959 	 
C 	 33.9355 	 -3.81712 	 -119.561 	 
H 	 34.3114 	 -4.63887 	 -120.133 	 
H 	 33.0433 	 -3.62545 	 -120.172 	 
H 	 33.3412 	 -4.46962 	 -118.814 	 
H 	 41.3889 	 -3.62835 	 -115.503 	 
H 	 33.3732 	 -2.90547 	 -114.284 	 
*
