! wB97X-D3 SP def2-SVP
%pal
nprocs 24
end

* xyz 0 1
S 	 -50.2692 	 -44.2619 	 -79.303 	 
C 	 -50.7454 	 -42.5915 	 -79.329 	 
C 	 -49.9588 	 -41.8109 	 -78.4572 	 
C 	 -48.9243 	 -42.5881 	 -77.859 	 
C 	 -48.9412 	 -43.8952 	 -78.2032 	 
H 	 -48.154 	 -42.2028 	 -77.174 	 
C 	 -50.2147 	 -40.3958 	 -78.1445 	 
H 	 -49.5066 	 -39.8147 	 -78.7081 	 
H 	 -49.9028 	 -40.2659 	 -77.1111 	 
C 	 -51.5454 	 -39.8217 	 -78.5303 	 
H 	 -51.7818 	 -39.874 	 -79.6106 	 
H 	 -52.4099 	 -40.4084 	 -78.1673 	 
C 	 -51.7274 	 -38.3266 	 -78.2035 	 
H 	 -50.9015 	 -37.7301 	 -78.5729 	 
H 	 -52.577 	 -37.9195 	 -78.7419 	 
H 	 -51.9204 	 -38.257 	 -77.1558 	 
S 	 -49.067 	 -46.234 	 -77.0487 	 
C 	 -47.5878 	 -47.1722 	 -76.8844 	 
C 	 -46.4801 	 -46.3888 	 -76.9726 	 
C 	 -46.719 	 -45.0828 	 -77.4893 	 
C 	 -48.0956 	 -44.9175 	 -77.691 	 
H 	 -45.4951 	 -46.804 	 -76.9026 	 
C 	 -45.6124 	 -44.0232 	 -77.7756 	 
H 	 -45.8387 	 -43.5281 	 -78.7047 	 
H 	 -44.6078 	 -44.4405 	 -78.0334 	 
C 	 -45.2771 	 -42.9777 	 -76.7293 	 
H 	 -45.4953 	 -43.4565 	 -75.7862 	 
H 	 -46.0183 	 -42.1801 	 -76.6408 	 
C 	 -43.7906 	 -42.5681 	 -76.7113 	 
H 	 -43.5628 	 -41.8504 	 -77.501 	 
H 	 -43.086 	 -43.4045 	 -76.7441 	 
H 	 -43.6635 	 -42.0868 	 -75.6986 	 
H 	 -51.6121 	 -42.1484 	 -79.7717 	 
H 	 -47.423 	 -48.2032 	 -76.7494 	 
*
