! wB97X-D3 SP def2-SVP
%pal
nprocs 24
end

* xyz 0 1
S 	 -117.496 	 62.7204 	 -82.2141 	 
C 	 -117.283 	 63.5908 	 -80.6955 	 
C 	 -116.536 	 62.8482 	 -79.8337 	 
C 	 -116.085 	 61.6123 	 -80.3873 	 
C 	 -116.619 	 61.3372 	 -81.6243 	 
H 	 -115.433 	 60.9099 	 -79.8985 	 
C 	 -116.209 	 63.224 	 -78.372 	 
H 	 -115.914 	 64.2135 	 -78.4394 	 
H 	 -115.183 	 62.8688 	 -78.1507 	 
C 	 -117.384 	 62.8851 	 -77.3707 	 
H 	 -117.304 	 63.4118 	 -76.4577 	 
H 	 -118.307 	 63.2157 	 -77.7983 	 
C 	 -117.469 	 61.336 	 -77.1607 	 
H 	 -118.014 	 61.025 	 -76.2614 	 
H 	 -118.006 	 60.9604 	 -78.009 	 
H 	 -116.474 	 60.9654 	 -76.9957 	 
S 	 -116.268 	 60.253 	 -84.0754 	 
C 	 -116.397 	 58.5732 	 -84.2693 	 
C 	 -116.59 	 57.9023 	 -83.0679 	 
C 	 -116.558 	 58.794 	 -81.9229 	 
C 	 -116.593 	 60.0627 	 -82.3461 	 
H 	 -116.747 	 56.824 	 -82.9671 	 
C 	 -116.58 	 58.1717 	 -80.5149 	 
H 	 -117.538 	 57.6767 	 -80.3857 	 
H 	 -116.582 	 59.0805 	 -79.8463 	 
C 	 -115.388 	 57.2662 	 -80.204 	 
H 	 -114.413 	 57.7732 	 -80.3172 	 
H 	 -115.398 	 56.4045 	 -80.858 	 
C 	 -115.547 	 56.6524 	 -78.8646 	 
H 	 -115.55 	 57.4004 	 -78.1527 	 
H 	 -114.695 	 56.0282 	 -78.5949 	 
H 	 -116.497 	 56.1425 	 -78.645 	 
H 	 -117.744 	 64.4943 	 -80.4415 	 
H 	 -116.413 	 58.0794 	 -85.2102 	 
*
