! wB97X-D3 SP def2-SVP
%pal
nprocs 24
end

* xyz 0 1
S 	 -64.8213 	 -50.9204 	 -84.7232 	 
C 	 -63.0718 	 -50.5991 	 -85.1089 	 
C 	 -62.4386 	 -49.819 	 -84.1771 	 
C 	 -63.3823 	 -49.4389 	 -83.1273 	 
C 	 -64.6952 	 -49.8694 	 -83.3243 	 
H 	 -63.1389 	 -48.8571 	 -82.2249 	 
C 	 -60.9816 	 -49.6149 	 -84.212 	 
H 	 -60.7324 	 -48.6447 	 -83.7665 	 
H 	 -60.6081 	 -49.6799 	 -85.2939 	 
C 	 -60.2289 	 -50.6596 	 -83.319 	 
H 	 -59.2268 	 -50.3445 	 -83.1581 	 
H 	 -60.6307 	 -50.5369 	 -82.2983 	 
C 	 -60.1453 	 -52.106 	 -83.8781 	 
H 	 -61.2082 	 -52.4105 	 -84.1217 	 
H 	 -59.6159 	 -51.9518 	 -84.8367 	 
H 	 -59.6392 	 -52.7198 	 -83.158 	 
S 	 -67.1178 	 -48.7246 	 -83.6061 	 
C 	 -68.06 	 -48.2006 	 -82.2428 	 
C 	 -67.4638 	 -48.6154 	 -81.1054 	 
C 	 -66.1891 	 -49.2009 	 -81.2542 	 
C 	 -65.8802 	 -49.3959 	 -82.614 	 
H 	 -67.9617 	 -48.5197 	 -80.1456 	 
C 	 -65.5085 	 -49.7496 	 -80.0068 	 
H 	 -65.9232 	 -49.1706 	 -79.1811 	 
H 	 -64.3823 	 -49.6839 	 -79.9657 	 
C 	 -65.6438 	 -51.2472 	 -79.8309 	 
H 	 -66.6729 	 -51.6465 	 -79.8517 	 
H 	 -65.1707 	 -51.3045 	 -78.8554 	 
C 	 -64.8991 	 -52.1436 	 -80.8551 	 
H 	 -65.5095 	 -52.1088 	 -81.7746 	 
H 	 -64.8759 	 -53.2109 	 -80.4658 	 
H 	 -63.8631 	 -51.7829 	 -81.0769 	 
H 	 -62.5411 	 -51.0956 	 -85.9175 	 
H 	 -69.0035 	 -47.769 	 -82.4531 	 
*
