! wB97X-D3 SP def2-SVP
%pal
nprocs 24
end

* xyz 0 1
S 	 4.15942 	 -24.0127 	 -110.038 	 
C 	 4.07893 	 -22.565 	 -108.995 	 
C 	 3.41845 	 -21.5293 	 -109.616 	 
C 	 2.83445 	 -21.9897 	 -110.821 	 
C 	 3.22117 	 -23.2639 	 -111.233 	 
H 	 2.36232 	 -21.324 	 -111.533 	 
C 	 3.32861 	 -20.1645 	 -109.085 	 
H 	 2.95837 	 -19.5353 	 -109.83 	 
H 	 4.34441 	 -19.7034 	 -108.949 	 
C 	 2.49849 	 -20.0419 	 -107.803 	 
H 	 2.42735 	 -20.8611 	 -107.157 	 
H 	 2.96653 	 -19.1512 	 -107.273 	 
C 	 0.999113 	 -19.5591 	 -108.036 	 
H 	 0.567819 	 -19.3453 	 -107.098 	 
H 	 0.889151 	 -18.6077 	 -108.571 	 
H 	 0.322127 	 -20.2785 	 -108.524 	 
S 	 2.35219 	 -25.6051 	 -112.227 	 
C 	 2.26718 	 -25.9012 	 -113.932 	 
C 	 2.66935 	 -24.767 	 -114.654 	 
C 	 2.96971 	 -23.6609 	 -113.802 	 
C 	 2.90602 	 -23.9974 	 -112.47 	 
H 	 2.66279 	 -24.7754 	 -115.712 	 
C 	 3.45647 	 -22.33 	 -114.355 	 
H 	 3.66907 	 -21.6276 	 -113.604 	 
H 	 2.65609 	 -21.8831 	 -114.839 	 
C 	 4.71257 	 -22.3266 	 -115.254 	 
H 	 4.73792 	 -21.3752 	 -115.808 	 
H 	 4.5636 	 -23.0209 	 -116.069 	 
C 	 6.0234 	 -22.4704 	 -114.487 	 
H 	 6.76581 	 -22.3769 	 -115.282 	 
H 	 6.14071 	 -23.4875 	 -114.03 	 
H 	 6.19588 	 -21.7144 	 -113.724 	 
H 	 4.57605 	 -22.5276 	 -108.013 	 
H 	 1.84634 	 -26.8085 	 -114.389 	 
*
