! wB97X-D3 SP def2-SVP
%pal
nprocs 24
end

* xyz 0 1
S 	 46.112 	 -19.6767 	 -116.244 	 
C 	 47.8213 	 -20.0327 	 -116.067 	 
C 	 48.2012 	 -20.0726 	 -114.76 	 
C 	 47.0603 	 -20.0379 	 -113.914 	 
C 	 45.8328 	 -19.811 	 -114.555 	 
H 	 47.1822 	 -20.186 	 -112.889 	 
C 	 49.6214 	 -20.2984 	 -114.294 	 
H 	 49.8517 	 -19.7475 	 -113.435 	 
H 	 50.2691 	 -19.878 	 -115.015 	 
C 	 49.941 	 -21.7597 	 -114.101 	 
H 	 49.6666 	 -22.3276 	 -115.035 	 
H 	 51.0458 	 -21.857 	 -114.047 	 
C 	 49.3972 	 -22.321 	 -112.762 	 
H 	 49.8038 	 -21.6661 	 -111.985 	 
H 	 48.2621 	 -22.4114 	 -112.813 	 
H 	 49.7865 	 -23.3007 	 -112.586 	 
S 	 43.5259 	 -18.2784 	 -114.676 	 
C 	 42.3667 	 -18.394 	 -113.351 	 
C 	 42.7426 	 -19.295 	 -112.399 	 
C 	 44.0244 	 -19.9003 	 -112.644 	 
C 	 44.5445 	 -19.5004 	 -113.874 	 
H 	 42.088 	 -19.3676 	 -111.535 	 
C 	 44.6696 	 -20.8584 	 -111.703 	 
H 	 45.603 	 -20.4118 	 -111.289 	 
H 	 45.1057 	 -21.6328 	 -112.275 	 
C 	 43.7273 	 -21.4113 	 -110.534 	 
H 	 42.8024 	 -21.821 	 -111.029 	 
H 	 43.4921 	 -20.5962 	 -109.884 	 
C 	 44.4212 	 -22.4138 	 -109.624 	 
H 	 45.2667 	 -21.9917 	 -109.095 	 
H 	 44.9706 	 -23.3431 	 -110.034 	 
H 	 43.7812 	 -22.8363 	 -108.919 	 
H 	 48.4387 	 -19.8738 	 -116.901 	 
H 	 41.4534 	 -17.884 	 -113.289 	 
*
