! wB97X-D3 SP def2-SVP
%pal
nprocs 24
end

* xyz 0 1
S 	 -50.9838 	 3.71165 	 -23.8968 	 
C 	 -51.0883 	 3.99287 	 -22.2181 	 
C 	 -52.4103 	 3.90491 	 -21.7749 	 
C 	 -53.3346 	 3.46077 	 -22.7843 	 
C 	 -52.6702 	 3.17489 	 -23.9512 	 
H 	 -54.4523 	 3.33574 	 -22.7348 	 
C 	 -52.793 	 4.03093 	 -20.365 	 
H 	 -52.2209 	 3.28247 	 -19.7709 	 
H 	 -53.8093 	 3.68718 	 -20.2128 	 
C 	 -52.4869 	 5.44206 	 -19.8379 	 
H 	 -51.4072 	 5.56407 	 -19.8516 	 
H 	 -52.8724 	 6.23888 	 -20.4921 	 
C 	 -52.8782 	 5.78925 	 -18.387 	 
H 	 -52.0676 	 5.398 	 -17.7167 	 
H 	 -52.8598 	 6.82853 	 -18.2628 	 
H 	 -53.7874 	 5.28421 	 -18.0231 	 
S 	 -53.2528 	 3.53803 	 -26.555 	 
C 	 -54.1956 	 2.39339 	 -27.3885 	 
C 	 -54.6303 	 1.3549 	 -26.5543 	 
C 	 -54.1289 	 1.5092 	 -25.2152 	 
C 	 -53.3501 	 2.62014 	 -25.1253 	 
H 	 -55.2909 	 0.622932 	 -26.906 	 
C 	 -54.425 	 0.459884 	 -24.1117 	 
H 	 -55.2042 	 -0.255736 	 -24.4436 	 
H 	 -55.0187 	 0.976812 	 -23.3007 	 
C 	 -53.2045 	 -0.140898 	 -23.5167 	 
H 	 -53.479 	 -1.09001 	 -23.0073 	 
H 	 -52.6629 	 0.621314 	 -22.9042 	 
C 	 -52.1966 	 -0.702537 	 -24.5453 	 
H 	 -52.5272 	 -1.51429 	 -25.1982 	 
H 	 -51.2593 	 -1.0914 	 -24.0564 	 
H 	 -51.8209 	 0.073589 	 -25.3354 	 
H 	 -50.2459 	 4.20676 	 -21.6174 	 
H 	 -54.4642 	 2.51652 	 -28.4978 	 
*
