! wB97X-D3 SP def2-SVP
%pal
nprocs 24
end

* xyz 0 1
S 	 -110.109 	 24.0704 	 -118.702 	 
C 	 -110.299 	 22.3751 	 -118.288 	 
C 	 -109.238 	 21.8855 	 -117.537 	 
C 	 -108.167 	 22.8785 	 -117.414 	 
C 	 -108.456 	 24.0595 	 -118.045 	 
H 	 -107.245 	 22.7182 	 -116.862 	 
C 	 -109.084 	 20.5415 	 -116.904 	 
H 	 -108.051 	 20.1816 	 -116.947 	 
H 	 -109.729 	 19.8964 	 -117.501 	 
C 	 -109.604 	 20.4302 	 -115.479 	 
H 	 -109.091 	 19.5621 	 -115.069 	 
H 	 -109.225 	 21.2568 	 -114.863 	 
C 	 -111.134 	 20.5187 	 -115.289 	 
H 	 -111.396 	 20.6248 	 -114.22 	 
H 	 -111.562 	 21.4138 	 -115.786 	 
H 	 -111.602 	 19.694 	 -115.812 	 
S 	 -108.481 	 26.8102 	 -118.558 	 
C 	 -107.033 	 27.792 	 -118.197 	 
C 	 -105.99 	 26.9384 	 -117.857 	 
C 	 -106.274 	 25.5417 	 -117.794 	 
C 	 -107.652 	 25.2784 	 -118.041 	 
H 	 -105.033 	 27.4754 	 -117.721 	 
C 	 -105.103 	 24.5891 	 -117.439 	 
H 	 -104.33 	 24.6612 	 -118.233 	 
H 	 -105.479 	 23.5454 	 -117.429 	 
C 	 -104.508 	 24.8869 	 -116.039 	 
H 	 -105.294 	 24.6965 	 -115.354 	 
H 	 -104.126 	 25.9353 	 -116.103 	 
C 	 -103.34 	 24.0229 	 -115.576 	 
H 	 -103.574 	 22.9479 	 -115.412 	 
H 	 -102.993 	 24.3948 	 -114.599 	 
H 	 -102.479 	 24.0224 	 -116.196 	 
H 	 -111.092 	 21.7137 	 -118.572 	 
H 	 -106.928 	 28.9225 	 -118.239 	 
*
