! wB97X-D3 SP def2-SVP
%pal
nprocs 24
end

* xyz 0 1
S 	 -111.406 	 64.9873 	 -76.3072 	 
C 	 -110.549 	 63.555 	 -76.7832 	 
C 	 -111.333 	 62.4045 	 -76.6585 	 
C 	 -112.662 	 62.7549 	 -76.2647 	 
C 	 -112.941 	 64.1469 	 -76.2178 	 
H 	 -113.429 	 62.0257 	 -76.1893 	 
C 	 -111.049 	 60.946 	 -76.9219 	 
H 	 -110.165 	 60.9892 	 -77.5339 	 
H 	 -111.905 	 60.6524 	 -77.5846 	 
C 	 -110.842 	 59.931 	 -75.8611 	 
H 	 -110.671 	 58.9539 	 -76.4273 	 
H 	 -109.884 	 60.0216 	 -75.3844 	 
C 	 -111.953 	 59.7925 	 -74.7659 	 
H 	 -112.969 	 59.6399 	 -75.1824 	 
H 	 -111.848 	 59.1254 	 -73.932 	 
H 	 -112.067 	 60.7473 	 -74.2067 	 
S 	 -114.267 	 66.2278 	 -75.0844 	 
C 	 -115.969 	 66.4146 	 -75.3127 	 
C 	 -116.464 	 65.3824 	 -76.0301 	 
C 	 -115.486 	 64.428 	 -76.4409 	 
C 	 -114.247 	 64.7692 	 -75.9394 	 
H 	 -117.488 	 65.3616 	 -76.3013 	 
C 	 -115.865 	 63.3806 	 -77.534 	 
H 	 -116.691 	 62.8063 	 -77.1146 	 
H 	 -115.203 	 62.5612 	 -77.6749 	 
C 	 -116.273 	 63.941 	 -78.8764 	 
H 	 -117.024 	 64.7149 	 -78.6988 	 
H 	 -116.725 	 63.151 	 -79.464 	 
C 	 -115.23 	 64.6035 	 -79.7532 	 
H 	 -114.656 	 65.2212 	 -79.0513 	 
H 	 -115.61 	 65.3384 	 -80.4763 	 
H 	 -114.389 	 64.0584 	 -80.2073 	 
H 	 -109.428 	 63.5599 	 -76.9235 	 
H 	 -116.429 	 67.2997 	 -75.04 	 
*
