! wB97X-D3 SP def2-SVP
%pal
nprocs 24
end

* xyz 0 1
S 	 -82.4424 	 -27.656 	 -55.2991 	 
C 	 -80.7625 	 -27.653 	 -55.6898 	 
C 	 -79.9918 	 -28.3916 	 -54.817 	 
C 	 -80.7975 	 -28.799 	 -53.6921 	 
C 	 -82.0983 	 -28.3972 	 -53.7386 	 
H 	 -80.5121 	 -29.355 	 -52.8414 	 
C 	 -78.5981 	 -28.6937 	 -54.9869 	 
H 	 -78.4878 	 -29.557 	 -55.5768 	 
H 	 -78.2671 	 -29.0223 	 -54.0105 	 
C 	 -77.6046 	 -27.5528 	 -55.4038 	 
H 	 -76.6149 	 -28.0226 	 -55.6729 	 
H 	 -77.9161 	 -26.9979 	 -56.2434 	 
C 	 -77.3567 	 -26.5352 	 -54.2583 	 
H 	 -78.25 	 -26.0493 	 -53.8102 	 
H 	 -76.8433 	 -27.0159 	 -53.4477 	 
H 	 -76.6427 	 -25.8281 	 -54.6544 	 
S 	 -83.9674 	 -27.0917 	 -52.1558 	 
C 	 -85.0387 	 -28.0413 	 -51.0703 	 
C 	 -84.4868 	 -29.3283 	 -50.9156 	 
C 	 -83.529 	 -29.6821 	 -51.9529 	 
C 	 -83.1376 	 -28.5882 	 -52.7629 	 
H 	 -84.8852 	 -29.9894 	 -50.2034 	 
C 	 -83.0975 	 -31.1125 	 -51.9928 	 
H 	 -82.3939 	 -31.2151 	 -51.1621 	 
H 	 -82.6474 	 -31.3351 	 -52.9423 	 
C 	 -84.1095 	 -32.249 	 -51.7825 	 
H 	 -84.4671 	 -32.2768 	 -50.7449 	 
H 	 -83.6026 	 -33.1753 	 -51.9625 	 
C 	 -85.268 	 -32.3512 	 -52.7307 	 
H 	 -85.7476 	 -33.3106 	 -52.5996 	 
H 	 -84.8171 	 -32.2815 	 -53.71 	 
H 	 -85.8413 	 -31.5182 	 -52.6211 	 
H 	 -80.3668 	 -27.3594 	 -56.6505 	 
H 	 -85.8201 	 -27.5835 	 -50.4274 	 
*
