! wB97X-D3 SP def2-SVP
%pal
nprocs 24
end

* xyz 0 1
S 	 41.2577 	 -19.1839 	 -108.427 	 
C 	 42.3298 	 -20.3794 	 -108.993 	 
C 	 42.4421 	 -21.4364 	 -108.172 	 
C 	 41.8897 	 -21.14 	 -106.878 	 
C 	 41.1618 	 -19.9777 	 -106.869 	 
H 	 41.9803 	 -21.7594 	 -106.067 	 
C 	 43.3444 	 -22.6215 	 -108.477 	 
H 	 44.3535 	 -22.2978 	 -108.765 	 
H 	 42.9032 	 -22.922 	 -109.415 	 
C 	 43.3772 	 -23.8317 	 -107.564 	 
H 	 44.1687 	 -24.5616 	 -107.882 	 
H 	 43.7303 	 -23.5321 	 -106.584 	 
C 	 41.9739 	 -24.5255 	 -107.337 	 
H 	 41.3526 	 -23.7614 	 -106.809 	 
H 	 41.3564 	 -24.7388 	 -108.183 	 
H 	 42.0639 	 -25.5388 	 -106.871 	 
S 	 39.1098 	 -18.401 	 -106.117 	 
C 	 38.8068 	 -17.9453 	 -104.451 	 
C 	 39.7394 	 -18.583 	 -103.661 	 
C 	 40.7148 	 -19.3941 	 -104.322 	 
C 	 40.5412 	 -19.346 	 -105.712 	 
H 	 39.5455 	 -18.4205 	 -102.611 	 
C 	 41.9311 	 -19.9882 	 -103.673 	 
H 	 42.2746 	 -19.2385 	 -102.884 	 
H 	 42.7648 	 -20.0422 	 -104.408 	 
C 	 41.6852 	 -21.3593 	 -103.044 	 
H 	 41.3719 	 -22.0337 	 -103.893 	 
H 	 40.846 	 -21.2857 	 -102.304 	 
C 	 42.9778 	 -21.996 	 -102.502 	 
H 	 42.8203 	 -23.0089 	 -102.067 	 
H 	 43.2658 	 -21.2704 	 -101.741 	 
H 	 43.8513 	 -22.1171 	 -103.243 	 
H 	 42.8821 	 -20.3516 	 -109.949 	 
H 	 37.9762 	 -17.3218 	 -104.175 	 
*
