! wB97X-D3 SP def2-SVP
%pal
nprocs 24
end

* xyz 0 1
S 	 -125.597 	 62.4524 	 -59.779 	 
C 	 -126.699 	 61.8415 	 -60.9902 	 
C 	 -127.829 	 61.2577 	 -60.431 	 
C 	 -127.777 	 61.2475 	 -59.0493 	 
C 	 -126.627 	 61.8364 	 -58.5133 	 
H 	 -128.516 	 60.8866 	 -58.404 	 
C 	 -128.94 	 60.5111 	 -61.1824 	 
H 	 -129.339 	 59.7637 	 -60.5169 	 
H 	 -128.533 	 59.9967 	 -62.1113 	 
C 	 -130.025 	 61.5788 	 -61.5717 	 
H 	 -131.005 	 61.0564 	 -61.8847 	 
H 	 -130.256 	 62.0442 	 -60.6505 	 
C 	 -129.75 	 62.5777 	 -62.6729 	 
H 	 -129.743 	 61.9027 	 -63.5259 	 
H 	 -130.521 	 63.2957 	 -62.9077 	 
H 	 -128.792 	 63.1295 	 -62.5477 	 
S 	 -126.768 	 63.3996 	 -56.2604 	 
C 	 -126.194 	 62.7472 	 -54.7371 	 
C 	 -125.693 	 61.4449 	 -54.8839 	 
C 	 -125.73 	 61.0373 	 -56.2365 	 
C 	 -126.381 	 61.9441 	 -57.0672 	 
H 	 -125.474 	 60.7435 	 -54.0641 	 
C 	 -125.187 	 59.678 	 -56.6725 	 
H 	 -125.993 	 59.1766 	 -57.2379 	 
H 	 -125.025 	 59.0736 	 -55.7749 	 
C 	 -123.762 	 59.6226 	 -57.2394 	 
H 	 -123.885 	 60.4689 	 -57.8875 	 
H 	 -123.558 	 58.8374 	 -57.9639 	 
C 	 -122.729 	 59.8084 	 -56.1396 	 
H 	 -122.722 	 58.8829 	 -55.5861 	 
H 	 -123.165 	 60.5416 	 -55.5063 	 
H 	 -121.767 	 59.9882 	 -56.4963 	 
H 	 -126.487 	 61.7004 	 -62.0543 	 
H 	 -126.245 	 63.1073 	 -53.7194 	 
*
