! wB97X-D3 SP def2-SVP
%pal
nprocs 24
end

* xyz 0 1
S 	 -135.683 	 22.0029 	 -19.4062 	 
C 	 -134.987 	 21.2502 	 -18.0039 	 
C 	 -134.344 	 20.1016 	 -18.3308 	 
C 	 -134.223 	 19.9201 	 -19.7252 	 
C 	 -134.717 	 20.9199 	 -20.4793 	 
H 	 -133.732 	 19.1295 	 -20.2545 	 
C 	 -133.874 	 19.0313 	 -17.3428 	 
H 	 -134.404 	 19.3412 	 -16.3986 	 
H 	 -132.824 	 19.0806 	 -17.2173 	 
C 	 -134.229 	 17.5902 	 -17.643 	 
H 	 -133.981 	 17.3061 	 -18.6513 	 
H 	 -133.62 	 16.893 	 -17.0368 	 
C 	 -135.688 	 17.2081 	 -17.3886 	 
H 	 -135.938 	 16.3319 	 -17.9756 	 
H 	 -135.908 	 17.0902 	 -16.3387 	 
H 	 -136.473 	 17.9787 	 -17.6304 	 
S 	 -133.985 	 22.8712 	 -22.2643 	 
C 	 -134.03 	 22.5455 	 -23.9374 	 
C 	 -134.26 	 21.215 	 -24.1228 	 
C 	 -134.536 	 20.418 	 -22.9772 	 
C 	 -134.498 	 21.2203 	 -21.8812 	 
H 	 -134.204 	 21.0778 	 -25.1668 	 
C 	 -134.739 	 18.9312 	 -23.0101 	 
H 	 -134.007 	 18.4944 	 -22.4213 	 
H 	 -134.419 	 18.55 	 -24.0378 	 
C 	 -136.145 	 18.297 	 -22.7282 	 
H 	 -136.859 	 18.6444 	 -23.5016 	 
H 	 -136.524 	 18.7557 	 -21.7739 	 
C 	 -136.241 	 16.7997 	 -22.6569 	 
H 	 -135.726 	 16.4734 	 -21.8247 	 
H 	 -135.745 	 16.5134 	 -23.5324 	 
H 	 -137.263 	 16.4621 	 -22.5974 	 
H 	 -135.326 	 21.5611 	 -17.0076 	 
H 	 -133.888 	 23.2799 	 -24.7278 	 
*
