! wB97X-D3 SP def2-SVP
%pal
nprocs 24
end

* xyz 0 1
S 	 -52.0552 	 15.0519 	 24.239 	 
C 	 -50.3987 	 14.5699 	 23.9926 	 
C 	 -49.502 	 15.5184 	 24.4503 	 
C 	 -50.1119 	 16.4929 	 25.3139 	 
C 	 -51.4836 	 16.2608 	 25.3889 	 
H 	 -49.5743 	 17.2982 	 25.7952 	 
C 	 -47.9629 	 15.6479 	 24.1246 	 
H 	 -47.9532 	 15.5593 	 22.9752 	 
H 	 -47.4799 	 14.6945 	 24.4161 	 
C 	 -47.0943 	 16.8758 	 24.5612 	 
H 	 -47.1698 	 17.0394 	 25.6569 	 
H 	 -46.0584 	 16.6436 	 24.2386 	 
C 	 -47.5811 	 18.1216 	 23.8801 	 
H 	 -47.3957 	 18.1214 	 22.8392 	 
H 	 -48.6217 	 18.3633 	 24.018 	 
H 	 -46.9703 	 18.8753 	 24.2735 	 
S 	 -53.294 	 18.2299 	 25.5868 	 
C 	 -53.7348 	 18.799 	 27.1477 	 
C 	 -52.9111 	 18.2534 	 28.1311 	 
C 	 -52.0992 	 17.1579 	 27.6359 	 
C 	 -52.3436 	 17.0116 	 26.2685 	 
H 	 -52.9912 	 18.8139 	 29.0339 	 
C 	 -51.0876 	 16.3786 	 28.5573 	 
H 	 -50.5505 	 15.7189 	 27.8361 	 
H 	 -51.659 	 15.7138 	 29.2277 	 
C 	 -50.1649 	 17.1881 	 29.5112 	 
H 	 -50.6743 	 17.9811 	 30.1088 	 
H 	 -49.4406 	 17.8003 	 28.9368 	 
C 	 -49.4112 	 16.2043 	 30.395 	 
H 	 -48.888 	 15.4607 	 29.774 	 
H 	 -50.1808 	 15.7783 	 31.0623 	 
H 	 -48.7017 	 16.7304 	 31.0237 	 
H 	 -50.145 	 13.7165 	 23.361 	 
H 	 -54.1993 	 19.7526 	 27.3627 	 
*
