! wB97X-D3 SP def2-SVP
%pal
nprocs 24
end

* xyz 0 1
S 	 -99.5084 	 2.21316 	 -115.91 	 
C 	 -99.5176 	 3.27025 	 -117.266 	 
C 	 -99.9907 	 4.53171 	 -116.96 	 
C 	 -100.094 	 4.69033 	 -115.527 	 
C 	 -99.8074 	 3.54069 	 -114.842 	 
H 	 -100.472 	 5.50673 	 -115.071 	 
C 	 -100.347 	 5.64264 	 -117.96 	 
H 	 -101.079 	 6.27496 	 -117.478 	 
H 	 -101.014 	 5.24719 	 -118.793 	 
C 	 -99.1275 	 6.40444 	 -118.506 	 
H 	 -98.598 	 6.84656 	 -117.661 	 
H 	 -98.5214 	 5.78993 	 -119.083 	 
C 	 -99.5593 	 7.67104 	 -119.298 	 
H 	 -98.7038 	 8.25911 	 -119.385 	 
H 	 -100.036 	 7.5355 	 -120.315 	 
H 	 -100.254 	 8.36503 	 -118.848 	 
S 	 -98.7596 	 4.19 	 -112.31 	 
C 	 -99.6371 	 3.6826 	 -110.858 	 
C 	 -100.749 	 2.96197 	 -111.221 	 
C 	 -100.975 	 2.7918 	 -112.633 	 
C 	 -99.9461 	 3.36463 	 -113.401 	 
H 	 -101.387 	 2.54105 	 -110.42 	 
C 	 -102.192 	 2.01608 	 -113.083 	 
H 	 -102.3 	 2.18775 	 -114.08 	 
H 	 -102.964 	 2.55443 	 -112.625 	 
C 	 -102.267 	 0.492026 	 -112.727 	 
H 	 -102.247 	 0.395737 	 -111.632 	 
H 	 -101.271 	 0.161814 	 -113.026 	 
C 	 -103.262 	 -0.339986 	 -113.466 	 
H 	 -103.276 	 -1.33012 	 -113.036 	 
H 	 -103.108 	 -0.47185 	 -114.572 	 
H 	 -104.228 	 0.0773806 	 -113.342 	 
H 	 -99.4504 	 2.95341 	 -118.264 	 
H 	 -99.2848 	 3.7987 	 -109.927 	 
*
