! wB97X-D3 SP def2-SVP
%pal
nprocs 24
end

* xyz 0 1
S 	 45.6073 	 -13.0478 	 -128.335 	 
C 	 46.5332 	 -11.7243 	 -127.706 	 
C 	 46.6553 	 -11.8466 	 -126.296 	 
C 	 45.8375 	 -12.8707 	 -125.8 	 
C 	 45.0814 	 -13.5681 	 -126.761 	 
H 	 45.6934 	 -13.0567 	 -124.757 	 
C 	 47.3972 	 -10.75 	 -125.434 	 
H 	 48.0569 	 -10.1672 	 -126.085 	 
H 	 48.0565 	 -11.2313 	 -124.778 	 
C 	 46.5475 	 -9.63664 	 -124.685 	 
H 	 45.953 	 -10.1441 	 -123.941 	 
H 	 47.2031 	 -8.85387 	 -124.233 	 
C 	 45.5614 	 -8.871 	 -125.543 	 
H 	 44.7289 	 -9.47726 	 -125.932 	 
H 	 45.1068 	 -8.08196 	 -124.853 	 
H 	 46.0399 	 -8.38053 	 -126.431 	 
S 	 44.144 	 -15.8534 	 -125.441 	 
C 	 42.4355 	 -16.1068 	 -125.449 	 
C 	 41.7507 	 -15.2828 	 -126.351 	 
C 	 42.6151 	 -14.3236 	 -126.955 	 
C 	 43.9438 	 -14.4034 	 -126.487 	 
H 	 40.7364 	 -15.389 	 -126.499 	 
C 	 42.126 	 -13.3117 	 -127.968 	 
H 	 42.8002 	 -12.4362 	 -127.949 	 
H 	 41.1612 	 -12.9084 	 -127.57 	 
C 	 41.9962 	 -13.7358 	 -129.447 	 
H 	 42.9548 	 -14.0117 	 -129.856 	 
H 	 41.6562 	 -12.8828 	 -130.139 	 
C 	 41.179 	 -15.0468 	 -129.639 	 
H 	 41.403 	 -15.5557 	 -130.518 	 
H 	 40.0345 	 -15.0041 	 -129.621 	 
H 	 41.402 	 -15.8592 	 -128.972 	 
H 	 47.0569 	 -10.9572 	 -128.363 	 
H 	 41.976 	 -16.7539 	 -124.717 	 
*
