! wB97X-D3 SP def2-SVP
%pal
nprocs 24
end

* xyz 0 1
S 	 -107.71 	 58.6161 	 -92.7646 	 
C 	 -106.69 	 59.0701 	 -91.3749 	 
C 	 -105.65 	 59.9093 	 -91.7467 	 
C 	 -105.673 	 60.1524 	 -93.1725 	 
C 	 -106.679 	 59.4703 	 -93.8775 	 
H 	 -104.914 	 60.6726 	 -93.7095 	 
C 	 -104.613 	 60.5726 	 -90.8486 	 
H 	 -103.638 	 60.0855 	 -91.0245 	 
H 	 -104.86 	 60.3773 	 -89.7795 	 
C 	 -104.602 	 62.1725 	 -90.992 	 
H 	 -103.728 	 62.5291 	 -90.4621 	 
H 	 -104.564 	 62.4503 	 -92.1244 	 
C 	 -105.905 	 62.8659 	 -90.4643 	 
H 	 -105.893 	 63.9044 	 -90.6033 	 
H 	 -106.855 	 62.5178 	 -90.9931 	 
H 	 -106.172 	 62.6596 	 -89.4712 	 
S 	 -107.441 	 61.0102 	 -96.0174 	 
C 	 -107.401 	 60.3093 	 -97.6305 	 
C 	 -107.088 	 58.9264 	 -97.5638 	 
C 	 -106.812 	 58.5314 	 -96.2489 	 
C 	 -106.866 	 59.4825 	 -95.3516 	 
H 	 -107.34 	 58.3196 	 -98.4033 	 
C 	 -106.308 	 57.1277 	 -95.9568 	 
H 	 -106.259 	 57.0227 	 -94.9055 	 
H 	 -105.234 	 57.0016 	 -96.2964 	 
C 	 -107.281 	 55.9956 	 -96.4137 	 
H 	 -107.381 	 56.0133 	 -97.5564 	 
H 	 -108.267 	 56.2646 	 -96.051 	 
C 	 -106.645 	 54.6076 	 -96.2295 	 
H 	 -105.84 	 54.4646 	 -96.9261 	 
H 	 -107.327 	 53.7944 	 -96.3199 	 
H 	 -106.3 	 54.5846 	 -95.202 	 
H 	 -106.804 	 58.7835 	 -90.3163 	 
H 	 -107.699 	 60.7966 	 -98.5641 	 
*
