! wB97X-D3 SP def2-SVP
%pal
nprocs 24
end

* xyz 0 1
S 	 -49.9823 	 -46.7153 	 -80.9257 	 
C 	 -50.911 	 -45.76 	 -82.0716 	 
C 	 -51.054 	 -44.4658 	 -81.6901 	 
C 	 -50.4878 	 -44.2699 	 -80.3654 	 
C 	 -49.7928 	 -45.3303 	 -79.807 	 
H 	 -50.6689 	 -43.3678 	 -79.7631 	 
C 	 -51.7553 	 -43.3652 	 -82.499 	 
H 	 -52.5518 	 -42.7486 	 -81.9774 	 
H 	 -52.1886 	 -43.8873 	 -83.3285 	 
C 	 -50.9469 	 -42.2578 	 -83.1623 	 
H 	 -50.1193 	 -42.6538 	 -83.748 	 
H 	 -51.746 	 -41.8984 	 -83.8848 	 
C 	 -50.466 	 -41.1542 	 -82.1833 	 
H 	 -49.7442 	 -41.3561 	 -81.3068 	 
H 	 -49.9843 	 -40.2684 	 -82.7139 	 
H 	 -51.3633 	 -40.6985 	 -81.7524 	 
S 	 -50.048 	 -45.6997 	 -77.0663 	 
C 	 -48.5631 	 -45.9295 	 -76.1323 	 
C 	 -47.4642 	 -45.6131 	 -76.8637 	 
C 	 -47.6765 	 -45.5244 	 -78.2657 	 
C 	 -49.0603 	 -45.3522 	 -78.5187 	 
H 	 -46.5903 	 -45.6545 	 -76.211 	 
C 	 -46.5711 	 -45.3847 	 -79.265 	 
H 	 -46.6699 	 -46.0186 	 -80.1903 	 
H 	 -45.5905 	 -45.9134 	 -78.924 	 
C 	 -46.3473 	 -43.953 	 -79.7063 	 
H 	 -46.4777 	 -43.3108 	 -78.8281 	 
H 	 -47.0704 	 -43.6679 	 -80.4864 	 
C 	 -44.9768 	 -43.6516 	 -80.3633 	 
H 	 -44.1254 	 -43.4168 	 -79.6999 	 
H 	 -45.0381 	 -42.7465 	 -80.9519 	 
H 	 -44.5767 	 -44.501 	 -80.9758 	 
H 	 -51.1277 	 -46.1873 	 -83.0346 	 
H 	 -48.3975 	 -46.1686 	 -75.1212 	 
*
