! wB97X-D3 SP def2-SVP
%pal
nprocs 24
end

* xyz 0 1
S 	 -106.889 	 1.31919 	 -110.095 	 
C 	 -107.558 	 2.9328 	 -110.076 	 
C 	 -106.522 	 3.80869 	 -109.795 	 
C 	 -105.402 	 3.15124 	 -109.251 	 
C 	 -105.382 	 1.75918 	 -109.329 	 
H 	 -104.599 	 3.62985 	 -108.717 	 
C 	 -106.517 	 5.32946 	 -109.865 	 
H 	 -107.289 	 5.79831 	 -110.56 	 
H 	 -105.528 	 5.48459 	 -110.312 	 
C 	 -106.572 	 6.10085 	 -108.546 	 
H 	 -107.423 	 5.77767 	 -107.953 	 
H 	 -105.783 	 5.88771 	 -107.875 	 
C 	 -106.352 	 7.64718 	 -108.656 	 
H 	 -106.457 	 8.11618 	 -107.704 	 
H 	 -105.34 	 7.75819 	 -108.919 	 
H 	 -106.948 	 8.09244 	 -109.452 	 
S 	 -104.711 	 0.742414 	 -106.894 	 
C 	 -103.641 	 -0.652074 	 -106.801 	 
C 	 -103.304 	 -1.11727 	 -108.042 	 
C 	 -103.823 	 -0.26167 	 -109.126 	 
C 	 -104.574 	 0.769419 	 -108.653 	 
H 	 -102.714 	 -1.97823 	 -108.162 	 
C 	 -103.507 	 -0.601825 	 -110.574 	 
H 	 -104.258 	 -0.213353 	 -111.269 	 
H 	 -103.593 	 -1.68491 	 -110.482 	 
C 	 -102.088 	 -0.161385 	 -111.074 	 
H 	 -101.854 	 -0.610161 	 -111.971 	 
H 	 -101.47 	 -0.448167 	 -110.249 	 
C 	 -101.983 	 1.40963 	 -111.349 	 
H 	 -102.528 	 1.63158 	 -112.274 	 
H 	 -100.898 	 1.57879 	 -111.493 	 
H 	 -102.274 	 1.91961 	 -110.43 	 
H 	 -108.563 	 3.31154 	 -110.313 	 
H 	 -103.394 	 -1.16018 	 -105.863 	 
*
