! wB97X-D3 SP def2-SVP
%pal
nprocs 24
end

* xyz 0 1
S 	 -22.6922 	 -36.0652 	 -92.1439 	 
C 	 -21.0969 	 -36.6498 	 -92.4162 	 
C 	 -20.5576 	 -36.0192 	 -93.5209 	 
C 	 -21.5239 	 -35.1354 	 -94.2198 	 
C 	 -22.7431 	 -35.0463 	 -93.5813 	 
H 	 -21.2733 	 -34.5988 	 -95.1114 	 
C 	 -19.1439 	 -36.2451 	 -94.035 	 
H 	 -18.485 	 -36.3917 	 -93.2452 	 
H 	 -18.7091 	 -35.3126 	 -94.4551 	 
C 	 -19.0603 	 -37.2753 	 -95.1349 	 
H 	 -19.4041 	 -38.2126 	 -94.588 	 
H 	 -19.8572 	 -37.0448 	 -95.9555 	 
C 	 -17.582 	 -37.424 	 -95.6597 	 
H 	 -17.2016 	 -36.5505 	 -96.2672 	 
H 	 -17.0566 	 -37.6138 	 -94.7268 	 
H 	 -17.3832 	 -38.3446 	 -96.3318 	 
S 	 -25.5287 	 -35.0796 	 -93.5973 	 
C 	 -26.3553 	 -34.1475 	 -94.7635 	 
C 	 -25.516 	 -33.1547 	 -95.3465 	 
C 	 -24.1702 	 -33.2541 	 -94.9165 	 
C 	 -23.9625 	 -34.3493 	 -94.0379 	 
H 	 -25.7717 	 -32.3512 	 -96.0468 	 
C 	 -23.0967 	 -32.3034 	 -95.391 	 
H 	 -23.1164 	 -32.3029 	 -96.5086 	 
H 	 -22.1215 	 -32.6547 	 -95.1549 	 
C 	 -23.2526 	 -30.8459 	 -94.8455 	 
H 	 -23.2372 	 -31.0147 	 -93.7216 	 
H 	 -24.2429 	 -30.4993 	 -95.0395 	 
C 	 -22.0967 	 -29.9292 	 -95.362 	 
H 	 -22.3198 	 -29.6762 	 -96.4613 	 
H 	 -21.2195 	 -30.5627 	 -95.3293 	 
H 	 -22.0254 	 -29.1255 	 -94.6426 	 
H 	 -20.6432 	 -37.2685 	 -91.7144 	 
H 	 -27.3472 	 -34.1678 	 -95.0703 	 
*
