! wB97X-D3 SP def2-SVP
%pal
nprocs 24
end

* xyz 0 1
S 	 -62.4715 	 8.3126 	 -82.2337 	 
C 	 -63.3245 	 7.20705 	 -83.3079 	 
C 	 -64.6434 	 7.0142 	 -82.9463 	 
C 	 -64.9539 	 7.74818 	 -81.7218 	 
C 	 -63.8722 	 8.39952 	 -81.1183 	 
H 	 -65.9335 	 7.7531 	 -81.2324 	 
C 	 -65.765 	 6.40746 	 -83.7445 	 
H 	 -66.3324 	 5.63846 	 -83.1116 	 
H 	 -65.3185 	 5.82943 	 -84.5271 	 
C 	 -66.771 	 7.47678 	 -84.2457 	 
H 	 -67.7996 	 7.13269 	 -84.1014 	 
H 	 -66.7764 	 8.33769 	 -83.5922 	 
C 	 -66.5122 	 7.895 	 -85.7306 	 
H 	 -65.4819 	 8.06663 	 -86.0094 	 
H 	 -66.8766 	 7.08831 	 -86.3881 	 
H 	 -66.9454 	 8.86984 	 -86.0494 	 
S 	 -64.5634 	 10.72 	 -79.6798 	 
C 	 -64.8731 	 10.5203 	 -77.9645 	 
C 	 -64.1854 	 9.41765 	 -77.4638 	 
C 	 -63.7012 	 8.58966 	 -78.5129 	 
C 	 -63.8788 	 9.09406 	 -79.8613 	 
H 	 -64.0394 	 9.23786 	 -76.3703 	 
C 	 -63.0456 	 7.26326 	 -78.2414 	 
H 	 -62.4787 	 7.2099 	 -77.3559 	 
H 	 -62.3236 	 7.05424 	 -79.0206 	 
C 	 -64.1236 	 6.15425 	 -78.1673 	 
H 	 -64.5064 	 5.84992 	 -79.1474 	 
H 	 -65.0943 	 6.5924 	 -77.7408 	 
C 	 -63.6104 	 4.95014 	 -77.4114 	 
H 	 -62.7629 	 4.49486 	 -77.8572 	 
H 	 -64.3498 	 4.1608 	 -77.5687 	 
H 	 -63.2503 	 5.19467 	 -76.416 	 
H 	 -62.8279 	 6.73985 	 -84.1325 	 
H 	 -65.22 	 11.3419 	 -77.3145 	 
*
