! wB97X-D3 SP def2-SVP
%pal
nprocs 24
end

* xyz 0 1
S 	 -69.3866 	 18.4936 	 -74.6494 	 
C 	 -68.1565 	 18.2547 	 -75.9542 	 
C 	 -67.6158 	 17.0263 	 -75.8134 	 
C 	 -68.1482 	 16.2814 	 -74.733 	 
C 	 -69.1428 	 16.8788 	 -74.0163 	 
H 	 -68.0492 	 15.2455 	 -74.5817 	 
C 	 -66.3776 	 16.5692 	 -76.5872 	 
H 	 -66.7102 	 16.4062 	 -77.6362 	 
H 	 -66.0509 	 15.6192 	 -76.2197 	 
C 	 -65.1086 	 17.4871 	 -76.571 	 
H 	 -64.3985 	 17.2922 	 -77.3422 	 
H 	 -65.3871 	 18.5732 	 -76.7187 	 
C 	 -64.444 	 17.4779 	 -75.2202 	 
H 	 -65.1574 	 17.9618 	 -74.586 	 
H 	 -64.1518 	 16.4904 	 -74.8473 	 
H 	 -63.5393 	 18.098 	 -75.2572 	 
S 	 -71.8457 	 16.3079 	 -73.7317 	 
C 	 -72.4718 	 15.4686 	 -72.3877 	 
C 	 -71.422 	 15.0504 	 -71.5975 	 
C 	 -70.159 	 15.3336 	 -72.1624 	 
C 	 -70.1747 	 16.1801 	 -73.2765 	 
H 	 -71.6223 	 14.515 	 -70.7011 	 
C 	 -68.8687 	 14.7538 	 -71.6378 	 
H 	 -69.0147 	 14.701 	 -70.5739 	 
H 	 -68.0866 	 15.5024 	 -71.7063 	 
C 	 -68.5386 	 13.3909 	 -72.2481 	 
H 	 -67.5331 	 13.1553 	 -71.95 	 
H 	 -68.5253 	 13.3609 	 -73.349 	 
C 	 -69.4653 	 12.2377 	 -71.7521 	 
H 	 -70.3304 	 12.1395 	 -72.4022 	 
H 	 -69.7885 	 12.3396 	 -70.6969 	 
H 	 -68.9497 	 11.267 	 -71.8113 	 
H 	 -67.9229 	 19.0324 	 -76.7075 	 
H 	 -73.4626 	 15.2586 	 -71.979 	 
*
