! wB97X-D3 SP def2-SVP
%pal
nprocs 24
end

* xyz 0 1
S 	 -51.8147 	 14.051 	 23.9791 	 
C 	 -52.3347 	 14.3914 	 25.6254 	 
C 	 -52.274 	 15.7237 	 25.9842 	 
C 	 -51.7668 	 16.4619 	 24.8922 	 
C 	 -51.4074 	 15.7841 	 23.7799 	 
H 	 -51.6378 	 17.5499 	 24.9143 	 
C 	 -52.6876 	 16.3963 	 27.3317 	 
H 	 -51.9436 	 17.1301 	 27.64 	 
H 	 -52.6198 	 15.6927 	 28.1364 	 
C 	 -54.0704 	 16.9965 	 27.3273 	 
H 	 -54.7761 	 16.4075 	 26.7657 	 
H 	 -54.5014 	 16.9376 	 28.3344 	 
C 	 -54.2643 	 18.4271 	 26.8021 	 
H 	 -53.8917 	 18.4547 	 25.7938 	 
H 	 -55.3579 	 18.6213 	 26.7128 	 
H 	 -53.8522 	 19.1615 	 27.5085 	 
S 	 -51.6997 	 15.6767 	 21.0128 	 
C 	 -50.7623 	 16.7591 	 19.9335 	 
C 	 -49.936 	 17.5607 	 20.6875 	 
C 	 -50.0889 	 17.3243 	 22.0968 	 
C 	 -50.9855 	 16.3131 	 22.4944 	 
H 	 -49.2532 	 18.2677 	 20.2275 	 
C 	 -49.1766 	 18.0765 	 22.9636 	 
H 	 -48.176 	 18.2146 	 22.4781 	 
H 	 -48.8997 	 17.4997 	 23.9142 	 
C 	 -49.5352 	 19.5021 	 23.4473 	 
H 	 -50.5166 	 19.4369 	 23.8155 	 
H 	 -49.6352 	 20.1651 	 22.551 	 
C 	 -48.5825 	 20.2284 	 24.4804 	 
H 	 -48.7612 	 19.8665 	 25.4574 	 
H 	 -48.5829 	 21.3075 	 24.5604 	 
H 	 -47.5678 	 19.937 	 24.2311 	 
H 	 -52.6468 	 13.5665 	 26.2717 	 
H 	 -50.766 	 16.7945 	 18.845 	 
*
