! wB97X-D3 SP def2-SVP
%pal
nprocs 24
end

* xyz 0 1
S 	 -81.4027 	 -11.6844 	 -59.6038 	 
C 	 -81.4351 	 -10.0446 	 -60.1265 	 
C 	 -81.5387 	 -9.13365 	 -59.0629 	 
C 	 -82.0108 	 -9.89502 	 -57.879 	 
C 	 -82.1225 	 -11.253 	 -58.1164 	 
H 	 -82.3053 	 -9.48565 	 -56.9045 	 
C 	 -81.5007 	 -7.68474 	 -59.1109 	 
H 	 -80.6222 	 -7.39403 	 -59.6898 	 
H 	 -81.3704 	 -7.27211 	 -58.0743 	 
C 	 -82.6931 	 -6.94708 	 -59.7699 	 
H 	 -82.9241 	 -7.30047 	 -60.8111 	 
H 	 -83.6035 	 -7.27861 	 -59.2239 	 
C 	 -82.7079 	 -5.39977 	 -59.6914 	 
H 	 -83.0352 	 -4.97463 	 -58.7541 	 
H 	 -81.8166 	 -4.96509 	 -60.0758 	 
H 	 -83.4206 	 -5.13918 	 -60.4146 	 
S 	 -81.3924 	 -13.3657 	 -56.4959 	 
C 	 -82.5991 	 -14.1376 	 -55.5157 	 
C 	 -83.8412 	 -13.5096 	 -55.6706 	 
C 	 -83.7746 	 -12.3516 	 -56.4888 	 
C 	 -82.5902 	 -12.2135 	 -57.1726 	 
H 	 -84.675 	 -13.8136 	 -55.1066 	 
C 	 -85.0066 	 -11.5552 	 -56.8841 	 
H 	 -84.6402 	 -10.6096 	 -57.44 	 
H 	 -85.6967 	 -11.3665 	 -55.9998 	 
C 	 -86.015 	 -12.4147 	 -57.8433 	 
H 	 -86.8841 	 -11.7379 	 -57.9925 	 
H 	 -86.4249 	 -13.28 	 -57.3709 	 
C 	 -85.5653 	 -12.5957 	 -59.2957 	 
H 	 -85.0167 	 -11.7047 	 -59.5317 	 
H 	 -86.3162 	 -12.66 	 -60.0594 	 
H 	 -84.8156 	 -13.4062 	 -59.4466 	 
H 	 -81.3868 	 -9.8078 	 -61.2441 	 
H 	 -82.5492 	 -15.0053 	 -54.912 	 
*
