! wB97X-D3 SP def2-SVP
%pal
nprocs 24
end

* xyz 0 1
S 	 -80.8643 	 -41.5861 	 -76.8948 	 
C 	 -81.8276 	 -41.5658 	 -78.2952 	 
C 	 -82.9675 	 -42.2814 	 -78.1343 	 
C 	 -83.0397 	 -42.9636 	 -76.8566 	 
C 	 -81.9588 	 -42.6923 	 -76.0951 	 
H 	 -83.8017 	 -43.7166 	 -76.6269 	 
C 	 -84.0544 	 -42.4339 	 -79.1419 	 
H 	 -83.8402 	 -43.3495 	 -79.6061 	 
H 	 -83.8867 	 -41.7013 	 -79.9838 	 
C 	 -85.5323 	 -42.3751 	 -78.6137 	 
H 	 -86.2136 	 -42.6046 	 -79.4615 	 
H 	 -85.673 	 -43.1656 	 -77.8539 	 
C 	 -85.9877 	 -40.9535 	 -78.1576 	 
H 	 -85.3414 	 -40.6086 	 -77.2988 	 
H 	 -85.9279 	 -40.1953 	 -78.9624 	 
H 	 -87.0845 	 -40.9228 	 -77.7842 	 
S 	 -81.7887 	 -42.0184 	 -73.5001 	 
C 	 -81.3375 	 -43.1531 	 -72.2164 	 
C 	 -81.0831 	 -44.3944 	 -72.7918 	 
C 	 -81.246 	 -44.469 	 -74.2471 	 
C 	 -81.6628 	 -43.199 	 -74.7753 	 
H 	 -80.9031 	 -45.2167 	 -72.1421 	 
C 	 -81.0038 	 -45.8148 	 -74.9746 	 
H 	 -81.047 	 -45.5176 	 -76.0663 	 
H 	 -81.8977 	 -46.4808 	 -74.6989 	 
C 	 -79.6864 	 -46.6034 	 -74.6472 	 
H 	 -79.6565 	 -47.467 	 -75.2291 	 
H 	 -79.5994 	 -46.8602 	 -73.6137 	 
C 	 -78.4174 	 -45.8565 	 -75.1825 	 
H 	 -78.4836 	 -44.821 	 -75.0731 	 
H 	 -78.3695 	 -45.9906 	 -76.3115 	 
H 	 -77.4493 	 -46.2673 	 -74.7835 	 
H 	 -81.5564 	 -41.1161 	 -79.251 	 
H 	 -81.4041 	 -42.9993 	 -71.1466 	 
*
