! wB97X-D3 SP def2-SVP
%pal
nprocs 24
end

* xyz 0 1
S 	 -52.4709 	 9.20751 	 -20.4678 	 
C 	 -51.008 	 10.1075 	 -20.5933 	 
C 	 -51.0806 	 11.2311 	 -21.4718 	 
C 	 -52.3937 	 11.3823 	 -21.9287 	 
C 	 -53.2693 	 10.4277 	 -21.5151 	 
H 	 -52.8557 	 12.1945 	 -22.4891 	 
C 	 -49.8745 	 12.1603 	 -21.8131 	 
H 	 -49.7397 	 12.2567 	 -22.8568 	 
H 	 -48.9678 	 11.7086 	 -21.4141 	 
C 	 -49.9416 	 13.5658 	 -21.2224 	 
H 	 -48.9704 	 14.0525 	 -21.3452 	 
H 	 -50.5594 	 14.2461 	 -21.8006 	 
C 	 -50.3155 	 13.7622 	 -19.7745 	 
H 	 -49.9478 	 12.9736 	 -19.1873 	 
H 	 -50.0683 	 14.6313 	 -19.3111 	 
H 	 -51.4271 	 13.63 	 -19.6206 	 
S 	 -55.7435 	 9.93883 	 -20.524 	 
C 	 -57.0703 	 9.97833 	 -21.5716 	 
C 	 -56.7228 	 10.3409 	 -22.8487 	 
C 	 -55.316 	 10.5563 	 -23.0412 	 
C 	 -54.6242 	 10.32 	 -21.8772 	 
H 	 -57.4153 	 10.4116 	 -23.6659 	 
C 	 -54.5759 	 10.9018 	 -24.3579 	 
H 	 -53.6205 	 10.4064 	 -24.4217 	 
H 	 -54.4087 	 11.9358 	 -24.3619 	 
C 	 -55.426 	 10.6618 	 -25.6599 	 
H 	 -56.3884 	 11.1344 	 -25.5668 	 
H 	 -55.6895 	 9.64539 	 -25.7278 	 
C 	 -54.9632 	 11.0149 	 -27.0862 	 
H 	 -54.5151 	 12.0267 	 -27.0617 	 
H 	 -55.8055 	 11.0109 	 -27.8423 	 
H 	 -54.1638 	 10.3845 	 -27.4611 	 
H 	 -50.1452 	 9.77449 	 -20.0296 	 
H 	 -58.1431 	 9.80352 	 -21.2072 	 
*
