! wB97X-D3 SP def2-SVP
%pal
nprocs 24
end

* xyz 0 1
S 	 -90.8552 	 6.28565 	 -1.2716 	 
C 	 -89.3196 	 5.53324 	 -1.15051 	 
C 	 -89.1569 	 4.77924 	 0.0366149 	 
C 	 -90.3031 	 4.91093 	 0.860524 	 
C 	 -91.2354 	 5.78886 	 0.339255 	 
H 	 -90.4568 	 4.49664 	 1.86524 	 
C 	 -87.9102 	 3.90002 	 0.276254 	 
H 	 -87.5221 	 4.13676 	 1.28307 	 
H 	 -87.101 	 4.18149 	 -0.32807 	 
C 	 -88.017 	 2.42769 	 -0.0374486 	 
H 	 -88.5765 	 1.87435 	 0.674153 	 
H 	 -88.4955 	 2.35043 	 -1.05949 	 
C 	 -86.673 	 1.66494 	 -0.103465 	 
H 	 -86.099 	 2.04737 	 -0.854239 	 
H 	 -86.1639 	 1.7627 	 0.795405 	 
H 	 -86.8104 	 0.657293 	 -0.376295 	 
S 	 -94.0135 	 5.25191 	 0.161752 	 
C 	 -95.0888 	 5.88237 	 1.33796 	 
C 	 -94.3337 	 6.22649 	 2.44855 	 
C 	 -92.9418 	 6.35383 	 2.19453 	 
C 	 -92.5579 	 5.93445 	 0.937047 	 
H 	 -94.8081 	 6.38358 	 3.40687 	 
C 	 -92.0698 	 6.85175 	 3.27828 	 
H 	 -92.3075 	 7.84145 	 3.43108 	 
H 	 -91.0759 	 6.73631 	 2.99306 	 
C 	 -92.169 	 6.18001 	 4.65572 	 
H 	 -93.1303 	 5.98223 	 5.02158 	 
H 	 -91.6111 	 6.76848 	 5.4316 	 
C 	 -91.5374 	 4.82295 	 4.62913 	 
H 	 -92.125 	 4.08912 	 4.1539 	 
H 	 -91.3661 	 4.57563 	 5.7046 	 
H 	 -90.5523 	 4.82456 	 4.27238 	 
H 	 -88.6727 	 5.56848 	 -1.97016 	 
H 	 -96.0629 	 5.47373 	 1.59784 	 
*
