! wB97X-D3 SP def2-SVP
%pal
nprocs 24
end

* xyz 0 1
S 	 -33.7175 	 -10.7858 	 19.6799 	 
C 	 -33.1645 	 -12.2953 	 20.2411 	 
C 	 -33.7857 	 -13.3442 	 19.6433 	 
C 	 -34.7929 	 -12.9324 	 18.7402 	 
C 	 -34.8452 	 -11.5485 	 18.563 	 
H 	 -35.3827 	 -13.5848 	 18.1218 	 
C 	 -33.4167 	 -14.7656 	 19.9058 	 
H 	 -34.1347 	 -15.2989 	 20.544 	 
H 	 -32.5938 	 -14.8897 	 20.5713 	 
C 	 -33.1605 	 -15.6676 	 18.6971 	 
H 	 -33.1952 	 -16.689 	 18.9955 	 
H 	 -33.995 	 -15.5697 	 18.0506 	 
C 	 -31.7847 	 -15.3347 	 18.007 	 
H 	 -31.1664 	 -14.6018 	 18.4424 	 
H 	 -31.15 	 -16.2167 	 17.8844 	 
H 	 -31.9241 	 -14.9689 	 16.933 	 
S 	 -36.8465 	 -9.60154 	 18.5961 	 
C 	 -37.9028 	 -9.36678 	 17.1715 	 
C 	 -37.6255 	 -10.2524 	 16.1849 	 
C 	 -36.3852 	 -10.9548 	 16.4736 	 
C 	 -35.8405 	 -10.8025 	 17.7501 	 
H 	 -38.2463 	 -10.3608 	 15.2946 	 
C 	 -35.7825 	 -11.8573 	 15.4011 	 
H 	 -36.4941 	 -12.0081 	 14.6149 	 
H 	 -35.5834 	 -12.8615 	 15.8097 	 
C 	 -34.5395 	 -11.3306 	 14.8171 	 
H 	 -33.8283 	 -11.0148 	 15.6323 	 
H 	 -34.7627 	 -10.3936 	 14.4353 	 
C 	 -33.9351 	 -12.1386 	 13.585 	 
H 	 -34.551 	 -12.1544 	 12.6909 	 
H 	 -33.7338 	 -13.2254 	 13.8125 	 
H 	 -32.9811 	 -11.6178 	 13.2742 	 
H 	 -32.4441 	 -12.4718 	 21.0469 	 
H 	 -38.7245 	 -8.58228 	 17.1441 	 
*
