! wB97X-D3 SP def2-SVP
%pal
nprocs 24
end

* xyz 0 1
S 	 -52.4708 	 3.78011 	 -24.467 	 
C 	 -52.0272 	 3.73873 	 -22.7645 	 
C 	 -53.017 	 3.07547 	 -22.0745 	 
C 	 -54.0788 	 2.51923 	 -22.9106 	 
C 	 -53.9257 	 2.73663 	 -24.289 	 
H 	 -54.8253 	 1.93466 	 -22.5686 	 
C 	 -53.0355 	 2.66659 	 -20.6247 	 
H 	 -54.0116 	 2.86684 	 -20.3408 	 
H 	 -52.2753 	 3.22965 	 -20.074 	 
C 	 -52.8252 	 1.15307 	 -20.2488 	 
H 	 -53.4841 	 0.556311 	 -20.8042 	 
H 	 -51.8996 	 0.788879 	 -20.6481 	 
C 	 -52.9267 	 0.72797 	 -18.7522 	 
H 	 -52.2845 	 1.22885 	 -18.101 	 
H 	 -53.9184 	 1.00315 	 -18.3835 	 
H 	 -52.7907 	 -0.364261 	 -18.7263 	 
S 	 -55.0585 	 3.55191 	 -26.6092 	 
C 	 -56.1193 	 2.54753 	 -27.5288 	 
C 	 -56.3605 	 1.38177 	 -26.8832 	 
C 	 -55.4509 	 1.16597 	 -25.7852 	 
C 	 -54.7925 	 2.32451 	 -25.4465 	 
H 	 -57.0794 	 0.698431 	 -27.2816 	 
C 	 -55.4552 	 -0.118358 	 -24.9576 	 
H 	 -56.3868 	 -0.224968 	 -24.3775 	 
H 	 -54.6966 	 0.00201402 	 -24.1519 	 
C 	 -55.3231 	 -1.42759 	 -25.6513 	 
H 	 -54.3246 	 -1.57961 	 -26.0855 	 
H 	 -56.0813 	 -1.68274 	 -26.3747 	 
C 	 -55.57 	 -2.64876 	 -24.7558 	 
H 	 -56.3546 	 -2.30942 	 -24.0792 	 
H 	 -54.8235 	 -2.8313 	 -24.0692 	 
H 	 -55.8154 	 -3.57173 	 -25.3167 	 
H 	 -51.1481 	 4.00296 	 -22.3161 	 
H 	 -56.5724 	 2.83979 	 -28.4112 	 
*
