! wB97X-D3 SP def2-SVP
%pal
nprocs 24
end

* xyz 0 1
S 	 -111.21 	 61.6558 	 -68.0791 	 
C 	 -111.399 	 60.4002 	 -66.8465 	 
C 	 -112.481 	 60.678 	 -65.9946 	 
C 	 -113.103 	 61.8989 	 -66.2994 	 
C 	 -112.501 	 62.5963 	 -67.3747 	 
H 	 -113.959 	 62.4428 	 -65.8463 	 
C 	 -112.9 	 59.6904 	 -64.9197 	 
H 	 -112.045 	 59.0093 	 -64.9283 	 
H 	 -113.651 	 58.9622 	 -65.2046 	 
C 	 -113.165 	 60.1345 	 -63.4326 	 
H 	 -112.266 	 60.5884 	 -63.0446 	 
H 	 -113.841 	 60.985 	 -63.4888 	 
C 	 -113.508 	 58.9295 	 -62.5057 	 
H 	 -114.555 	 58.6111 	 -62.5413 	 
H 	 -112.726 	 58.1517 	 -62.7417 	 
H 	 -113.389 	 59.2095 	 -61.4445 	 
S 	 -111.829 	 65.0745 	 -68.4622 	 
C 	 -113.115 	 66.1104 	 -69.0549 	 
C 	 -114.37 	 65.5293 	 -68.7468 	 
C 	 -114.271 	 64.2698 	 -68.0937 	 
C 	 -112.985 	 63.7694 	 -67.9894 	 
H 	 -115.302 	 66.0522 	 -68.8168 	 
C 	 -115.492 	 63.4594 	 -67.8251 	 
H 	 -115.977 	 63.8644 	 -66.9856 	 
H 	 -115.336 	 62.4205 	 -67.6189 	 
C 	 -116.484 	 63.4835 	 -69.033 	 
H 	 -116.724 	 64.4877 	 -69.4268 	 
H 	 -117.49 	 63.1275 	 -68.7112 	 
C 	 -115.989 	 62.6339 	 -70.1785 	 
H 	 -115.602 	 61.7698 	 -69.8148 	 
H 	 -115.117 	 63.0253 	 -70.7393 	 
H 	 -116.836 	 62.3952 	 -70.8029 	 
H 	 -110.766 	 59.5353 	 -66.8486 	 
H 	 -113.051 	 67.0834 	 -69.5348 	 
*
