! wB97X-D3 SP def2-SVP
%pal
nprocs 24
end

* xyz 0 1
S 	 -53.5726 	 -49.922 	 -78.6174 	 
C 	 -53.5826 	 -48.1545 	 -78.6107 	 
C 	 -53.1149 	 -47.6253 	 -79.8148 	 
C 	 -52.9441 	 -48.6521 	 -80.7771 	 
C 	 -53.1511 	 -49.9473 	 -80.2953 	 
H 	 -52.7677 	 -48.5929 	 -81.8517 	 
C 	 -52.7019 	 -46.193 	 -80.0882 	 
H 	 -52.31 	 -46.0861 	 -81.0739 	 
H 	 -51.8198 	 -46.0355 	 -79.459 	 
C 	 -53.8478 	 -45.1874 	 -79.8038 	 
H 	 -54.1285 	 -45.2398 	 -78.8039 	 
H 	 -53.4986 	 -44.2204 	 -80.0617 	 
C 	 -55.1776 	 -45.4774 	 -80.6072 	 
H 	 -55.7878 	 -46.3481 	 -80.3253 	 
H 	 -55.8224 	 -44.5895 	 -80.6506 	 
H 	 -54.8811 	 -45.6439 	 -81.6505 	 
S 	 -53.8856 	 -51.7683 	 -82.2086 	 
C 	 -52.8326 	 -53.0074 	 -82.6384 	 
C 	 -51.7555 	 -53.0825 	 -81.7452 	 
C 	 -51.7645 	 -52.0409 	 -80.762 	 
C 	 -52.8249 	 -51.1818 	 -80.9853 	 
H 	 -50.8894 	 -53.6685 	 -81.9691 	 
C 	 -50.6324 	 -51.831 	 -79.7475 	 
H 	 -51.0395 	 -52.0609 	 -78.7782 	 
H 	 -50.5459 	 -50.7519 	 -79.6825 	 
C 	 -49.3308 	 -52.5628 	 -80.0552 	 
H 	 -49.1039 	 -52.763 	 -81.1455 	 
H 	 -49.4316 	 -53.5619 	 -79.551 	 
C 	 -48.1098 	 -51.8709 	 -79.4738 	 
H 	 -48.2358 	 -51.635 	 -78.4208 	 
H 	 -47.8704 	 -50.8777 	 -79.9575 	 
H 	 -47.2839 	 -52.4976 	 -79.722 	 
H 	 -53.8638 	 -47.5705 	 -77.7589 	 
H 	 -52.9843 	 -53.7006 	 -83.4821 	 
*
