! wB97X-D3 SP def2-SVP
%pal
nprocs 24
end

* xyz 0 1
S 	 -135.525 	 72.0674 	 -54.8947 	 
C 	 -135.401 	 70.9649 	 -56.2406 	 
C 	 -135.655 	 69.6687 	 -55.9112 	 
C 	 -136.048 	 69.5885 	 -54.5158 	 
C 	 -136.001 	 70.805 	 -53.8026 	 
H 	 -136.267 	 68.7219 	 -53.8924 	 
C 	 -135.631 	 68.4891 	 -56.8639 	 
H 	 -134.623 	 68.4165 	 -57.1537 	 
H 	 -136.149 	 68.9488 	 -57.7224 	 
C 	 -136.216 	 67.1726 	 -56.3665 	 
H 	 -137.051 	 67.4032 	 -55.6966 	 
H 	 -136.652 	 66.5911 	 -57.1488 	 
C 	 -135.166 	 66.3345 	 -55.4674 	 
H 	 -134.807 	 66.8842 	 -54.6275 	 
H 	 -135.533 	 65.3764 	 -55.1311 	 
H 	 -134.256 	 66.0021 	 -55.9708 	 
S 	 -137.632 	 72.2663 	 -52.1308 	 
C 	 -137.922 	 71.5949 	 -50.5812 	 
C 	 -137.11 	 70.5339 	 -50.2502 	 
C 	 -136.332 	 70.1439 	 -51.3477 	 
C 	 -136.481 	 70.9616 	 -52.4673 	 
H 	 -137.202 	 70.0012 	 -49.3577 	 
C 	 -135.365 	 68.9425 	 -51.2082 	 
H 	 -134.595 	 69.2495 	 -50.4901 	 
H 	 -134.96 	 68.6933 	 -52.1765 	 
C 	 -136.13 	 67.6186 	 -50.7326 	 
H 	 -136.838 	 67.3348 	 -51.5037 	 
H 	 -136.694 	 67.8859 	 -49.8495 	 
C 	 -135.272 	 66.4529 	 -50.5573 	 
H 	 -135.827 	 65.4979 	 -50.6744 	 
H 	 -134.788 	 66.4404 	 -49.6025 	 
H 	 -134.534 	 66.4489 	 -51.3601 	 
H 	 -134.988 	 71.1963 	 -57.2404 	 
H 	 -138.711 	 71.9504 	 -49.8908 	 
*
