! wB97X-D3 SP def2-SVP
%pal
nprocs 24
end

* xyz 0 1
S 	 -109.079 	 16.754 	 -121.038 	 
C 	 -109.269 	 15.0762 	 -120.573 	 
C 	 -109.579 	 14.1685 	 -121.628 	 
C 	 -109.504 	 14.8499 	 -122.841 	 
C 	 -109.076 	 16.1605 	 -122.737 	 
H 	 -109.616 	 14.4625 	 -123.81 	 
C 	 -109.874 	 12.6876 	 -121.428 	 
H 	 -110.092 	 12.2445 	 -122.427 	 
H 	 -110.747 	 12.5666 	 -120.806 	 
C 	 -108.649 	 11.7785 	 -120.98 	 
H 	 -108.452 	 12.1575 	 -119.957 	 
H 	 -108.946 	 10.7384 	 -120.865 	 
C 	 -107.285 	 11.8983 	 -121.626 	 
H 	 -107.232 	 11.8026 	 -122.765 	 
H 	 -106.742 	 12.8642 	 -121.407 	 
H 	 -106.773 	 11.0296 	 -121.245 	 
S 	 -109.785 	 18.549 	 -123.896 	 
C 	 -108.967 	 19.0516 	 -125.381 	 
C 	 -108.105 	 18.0651 	 -125.875 	 
C 	 -108.071 	 16.955 	 -124.966 	 
C 	 -108.898 	 17.0449 	 -123.885 	 
H 	 -107.729 	 18.2058 	 -126.889 	 
C 	 -107.125 	 15.8233 	 -125.277 	 
H 	 -107.199 	 15.0726 	 -124.476 	 
H 	 -106.119 	 16.3002 	 -125.148 	 
C 	 -107.197 	 15.2207 	 -126.655 	 
H 	 -107.229 	 15.9089 	 -127.377 	 
H 	 -108.185 	 14.8495 	 -126.676 	 
C 	 -106.086 	 14.2545 	 -126.939 	 
H 	 -105.913 	 13.6563 	 -126.069 	 
H 	 -105.058 	 14.6306 	 -127.137 	 
H 	 -106.3 	 13.4848 	 -127.727 	 
H 	 -109.172 	 14.8088 	 -119.568 	 
H 	 -109.284 	 19.8393 	 -125.964 	 
*
