! wB97X-D3 SP def2-SVP
%pal
nprocs 24
end

* xyz 0 1
S 	 -39.5549 	 -49.6478 	 -73.1051 	 
C 	 -39.2596 	 -48.0188 	 -73.7258 	 
C 	 -39.7573 	 -47.1022 	 -72.9137 	 
C 	 -40.4533 	 -47.6825 	 -71.8404 	 
C 	 -40.5495 	 -49.0845 	 -71.723 	 
H 	 -40.9462 	 -47.1506 	 -71.0582 	 
C 	 -39.6596 	 -45.6398 	 -73.2325 	 
H 	 -38.6683 	 -45.6117 	 -73.6454 	 
H 	 -39.6214 	 -45.0348 	 -72.3946 	 
C 	 -40.7849 	 -45.0339 	 -74.1677 	 
H 	 -40.4122 	 -44.011 	 -74.3831 	 
H 	 -40.7205 	 -45.5146 	 -75.1734 	 
C 	 -42.221 	 -45.18 	 -73.5505 	 
H 	 -42.8589 	 -44.4173 	 -74.0035 	 
H 	 -42.6561 	 -46.1712 	 -73.5853 	 
H 	 -42.0764 	 -44.9113 	 -72.4917 	 
S 	 -40.0898 	 -50.4911 	 -69.4928 	 
C 	 -41.3162 	 -51.0605 	 -68.508 	 
C 	 -42.5549 	 -50.7068 	 -68.9932 	 
C 	 -42.4277 	 -49.9306 	 -70.1966 	 
C 	 -41.1747 	 -49.8777 	 -70.693 	 
H 	 -43.5315 	 -50.7927 	 -68.4211 	 
C 	 -43.6856 	 -49.3857 	 -70.8299 	 
H 	 -43.3298 	 -48.9232 	 -71.7834 	 
H 	 -44.0076 	 -48.6397 	 -70.1476 	 
C 	 -44.831 	 -50.3584 	 -71.0666 	 
H 	 -45.0857 	 -51.034 	 -70.2458 	 
H 	 -44.4089 	 -51.0763 	 -71.8287 	 
C 	 -46.0506 	 -49.6765 	 -71.6014 	 
H 	 -45.7925 	 -49.1771 	 -72.5407 	 
H 	 -46.4956 	 -48.9794 	 -70.8484 	 
H 	 -46.8821 	 -50.4235 	 -71.8128 	 
H 	 -38.7335 	 -47.6981 	 -74.6835 	 
H 	 -41.2434 	 -51.7934 	 -67.7426 	 
*
