! wB97X-D3 SP def2-SVP
%pal
nprocs 24
end

* xyz 0 1
S 	 -69.6645 	 9.70969 	 -100.638 	 
C 	 -68.3178 	 10.8376 	 -100.39 	 
C 	 -67.1291 	 10.1177 	 -100.281 	 
C 	 -67.2464 	 8.69973 	 -100.404 	 
C 	 -68.5589 	 8.31407 	 -100.675 	 
H 	 -66.4728 	 7.9394 	 -100.377 	 
C 	 -65.7623 	 10.7631 	 -100.314 	 
H 	 -65.0546 	 10.0854 	 -100.798 	 
H 	 -65.443 	 10.7248 	 -99.2958 	 
C 	 -65.6677 	 12.0907 	 -101.027 	 
H 	 -65.889 	 11.9074 	 -102.103 	 
H 	 -66.4573 	 12.7356 	 -100.621 	 
C 	 -64.2975 	 12.8073 	 -100.783 	 
H 	 -63.5618 	 12.4284 	 -101.499 	 
H 	 -64.3503 	 13.8704 	 -100.889 	 
H 	 -64.049 	 12.5483 	 -99.7711 	 
S 	 -69.9755 	 6.20397 	 -99.7631 	 
C 	 -70.184 	 4.75543 	 -100.692 	 
C 	 -69.4395 	 4.82502 	 -101.87 	 
C 	 -68.86 	 6.15414 	 -102.065 	 
C 	 -69.0486 	 6.96797 	 -100.957 	 
H 	 -69.4298 	 4.07011 	 -102.664 	 
C 	 -68.1398 	 6.53263 	 -103.421 	 
H 	 -68.4283 	 5.7607 	 -104.089 	 
H 	 -67.1108 	 6.42318 	 -103.162 	 
C 	 -68.397 	 7.90737 	 -104.102 	 
H 	 -67.9987 	 8.68146 	 -103.313 	 
H 	 -69.5133 	 8.0122 	 -104.145 	 
C 	 -67.6118 	 8.14234 	 -105.377 	 
H 	 -66.5137 	 8.21684 	 -105.241 	 
H 	 -68.0101 	 8.95745 	 -105.977 	 
H 	 -67.8746 	 7.2889 	 -106.109 	 
H 	 -68.3655 	 11.8945 	 -100.249 	 
H 	 -70.9454 	 3.96079 	 -100.486 	 
*
