! wB97X-D3 SP def2-SVP
%pal
nprocs 24
end

* xyz 0 1
S 	 -54.3908 	 13.7798 	 21.5927 	 
C 	 -54.3736 	 12.6375 	 20.2913 	 
C 	 -53.5661 	 11.5281 	 20.5365 	 
C 	 -52.9456 	 11.596 	 21.8356 	 
C 	 -53.2439 	 12.7683 	 22.461 	 
H 	 -52.3063 	 10.8703 	 22.2817 	 
C 	 -53.1982 	 10.5312 	 19.4781 	 
H 	 -53.8319 	 10.6583 	 18.6146 	 
H 	 -53.1751 	 9.55248 	 19.8569 	 
C 	 -51.7846 	 10.9581 	 18.8265 	 
H 	 -52.0258 	 11.9779 	 18.5485 	 
H 	 -50.9696 	 11.01 	 19.5864 	 
C 	 -51.4192 	 10.0877 	 17.6328 	 
H 	 -50.4288 	 10.3312 	 17.2118 	 
H 	 -51.3772 	 9.04972 	 17.8712 	 
H 	 -52.0877 	 10.1903 	 16.7762 	 
S 	 -53.8941 	 13.7952 	 24.9187 	 
C 	 -52.6437 	 13.7219 	 26.1977 	 
C 	 -51.4017 	 13.2875 	 25.7313 	 
C 	 -51.417 	 12.9322 	 24.3718 	 
C 	 -52.7382 	 13.1421 	 23.7651 	 
H 	 -50.5572 	 13.2177 	 26.4053 	 
C 	 -50.1359 	 12.4042 	 23.743 	 
H 	 -50.415 	 11.6174 	 23.0337 	 
H 	 -49.6449 	 11.8601 	 24.6157 	 
C 	 -49.2095 	 13.5434 	 23.2108 	 
H 	 -48.6481 	 13.8452 	 24.1394 	 
H 	 -49.7864 	 14.4908 	 22.9453 	 
C 	 -48.1782 	 13.0555 	 22.1033 	 
H 	 -48.5921 	 12.669 	 21.2161 	 
H 	 -47.4714 	 12.2429 	 22.3998 	 
H 	 -47.534 	 13.8621 	 21.7774 	 
H 	 -55.0176 	 12.6816 	 19.436 	 
H 	 -52.7406 	 14.0653 	 27.1937 	 
*
