! wB97X-D3 SP def2-SVP
%pal
nprocs 24
end

* xyz 0 1
S 	 37.6381 	 -23.8232 	 -122.142 	 
C 	 37.5906 	 -23.1125 	 -123.758 	 
C 	 37.37 	 -24.1355 	 -124.692 	 
C 	 37.545 	 -25.44 	 -124.138 	 
C 	 37.8808 	 -25.4444 	 -122.781 	 
H 	 37.4005 	 -26.3251 	 -124.692 	 
C 	 36.9399 	 -23.8341 	 -126.083 	 
H 	 37.2504 	 -22.8007 	 -126.26 	 
H 	 35.8727 	 -23.7273 	 -126.01 	 
C 	 37.5587 	 -24.7403 	 -127.185 	 
H 	 37.4245 	 -25.765 	 -127.077 	 
H 	 37.079 	 -24.4245 	 -128.128 	 
C 	 39.0474 	 -24.4646 	 -127.35 	 
H 	 39.6714 	 -25.1216 	 -128.032 	 
H 	 39.3066 	 -23.4247 	 -127.507 	 
H 	 39.4981 	 -24.7443 	 -126.428 	 
S 	 37.1871 	 -26.9252 	 -120.478 	 
C 	 37.9144 	 -28.5497 	 -120.373 	 
C 	 39.0053 	 -28.6382 	 -121.19 	 
C 	 39.1166 	 -27.5528 	 -122.095 	 
C 	 38.1071 	 -26.5737 	 -121.958 	 
H 	 39.6709 	 -29.4859 	 -121.171 	 
C 	 40.1378 	 -27.5755 	 -123.143 	 
H 	 40.5249 	 -26.579 	 -123.135 	 
H 	 39.6467 	 -27.6102 	 -124.119 	 
C 	 41.3119 	 -28.5769 	 -123.074 	 
H 	 40.9201 	 -29.5306 	 -122.996 	 
H 	 41.8596 	 -28.3374 	 -122.104 	 
C 	 42.2758 	 -28.4295 	 -124.259 	 
H 	 43.0031 	 -27.6429 	 -124.158 	 
H 	 41.7919 	 -28.3688 	 -125.259 	 
H 	 42.8408 	 -29.35 	 -124.189 	 
H 	 37.5533 	 -22.056 	 -123.986 	 
H 	 37.5383 	 -29.2541 	 -119.602 	 
*
