! wB97X-D3 SP def2-SVP
%pal
nprocs 24
end

* xyz 0 1
S 	 -63.2769 	 10.4516 	 -102.037 	 
C 	 -64.3568 	 10.9476 	 -103.368 	 
C 	 -63.6221 	 11.1966 	 -104.535 	 
C 	 -62.2178 	 10.8719 	 -104.394 	 
C 	 -61.9299 	 10.4448 	 -103.125 	 
H 	 -61.5254 	 11.0293 	 -105.222 	 
C 	 -64.2944 	 11.6092 	 -105.829 	 
H 	 -65.3845 	 11.5432 	 -105.636 	 
H 	 -64.0957 	 10.9269 	 -106.62 	 
C 	 -63.922 	 12.9249 	 -106.477 	 
H 	 -64.0098 	 13.7579 	 -105.792 	 
H 	 -62.9256 	 12.8656 	 -106.971 	 
C 	 -64.9297 	 13.2611 	 -107.585 	 
H 	 -65.9598 	 13.034 	 -107.332 	 
H 	 -65.0189 	 14.2312 	 -107.958 	 
H 	 -64.7163 	 12.5911 	 -108.458 	 
S 	 -60.2526 	 10.6129 	 -100.832 	 
C 	 -58.4991 	 10.3134 	 -101.012 	 
C 	 -58.2258 	 9.79562 	 -102.281 	 
C 	 -59.3729 	 9.90571 	 -103.147 	 
C 	 -60.5845 	 10.2576 	 -102.551 	 
H 	 -57.3007 	 9.54129 	 -102.663 	 
C 	 -59.1496 	 9.5991 	 -104.637 	 
H 	 -60.109 	 9.46409 	 -105.134 	 
H 	 -58.4528 	 8.72181 	 -104.741 	 
C 	 -58.34 	 10.5904 	 -105.423 	 
H 	 -57.3276 	 10.7182 	 -104.978 	 
H 	 -58.843 	 11.5608 	 -105.338 	 
C 	 -58.2305 	 10.2696 	 -106.963 	 
H 	 -57.456 	 10.9682 	 -107.386 	 
H 	 -59.1614 	 10.453 	 -107.423 	 
H 	 -57.7267 	 9.28675 	 -107.328 	 
H 	 -65.406 	 11.0024 	 -103.338 	 
H 	 -57.7131 	 10.4238 	 -100.202 	 
*
