! wB97X-D3 SP def2-SVP
%pal
nprocs 24
end

* xyz 0 1
S 	 -52.3984 	 19.8175 	 -88.7697 	 
C 	 -52.5972 	 21.374 	 -87.9846 	 
C 	 -53.1883 	 22.3246 	 -88.7743 	 
C 	 -53.4288 	 21.8622 	 -90.1369 	 
C 	 -52.9455 	 20.5628 	 -90.2849 	 
H 	 -53.9454 	 22.3526 	 -90.9482 	 
C 	 -53.5257 	 23.7401 	 -88.2734 	 
H 	 -53.6366 	 23.7262 	 -87.1577 	 
H 	 -54.5414 	 23.9886 	 -88.6866 	 
C 	 -52.4004 	 24.7621 	 -88.764 	 
H 	 -52.4089 	 24.5805 	 -89.8496 	 
H 	 -52.7027 	 25.7386 	 -88.3793 	 
C 	 -50.9267 	 24.5999 	 -88.3338 	 
H 	 -50.8082 	 24.5424 	 -87.2939 	 
H 	 -50.2991 	 23.8496 	 -88.8431 	 
H 	 -50.4388 	 25.5224 	 -88.5811 	 
S 	 -53.8045 	 18.2366 	 -91.4989 	 
C 	 -53.4669 	 17.8948 	 -93.1573 	 
C 	 -52.7719 	 18.9735 	 -93.7357 	 
C 	 -52.5298 	 20.041 	 -92.8285 	 
C 	 -52.934 	 19.7899 	 -91.5122 	 
H 	 -52.5501 	 19.0074 	 -94.8003 	 
C 	 -51.963 	 21.3809 	 -93.3193 	 
H 	 -51.0192 	 20.8888 	 -93.7263 	 
H 	 -51.6217 	 21.9813 	 -92.4719 	 
C 	 -52.8902 	 22.1589 	 -94.2552 	 
H 	 -53.8213 	 22.3423 	 -93.7972 	 
H 	 -53.1576 	 21.5114 	 -95.1251 	 
C 	 -52.2494 	 23.4898 	 -94.7456 	 
H 	 -52.8753 	 24.111 	 -95.4008 	 
H 	 -51.3455 	 23.1514 	 -95.3047 	 
H 	 -52.0058 	 24.2332 	 -93.9793 	 
H 	 -52.3216 	 21.5905 	 -87.0491 	 
H 	 -53.7347 	 17.1566 	 -93.8909 	 
*
