! wB97X-D3 SP def2-SVP
%pal
nprocs 24
end

* xyz 0 1
S 	 -76.0038 	 -0.847004 	 10.9309 	 
C 	 -77.3046 	 -2.01787 	 11.0377 	 
C 	 -78.2481 	 -1.74552 	 10.0777 	 
C 	 -77.9035 	 -0.650965 	 9.23147 	 
C 	 -76.7309 	 0.0239027 	 9.59661 	 
H 	 -78.4566 	 -0.237898 	 8.42086 	 
C 	 -79.5101 	 -2.54776 	 9.77321 	 
H 	 -79.411 	 -3.66646 	 9.83044 	 
H 	 -79.8483 	 -2.28574 	 8.82289 	 
C 	 -80.6584 	 -2.14384 	 10.6947 	 
H 	 -81.4592 	 -2.80927 	 10.3406 	 
H 	 -80.4932 	 -2.46419 	 11.699 	 
C 	 -81.067 	 -0.664843 	 10.6361 	 
H 	 -80.3479 	 0.0098231 	 11.2301 	 
H 	 -81.1371 	 -0.324439 	 9.6433 	 
H 	 -82.0958 	 -0.477655 	 10.9856 	 
S 	 -75.6575 	 2.6924 	 9.8564 	 
C 	 -75.1492 	 3.45015 	 8.36234 	 
C 	 -75.2104 	 2.57211 	 7.31856 	 
C 	 -75.7693 	 1.29935 	 7.63257 	 
C 	 -76.1722 	 1.23372 	 8.94039 	 
H 	 -74.7514 	 2.94691 	 6.40558 	 
C 	 -75.9914 	 0.208355 	 6.61546 	 
H 	 -76.8132 	 0.347422 	 5.8853 	 
H 	 -76.3109 	 -0.63765 	 7.17859 	 
C 	 -74.7587 	 -0.206123 	 5.80636 	 
H 	 -74.4088 	 0.715243 	 5.28319 	 
H 	 -75.0907 	 -1.02246 	 5.07285 	 
C 	 -73.7043 	 -0.837425 	 6.67612 	 
H 	 -73.0824 	 -0.202795 	 7.23401 	 
H 	 -73.1109 	 -1.53241 	 6.04486 	 
H 	 -74.2115 	 -1.46475 	 7.41854 	 
H 	 -77.3051 	 -2.82439 	 11.7117 	 
H 	 -74.7804 	 4.40298 	 8.33653 	 
*
