! wB97X-D3 SP def2-SVP
%pal
nprocs 24
end

* xyz 0 1
S 	 41.7071 	 -13.4631 	 -123.644 	 
C 	 40.0267 	 -13.242 	 -124.025 	 
C 	 39.789 	 -13.8717 	 -125.241 	 
C 	 40.935 	 -14.5139 	 -125.812 	 
C 	 42.0906 	 -14.3021 	 -125.169 	 
H 	 41.12 	 -15.0807 	 -126.772 	 
C 	 38.447 	 -13.8934 	 -125.948 	 
H 	 37.5571 	 -13.6506 	 -125.377 	 
H 	 38.1329 	 -14.8179 	 -126.423 	 
C 	 38.4938 	 -12.8804 	 -127.156 	 
H 	 39.4472 	 -12.9359 	 -127.61 	 
H 	 37.7116 	 -13.0041 	 -127.88 	 
C 	 38.2964 	 -11.4278 	 -126.618 	 
H 	 39.0719 	 -11.0728 	 -125.945 	 
H 	 38.321 	 -10.7069 	 -127.467 	 
H 	 37.3468 	 -11.2494 	 -126.132 	 
S 	 44.4947 	 -15.2504 	 -124.313 	 
C 	 45.7478 	 -15.7148 	 -125.45 	 
C 	 45.2262 	 -15.5327 	 -126.741 	 
C 	 44.0354 	 -14.8467 	 -126.868 	 
C 	 43.454 	 -14.6306 	 -125.62 	 
H 	 45.8707 	 -15.7875 	 -127.567 	 
C 	 43.4052 	 -14.3502 	 -128.212 	 
H 	 42.4415 	 -14.7953 	 -128.5 	 
H 	 44.1424 	 -14.5195 	 -129.027 	 
C 	 43.2667 	 -12.8172 	 -128.305 	 
H 	 44.2669 	 -12.4036 	 -127.987 	 
H 	 42.509 	 -12.3557 	 -127.637 	 
C 	 43.0263 	 -12.3185 	 -129.689 	 
H 	 43.869 	 -12.5983 	 -130.307 	 
H 	 42.787 	 -11.2671 	 -129.646 	 
H 	 42.2237 	 -12.916 	 -130.014 	 
H 	 39.3397 	 -12.7698 	 -123.34 	 
H 	 46.7431 	 -16.051 	 -125.208 	 
*
