! wB97X-D3 SP def2-SVP
%pal
nprocs 24
end

* xyz 0 1
S 	 -84.4112 	 2.70073 	 -116.177 	 
C 	 -84.2991 	 3.30126 	 -117.798 	 
C 	 -85.5427 	 3.54205 	 -118.341 	 
C 	 -86.5977 	 3.36049 	 -117.375 	 
C 	 -86.2128 	 2.9226 	 -116.152 	 
H 	 -87.616 	 3.6032 	 -117.504 	 
C 	 -85.843 	 4.06982 	 -119.685 	 
H 	 -85.3942 	 5.1295 	 -119.627 	 
H 	 -86.9074 	 4.30383 	 -119.714 	 
C 	 -85.3714 	 3.28703 	 -120.953 	 
H 	 -85.5885 	 3.75557 	 -121.936 	 
H 	 -84.2766 	 3.42515 	 -120.773 	 
C 	 -85.7544 	 1.83649 	 -120.909 	 
H 	 -85.5408 	 1.34354 	 -119.946 	 
H 	 -86.8975 	 1.74275 	 -120.91 	 
H 	 -85.2652 	 1.20976 	 -121.638 	 
S 	 -86.4796 	 1.06005 	 -114.227 	 
C 	 -87.8357 	 0.989863 	 -113.229 	 
C 	 -88.6883 	 2.09228 	 -113.461 	 
C 	 -88.2988 	 2.90212 	 -114.547 	 
C 	 -87.0161 	 2.52426 	 -114.997 	 
H 	 -89.6154 	 2.0489 	 -112.979 	 
C 	 -89.0681 	 4.13675 	 -115.086 	 
H 	 -88.466 	 4.84235 	 -115.626 	 
H 	 -89.451 	 4.66043 	 -114.198 	 
C 	 -90.3719 	 3.88805 	 -115.928 	 
H 	 -90.9883 	 3.19407 	 -115.392 	 
H 	 -90.1206 	 3.36527 	 -116.922 	 
C 	 -91.1047 	 5.2364 	 -116.288 	 
H 	 -91.3467 	 5.63907 	 -115.338 	 
H 	 -91.9263 	 5.11934 	 -116.984 	 
H 	 -90.2904 	 5.88171 	 -116.753 	 
H 	 -83.3852 	 3.5199 	 -118.396 	 
H 	 -88.014 	 0.297084 	 -112.442 	 
*
