! wB97X-D3 SP def2-SVP
%pal
nprocs 24
end

* xyz 0 1
S 	 -137.286 	 14.459 	 -2.15658 	 
C 	 -135.94 	 15.4888 	 -2.42872 	 
C 	 -134.806 	 15.142 	 -1.74726 	 
C 	 -135.034 	 13.94 	 -0.9857 	 
C 	 -136.224 	 13.3604 	 -1.33767 	 
H 	 -134.37 	 13.4276 	 -0.340705 	 
C 	 -133.47 	 15.8223 	 -1.68564 	 
H 	 -133.219 	 15.6901 	 -0.652975 	 
H 	 -133.592 	 16.8399 	 -1.865 	 
C 	 -132.396 	 15.1369 	 -2.55805 	 
H 	 -131.42 	 15.4537 	 -2.28302 	 
H 	 -132.424 	 14.1055 	 -2.41281 	 
C 	 -132.596 	 15.3849 	 -4.11041 	 
H 	 -132.506 	 16.4959 	 -4.27566 	 
H 	 -131.95 	 14.8171 	 -4.71403 	 
H 	 -133.604 	 15.1167 	 -4.40545 	 
S 	 -138.287 	 11.9154 	 -0.141797 	 
C 	 -138.285 	 10.1485 	 -0.316896 	 
C 	 -136.998 	 9.73466 	 -0.57043 	 
C 	 -136.166 	 10.769 	 -0.989811 	 
C 	 -136.725 	 12.0436 	 -0.918259 	 
H 	 -136.758 	 8.64251 	 -0.643543 	 
C 	 -134.735 	 10.5606 	 -1.58163 	 
H 	 -134.466 	 9.55427 	 -1.2351 	 
H 	 -134.02 	 11.3381 	 -1.18828 	 
C 	 -134.738 	 10.5703 	 -3.06169 	 
H 	 -135.005 	 11.5447 	 -3.47197 	 
H 	 -135.454 	 9.87699 	 -3.43424 	 
C 	 -133.334 	 10.231 	 -3.62516 	 
H 	 -133.027 	 9.43647 	 -3.01465 	 
H 	 -132.622 	 11.0579 	 -3.56046 	 
H 	 -133.532 	 9.86591 	 -4.7015 	 
H 	 -135.968 	 16.4581 	 -2.96127 	 
H 	 -138.984 	 9.49012 	 0.0678549 	 
*
