! wB97X-D3 SP def2-SVP
%pal
nprocs 24
end

* xyz 0 1
S 	 -82.8552 	 1.22386 	 -113.324 	 
C 	 -82.8006 	 2.99915 	 -113.69 	 
C 	 -83.9877 	 3.36215 	 -114.345 	 
C 	 -85.0431 	 2.30134 	 -114.275 	 
C 	 -84.5918 	 1.0608 	 -113.779 	 
H 	 -86.0743 	 2.2783 	 -114.532 	 
C 	 -84.3459 	 4.81018 	 -114.616 	 
H 	 -84.2768 	 4.80108 	 -115.729 	 
H 	 -83.4665 	 5.37337 	 -114.361 	 
C 	 -85.6386 	 5.32504 	 -114.012 	 
H 	 -85.9651 	 6.28075 	 -114.4 	 
H 	 -86.4047 	 4.70417 	 -114.333 	 
C 	 -85.6819 	 5.50603 	 -112.45 	 
H 	 -85.368 	 4.60762 	 -111.871 	 
H 	 -85.0277 	 6.29905 	 -112.205 	 
H 	 -86.6883 	 5.82881 	 -112.067 	 
S 	 -85.3687 	 -0.652003 	 -111.909 	 
C 	 -86.7376 	 -1.65537 	 -112.238 	 
C 	 -87.1465 	 -1.63932 	 -113.565 	 
C 	 -86.3266 	 -0.709585 	 -114.359 	 
C 	 -85.3529 	 -0.112148 	 -113.534 	 
H 	 -88.022 	 -2.15215 	 -113.835 	 
C 	 -86.6719 	 -0.460059 	 -115.827 	 
H 	 -86.1151 	 0.326786 	 -116.295 	 
H 	 -87.7052 	 -0.107169 	 -115.789 	 
C 	 -86.3904 	 -1.65481 	 -116.853 	 
H 	 -86.9756 	 -2.59345 	 -116.626 	 
H 	 -85.3353 	 -1.98374 	 -116.725 	 
C 	 -86.6089 	 -1.39576 	 -118.35 	 
H 	 -86.9961 	 -2.23315 	 -118.938 	 
H 	 -85.7919 	 -0.866056 	 -118.868 	 
H 	 -87.4786 	 -0.718878 	 -118.523 	 
H 	 -81.9489 	 3.66464 	 -113.452 	 
H 	 -87.2553 	 -2.37827 	 -111.546 	 
*
