! wB97X-D3 SP def2-SVP
%pal
nprocs 24
end

* xyz 0 1
S 	 -82.6324 	 -4.82848 	 7.0083 	 
C 	 -83.045 	 -4.69913 	 5.28262 	 
C 	 -82.1953 	 -5.48798 	 4.5014 	 
C 	 -81.3465 	 -6.21714 	 5.3506 	 
C 	 -81.3153 	 -5.98364 	 6.67881 	 
H 	 -80.5364 	 -6.78273 	 4.8312 	 
C 	 -82.4164 	 -5.87056 	 2.99476 	 
H 	 -83.4153 	 -6.3212 	 2.92115 	 
H 	 -81.7109 	 -6.5453 	 2.61275 	 
C 	 -82.2159 	 -4.642 	 2.08839 	 
H 	 -82.2888 	 -4.9748 	 1.05755 	 
H 	 -83.1318 	 -4.05747 	 2.28944 	 
C 	 -80.9091 	 -3.83652 	 2.051 	 
H 	 -80.7959 	 -3.23462 	 1.15075 	 
H 	 -80.612 	 -3.24252 	 2.92256 	 
H 	 -80.1771 	 -4.62116 	 1.95637 	 
S 	 -81.202 	 -7.6076 	 8.98476 	 
C 	 -79.9177 	 -7.45152 	 10.0894 	 
C 	 -78.9905 	 -6.54842 	 9.60505 	 
C 	 -79.2642 	 -5.95616 	 8.30859 	 
C 	 -80.5016 	 -6.4177 	 7.80544 	 
H 	 -78.0899 	 -6.26506 	 10.1317 	 
C 	 -78.3268 	 -5.15914 	 7.44914 	 
H 	 -77.5041 	 -4.69692 	 8.01627 	 
H 	 -78.9132 	 -4.30033 	 7.0749 	 
C 	 -77.7276 	 -5.92439 	 6.26955 	 
H 	 -78.4681 	 -6.61288 	 5.98056 	 
H 	 -76.8735 	 -6.57026 	 6.59459 	 
C 	 -77.2015 	 -5.097 	 5.12215 	 
H 	 -76.3701 	 -4.46696 	 5.45559 	 
H 	 -77.9461 	 -4.55752 	 4.64811 	 
H 	 -76.7741 	 -5.88097 	 4.43706 	 
H 	 -83.8083 	 -4.11742 	 4.83787 	 
H 	 -79.9013 	 -7.73207 	 11.1094 	 
*
