! wB97X-D3 SP def2-SVP
%pal
nprocs 24
end

* xyz 0 1
S 	 -59.9699 	 -56.1329 	 -87.0528 	 
C 	 -61.0014 	 -54.9316 	 -86.2792 	 
C 	 -61.3815 	 -55.2891 	 -84.9835 	 
C 	 -60.8878 	 -56.6035 	 -84.6743 	 
C 	 -60.1106 	 -57.2135 	 -85.6572 	 
H 	 -61.0373 	 -57.1157 	 -83.6915 	 
C 	 -62.1016 	 -54.4456 	 -83.9742 	 
H 	 -61.3556 	 -53.7325 	 -83.6103 	 
H 	 -62.3511 	 -55.0847 	 -83.1276 	 
C 	 -63.3393 	 -53.8537 	 -84.5191 	 
H 	 -63.1674 	 -53.108 	 -85.286 	 
H 	 -63.8956 	 -54.7159 	 -84.9806 	 
C 	 -64.2272 	 -53.0546 	 -83.5879 	 
H 	 -65.0807 	 -52.6514 	 -84.1245 	 
H 	 -64.5737 	 -53.6352 	 -82.7377 	 
H 	 -63.6695 	 -52.2671 	 -83.1199 	 
S 	 -57.6314 	 -58.1815 	 -85.9695 	 
C 	 -57.2804 	 -59.8344 	 -85.4527 	 
C 	 -58.426 	 -60.5748 	 -85.3052 	 
C 	 -59.6329 	 -59.7387 	 -85.2656 	 
C 	 -59.315 	 -58.416 	 -85.5818 	 
H 	 -58.3311 	 -61.619 	 -85.0742 	 
C 	 -61.0532 	 -60.262 	 -85.1002 	 
H 	 -61.6486 	 -59.4836 	 -84.7225 	 
H 	 -61.0885 	 -61.0116 	 -84.2859 	 
C 	 -61.5769 	 -60.9122 	 -86.394 	 
H 	 -62.4382 	 -61.5717 	 -86.1477 	 
H 	 -60.67 	 -61.4589 	 -86.7061 	 
C 	 -61.9317 	 -60.0252 	 -87.5679 	 
H 	 -62.6444 	 -59.2906 	 -87.167 	 
H 	 -62.6002 	 -60.6125 	 -88.214 	 
H 	 -61.1163 	 -59.5759 	 -88.1424 	 
H 	 -61.4289 	 -54.0775 	 -86.7191 	 
H 	 -56.2739 	 -60.2262 	 -85.2867 	 
*
