! wB97X-D3 SP def2-SVP
%pal
nprocs 24
end

* xyz 0 1
S 	 2.32176 	 -24.8459 	 -110.227 	 
C 	 2.7778 	 -23.5948 	 -109.022 	 
C 	 3.0108 	 -22.3756 	 -109.635 	 
C 	 2.88564 	 -22.4523 	 -111.075 	 
C 	 2.7486 	 -23.691 	 -111.569 	 
H 	 2.9966 	 -21.7344 	 -111.793 	 
C 	 3.33593 	 -21.1053 	 -108.853 	 
H 	 3.82857 	 -20.4653 	 -109.561 	 
H 	 4.10402 	 -21.2602 	 -108.144 	 
C 	 2.13572 	 -20.2641 	 -108.316 	 
H 	 1.55771 	 -20.8417 	 -107.481 	 
H 	 2.46401 	 -19.297 	 -107.883 	 
C 	 1.13262 	 -19.8466 	 -109.408 	 
H 	 0.355772 	 -19.143 	 -109.056 	 
H 	 1.69268 	 -19.2682 	 -110.122 	 
H 	 0.643412 	 -20.607 	 -109.875 	 
S 	 1.25056 	 -24.678 	 -113.75 	 
C 	 1.63887 	 -24.0913 	 -115.359 	 
C 	 2.85545 	 -23.4347 	 -115.309 	 
C 	 3.51461 	 -23.2981 	 -114.005 	 
C 	 2.70759 	 -23.8451 	 -113.014 	 
H 	 3.23292 	 -22.9987 	 -116.222 	 
C 	 4.91188 	 -22.614 	 -113.808 	 
H 	 5.19132 	 -22.8892 	 -112.846 	 
H 	 4.8695 	 -21.5595 	 -113.82 	 
C 	 5.94838 	 -22.9248 	 -114.902 	 
H 	 6.84971 	 -22.2785 	 -114.895 	 
H 	 5.42672 	 -22.6155 	 -115.806 	 
C 	 6.53626 	 -24.3088 	 -114.825 	 
H 	 7.00814 	 -24.5793 	 -115.789 	 
H 	 5.85544 	 -25.0201 	 -114.417 	 
H 	 7.41475 	 -24.1842 	 -114.099 	 
H 	 2.74855 	 -23.8522 	 -107.985 	 
H 	 0.979039 	 -24.1716 	 -116.178 	 
*
