! wB97X-D3 SP def2-SVP
%pal
nprocs 24
end

* xyz 0 1
S 	 -105.879 	 60.7121 	 -96.2624 	 
C 	 -107.309 	 60.8101 	 -97.2775 	 
C 	 -106.981 	 61.2405 	 -98.5479 	 
C 	 -105.65 	 61.7756 	 -98.5863 	 
C 	 -104.887 	 61.4449 	 -97.4948 	 
H 	 -105.244 	 62.3161 	 -99.4365 	 
C 	 -108.01 	 61.3646 	 -99.6224 	 
H 	 -108.645 	 60.5087 	 -99.5654 	 
H 	 -107.483 	 61.4258 	 -100.522 	 
C 	 -108.945 	 62.6556 	 -99.5588 	 
H 	 -109.82 	 62.6005 	 -100.298 	 
H 	 -109.332 	 62.8041 	 -98.5778 	 
C 	 -108.138 	 63.9573 	 -99.8363 	 
H 	 -107.333 	 64.1135 	 -99.0309 	 
H 	 -107.606 	 63.8719 	 -100.752 	 
H 	 -108.745 	 64.8913 	 -99.957 	 
S 	 -103.287 	 63.6629 	 -97.8562 	 
C 	 -101.756 	 63.7733 	 -97.0872 	 
C 	 -101.39 	 62.5793 	 -96.6542 	 
C 	 -102.389 	 61.5371 	 -96.7145 	 
C 	 -103.561 	 61.9905 	 -97.3032 	 
H 	 -100.348 	 62.4051 	 -96.3339 	 
C 	 -102.11 	 60.091 	 -96.2737 	 
H 	 -102.958 	 59.4829 	 -96.4692 	 
H 	 -102.014 	 60.1029 	 -95.2702 	 
C 	 -100.879 	 59.4698 	 -96.806 	 
H 	 -99.9694 	 59.9738 	 -96.4771 	 
H 	 -100.961 	 59.5262 	 -97.8929 	 
C 	 -100.718 	 58.0048 	 -96.3409 	 
H 	 -99.8637 	 57.5808 	 -96.8805 	 
H 	 -101.666 	 57.5065 	 -96.5475 	 
H 	 -100.497 	 57.8527 	 -95.2619 	 
H 	 -108.3 	 60.5747 	 -96.9817 	 
H 	 -101.107 	 64.6362 	 -97.1213 	 
*
