! wB97X-D3 SP def2-SVP
%pal
nprocs 24
end

* xyz 0 1
S 	 -93.6862 	 13.0835 	 -118.849 	 
C 	 -92.1041 	 13.6596 	 -119.091 	 
C 	 -91.2386 	 12.6293 	 -118.743 	 
C 	 -91.9203 	 11.4145 	 -118.381 	 
C 	 -93.2738 	 11.5315 	 -118.34 	 
H 	 -91.3915 	 10.4589 	 -118.283 	 
C 	 -89.7657 	 12.91 	 -118.681 	 
H 	 -89.3833 	 13.1462 	 -119.675 	 
H 	 -89.299 	 11.9911 	 -118.33 	 
C 	 -89.2677 	 14.0245 	 -117.689 	 
H 	 -88.1956 	 14.2575 	 -117.728 	 
H 	 -89.7603 	 14.9354 	 -118.057 	 
C 	 -89.6179 	 13.7688 	 -116.185 	 
H 	 -89.14 	 12.8248 	 -115.79 	 
H 	 -89.268 	 14.6482 	 -115.546 	 
H 	 -90.7753 	 13.6716 	 -116.1 	 
S 	 -93.7903 	 9.35016 	 -116.871 	 
C 	 -95.375 	 8.57225 	 -116.801 	 
C 	 -96.1509 	 9.06148 	 -117.847 	 
C 	 -95.5372 	 10.2309 	 -118.499 	 
C 	 -94.2592 	 10.4871 	 -118.073 	 
H 	 -97.1212 	 8.6729 	 -118.016 	 
C 	 -96.2223 	 10.9906 	 -119.616 	 
H 	 -96.3046 	 11.9903 	 -119.221 	 
H 	 -97.305 	 10.7443 	 -119.723 	 
C 	 -95.5056 	 10.8919 	 -120.963 	 
H 	 -95.3405 	 9.86522 	 -121.251 	 
H 	 -94.5435 	 11.3495 	 -120.834 	 
C 	 -96.271 	 11.6445 	 -122.095 	 
H 	 -97.2635 	 11.2945 	 -122.211 	 
H 	 -95.8589 	 11.6259 	 -123.065 	 
H 	 -96.5099 	 12.622 	 -121.719 	 
H 	 -91.7544 	 14.5452 	 -119.494 	 
H 	 -95.6314 	 7.70911 	 -116.198 	 
*
