! wB97X-D3 SP def2-SVP
%pal
nprocs 24
end

* xyz 0 1
S 	 -82.7864 	 -42.4219 	 -86.2269 	 
C 	 -81.8232 	 -40.9274 	 -85.8791 	 
C 	 -80.8265 	 -40.7967 	 -86.8065 	 
C 	 -80.6515 	 -41.8824 	 -87.6591 	 
C 	 -81.7118 	 -42.784 	 -87.5044 	 
H 	 -79.8605 	 -41.9774 	 -88.4619 	 
C 	 -79.8069 	 -39.6659 	 -86.7122 	 
H 	 -79.053 	 -39.7754 	 -87.4658 	 
H 	 -79.115 	 -39.847 	 -85.9068 	 
C 	 -80.2186 	 -38.181 	 -86.6411 	 
H 	 -80.6983 	 -37.9843 	 -87.5869 	 
H 	 -80.9518 	 -38.0022 	 -85.878 	 
C 	 -79.1486 	 -37.1647 	 -86.459 	 
H 	 -79.5988 	 -36.1943 	 -86.76 	 
H 	 -78.7844 	 -37.2239 	 -85.4718 	 
H 	 -78.279 	 -37.2437 	 -86.9974 	 
S 	 -81.7948 	 -45.4926 	 -87.5598 	 
C 	 -82.2151 	 -46.3705 	 -88.9442 	 
C 	 -82.644 	 -45.5369 	 -89.9164 	 
C 	 -82.6114 	 -44.1369 	 -89.5766 	 
C 	 -82.0314 	 -43.9453 	 -88.3357 	 
H 	 -82.9051 	 -45.8991 	 -90.8864 	 
C 	 -83.1192 	 -43.0346 	 -90.4863 	 
H 	 -83.5041 	 -43.4894 	 -91.4332 	 
H 	 -82.2016 	 -42.5514 	 -90.8788 	 
C 	 -84.3657 	 -42.2427 	 -89.9976 	 
H 	 -84.5293 	 -41.4546 	 -90.6981 	 
H 	 -84.2035 	 -41.7912 	 -88.9707 	 
C 	 -85.5222 	 -43.2667 	 -89.822 	 
H 	 -86.4763 	 -42.7611 	 -89.5369 	 
H 	 -85.2472 	 -43.9049 	 -88.9325 	 
H 	 -85.6687 	 -43.8726 	 -90.6986 	 
H 	 -82.028 	 -40.3012 	 -85.019 	 
H 	 -82.0003 	 -47.3654 	 -89.0913 	 
*
