! wB97X-D3 SP def2-SVP
%pal
nprocs 24
end

* xyz 0 1
S 	 -28.0991 	 17.0222 	 6.06277 	 
C 	 -29.7162 	 16.6182 	 5.46105 	 
C 	 -30.5267 	 17.7499 	 5.47187 	 
C 	 -29.8961 	 18.8551 	 6.13346 	 
C 	 -28.6273 	 18.618 	 6.50876 	 
H 	 -30.3396 	 19.833 	 6.27762 	 
C 	 -31.8976 	 17.8167 	 5.02528 	 
H 	 -31.8899 	 17.4759 	 3.99883 	 
H 	 -32.0749 	 18.8794 	 4.99341 	 
C 	 -32.9014 	 16.974 	 5.92146 	 
H 	 -32.6167 	 15.928 	 5.92835 	 
H 	 -32.8411 	 17.2029 	 7.00153 	 
C 	 -34.3897 	 17.0426 	 5.60494 	 
H 	 -34.638 	 18.0473 	 5.35375 	 
H 	 -34.6741 	 16.4833 	 4.74983 	 
H 	 -34.9498 	 16.782 	 6.54141 	 
S 	 -27.0634 	 18.5347 	 8.75204 	 
C 	 -26.3412 	 20.043 	 9.29037 	 
C 	 -26.6726 	 21.1376 	 8.52531 	 
C 	 -27.5814 	 20.7929 	 7.48555 	 
C 	 -27.8245 	 19.4062 	 7.42048 	 
H 	 -26.3803 	 22.1522 	 8.76828 	 
C 	 -28.126 	 21.7946 	 6.54244 	 
H 	 -28.4415 	 21.2997 	 5.63551 	 
H 	 -27.3695 	 22.5766 	 6.21439 	 
C 	 -29.2921 	 22.5757 	 7.07688 	 
H 	 -28.9068 	 23.1432 	 7.86484 	 
H 	 -30.032 	 21.9129 	 7.59147 	 
C 	 -30.0332 	 23.4132 	 6.02038 	 
H 	 -30.2933 	 22.7268 	 5.23599 	 
H 	 -29.3835 	 24.2013 	 5.58743 	 
H 	 -30.9007 	 23.9257 	 6.5233 	 
H 	 -30.1135 	 15.6962 	 5.01311 	 
H 	 -25.572 	 20.086 	 10.0454 	 
*
