! wB97X-D3 SP def2-SVP
%pal
nprocs 24
end

* xyz 0 1
S 	 -99.46 	 1.10348 	 -121.657 	 
C 	 -100.499 	 1.803 	 -120.53 	 
C 	 -101.323 	 0.854073 	 -119.956 	 
C 	 -101.128 	 -0.458821 	 -120.531 	 
C 	 -100.227 	 -0.419989 	 -121.576 	 
H 	 -101.71 	 -1.39567 	 -120.379 	 
C 	 -102.434 	 1.08653 	 -118.935 	 
H 	 -103.476 	 0.885805 	 -119.304 	 
H 	 -102.383 	 2.06675 	 -118.542 	 
C 	 -102.312 	 0.227454 	 -117.638 	 
H 	 -102.546 	 -0.783312 	 -118.002 	 
H 	 -101.257 	 0.108175 	 -117.319 	 
C 	 -103.38 	 0.50556 	 -116.54 	 
H 	 -103.489 	 1.51457 	 -116.317 	 
H 	 -104.347 	 0.151454 	 -116.781 	 
H 	 -103.107 	 0.0620233 	 -115.505 	 
S 	 -100.2 	 -0.968141 	 -124.112 	 
C 	 -99.8549 	 -2.60982 	 -124.684 	 
C 	 -99.5342 	 -3.44495 	 -123.647 	 
C 	 -99.5422 	 -2.81687 	 -122.343 	 
C 	 -99.8385 	 -1.49056 	 -122.505 	 
H 	 -99.397 	 -4.57752 	 -123.898 	 
C 	 -99.3291 	 -3.52502 	 -120.957 	 
H 	 -99.31 	 -4.5863 	 -121.172 	 
H 	 -100.172 	 -3.4997 	 -120.293 	 
C 	 -98.1337 	 -3.09757 	 -120.098 	 
H 	 -98.2599 	 -3.5008 	 -119.071 	 
H 	 -98.0747 	 -2.04271 	 -120.071 	 
C 	 -96.8095 	 -3.64388 	 -120.407 	 
H 	 -96.1543 	 -3.39637 	 -119.656 	 
H 	 -96.4335 	 -3.27504 	 -121.303 	 
H 	 -96.7693 	 -4.726 	 -120.471 	 
H 	 -100.48 	 2.84894 	 -120.297 	 
H 	 -99.9174 	 -2.92366 	 -125.767 	 
*
