! wB97X-D3 SP def2-SVP
%pal
nprocs 24
end

* xyz 0 1
S 	 -89.721 	 -30.3488 	 -70.9747 	 
C 	 -88.8436 	 -31.6587 	 -71.7255 	 
C 	 -89.4772 	 -32.1425 	 -72.8897 	 
C 	 -90.7991 	 -31.5596 	 -73.0488 	 
C 	 -91.1255 	 -30.6357 	 -72.0574 	 
H 	 -91.4933 	 -31.894 	 -73.8513 	 
C 	 -88.9256 	 -33.1138 	 -73.9121 	 
H 	 -89.5062 	 -33.9964 	 -73.9769 	 
H 	 -87.904 	 -33.4413 	 -73.7512 	 
C 	 -89.0048 	 -32.4964 	 -75.3186 	 
H 	 -90.0211 	 -32.3787 	 -75.446 	 
H 	 -88.4965 	 -31.5062 	 -75.2999 	 
C 	 -88.491 	 -33.3399 	 -76.398 	 
H 	 -88.6382 	 -32.7222 	 -77.266 	 
H 	 -87.4622 	 -33.7287 	 -76.2452 	 
H 	 -89.1595 	 -34.2034 	 -76.5679 	 
S 	 -92.878 	 -30.1798 	 -70.1213 	 
C 	 -94.5471 	 -29.7118 	 -70.4549 	 
C 	 -94.7408 	 -29.4889 	 -71.7916 	 
C 	 -93.5351 	 -29.729 	 -72.5491 	 
C 	 -92.4294 	 -30.0937 	 -71.7842 	 
H 	 -95.6832 	 -29.2152 	 -72.2007 	 
C 	 -93.5813 	 -29.6118 	 -74.0572 	 
H 	 -94.5316 	 -29.9445 	 -74.3965 	 
H 	 -92.8715 	 -30.2798 	 -74.5118 	 
C 	 -93.2213 	 -28.27 	 -74.6858 	 
H 	 -93.8959 	 -27.4508 	 -74.4756 	 
H 	 -93.1185 	 -28.3258 	 -75.7818 	 
C 	 -91.8714 	 -27.7341 	 -74.2904 	 
H 	 -91.5537 	 -27.7193 	 -73.2126 	 
H 	 -91.6846 	 -26.7192 	 -74.6835 	 
H 	 -91.0776 	 -28.4737 	 -74.6234 	 
H 	 -87.87 	 -32.0068 	 -71.4539 	 
H 	 -95.307 	 -29.5143 	 -69.7246 	 
*
