! wB97X-D3 SP def2-SVP
%pal
nprocs 24
end

* xyz 0 1
S 	 -101.02 	 21.4096 	 -122.519 	 
C 	 -101.751 	 22.6799 	 -121.465 	 
C 	 -102.3 	 22.0047 	 -120.351 	 
C 	 -102.062 	 20.559 	 -120.367 	 
C 	 -101.351 	 20.1156 	 -121.475 	 
H 	 -102.504 	 19.8146 	 -119.65 	 
C 	 -102.928 	 22.8616 	 -119.232 	 
H 	 -102.354 	 23.8449 	 -119.084 	 
H 	 -102.765 	 22.3942 	 -118.239 	 
C 	 -104.473 	 22.9917 	 -119.267 	 
H 	 -104.785 	 23.3331 	 -120.217 	 
H 	 -104.933 	 21.9709 	 -119.103 	 
C 	 -105.053 	 23.955 	 -118.184 	 
H 	 -104.778 	 25.0006 	 -118.279 	 
H 	 -106.129 	 23.9015 	 -118.311 	 
H 	 -104.94 	 23.6443 	 -117.132 	 
S 	 -99.4652 	 18.1038 	 -121.856 	 
C 	 -100.016 	 16.5157 	 -122.455 	 
C 	 -101.408 	 16.4142 	 -122.503 	 
C 	 -101.984 	 17.7385 	 -122.319 	 
C 	 -101.122 	 18.6877 	 -121.865 	 
H 	 -101.926 	 15.5331 	 -122.76 	 
C 	 -103.456 	 18.0952 	 -122.532 	 
H 	 -103.792 	 17.4089 	 -123.315 	 
H 	 -103.465 	 19.1028 	 -122.906 	 
C 	 -104.359 	 17.7504 	 -121.397 	 
H 	 -104.106 	 18.399 	 -120.6 	 
H 	 -104.244 	 16.6975 	 -121.139 	 
C 	 -105.803 	 17.883 	 -121.776 	 
H 	 -106.094 	 16.9388 	 -122.39 	 
H 	 -106.134 	 18.7565 	 -122.282 	 
H 	 -106.429 	 17.9267 	 -120.869 	 
H 	 -101.878 	 23.6978 	 -121.642 	 
H 	 -99.3512 	 15.7101 	 -122.767 	 
*
