! wB97X-D3 SP def2-SVP
%pal
nprocs 24
end

* xyz 0 1
S 	 -49.584 	 15.8475 	 26.7789 	 
C 	 -49.7961 	 15.9538 	 24.9807 	 
C 	 -48.6138 	 15.9378 	 24.3636 	 
C 	 -47.4717 	 15.9102 	 25.2946 	 
C 	 -47.8353 	 16.1207 	 26.6235 	 
H 	 -46.4165 	 15.9491 	 24.9658 	 
C 	 -48.3654 	 16.0188 	 22.8534 	 
H 	 -49.3096 	 16.1783 	 22.3631 	 
H 	 -47.8602 	 15.1415 	 22.4612 	 
C 	 -47.5637 	 17.2462 	 22.3223 	 
H 	 -46.8073 	 17.3363 	 23.0583 	 
H 	 -46.9415 	 17.0484 	 21.4156 	 
C 	 -48.2065 	 18.6057 	 22.2563 	 
H 	 -48.9216 	 18.6502 	 21.3571 	 
H 	 -48.8775 	 18.7768 	 23.1198 	 
H 	 -47.4664 	 19.4311 	 22.1397 	 
S 	 -47.1279 	 15.1456 	 29.125 	 
C 	 -45.6674 	 15.8133 	 29.8131 	 
C 	 -45.2471 	 16.9587 	 29.1812 	 
C 	 -45.9472 	 17.2562 	 28.0109 	 
C 	 -46.9242 	 16.2957 	 27.7587 	 
H 	 -44.3875 	 17.492 	 29.6362 	 
C 	 -45.491 	 18.3461 	 26.9786 	 
H 	 -45.292 	 17.8155 	 26.026 	 
H 	 -44.5124 	 18.9207 	 27.2728 	 
C 	 -46.5491 	 19.4725 	 26.6868 	 
H 	 -47.4162 	 19.1039 	 26.1205 	 
H 	 -45.9663 	 20.2113 	 26.0337 	 
C 	 -46.9249 	 20.2568 	 27.9338 	 
H 	 -46.0617 	 20.8998 	 28.0751 	 
H 	 -47.0756 	 19.5999 	 28.8309 	 
H 	 -47.7399 	 20.9426 	 27.689 	 
H 	 -50.7853 	 16.1046 	 24.4323 	 
H 	 -45.2804 	 15.4563 	 30.7255 	 
*
