! wB97X-D3 SP def2-SVP
%pal
nprocs 24
end

* xyz 0 1
S 	 -138.749 	 7.1996 	 -3.39338 	 
C 	 -139.176 	 8.52861 	 -4.46063 	 
C 	 -140.348 	 8.15163 	 -5.08336 	 
C 	 -140.855 	 6.81091 	 -4.73849 	 
C 	 -139.99 	 6.06788 	 -3.96818 	 
H 	 -141.817 	 6.41287 	 -5.06836 	 
C 	 -141.131 	 9.05373 	 -6.08853 	 
H 	 -140.737 	 10.0696 	 -5.9681 	 
H 	 -142.162 	 9.04542 	 -5.87664 	 
C 	 -140.989 	 8.85875 	 -7.61329 	 
H 	 -139.935 	 8.96313 	 -7.86726 	 
H 	 -141.268 	 7.83154 	 -7.89115 	 
C 	 -141.752 	 9.85147 	 -8.51833 	 
H 	 -141.167 	 10.7572 	 -8.579 	 
H 	 -141.841 	 9.45382 	 -9.59809 	 
H 	 -142.688 	 10.1098 	 -8.04736 	 
S 	 -140.49 	 3.50756 	 -4.44797 	 
C 	 -140.649 	 2.34438 	 -3.08006 	 
C 	 -140.706 	 2.98407 	 -1.85175 	 
C 	 -140.322 	 4.36876 	 -1.94678 	 
C 	 -140.316 	 4.79326 	 -3.31845 	 
H 	 -140.914 	 2.42025 	 -1.01062 	 
C 	 -140.086 	 5.31322 	 -0.732614 	 
H 	 -140.952 	 5.96352 	 -0.545188 	 
H 	 -139.356 	 6.08761 	 -1.00398 	 
C 	 -139.619 	 4.53645 	 0.525901 	 
H 	 -138.672 	 4.08767 	 0.497922 	 
H 	 -140.313 	 3.72068 	 0.748521 	 
C 	 -139.553 	 5.39635 	 1.77072 	 
H 	 -138.933 	 6.27651 	 1.59113 	 
H 	 -139.065 	 5.00374 	 2.62673 	 
H 	 -140.468 	 5.83882 	 2.08805 	 
H 	 -138.811 	 9.55211 	 -4.52789 	 
H 	 -140.794 	 1.28091 	 -3.22533 	 
*
