! wB97X-D3 SP def2-SVP
%pal
nprocs 24
end

* xyz 0 1
S 	 -58.2118 	 14.9466 	 -90.8678 	 
C 	 -56.9029 	 13.8342 	 -90.4885 	 
C 	 -56.0662 	 14.4315 	 -89.5968 	 
C 	 -56.4075 	 15.788 	 -89.2472 	 
C 	 -57.5081 	 16.2473 	 -89.9191 	 
H 	 -55.8441 	 16.3703 	 -88.5439 	 
C 	 -54.8232 	 13.6726 	 -89.0499 	 
H 	 -54.9329 	 12.5428 	 -89.23 	 
H 	 -54.8081 	 13.7689 	 -87.9754 	 
C 	 -53.5024 	 14.2738 	 -89.5633 	 
H 	 -53.4118 	 14.0572 	 -90.6155 	 
H 	 -53.5593 	 15.3749 	 -89.3579 	 
C 	 -52.2372 	 13.6932 	 -88.9474 	 
H 	 -51.4234 	 14.1094 	 -89.5214 	 
H 	 -51.9658 	 14.1968 	 -87.9327 	 
H 	 -52.251 	 12.6351 	 -88.7724 	 
S 	 -59.7584 	 17.46 	 -88.9779 	 
C 	 -59.9636 	 19.1873 	 -89.0917 	 
C 	 -58.7504 	 19.8281 	 -89.3469 	 
C 	 -57.7376 	 18.8697 	 -89.7458 	 
C 	 -58.1936 	 17.5102 	 -89.7411 	 
H 	 -58.6602 	 20.9216 	 -89.3637 	 
C 	 -56.4015 	 19.2071 	 -90.1091 	 
H 	 -55.6467 	 18.6312 	 -89.5731 	 
H 	 -56.2614 	 20.2958 	 -90.0369 	 
C 	 -56.09 	 18.8405 	 -91.5566 	 
H 	 -56.8538 	 19.3578 	 -92.1415 	 
H 	 -56.2227 	 17.7527 	 -91.8436 	 
C 	 -54.6865 	 19.3589 	 -92.0387 	 
H 	 -53.8391 	 18.9426 	 -91.4621 	 
H 	 -54.677 	 20.4372 	 -92.0899 	 
H 	 -54.5081 	 19.033 	 -93.0996 	 
H 	 -56.9082 	 12.8889 	 -90.9798 	 
H 	 -60.8767 	 19.803 	 -89.0177 	 
*
