! wB97X-D3 SP def2-SVP
%pal
nprocs 24
end

* xyz 0 1
S 	 -127.592 	 25.6194 	 -24.0537 	 
C 	 -129.001 	 24.6182 	 -23.7233 	 
C 	 -130.142 	 25.3472 	 -23.7656 	 
C 	 -129.812 	 26.7148 	 -24.1196 	 
C 	 -128.517 	 27.078 	 -24.3499 	 
H 	 -130.573 	 27.5272 	 -24.1669 	 
C 	 -131.537 	 24.7761 	 -23.5086 	 
H 	 -131.574 	 24.4194 	 -22.4722 	 
H 	 -131.575 	 23.8626 	 -24.161 	 
C 	 -132.716 	 25.749 	 -23.7971 	 
H 	 -132.55 	 26.6934 	 -23.2753 	 
H 	 -132.716 	 26.1262 	 -24.846 	 
C 	 -134.119 	 25.1707 	 -23.4306 	 
H 	 -134.46 	 24.5192 	 -24.2291 	 
H 	 -134.174 	 24.537 	 -22.5311 	 
H 	 -134.897 	 25.9041 	 -23.2712 	 
S 	 -126.241 	 28.4436 	 -24.8087 	 
C 	 -126.201 	 30.1349 	 -25.2942 	 
C 	 -127.489 	 30.6163 	 -25.4145 	 
C 	 -128.489 	 29.6918 	 -24.9608 	 
C 	 -127.985 	 28.4295 	 -24.6223 	 
H 	 -127.796 	 31.5916 	 -25.8826 	 
C 	 -129.951 	 29.9297 	 -25.1387 	 
H 	 -130.457 	 29.1056 	 -25.5899 	 
H 	 -129.96 	 30.5844 	 -25.9704 	 
C 	 -130.644 	 30.4758 	 -24.01 	 
H 	 -130.059 	 31.3314 	 -23.7295 	 
H 	 -130.658 	 29.8666 	 -23.1472 	 
C 	 -131.964 	 31.1183 	 -24.3442 	 
H 	 -131.853 	 31.883 	 -25.1056 	 
H 	 -132.455 	 31.6246 	 -23.5366 	 
H 	 -132.677 	 30.4036 	 -24.7554 	 
H 	 -128.92 	 23.5875 	 -23.4191 	 
H 	 -125.345 	 30.6462 	 -25.6999 	 
*
