! wB97X-D3 SP def2-SVP
%pal
nprocs 24
end

* xyz 0 1
S 	 -80.9423 	 -14.0666 	 -52.7735 	 
C 	 -82.1254 	 -14.972 	 -53.74 	 
C 	 -83.3011 	 -15.0318 	 -53.149 	 
C 	 -83.3947 	 -14.2807 	 -51.9301 	 
C 	 -82.1701 	 -13.7756 	 -51.5753 	 
H 	 -84.2491 	 -14.0704 	 -51.2996 	 
C 	 -84.5287 	 -15.7151 	 -53.7017 	 
H 	 -84.6378 	 -16.5664 	 -52.9618 	 
H 	 -84.2952 	 -16.273 	 -54.6573 	 
C 	 -85.8134 	 -14.9264 	 -53.8739 	 
H 	 -86.621 	 -15.5502 	 -54.271 	 
H 	 -86.1083 	 -14.519 	 -52.895 	 
C 	 -85.5324 	 -13.7089 	 -54.7682 	 
H 	 -84.9164 	 -13.9871 	 -55.6067 	 
H 	 -86.4477 	 -13.445 	 -55.2578 	 
H 	 -85.0587 	 -12.9171 	 -54.1982 	 
S 	 -81.9128 	 -11.2126 	 -50.4891 	 
C 	 -81.6727 	 -11.0566 	 -48.7146 	 
C 	 -81.6174 	 -12.3239 	 -48.0918 	 
C 	 -81.7688 	 -13.3784 	 -49.0363 	 
C 	 -81.8889 	 -12.9942 	 -50.3751 	 
H 	 -81.5839 	 -12.3858 	 -47.0005 	 
C 	 -82.0574 	 -14.7801 	 -48.484 	 
H 	 -81.8823 	 -15.5531 	 -49.2911 	 
H 	 -83.1187 	 -14.9154 	 -48.2803 	 
C 	 -81.2939 	 -15.2196 	 -47.2309 	 
H 	 -81.6573 	 -14.6164 	 -46.4685 	 
H 	 -80.2007 	 -15.1844 	 -47.3642 	 
C 	 -81.5582 	 -16.5986 	 -46.6313 	 
H 	 -80.9835 	 -16.8338 	 -45.7791 	 
H 	 -81.3117 	 -17.3631 	 -47.362 	 
H 	 -82.6478 	 -16.5683 	 -46.5096 	 
H 	 -81.8351 	 -15.4577 	 -54.6412 	 
H 	 -81.6907 	 -10.1395 	 -48.0744 	 
*
