! wB97X-D3 SP def2-SVP
%pal
nprocs 24
end

* xyz 0 1
S 	 -40.069 	 -49.506 	 -70.5949 	 
C 	 -39.9389 	 -49.0311 	 -68.9594 	 
C 	 -40.715 	 -49.8047 	 -68.1071 	 
C 	 -41.6535 	 -50.5749 	 -68.8748 	 
C 	 -41.3211 	 -50.6583 	 -70.2219 	 
H 	 -42.5229 	 -51.0578 	 -68.5403 	 
C 	 -40.7186 	 -49.8005 	 -66.6233 	 
H 	 -40.6778 	 -48.7783 	 -66.2561 	 
H 	 -39.7485 	 -50.2839 	 -66.3727 	 
C 	 -41.9059 	 -50.4321 	 -65.8576 	 
H 	 -42.1578 	 -51.3377 	 -66.3044 	 
H 	 -41.5871 	 -50.5748 	 -64.8527 	 
C 	 -43.0963 	 -49.4384 	 -66.0373 	 
H 	 -43.0408 	 -49.0241 	 -67.0557 	 
H 	 -44.0222 	 -49.9071 	 -65.9058 	 
H 	 -42.8748 	 -48.6861 	 -65.2958 	 
S 	 -43.0125 	 -50.5054 	 -72.4352 	 
C 	 -43.7188 	 -51.9692 	 -73.0118 	 
C 	 -43.2792 	 -53.0588 	 -72.3171 	 
C 	 -42.3467 	 -52.7045 	 -71.3132 	 
C 	 -41.9807 	 -51.352 	 -71.2974 	 
H 	 -43.6362 	 -54.0528 	 -72.5608 	 
C 	 -41.7871 	 -53.7666 	 -70.3528 	 
H 	 -42.55 	 -53.8849 	 -69.6035 	 
H 	 -40.9242 	 -53.2896 	 -69.8241 	 
C 	 -41.5065 	 -55.1632 	 -70.7583 	 
H 	 -40.733 	 -55.3266 	 -71.5208 	 
H 	 -42.4515 	 -55.652 	 -71.0793 	 
C 	 -41.0701 	 -56.0866 	 -69.5542 	 
H 	 -41.0863 	 -57.132 	 -69.7168 	 
H 	 -41.8261 	 -55.965 	 -68.8057 	 
H 	 -40.2111 	 -55.8654 	 -68.9806 	 
H 	 -39.3477 	 -48.2174 	 -68.6393 	 
H 	 -44.4939 	 -52.0076 	 -73.8158 	 
*
