! wB97X-D3 SP def2-SVP
%pal
nprocs 24
end

* xyz 0 1
S 	 -127.281 	 69.2059 	 -63.6884 	 
C 	 -125.826 	 69.863 	 -62.9594 	 
C 	 -126.046 	 70.4024 	 -61.7224 	 
C 	 -127.478 	 70.4392 	 -61.4567 	 
C 	 -128.313 	 69.8055 	 -62.3808 	 
H 	 -127.912 	 70.8914 	 -60.5392 	 
C 	 -124.922 	 70.9905 	 -60.8314 	 
H 	 -124.027 	 71.1331 	 -61.4627 	 
H 	 -124.81 	 70.3149 	 -59.9895 	 
C 	 -125.173 	 72.3883 	 -60.2705 	 
H 	 -126.176 	 72.3663 	 -59.863 	 
H 	 -124.536 	 72.5089 	 -59.3635 	 
C 	 -124.99 	 73.4442 	 -61.3818 	 
H 	 -125.168 	 74.4433 	 -61.0288 	 
H 	 -123.945 	 73.5413 	 -61.6262 	 
H 	 -125.607 	 73.2841 	 -62.2528 	 
S 	 -130.419 	 68.4795 	 -61.118 	 
C 	 -132.005 	 68.716 	 -61.7321 	 
C 	 -132.033 	 69.4362 	 -62.8653 	 
C 	 -130.733 	 69.8364 	 -63.335 	 
C 	 -129.768 	 69.4781 	 -62.3998 	 
H 	 -132.968 	 69.6646 	 -63.3901 	 
C 	 -130.711 	 70.6884 	 -64.5581 	 
H 	 -131.5 	 70.3037 	 -65.2469 	 
H 	 -129.772 	 70.6015 	 -65.0034 	 
C 	 -130.932 	 72.1884 	 -64.2162 	 
H 	 -130.667 	 72.6317 	 -65.1507 	 
H 	 -130.145 	 72.3037 	 -63.4767 	 
C 	 -132.354 	 72.56 	 -63.6808 	 
H 	 -132.342 	 73.5602 	 -63.2384 	 
H 	 -132.63 	 71.9753 	 -62.817 	 
H 	 -133.154 	 72.3892 	 -64.4149 	 
H 	 -124.889 	 69.6525 	 -63.4415 	 
H 	 -132.872 	 68.2794 	 -61.3055 	 
*
