! wB97X-D3 SP def2-SVP
%pal
nprocs 24
end

* xyz 0 1
S 	 -99.8284 	 -4.33162 	 -109.219 	 
C 	 -99.7338 	 -5.86868 	 -110.015 	 
C 	 -100.818 	 -6.68426 	 -109.676 	 
C 	 -101.78 	 -6.05792 	 -108.886 	 
C 	 -101.422 	 -4.75822 	 -108.616 	 
H 	 -102.781 	 -6.42768 	 -108.568 	 
C 	 -101.032 	 -8.12156 	 -110.172 	 
H 	 -99.9847 	 -8.41593 	 -110.23 	 
H 	 -101.386 	 -8.16383 	 -111.208 	 
C 	 -101.861 	 -9.11784 	 -109.329 	 
H 	 -102.919 	 -8.83035 	 -109.265 	 
H 	 -101.923 	 -10.1694 	 -109.705 	 
C 	 -101.295 	 -9.32681 	 -107.849 	 
H 	 -101.313 	 -8.41675 	 -107.235 	 
H 	 -101.844 	 -10.1089 	 -107.25 	 
H 	 -100.211 	 -9.603 	 -107.84 	 
S 	 -103.535 	 -3.0034 	 -108.383 	 
C 	 -103.952 	 -2.49346 	 -106.828 	 
C 	 -102.941 	 -2.76906 	 -105.902 	 
C 	 -101.89 	 -3.5739 	 -106.398 	 
C 	 -102.148 	 -3.86264 	 -107.754 	 
H 	 -103.087 	 -2.45625 	 -104.905 	 
C 	 -100.727 	 -3.97424 	 -105.502 	 
H 	 -100.607 	 -3.21635 	 -104.754 	 
H 	 -99.8637 	 -4.07868 	 -106.114 	 
C 	 -100.723 	 -5.30683 	 -104.768 	 
H 	 -101.02 	 -6.13694 	 -105.403 	 
H 	 -101.381 	 -5.37754 	 -103.936 	 
C 	 -99.2842 	 -5.55502 	 -104.305 	 
H 	 -98.8289 	 -5.99364 	 -105.167 	 
H 	 -99.3669 	 -6.31108 	 -103.508 	 
H 	 -98.7763 	 -4.6859 	 -103.955 	 
H 	 -98.9594 	 -6.25183 	 -110.643 	 
H 	 -104.859 	 -2.1301 	 -106.41 	 
*
