! wB97X-D3 SP def2-SVP
%pal
nprocs 24
end

* xyz 0 1
S 	 -144.211 	 9.15346 	 0.760074 	 
C 	 -143.509 	 10.0525 	 -0.534941 	 
C 	 -142.11 	 10.1478 	 -0.361972 	 
C 	 -141.659 	 9.39581 	 0.734166 	 
C 	 -142.656 	 8.83482 	 1.48077 	 
H 	 -140.663 	 9.33953 	 0.987705 	 
C 	 -141.099 	 10.883 	 -1.26285 	 
H 	 -141.64 	 11.6257 	 -1.98039 	 
H 	 -140.842 	 10.0999 	 -2.01597 	 
C 	 -140.004 	 11.7254 	 -0.565293 	 
H 	 -140.391 	 12.4722 	 0.0845829 	 
H 	 -139.443 	 11.1543 	 0.225792 	 
C 	 -138.914 	 12.2392 	 -1.61232 	 
H 	 -138.722 	 11.4785 	 -2.3484 	 
H 	 -139.305 	 13.1051 	 -2.12847 	 
H 	 -137.982 	 12.5899 	 -1.16685 	 
S 	 -141.953 	 9.02278 	 4.13403 	 
C 	 -141.868 	 7.52319 	 5.06727 	 
C 	 -142.14 	 6.43662 	 4.32938 	 
C 	 -142.422 	 6.75435 	 2.97966 	 
C 	 -142.368 	 8.09989 	 2.69676 	 
H 	 -141.987 	 5.43447 	 4.66592 	 
C 	 -142.807 	 5.73776 	 1.93518 	 
H 	 -143.411 	 6.2385 	 1.20436 	 
H 	 -143.271 	 4.85634 	 2.35152 	 
C 	 -141.609 	 5.30129 	 1.25676 	 
H 	 -140.98 	 4.76442 	 1.98117 	 
H 	 -141.005 	 6.05407 	 0.79973 	 
C 	 -141.969 	 4.37091 	 0.0835744 	 
H 	 -142.68 	 4.8878 	 -0.597969 	 
H 	 -142.521 	 3.47887 	 0.355482 	 
H 	 -141.16 	 4.05861 	 -0.54507 	 
H 	 -143.946 	 10.5923 	 -1.28452 	 
H 	 -141.523 	 7.4957 	 6.08363 	 
*
