! wB97X-D3 SP def2-SVP
%pal
nprocs 24
end

* xyz 0 1
S 	 50.1217 	 -21.5574 	 -111.786 	 
C 	 49.885 	 -23.1774 	 -112.374 	 
C 	 49.0141 	 -23.9281 	 -111.612 	 
C 	 48.3198 	 -23.0836 	 -110.61 	 
C 	 48.8446 	 -21.7965 	 -110.556 	 
H 	 47.6861 	 -23.4247 	 -109.793 	 
C 	 48.6164 	 -25.3605 	 -111.903 	 
H 	 47.6652 	 -25.3007 	 -112.454 	 
H 	 48.2322 	 -25.9021 	 -111.038 	 
C 	 49.7058 	 -26.1999 	 -112.485 	 
H 	 49.7706 	 -26.0013 	 -113.541 	 
H 	 50.6291 	 -25.9604 	 -111.953 	 
C 	 49.3904 	 -27.7402 	 -112.529 	 
H 	 48.8517 	 -27.9748 	 -111.653 	 
H 	 48.6892 	 -28.005 	 -113.339 	 
H 	 50.2779 	 -28.2677 	 -112.733 	 
S 	 49.9505 	 -19.754 	 -108.992 	 
C 	 48.9991 	 -18.9279 	 -107.802 	 
C 	 47.6993 	 -19.3199 	 -107.788 	 
C 	 47.427 	 -20.3685 	 -108.8 	 
C 	 48.5302 	 -20.7396 	 -109.553 	 
H 	 47.0585 	 -18.9202 	 -107.051 	 
C 	 46.1426 	 -21.0943 	 -108.753 	 
H 	 45.919 	 -21.6952 	 -109.679 	 
H 	 45.349 	 -20.4218 	 -108.845 	 
C 	 46.0808 	 -22.0442 	 -107.542 	 
H 	 46.3752 	 -21.43 	 -106.594 	 
H 	 46.8709 	 -22.7564 	 -107.668 	 
C 	 44.8248 	 -22.8941 	 -107.512 	 
H 	 44.7609 	 -23.6431 	 -106.647 	 
H 	 44.6308 	 -23.4379 	 -108.427 	 
H 	 43.9402 	 -22.2456 	 -107.41 	 
H 	 50.3833 	 -23.6383 	 -113.169 	 
H 	 49.4592 	 -18.1027 	 -107.249 	 
*
