! wB97X-D3 SP def2-SVP
%pal
nprocs 24
end

* xyz 0 1
S 	 -93.681 	 -39.2167 	 -60.5244 	 
C 	 -93.5715 	 -40.8635 	 -59.8953 	 
C 	 -93.8247 	 -40.8375 	 -58.5052 	 
C 	 -94.3948 	 -39.587 	 -58.054 	 
C 	 -94.4107 	 -38.5877 	 -59.0701 	 
H 	 -94.7747 	 -39.2365 	 -57.0778 	 
C 	 -93.7493 	 -42.0921 	 -57.5981 	 
H 	 -93.5455 	 -42.9997 	 -58.1031 	 
H 	 -94.7836 	 -42.1473 	 -57.1983 	 
C 	 -92.7201 	 -41.9303 	 -56.4048 	 
H 	 -91.7866 	 -41.6815 	 -56.7778 	 
H 	 -93.0195 	 -41.0615 	 -55.7832 	 
C 	 -92.6398 	 -43.1749 	 -55.4761 	 
H 	 -92.092 	 -43.0309 	 -54.5445 	 
H 	 -93.6065 	 -43.5379 	 -55.0364 	 
H 	 -92.2136 	 -44.0411 	 -55.9627 	 
S 	 -93.6914 	 -35.9788 	 -59.5639 	 
C 	 -94.8185 	 -34.6735 	 -59.2928 	 
C 	 -96.0214 	 -35.1993 	 -58.8952 	 
C 	 -95.9678 	 -36.6052 	 -58.6562 	 
C 	 -94.7759 	 -37.1908 	 -59.0479 	 
H 	 -96.9067 	 -34.5973 	 -58.629 	 
C 	 -97.2653 	 -37.2881 	 -58.2077 	 
H 	 -97.0408 	 -38.3655 	 -58.4022 	 
H 	 -98.0127 	 -37.0504 	 -59.0842 	 
C 	 -97.8442 	 -37.1142 	 -56.7572 	 
H 	 -98.9188 	 -37.4262 	 -56.7592 	 
H 	 -97.8731 	 -36.0666 	 -56.5338 	 
C 	 -97.0691 	 -37.769 	 -55.6125 	 
H 	 -97.1554 	 -38.8468 	 -55.458 	 
H 	 -97.5267 	 -37.3441 	 -54.7172 	 
H 	 -96.0408 	 -37.5109 	 -55.7137 	 
H 	 -93.1723 	 -41.6708 	 -60.4042 	 
H 	 -94.73 	 -33.6384 	 -59.5195 	 
*
