! wB97X-D3 SP def2-SVP
%pal
nprocs 24
end

* xyz 0 1
S 	 -56.324 	 -2.80557 	 -28.2921 	 
C 	 -54.6557 	 -2.36682 	 -27.8723 	 
C 	 -54.504 	 -0.967607 	 -27.9022 	 
C 	 -55.7052 	 -0.287327 	 -28.3012 	 
C 	 -56.7729 	 -1.13086 	 -28.7118 	 
H 	 -55.7896 	 0.79873 	 -28.3972 	 
C 	 -53.2547 	 -0.259763 	 -27.5773 	 
H 	 -53.4161 	 0.770338 	 -27.9339 	 
H 	 -52.3954 	 -0.776985 	 -28.0363 	 
C 	 -52.8138 	 -0.0565086 	 -26.112 	 
H 	 -53.5686 	 0.537352 	 -25.6179 	 
H 	 -52.6134 	 -1.06132 	 -25.6617 	 
C 	 -51.5465 	 0.762148 	 -26.1832 	 
H 	 -51.1945 	 1.10865 	 -25.2349 	 
H 	 -50.7128 	 0.0921412 	 -26.4561 	 
H 	 -51.4912 	 1.57072 	 -26.8499 	 
S 	 -59.4628 	 -1.30824 	 -28.8148 	 
C 	 -60.3303 	 -0.305901 	 -29.8948 	 
C 	 -59.4421 	 0.415984 	 -30.7102 	 
C 	 -58.0936 	 0.185457 	 -30.4631 	 
C 	 -57.9567 	 -0.725575 	 -29.4781 	 
H 	 -59.8622 	 1.16347 	 -31.36 	 
C 	 -56.9463 	 0.85904 	 -31.1779 	 
H 	 -56.0179 	 0.81699 	 -30.5716 	 
H 	 -57.1338 	 1.9589 	 -31.2977 	 
C 	 -56.6917 	 0.225644 	 -32.5468 	 
H 	 -55.9519 	 0.873113 	 -33.0248 	 
H 	 -57.6196 	 0.137467 	 -33.1024 	 
C 	 -56.1108 	 -1.16612 	 -32.5056 	 
H 	 -55.0367 	 -1.14012 	 -32.1554 	 
H 	 -56.1322 	 -1.61005 	 -33.512 	 
H 	 -56.7952 	 -1.75679 	 -31.8583 	 
H 	 -53.8761 	 -3.11363 	 -27.5428 	 
H 	 -61.4116 	 -0.142128 	 -29.8831 	 
*
