! wB97X-D3 SP def2-SVP
%pal
nprocs 24
end

* xyz 0 1
S 	 -125.968 	 66.8289 	 -49.6541 	 
C 	 -124.681 	 67.5748 	 -50.4733 	 
C 	 -125.058 	 68.6911 	 -51.1693 	 
C 	 -126.361 	 69.1206 	 -50.8244 	 
C 	 -127.02 	 68.2422 	 -49.9908 	 
H 	 -126.961 	 69.9246 	 -51.1241 	 
C 	 -124.212 	 69.3985 	 -52.1805 	 
H 	 -123.18 	 68.9829 	 -52.1457 	 
H 	 -124.127 	 70.449 	 -51.9141 	 
C 	 -124.63 	 69.2542 	 -53.616 	 
H 	 -124.85 	 68.1861 	 -53.8915 	 
H 	 -125.516 	 69.7257 	 -53.8268 	 
C 	 -123.568 	 69.8242 	 -54.5572 	 
H 	 -122.727 	 69.1984 	 -54.5677 	 
H 	 -123.835 	 69.9236 	 -55.5724 	 
H 	 -123.269 	 70.87 	 -54.3355 	 
S 	 -129.446 	 66.9744 	 -49.961 	 
C 	 -130.716 	 67.5895 	 -48.8247 	 
C 	 -130.363 	 68.8898 	 -48.3656 	 
C 	 -129.041 	 69.1871 	 -48.6578 	 
C 	 -128.39 	 68.2566 	 -49.4612 	 
H 	 -131.183 	 69.3821 	 -47.8047 	 
C 	 -128.572 	 70.631 	 -48.4709 	 
H 	 -129.361 	 71.3539 	 -48.6247 	 
H 	 -127.857 	 70.8705 	 -49.2462 	 
C 	 -127.947 	 70.8574 	 -47.0538 	 
H 	 -127.106 	 70.1521 	 -47.0556 	 
H 	 -128.692 	 70.5626 	 -46.4036 	 
C 	 -127.546 	 72.325 	 -46.9486 	 
H 	 -127.058 	 72.4352 	 -46.003 	 
H 	 -128.495 	 72.8589 	 -46.783 	 
H 	 -126.887 	 72.6887 	 -47.7249 	 
H 	 -123.759 	 67.0517 	 -50.6107 	 
H 	 -131.643 	 67.0989 	 -48.5739 	 
*
