! wB97X-D3 SP def2-SVP
%pal
nprocs 24
end

* xyz 0 1
S 	 -105.396 	 14.3692 	 -122.258 	 
C 	 -105.858 	 13.0284 	 -121.284 	 
C 	 -105.919 	 11.8227 	 -121.997 	 
C 	 -105.465 	 12.0124 	 -123.338 	 
C 	 -105.084 	 13.3181 	 -123.588 	 
H 	 -105.255 	 11.2881 	 -124.091 	 
C 	 -106.509 	 10.47 	 -121.557 	 
H 	 -106.779 	 9.86078 	 -122.432 	 
H 	 -107.475 	 10.7406 	 -121.162 	 
C 	 -105.737 	 9.44609 	 -120.578 	 
H 	 -105.624 	 9.88877 	 -119.666 	 
H 	 -106.395 	 8.51188 	 -120.475 	 
C 	 -104.321 	 9.01259 	 -121.053 	 
H 	 -103.798 	 8.26462 	 -120.466 	 
H 	 -104.366 	 8.58109 	 -122.095 	 
H 	 -103.695 	 9.9148 	 -121.139 	 
S 	 -103.062 	 14.8656 	 -124.64 	 
C 	 -103.152 	 15.3026 	 -126.357 	 
C 	 -104.173 	 14.6711 	 -127.004 	 
C 	 -104.966 	 13.8212 	 -126.13 	 
C 	 -104.469 	 13.8141 	 -124.846 	 
H 	 -104.412 	 14.8644 	 -128.051 	 
C 	 -106.263 	 13.1711 	 -126.54 	 
H 	 -106.897 	 13.7661 	 -127.098 	 
H 	 -106.769 	 13.0179 	 -125.604 	 
C 	 -106.108 	 11.7844 	 -127.124 	 
H 	 -105.569 	 11.2584 	 -126.391 	 
H 	 -105.52 	 11.7139 	 -128.014 	 
C 	 -107.552 	 11.205 	 -127.312 	 
H 	 -108.183 	 11.994 	 -127.664 	 
H 	 -107.942 	 10.8802 	 -126.347 	 
H 	 -107.438 	 10.3944 	 -127.933 	 
H 	 -106.229 	 13.0839 	 -120.233 	 
H 	 -102.44 	 15.9241 	 -126.906 	 
*
