! wB97X-D3 SP def2-SVP
%pal
nprocs 24
end

* xyz 0 1
S 	 -81.4046 	 -0.0487548 	 -116.152 	 
C 	 -81.3956 	 -1.79907 	 -116.276 	 
C 	 -82.3125 	 -2.21378 	 -117.2 	 
C 	 -82.8774 	 -1.13736 	 -117.98 	 
C 	 -82.4238 	 0.129352 	 -117.535 	 
H 	 -83.5162 	 -1.33118 	 -118.819 	 
C 	 -82.8121 	 -3.6576 	 -117.439 	 
H 	 -81.9333 	 -4.29401 	 -117.498 	 
H 	 -83.3712 	 -3.79883 	 -118.393 	 
C 	 -83.5872 	 -4.38803 	 -116.36 	 
H 	 -83.8953 	 -5.39714 	 -116.699 	 
H 	 -82.8743 	 -4.5886 	 -115.561 	 
C 	 -84.7019 	 -3.53076 	 -115.829 	 
H 	 -84.9498 	 -3.81242 	 -114.855 	 
H 	 -84.4764 	 -2.44672 	 -115.645 	 
H 	 -85.487 	 -3.62192 	 -116.639 	 
S 	 -81.2778 	 2.37583 	 -118.548 	 
C 	 -82.2826 	 3.64956 	 -119.091 	 
C 	 -83.616 	 3.36326 	 -119.036 	 
C 	 -83.8385 	 2.11317 	 -118.428 	 
C 	 -82.6643 	 1.4678 	 -118.077 	 
H 	 -84.3712 	 4.09987 	 -119.348 	 
C 	 -85.23 	 1.4678 	 -118.286 	 
H 	 -85.3955 	 0.561881 	 -118.838 	 
H 	 -85.805 	 2.16904 	 -118.896 	 
C 	 -85.7922 	 1.32673 	 -116.885 	 
H 	 -85.2416 	 0.63311 	 -116.311 	 
H 	 -86.7408 	 0.764859 	 -116.936 	 
C 	 -86.0587 	 2.67638 	 -116.292 	 
H 	 -86.8115 	 3.22274 	 -116.817 	 
H 	 -85.2197 	 3.32111 	 -115.986 	 
H 	 -86.7206 	 2.56228 	 -115.371 	 
H 	 -80.8973 	 -2.3905 	 -115.543 	 
H 	 -81.9275 	 4.52498 	 -119.577 	 
*
