! wB97X-D3 SP def2-SVP
%pal
nprocs 24
end

* xyz 0 1
S 	 -98.1211 	 2.65921 	 -108.09 	 
C 	 -99.2457 	 3.76113 	 -108.85 	 
C 	 -98.9478 	 5.06262 	 -108.554 	 
C 	 -97.9666 	 5.19099 	 -107.484 	 
C 	 -97.449 	 3.95803 	 -107.128 	 
H 	 -97.6453 	 6.1294 	 -107.03 	 
C 	 -99.6476 	 6.32966 	 -108.972 	 
H 	 -99.834 	 6.19274 	 -110.03 	 
H 	 -99.0418 	 7.22438 	 -108.868 	 
C 	 -101.065 	 6.43208 	 -108.306 	 
H 	 -101.699 	 5.64572 	 -108.651 	 
H 	 -101.015 	 6.36882 	 -107.208 	 
C 	 -101.833 	 7.70008 	 -108.576 	 
H 	 -101.452 	 8.53184 	 -107.907 	 
H 	 -101.726 	 7.92775 	 -109.639 	 
H 	 -102.923 	 7.50761 	 -108.307 	 
S 	 -94.8003 	 3.28161 	 -106.729 	 
C 	 -94.1364 	 3.25195 	 -105.123 	 
C 	 -95.1948 	 3.06029 	 -104.23 	 
C 	 -96.5045 	 3.27744 	 -104.816 	 
C 	 -96.4042 	 3.67997 	 -106.123 	 
H 	 -95.1871 	 2.78989 	 -103.198 	 
C 	 -97.8259 	 2.9653 	 -104.138 	 
H 	 -97.6111 	 2.17575 	 -103.37 	 
H 	 -98.4114 	 2.44747 	 -104.847 	 
C 	 -98.544 	 4.14696 	 -103.426 	 
H 	 -98.4937 	 5.00998 	 -104.112 	 
H 	 -97.8661 	 4.42397 	 -102.605 	 
C 	 -99.9644 	 3.77512 	 -102.944 	 
H 	 -100.492 	 4.51785 	 -102.366 	 
H 	 -99.9787 	 3.03385 	 -102.209 	 
H 	 -100.614 	 3.49283 	 -103.862 	 
H 	 -100.081 	 3.4941 	 -109.467 	 
H 	 -93.0708 	 3.14383 	 -104.738 	 
*
