! wB97X-D3 SP def2-SVP
%pal
nprocs 24
end

* xyz 0 1
S 	 -101.47 	 1.83909 	 -104.297 	 
C 	 -101.449 	 2.65704 	 -105.774 	 
C 	 -101.326 	 4.02524 	 -105.635 	 
C 	 -100.971 	 4.34047 	 -104.263 	 
C 	 -100.911 	 3.2189 	 -103.434 	 
H 	 -100.976 	 5.30157 	 -103.89 	 
C 	 -101.486 	 5.04251 	 -106.747 	 
H 	 -101.936 	 5.92987 	 -106.399 	 
H 	 -102.106 	 4.63136 	 -107.563 	 
C 	 -100.118 	 5.37392 	 -107.385 	 
H 	 -99.5365 	 5.64333 	 -106.602 	 
H 	 -99.656 	 4.51375 	 -107.905 	 
C 	 -100.221 	 6.54766 	 -108.328 	 
H 	 -101.011 	 6.37304 	 -109.068 	 
H 	 -100.516 	 7.4922 	 -107.901 	 
H 	 -99.3792 	 6.63113 	 -109.01 	 
S 	 -102.249 	 3.25461 	 -101.024 	 
C 	 -101.34 	 3.1509 	 -99.5889 	 
C 	 -99.9814 	 2.95847 	 -99.85 	 
C 	 -99.677 	 3.05682 	 -101.232 	 
C 	 -100.763 	 3.1634 	 -101.995 	 
H 	 -99.2431 	 2.69766 	 -99.0673 	 
C 	 -98.2575 	 2.90388 	 -101.816 	 
H 	 -98.447 	 2.46917 	 -102.871 	 
H 	 -97.7178 	 2.15601 	 -101.32 	 
C 	 -97.4753 	 4.22711 	 -101.912 	 
H 	 -97.5688 	 4.78814 	 -100.951 	 
H 	 -98.1215 	 4.796 	 -102.488 	 
C 	 -96.0562 	 3.97177 	 -102.509 	 
H 	 -95.4305 	 3.4595 	 -101.802 	 
H 	 -95.6208 	 4.87991 	 -102.926 	 
H 	 -95.9292 	 3.40032 	 -103.447 	 
H 	 -101.629 	 2.10023 	 -106.696 	 
H 	 -101.668 	 3.01758 	 -98.5705 	 
*
