! wB97X-D3 SP def2-SVP
%pal
nprocs 24
end

* xyz 0 1
S 	 -70.9029 	 7.257 	 -101.212 	 
C 	 -69.4733 	 7.37905 	 -102.21 	 
C 	 -69.5946 	 8.31415 	 -103.251 	 
C 	 -70.9558 	 8.87544 	 -103.236 	 
C 	 -71.7781 	 8.3902 	 -102.274 	 
H 	 -71.2119 	 9.62277 	 -103.942 	 
C 	 -68.5098 	 8.57322 	 -104.29 	 
H 	 -67.6179 	 8.34841 	 -103.79 	 
H 	 -68.5247 	 9.61376 	 -104.485 	 
C 	 -68.6995 	 7.80235 	 -105.579 	 
H 	 -69.7839 	 8.05581 	 -105.913 	 
H 	 -67.9708 	 7.95546 	 -106.35 	 
C 	 -68.6496 	 6.2637 	 -105.382 	 
H 	 -68.7635 	 5.70518 	 -106.342 	 
H 	 -67.698 	 5.92121 	 -104.981 	 
H 	 -69.4025 	 5.85334 	 -104.723 	 
S 	 -73.5945 	 10.3889 	 -101.799 	 
C 	 -75.2589 	 10.0253 	 -101.316 	 
C 	 -75.4726 	 8.69299 	 -101.572 	 
C 	 -74.3619 	 7.89895 	 -102.056 	 
C 	 -73.2278 	 8.67445 	 -102.136 	 
H 	 -76.4608 	 8.28559 	 -101.418 	 
C 	 -74.4874 	 6.38518 	 -102.045 	 
H 	 -73.574 	 5.94322 	 -102.503 	 
H 	 -75.3411 	 6.16532 	 -102.788 	 
C 	 -74.7774 	 5.70473 	 -100.605 	 
H 	 -75.7514 	 5.95683 	 -100.227 	 
H 	 -74.0606 	 5.9041 	 -99.8432 	 
C 	 -74.6383 	 4.1387 	 -100.532 	 
H 	 -73.6968 	 3.67612 	 -100.857 	 
H 	 -75.3601 	 3.64038 	 -101.22 	 
H 	 -74.7071 	 3.80773 	 -99.5146 	 
H 	 -68.5006 	 6.91938 	 -101.989 	 
H 	 -76.0902 	 10.5916 	 -100.916 	 
*
