! wB97X-D3 SP def2-SVP
%pal
nprocs 24
end

* xyz 0 1
S 	 16.8666 	 -12.1479 	 -119.915 	 
C 	 15.4441 	 -12.4689 	 -120.967 	 
C 	 14.3104 	 -12.4852 	 -120.24 	 
C 	 14.511 	 -12.5718 	 -118.827 	 
C 	 15.8244 	 -12.3627 	 -118.508 	 
H 	 13.863 	 -12.7396 	 -117.932 	 
C 	 12.9624 	 -12.694 	 -120.776 	 
H 	 12.6931 	 -11.7451 	 -121.315 	 
H 	 12.249 	 -12.6901 	 -119.93 	 
C 	 12.7308 	 -13.9719 	 -121.521 	 
H 	 13.3767 	 -13.8327 	 -122.405 	 
H 	 12.8898 	 -14.8912 	 -121.002 	 
C 	 11.2508 	 -13.9377 	 -122.043 	 
H 	 10.9527 	 -14.7897 	 -122.721 	 
H 	 10.4647 	 -13.9454 	 -121.264 	 
H 	 11.0914 	 -13.0182 	 -122.614 	 
S 	 17.0157 	 -10.7378 	 -116.561 	 
C 	 16.9645 	 -11.3569 	 -114.932 	 
C 	 16.506 	 -12.6612 	 -114.822 	 
C 	 16.139 	 -13.1747 	 -116.123 	 
C 	 16.3009 	 -12.2641 	 -117.145 	 
H 	 16.3509 	 -13.1821 	 -113.883 	 
C 	 15.544 	 -14.5065 	 -116.289 	 
H 	 15.4111 	 -14.6597 	 -117.368 	 
H 	 14.5146 	 -14.5392 	 -115.866 	 
C 	 16.3436 	 -15.7401 	 -115.699 	 
H 	 16.6871 	 -15.4287 	 -114.735 	 
H 	 17.1523 	 -16.0206 	 -116.35 	 
C 	 15.4828 	 -16.9596 	 -115.462 	 
H 	 14.907 	 -16.9094 	 -114.567 	 
H 	 16.0556 	 -17.9207 	 -115.433 	 
H 	 14.848 	 -17.0164 	 -116.395 	 
H 	 15.4093 	 -12.6453 	 -121.991 	 
H 	 17.235 	 -10.7535 	 -114.149 	 
*
