! wB97X-D3 SP def2-SVP
%pal
nprocs 24
end

* xyz 0 1
S 	 -57.7798 	 -51.1844 	 -78.0554 	 
C 	 -56.8437 	 -50.0546 	 -77.131 	 
C 	 -55.5342 	 -50.4355 	 -77.0719 	 
C 	 -55.2486 	 -51.5771 	 -77.8972 	 
C 	 -56.3786 	 -52.2112 	 -78.3288 	 
H 	 -54.2693 	 -52.1152 	 -78.0454 	 
C 	 -54.4383 	 -49.6804 	 -76.2759 	 
H 	 -54.7333 	 -48.6641 	 -76.4232 	 
H 	 -53.4603 	 -49.8573 	 -76.7595 	 
C 	 -54.3369 	 -49.9702 	 -74.8065 	 
H 	 -55.3212 	 -49.8442 	 -74.3573 	 
H 	 -54.1963 	 -51.0423 	 -74.6973 	 
C 	 -53.3374 	 -49.0115 	 -74.1197 	 
H 	 -52.3929 	 -49.0568 	 -74.5902 	 
H 	 -53.6277 	 -48.0257 	 -74.2034 	 
H 	 -53.2852 	 -49.2686 	 -73.0324 	 
S 	 -56.5387 	 -54.9748 	 -78.0389 	 
C 	 -56.5238 	 -55.8947 	 -79.5445 	 
C 	 -56.4919 	 -55.1244 	 -80.7012 	 
C 	 -56.2812 	 -53.7472 	 -80.3858 	 
C 	 -56.3737 	 -53.4826 	 -79.0026 	 
H 	 -56.5654 	 -55.514 	 -81.6749 	 
C 	 -56.1531 	 -52.6658 	 -81.4417 	 
H 	 -55.3478 	 -52.9506 	 -82.0835 	 
H 	 -55.7648 	 -51.7786 	 -80.8972 	 
C 	 -57.385 	 -52.2458 	 -82.2511 	 
H 	 -57.1611 	 -51.386 	 -82.8451 	 
H 	 -58.1265 	 -51.6408 	 -81.6832 	 
C 	 -58.0289 	 -53.4543 	 -83.0763 	 
H 	 -57.4083 	 -54.0281 	 -83.712 	 
H 	 -58.7908 	 -53.1205 	 -83.7301 	 
H 	 -58.4256 	 -54.2956 	 -82.5293 	 
H 	 -57.2205 	 -49.1401 	 -76.6442 	 
H 	 -56.6957 	 -56.9421 	 -79.5729 	 
*
