! wB97X-D3 SP def2-SVP
%pal
nprocs 24
end

* xyz 0 1
S 	 -104.219 	 17.7427 	 -113.223 	 
C 	 -104.124 	 16.9653 	 -111.625 	 
C 	 -104.69 	 17.7987 	 -110.641 	 
C 	 -105.114 	 19.0411 	 -111.125 	 
C 	 -105.009 	 19.1791 	 -112.509 	 
H 	 -105.609 	 19.8787 	 -110.532 	 
C 	 -104.871 	 17.3036 	 -109.273 	 
H 	 -105.085 	 16.2366 	 -109.222 	 
H 	 -105.694 	 17.6948 	 -108.732 	 
C 	 -103.604 	 17.4015 	 -108.573 	 
H 	 -103.749 	 16.8016 	 -107.641 	 
H 	 -102.776 	 17.0375 	 -109.163 	 
C 	 -103.273 	 18.8932 	 -108.056 	 
H 	 -102.774 	 19.3223 	 -108.924 	 
H 	 -104.188 	 19.464 	 -107.914 	 
H 	 -102.681 	 18.9187 	 -107.187 	 
S 	 -106.831 	 19.931 	 -114.464 	 
C 	 -107.107 	 21.6475 	 -114.757 	 
C 	 -106.235 	 22.4445 	 -114.02 	 
C 	 -105.334 	 21.7266 	 -113.173 	 
C 	 -105.495 	 20.331 	 -113.253 	 
H 	 -106.362 	 23.5289 	 -114.111 	 
C 	 -104.389 	 22.4915 	 -112.214 	 
H 	 -104.614 	 22.0713 	 -111.221 	 
H 	 -104.634 	 23.4826 	 -112.053 	 
C 	 -102.996 	 22.2842 	 -112.715 	 
H 	 -102.887 	 22.6881 	 -113.758 	 
H 	 -102.821 	 21.2511 	 -112.843 	 
C 	 -101.833 	 22.8145 	 -111.865 	 
H 	 -100.869 	 22.3605 	 -112.207 	 
H 	 -102.001 	 22.5371 	 -110.792 	 
H 	 -101.744 	 23.9428 	 -111.989 	 
H 	 -103.58 	 16.087 	 -111.363 	 
H 	 -107.873 	 21.9443 	 -115.434 	 
*
