! wB97X-D3 SP def2-SVP
%pal
nprocs 24
end

* xyz 0 1
S 	 -133.351 	 5.86055 	 -11.1416 	 
C 	 -133.914 	 7.18938 	 -10.2316 	 
C 	 -133.855 	 8.34615 	 -10.9505 	 
C 	 -133.782 	 8.13025 	 -12.3787 	 
C 	 -133.586 	 6.7687 	 -12.6862 	 
H 	 -133.811 	 8.88458 	 -13.1092 	 
C 	 -133.869 	 9.70086 	 -10.2505 	 
H 	 -133.636 	 9.54415 	 -9.1242 	 
H 	 -134.946 	 10.0348 	 -10.2888 	 
C 	 -132.981 	 10.8726 	 -10.9591 	 
H 	 -131.916 	 10.6291 	 -10.9173 	 
H 	 -133.367 	 11.081 	 -11.9787 	 
C 	 -133.275 	 12.2656 	 -10.3863 	 
H 	 -134.39 	 12.5415 	 -10.5627 	 
H 	 -132.953 	 12.3757 	 -9.28454 	 
H 	 -132.7 	 12.9428 	 -10.9572 	 
S 	 -134.526 	 4.47206 	 -13.9212 	 
C 	 -134.041 	 4.0694 	 -15.5522 	 
C 	 -133.231 	 5.07556 	 -16.0332 	 
C 	 -132.885 	 6.06127 	 -15.1101 	 
C 	 -133.614 	 5.98093 	 -13.9268 	 
H 	 -133.046 	 4.88136 	 -17.1222 	 
C 	 -131.837 	 7.16257 	 -15.4121 	 
H 	 -130.855 	 6.64395 	 -15.4283 	 
H 	 -131.916 	 7.77329 	 -14.4948 	 
C 	 -132.136 	 8.11554 	 -16.5293 	 
H 	 -132.969 	 8.74393 	 -16.2021 	 
H 	 -132.418 	 7.5356 	 -17.4418 	 
C 	 -130.974 	 9.07285 	 -16.9077 	 
H 	 -130.855 	 9.92514 	 -16.2657 	 
H 	 -131.19 	 9.36675 	 -17.9409 	 
H 	 -129.985 	 8.66136 	 -16.9266 	 
H 	 -133.998 	 7.1761 	 -9.13635 	 
H 	 -134.408 	 3.26306 	 -16.1288 	 
*
