! wB97X-D3 SP def2-SVP
%pal
nprocs 24
end

* xyz 0 1
S 	 -96.005 	 11.0612 	 -113.258 	 
C 	 -96.4547 	 12.7396 	 -112.993 	 
C 	 -95.7511 	 13.5603 	 -113.844 	 
C 	 -94.9588 	 12.8209 	 -114.835 	 
C 	 -95.1229 	 11.4514 	 -114.762 	 
H 	 -94.4603 	 13.2235 	 -115.684 	 
C 	 -95.6841 	 15.116 	 -113.76 	 
H 	 -96.6767 	 15.4367 	 -114.195 	 
H 	 -94.9646 	 15.5675 	 -114.464 	 
C 	 -95.5905 	 15.6762 	 -112.305 	 
H 	 -95.769 	 16.7853 	 -112.352 	 
H 	 -96.363 	 15.3568 	 -111.566 	 
C 	 -94.2037 	 15.5398 	 -111.71 	 
H 	 -93.3302 	 15.7631 	 -112.294 	 
H 	 -94.1549 	 16.2101 	 -110.832 	 
H 	 -94.0413 	 14.4523 	 -111.447 	 
S 	 -94.2074 	 8.89016 	 -114.73 	 
C 	 -93.7494 	 8.124 	 -116.26 	 
C 	 -93.6483 	 9.03446 	 -117.282 	 
C 	 -94.1949 	 10.3139 	 -116.932 	 
C 	 -94.5688 	 10.429 	 -115.609 	 
H 	 -93.3077 	 8.80243 	 -118.27 	 
C 	 -94.2762 	 11.3953 	 -118.073 	 
H 	 -93.5411 	 11.167 	 -118.858 	 
H 	 -93.8697 	 12.3803 	 -117.702 	 
C 	 -95.6866 	 11.5527 	 -118.656 	 
H 	 -96.286 	 12.1 	 -117.902 	 
H 	 -96.1634 	 10.5292 	 -118.749 	 
C 	 -95.6304 	 12.321 	 -119.981 	 
H 	 -95.3032 	 13.3675 	 -119.707 	 
H 	 -96.5607 	 12.332 	 -120.521 	 
H 	 -94.8524 	 11.8932 	 -120.592 	 
H 	 -97.2189 	 13.065 	 -112.272 	 
H 	 -93.5261 	 7.04961 	 -116.423 	 
*
