! wB97X-D3 SP def2-SVP
%pal
nprocs 24
end

* xyz 0 1
S 	 -55.9589 	 -58.7701 	 -80.7972 	 
C 	 -56.7774 	 -57.6121 	 -79.799 	 
C 	 -58.0395 	 -57.3161 	 -80.2588 	 
C 	 -58.3939 	 -58.1872 	 -81.3583 	 
C 	 -57.4516 	 -59.0577 	 -81.7434 	 
H 	 -59.4066 	 -58.1985 	 -81.8213 	 
C 	 -59.0105 	 -56.4304 	 -79.5692 	 
H 	 -59.2464 	 -56.8987 	 -78.6517 	 
H 	 -59.8778 	 -56.4255 	 -80.2048 	 
C 	 -58.5502 	 -55.0609 	 -79.1602 	 
H 	 -58.0733 	 -55.1267 	 -78.176 	 
H 	 -57.8251 	 -54.7574 	 -79.9344 	 
C 	 -59.6859 	 -53.9999 	 -79.0772 	 
H 	 -60.467 	 -54.0862 	 -79.8535 	 
H 	 -60.057 	 -53.7705 	 -78.0358 	 
H 	 -59.188 	 -53.0552 	 -79.2986 	 
S 	 -56.838 	 -61.6541 	 -82.459 	 
C 	 -57.1699 	 -62.2242 	 -84.0324 	 
C 	 -57.6822 	 -61.2962 	 -84.8564 	 
C 	 -57.9566 	 -60.082 	 -84.122 	 
C 	 -57.5785 	 -60.1058 	 -82.7519 	 
H 	 -57.842 	 -61.5854 	 -85.9164 	 
C 	 -58.4107 	 -58.7822 	 -84.7558 	 
H 	 -59.0307 	 -58.2606 	 -84.019 	 
H 	 -59.0841 	 -58.8686 	 -85.6167 	 
C 	 -57.2923 	 -57.7958 	 -85.3519 	 
H 	 -57.7152 	 -57.0465 	 -85.9898 	 
H 	 -56.8077 	 -58.4772 	 -86.0089 	 
C 	 -56.334 	 -57.204 	 -84.2788 	 
H 	 -55.9261 	 -58.0294 	 -83.715 	 
H 	 -56.7761 	 -56.5063 	 -83.5226 	 
H 	 -55.5792 	 -56.6094 	 -84.7962 	 
H 	 -56.2612 	 -57.1886 	 -78.9022 	 
H 	 -56.6721 	 -63.142 	 -84.3881 	 
*
