! wB97X-D3 SP def2-SVP
%pal
nprocs 24
end

* xyz 0 1
S 	 -97.5706 	 -24.5789 	 -66.1028 	 
C 	 -98.136 	 -22.9437 	 -66.5905 	 
C 	 -97.071 	 -22.0057 	 -66.4473 	 
C 	 -95.9268 	 -22.6106 	 -65.8429 	 
C 	 -96.0799 	 -23.9372 	 -65.5071 	 
H 	 -94.9671 	 -22.1637 	 -65.5882 	 
C 	 -97.1417 	 -20.5354 	 -66.9216 	 
H 	 -97.8991 	 -20.5065 	 -67.7312 	 
H 	 -96.2014 	 -20.3752 	 -67.3531 	 
C 	 -97.5239 	 -19.4525 	 -65.8663 	 
H 	 -98.3488 	 -19.8192 	 -65.3463 	 
H 	 -96.6539 	 -19.4336 	 -65.1474 	 
C 	 -97.6985 	 -18.0271 	 -66.4835 	 
H 	 -98.0707 	 -17.3754 	 -65.7401 	 
H 	 -96.6956 	 -17.6843 	 -66.8508 	 
H 	 -98.4286 	 -17.9757 	 -67.3643 	 
S 	 -94.9055 	 -26.4741 	 -65.3797 	 
C 	 -93.6461 	 -26.7496 	 -64.1984 	 
C 	 -93.3794 	 -25.6139 	 -63.4416 	 
C 	 -94.1577 	 -24.5 	 -63.8136 	 
C 	 -95.0903 	 -24.7943 	 -64.8199 	 
H 	 -92.552 	 -25.6398 	 -62.7019 	 
C 	 -94.0536 	 -23.2349 	 -62.9253 	 
H 	 -94.4199 	 -22.3921 	 -63.4956 	 
H 	 -93.001 	 -23.0743 	 -62.7701 	 
C 	 -94.6802 	 -23.3586 	 -61.5072 	 
H 	 -94.0013 	 -23.9604 	 -60.8912 	 
H 	 -95.6131 	 -23.8527 	 -61.5983 	 
C 	 -94.7664 	 -21.9054 	 -60.9215 	 
H 	 -95.2548 	 -21.2593 	 -61.5669 	 
H 	 -93.7238 	 -21.5861 	 -61.0342 	 
H 	 -95.2572 	 -21.7743 	 -59.9589 	 
H 	 -99.0753 	 -22.8252 	 -67.1299 	 
H 	 -93.0276 	 -27.6679 	 -64.1506 	 
*
