! wB97X-D3 SP def2-SVP
%pal
nprocs 24
end

* xyz 0 1
S 	 -135.139 	 8.36462 	 -8.28165 	 
C 	 -135.927 	 9.7457 	 -7.55363 	 
C 	 -136.799 	 9.3829 	 -6.56982 	 
C 	 -136.698 	 7.98375 	 -6.26269 	 
C 	 -135.842 	 7.30794 	 -7.04443 	 
H 	 -137.233 	 7.44606 	 -5.44099 	 
C 	 -137.709 	 10.2989 	 -5.82118 	 
H 	 -137.734 	 11.1727 	 -6.45261 	 
H 	 -137.105 	 10.6099 	 -4.96165 	 
C 	 -139.065 	 9.70285 	 -5.41688 	 
H 	 -139.666 	 9.38274 	 -6.2967 	 
H 	 -138.907 	 8.8199 	 -4.8411 	 
C 	 -139.831 	 10.6905 	 -4.60279 	 
H 	 -140.572 	 10.1397 	 -3.9731 	 
H 	 -139.101 	 11.3264 	 -3.97879 	 
H 	 -140.373 	 11.4487 	 -5.15246 	 
S 	 -137.07 	 5.05541 	 -7.89714 	 
C 	 -136.213 	 3.54654 	 -7.82435 	 
C 	 -134.875 	 3.6966 	 -7.37805 	 
C 	 -134.579 	 5.03745 	 -6.94611 	 
C 	 -135.71 	 5.86175 	 -7.11472 	 
H 	 -134.196 	 2.86626 	 -7.33015 	 
C 	 -133.207 	 5.56374 	 -6.6078 	 
H 	 -132.682 	 4.93843 	 -5.87801 	 
H 	 -133.328 	 6.55143 	 -6.10011 	 
C 	 -132.207 	 5.69444 	 -7.77604 	 
H 	 -132.539 	 6.25327 	 -8.61339 	 
H 	 -132.162 	 4.66754 	 -8.18188 	 
C 	 -130.801 	 6.02654 	 -7.36255 	 
H 	 -130.625 	 6.91411 	 -6.76164 	 
H 	 -130.211 	 6.2869 	 -8.27977 	 
H 	 -130.346 	 5.10921 	 -6.85669 	 
H 	 -135.726 	 10.7712 	 -7.80272 	 
H 	 -136.703 	 2.62213 	 -8.15686 	 
*
