! wB97X-D3 SP def2-SVP
%pal
nprocs 24
end

* xyz 0 1
S 	 -138.05 	 5.03687 	 -8.44374 	 
C 	 -136.932 	 6.05148 	 -9.29546 	 
C 	 -136.978 	 7.33937 	 -8.8411 	 
C 	 -137.829 	 7.42508 	 -7.70209 	 
C 	 -138.454 	 6.26295 	 -7.37183 	 
H 	 -138.151 	 8.27204 	 -7.09844 	 
C 	 -136.257 	 8.50279 	 -9.44265 	 
H 	 -136.689 	 8.5939 	 -10.402 	 
H 	 -135.202 	 8.27397 	 -9.54827 	 
C 	 -136.479 	 9.7962 	 -8.56766 	 
H 	 -137.556 	 10.0097 	 -8.44473 	 
H 	 -136.06 	 9.56742 	 -7.57655 	 
C 	 -135.797 	 11.0373 	 -9.21521 	 
H 	 -135.878 	 11.8223 	 -8.50985 	 
H 	 -134.779 	 10.9485 	 -9.54136 	 
H 	 -136.415 	 11.3138 	 -10.1026 	 
S 	 -141.035 	 5.73673 	 -6.48348 	 
C 	 -141.46 	 5.87526 	 -4.83974 	 
C 	 -140.383 	 6.26404 	 -4.09254 	 
C 	 -139.214 	 6.40718 	 -4.83259 	 
C 	 -139.355 	 6.08377 	 -6.19061 	 
H 	 -140.508 	 6.58536 	 -2.99058 	 
C 	 -138.06 	 7.15725 	 -4.12365 	 
H 	 -138.42 	 7.62223 	 -3.14339 	 
H 	 -137.825 	 7.94183 	 -4.76061 	 
C 	 -136.926 	 6.24097 	 -3.76952 	 
H 	 -136.567 	 5.53972 	 -4.61094 	 
H 	 -137.371 	 5.61412 	 -3.02948 	 
C 	 -135.694 	 6.96294 	 -3.13181 	 
H 	 -134.849 	 6.25496 	 -3.18945 	 
H 	 -136.047 	 7.09565 	 -2.10649 	 
H 	 -135.43 	 7.83578 	 -3.70502 	 
H 	 -136.457 	 5.73976 	 -10.2504 	 
H 	 -142.422 	 5.96893 	 -4.44071 	 
*
