! wB97X-D3 SP def2-SVP
%pal
nprocs 24
end

* xyz 0 1
S 	 43.0136 	 -19.5271 	 -113.528 	 
C 	 43.115 	 -18.2805 	 -114.744 	 
C 	 44.1948 	 -17.5002 	 -114.529 	 
C 	 44.7821 	 -17.7938 	 -113.335 	 
C 	 44.3424 	 -18.8711 	 -112.642 	 
H 	 45.6249 	 -17.1744 	 -112.944 	 
C 	 44.5962 	 -16.3408 	 -115.442 	 
H 	 44.1514 	 -16.4863 	 -116.414 	 
H 	 45.6902 	 -16.6194 	 -115.508 	 
C 	 44.3372 	 -14.9144 	 -114.868 	 
H 	 44.6029 	 -15.0361 	 -113.772 	 
H 	 45.0444 	 -14.2643 	 -115.31 	 
C 	 42.9337 	 -14.3955 	 -115.215 	 
H 	 42.6828 	 -13.5048 	 -114.664 	 
H 	 42.7066 	 -14.1742 	 -116.191 	 
H 	 42.2281 	 -15.184 	 -114.95 	 
S 	 45.6835 	 -21.0346 	 -111.32 	 
C 	 46.2731 	 -20.6992 	 -109.65 	 
C 	 45.8605 	 -19.4399 	 -109.228 	 
C 	 45.0457 	 -18.7878 	 -110.201 	 
C 	 44.9441 	 -19.4253 	 -111.422 	 
H 	 45.9584 	 -19.2003 	 -108.175 	 
C 	 44.3926 	 -17.5509 	 -109.783 	 
H 	 43.9893 	 -17.079 	 -110.69 	 
H 	 45.1389 	 -16.931 	 -109.327 	 
C 	 43.3442 	 -17.5833 	 -108.706 	 
H 	 43.7208 	 -18.0227 	 -107.785 	 
H 	 42.5152 	 -18.2843 	 -108.939 	 
C 	 42.8619 	 -16.1641 	 -108.421 	 
H 	 42.0211 	 -16.1821 	 -107.78 	 
H 	 42.5787 	 -15.7301 	 -109.354 	 
H 	 43.6537 	 -15.6748 	 -107.896 	 
H 	 42.5061 	 -18.1011 	 -115.558 	 
H 	 46.7333 	 -21.3896 	 -108.946 	 
*
