! wB97X-D3 SP def2-SVP
%pal
nprocs 24
end

* xyz 0 1
S 	 -63.5199 	 10.09 	 20.9638 	 
C 	 -61.8784 	 10.5994 	 20.4287 	 
C 	 -60.9328 	 9.58213 	 20.6964 	 
C 	 -61.5885 	 8.42934 	 21.2015 	 
C 	 -62.9738 	 8.51508 	 21.3437 	 
H 	 -61.1819 	 7.44377 	 21.1673 	 
C 	 -59.478 	 9.58121 	 20.4013 	 
H 	 -59.2006 	 10.5588 	 19.9877 	 
H 	 -59.4256 	 8.93932 	 19.5702 	 
C 	 -58.4669 	 9.32961 	 21.5413 	 
H 	 -58.3285 	 10.1966 	 22.2362 	 
H 	 -58.7536 	 8.40507 	 22.1902 	 
C 	 -57.1086 	 8.98899 	 21.0529 	 
H 	 -56.5396 	 9.35309 	 21.966 	 
H 	 -56.9708 	 7.93872 	 20.8143 	 
H 	 -56.8034 	 9.61423 	 20.1383 	 
S 	 -64.6234 	 8.13504 	 23.4005 	 
C 	 -65.6825 	 6.73534 	 23.3946 	 
C 	 -65.4332 	 5.86105 	 22.4177 	 
C 	 -64.3276 	 6.27861 	 21.5347 	 
C 	 -63.8634 	 7.5321 	 21.8816 	 
H 	 -66.0829 	 4.96849 	 22.3342 	 
C 	 -63.9784 	 5.58896 	 20.2452 	 
H 	 -63.3232 	 6.09866 	 19.6112 	 
H 	 -64.9495 	 5.53419 	 19.5984 	 
C 	 -63.5143 	 4.16808 	 20.3771 	 
H 	 -64.2463 	 3.6282 	 21.0236 	 
H 	 -62.5744 	 4.14742 	 20.9343 	 
C 	 -63.2991 	 3.55307 	 18.9919 	 
H 	 -64.1541 	 3.59232 	 18.2504 	 
H 	 -63.2282 	 2.4538 	 19.1835 	 
H 	 -62.3951 	 3.84993 	 18.4881 	 
H 	 -61.6513 	 11.5549 	 20.1327 	 
H 	 -66.4538 	 6.51058 	 24.0954 	 
*
