! wB97X-D3 SP def2-SVP
%pal
nprocs 24
end

* xyz 0 1
S 	 -46.9697 	 20.5403 	 31.0542 	 
C 	 -46.9179 	 21.8904 	 29.8607 	 
C 	 -45.7768 	 21.6582 	 29.0794 	 
C 	 -45.0198 	 20.5004 	 29.414 	 
C 	 -45.5627 	 19.6616 	 30.3929 	 
H 	 -44.2046 	 20.1219 	 28.9026 	 
C 	 -45.1438 	 22.6541 	 28.1515 	 
H 	 -44.0678 	 22.5307 	 28.0161 	 
H 	 -45.411 	 23.6054 	 28.522 	 
C 	 -45.6132 	 22.4142 	 26.7239 	 
H 	 -46.7425 	 22.6037 	 26.7041 	 
H 	 -45.1111 	 23.2132 	 26.1621 	 
C 	 -45.4087 	 21.053 	 26.0228 	 
H 	 -46.0511 	 20.306 	 26.467 	 
H 	 -45.717 	 21.269 	 24.9807 	 
H 	 -44.3799 	 20.6522 	 25.9781 	 
S 	 -43.4384 	 18.2942 	 31.528 	 
C 	 -43.5851 	 16.6159 	 31.9447 	 
C 	 -44.9 	 16.2428 	 31.6999 	 
C 	 -45.7118 	 17.2635 	 31.1937 	 
C 	 -45.0397 	 18.4155 	 30.9147 	 
H 	 -45.1557 	 15.2295 	 32.0239 	 
C 	 -47.2261 	 17.0695 	 30.9467 	 
H 	 -47.7105 	 18.0243 	 30.7235 	 
H 	 -47.7219 	 16.7918 	 31.9106 	 
C 	 -47.5566 	 16.0858 	 29.8001 	 
H 	 -48.6103 	 15.7417 	 30.0181 	 
H 	 -46.9436 	 15.1704 	 29.7689 	 
C 	 -47.3407 	 16.7212 	 28.4045 	 
H 	 -46.3397 	 16.9575 	 28.2706 	 
H 	 -47.8751 	 17.6463 	 28.4036 	 
H 	 -47.657 	 16.1423 	 27.6073 	 
H 	 -47.5675 	 22.7676 	 29.8103 	 
H 	 -42.8366 	 15.9276 	 32.3919 	 
*
