! wB97X-D3 SP def2-SVP
%pal
nprocs 24
end

* xyz 0 1
S 	 -106.534 	 56.7337 	 -89.1094 	 
C 	 -105.072 	 56.2649 	 -88.1159 	 
C 	 -104.018 	 55.9394 	 -88.935 	 
C 	 -104.389 	 56.0325 	 -90.334 	 
C 	 -105.735 	 56.2283 	 -90.6355 	 
H 	 -103.694 	 55.8649 	 -91.1411 	 
C 	 -102.652 	 55.467 	 -88.6569 	 
H 	 -102.125 	 54.9302 	 -89.4903 	 
H 	 -102.885 	 54.7151 	 -87.9286 	 
C 	 -101.599 	 56.4104 	 -88.1037 	 
H 	 -101.161 	 57.1292 	 -88.846 	 
H 	 -102.027 	 57.0389 	 -87.2849 	 
C 	 -100.449 	 55.5945 	 -87.577 	 
H 	 -99.9179 	 56.1151 	 -86.7989 	 
H 	 -100.823 	 54.6871 	 -87.0778 	 
H 	 -99.7412 	 55.1763 	 -88.3295 	 
S 	 -107.871 	 54.8905 	 -91.8918 	 
C 	 -108.023 	 55.0813 	 -93.6734 	 
C 	 -107.163 	 55.9955 	 -94.1758 	 
C 	 -106.231 	 56.4844 	 -93.1607 	 
C 	 -106.472 	 55.9931 	 -91.8946 	 
H 	 -107.13 	 56.2156 	 -95.3029 	 
C 	 -105.063 	 57.3268 	 -93.5201 	 
H 	 -104.761 	 57.9846 	 -92.6651 	 
H 	 -105.385 	 58.1015 	 -94.2044 	 
C 	 -103.927 	 56.6078 	 -94.1577 	 
H 	 -104.277 	 55.8989 	 -94.9593 	 
H 	 -103.614 	 56.0316 	 -93.3224 	 
C 	 -102.767 	 57.4779 	 -94.6237 	 
H 	 -102.004 	 56.9024 	 -95.175 	 
H 	 -102.177 	 57.909 	 -93.8042 	 
H 	 -103.175 	 58.2662 	 -95.3506 	 
H 	 -105.109 	 56.2542 	 -87.0735 	 
H 	 -108.774 	 54.5792 	 -94.2884 	 
*
