! wB97X-D3 SP def2-SVP
%pal
nprocs 24
end

* xyz 0 1
S 	 -50.3453 	 -48.3317 	 -77.4599 	 
C 	 -51.7801 	 -48.0607 	 -76.5864 	 
C 	 -52.7862 	 -48.9312 	 -77.0028 	 
C 	 -52.3169 	 -49.9182 	 -77.9439 	 
C 	 -50.9533 	 -49.7503 	 -78.2324 	 
H 	 -52.8655 	 -50.7126 	 -78.4171 	 
C 	 -54.2052 	 -48.8898 	 -76.4836 	 
H 	 -54.2311 	 -47.9624 	 -75.9719 	 
H 	 -54.3214 	 -49.7287 	 -75.8137 	 
C 	 -55.2808 	 -48.8351 	 -77.574 	 
H 	 -54.8941 	 -48.0232 	 -78.1958 	 
H 	 -55.3044 	 -49.7653 	 -78.0624 	 
C 	 -56.7135 	 -48.5599 	 -77.0746 	 
H 	 -56.8702 	 -49.1172 	 -76.1804 	 
H 	 -56.829 	 -47.4886 	 -76.8843 	 
H 	 -57.4368 	 -48.7863 	 -77.8179 	 
S 	 -48.9738 	 -51.6187 	 -78.7743 	 
C 	 -48.7182 	 -52.2193 	 -80.3772 	 
C 	 -49.467 	 -51.5519 	 -81.3064 	 
C 	 -50.2422 	 -50.4531 	 -80.6954 	 
C 	 -50.2165 	 -50.4701 	 -79.2644 	 
H 	 -49.3366 	 -51.7643 	 -82.2768 	 
C 	 -51.081 	 -49.5646 	 -81.5777 	 
H 	 -50.3798 	 -49.2846 	 -82.3998 	 
H 	 -51.4441 	 -48.7019 	 -81.0463 	 
C 	 -52.3392 	 -50.1883 	 -82.1379 	 
H 	 -53.1207 	 -50.2694 	 -81.3826 	 
H 	 -52.1794 	 -51.1519 	 -82.5982 	 
C 	 -53.027 	 -49.372 	 -83.3195 	 
H 	 -52.3312 	 -49.2714 	 -84.13 	 
H 	 -53.3616 	 -48.3698 	 -83.111 	 
H 	 -53.9365 	 -49.8334 	 -83.7328 	 
H 	 -51.8103 	 -47.1758 	 -75.9347 	 
H 	 -48.1685 	 -53.1134 	 -80.6029 	 
*
