! wB97X-D3 SP def2-SVP
%pal
nprocs 24
end

* xyz 0 1
S 	 -110.943 	 46.1321 	 -74.9464 	 
C 	 -110.909 	 45.6684 	 -76.6363 	 
C 	 -110.783 	 46.7729 	 -77.4312 	 
C 	 -110.505 	 47.9595 	 -76.6503 	 
C 	 -110.53 	 47.7985 	 -75.2604 	 
H 	 -110.357 	 48.9338 	 -77.1506 	 
C 	 -110.846 	 46.7672 	 -78.9765 	 
H 	 -110.513 	 45.7877 	 -79.3095 	 
H 	 -110.195 	 47.5627 	 -79.3738 	 
C 	 -112.2 	 47.0721 	 -79.607 	 
H 	 -112.147 	 47.0076 	 -80.7195 	 
H 	 -112.845 	 46.2326 	 -79.3296 	 
C 	 -112.831 	 48.4451 	 -79.3012 	 
H 	 -112.26 	 49.3054 	 -79.4099 	 
H 	 -113.726 	 48.4322 	 -79.9436 	 
H 	 -113.211 	 48.3821 	 -78.2331 	 
S 	 -109.946 	 48.1073 	 -72.5226 	 
C 	 -109.402 	 49.6343 	 -71.918 	 
C 	 -109.59 	 50.5962 	 -72.8755 	 
C 	 -109.904 	 50.09 	 -74.1896 	 
C 	 -110.143 	 48.7093 	 -74.2219 	 
H 	 -109.479 	 51.5827 	 -72.4799 	 
C 	 -110.096 	 51.0963 	 -75.2893 	 
H 	 -110.306 	 52.0079 	 -74.7893 	 
H 	 -110.916 	 50.8819 	 -75.9576 	 
C 	 -108.805 	 51.3022 	 -76.0557 	 
H 	 -108.374 	 50.3535 	 -76.4533 	 
H 	 -108.119 	 51.7131 	 -75.328 	 
C 	 -108.764 	 52.3296 	 -77.2066 	 
H 	 -107.958 	 52.2528 	 -77.9487 	 
H 	 -108.867 	 53.3687 	 -76.7646 	 
H 	 -109.696 	 52.2644 	 -77.6669 	 
H 	 -111.197 	 44.7554 	 -77.0441 	 
H 	 -109.124 	 49.8391 	 -70.906 	 
*
