! wB97X-D3 SP def2-SVP
%pal
nprocs 24
end

* xyz 0 1
S 	 -62.8042 	 12.5378 	 -100.02 	 
C 	 -64.2171 	 12.1141 	 -101.031 	 
C 	 -63.8299 	 11.5741 	 -102.269 	 
C 	 -62.354 	 11.4062 	 -102.222 	 
C 	 -61.7042 	 11.7623 	 -101.13 	 
H 	 -61.7394 	 10.9214 	 -102.977 	 
C 	 -64.7285 	 11.0359 	 -103.336 	 
H 	 -65.2505 	 11.8549 	 -103.794 	 
H 	 -65.5183 	 10.577 	 -102.761 	 
C 	 -64.1197 	 10.0356 	 -104.354 	 
H 	 -63.2395 	 10.5779 	 -104.696 	 
H 	 -63.7186 	 9.20198 	 -103.78 	 
C 	 -65.0506 	 9.51889 	 -105.508 	 
H 	 -65.2644 	 10.4005 	 -106.223 	 
H 	 -64.3643 	 8.81963 	 -105.985 	 
H 	 -65.963 	 8.92438 	 -105.305 	 
S 	 -59.4953 	 13.0711 	 -100.31 	 
C 	 -57.9207 	 12.4015 	 -100.348 	 
C 	 -58.0728 	 11.0772 	 -100.763 	 
C 	 -59.415 	 10.5803 	 -100.886 	 
C 	 -60.2935 	 11.6343 	 -100.862 	 
H 	 -57.3178 	 10.4113 	 -100.895 	 
C 	 -59.7133 	 9.12811 	 -101.255 	 
H 	 -60.8411 	 8.90813 	 -101.346 	 
H 	 -59.537 	 8.4642 	 -100.434 	 
C 	 -58.9328 	 8.72976 	 -102.491 	 
H 	 -57.8464 	 8.65693 	 -102.375 	 
H 	 -58.9984 	 9.55975 	 -103.223 	 
C 	 -59.5111 	 7.44149 	 -103.037 	 
H 	 -58.7926 	 7.00897 	 -103.736 	 
H 	 -60.4437 	 7.40832 	 -103.516 	 
H 	 -59.5799 	 6.78656 	 -102.102 	 
H 	 -65.1765 	 12.3379 	 -100.668 	 
H 	 -57.0059 	 13.0118 	 -100.434 	 
*
