! wB97X-D3 SP def2-SVP
%pal
nprocs 24
end

* xyz 0 1
S 	 21.1029 	 -15.7958 	 -124.355 	 
C 	 19.675 	 -16.7875 	 -123.85 	 
C 	 20.0845 	 -18.0293 	 -123.366 	 
C 	 21.4964 	 -18.1576 	 -123.296 	 
C 	 22.1591 	 -17.01 	 -123.661 	 
H 	 22.0876 	 -19.0591 	 -123.167 	 
C 	 19.1619 	 -19.1817 	 -122.908 	 
H 	 19.6114 	 -20.1439 	 -123.247 	 
H 	 18.27 	 -19.1479 	 -123.53 	 
C 	 18.7963 	 -19.2489 	 -121.434 	 
H 	 19.6794 	 -19.1074 	 -120.85 	 
H 	 18.3165 	 -18.362 	 -120.953 	 
C 	 17.8929 	 -20.3707 	 -120.964 	 
H 	 17.1052 	 -20.5494 	 -121.664 	 
H 	 18.4066 	 -21.3494 	 -120.93 	 
H 	 17.5542 	 -20.1707 	 -119.973 	 
S 	 24.5324 	 -15.9738 	 -124.896 	 
C 	 26.0329 	 -16.1439 	 -124.001 	 
C 	 25.7664 	 -16.4727 	 -122.709 	 
C 	 24.3733 	 -16.8644 	 -122.445 	 
C 	 23.5504 	 -16.642 	 -123.51 	 
H 	 26.5814 	 -16.449 	 -121.933 	 
C 	 24.0064 	 -17.3489 	 -121.102 	 
H 	 24.82 	 -17.9271 	 -120.705 	 
H 	 23.1242 	 -17.9759 	 -121.063 	 
C 	 23.7519 	 -16.1765 	 -120.126 	 
H 	 22.8288 	 -15.6245 	 -120.456 	 
H 	 24.4721 	 -15.4182 	 -120.275 	 
C 	 23.6523 	 -16.4849 	 -118.664 	 
H 	 22.6991 	 -16.9421 	 -118.403 	 
H 	 23.6804 	 -15.6019 	 -118.058 	 
H 	 24.4778 	 -17.0964 	 -118.224 	 
H 	 18.7097 	 -16.3634 	 -123.705 	 
H 	 26.9917 	 -15.942 	 -124.481 	 
*
