! wB97X-D3 SP def2-SVP
%pal
nprocs 24
end

* xyz 0 1
S 	 -117.361 	 61.0513 	 -82.442 	 
C 	 -118.315 	 62.0015 	 -81.2464 	 
C 	 -117.494 	 62.875 	 -80.5492 	 
C 	 -116.126 	 62.5551 	 -80.6947 	 
C 	 -115.912 	 61.5305 	 -81.5598 	 
H 	 -115.38 	 63.0843 	 -80.2075 	 
C 	 -117.949 	 63.9867 	 -79.6653 	 
H 	 -118.708 	 64.5096 	 -80.3012 	 
H 	 -117.1 	 64.6693 	 -79.5134 	 
C 	 -118.597 	 63.6636 	 -78.2857 	 
H 	 -118.815 	 64.655 	 -77.7967 	 
H 	 -119.477 	 63.0683 	 -78.5405 	 
C 	 -117.763 	 62.9697 	 -77.2324 	 
H 	 -118.323 	 62.9319 	 -76.2726 	 
H 	 -117.621 	 61.9246 	 -77.5095 	 
H 	 -116.805 	 63.4809 	 -77.0754 	 
S 	 -113.236 	 62.205 	 -81.7986 	 
C 	 -111.985 	 60.975 	 -82.1016 	 
C 	 -112.566 	 59.7846 	 -82.4151 	 
C 	 -114.002 	 59.8756 	 -82.3217 	 
C 	 -114.531 	 61.0312 	 -81.7841 	 
H 	 -112.014 	 58.8566 	 -82.598 	 
C 	 -114.762 	 58.6565 	 -82.5726 	 
H 	 -114.248 	 58.042 	 -83.2804 	 
H 	 -115.752 	 58.8683 	 -82.8831 	 
C 	 -114.778 	 57.6612 	 -81.3476 	 
H 	 -115.132 	 58.2865 	 -80.4764 	 
H 	 -113.798 	 57.2825 	 -81.0826 	 
C 	 -115.663 	 56.4294 	 -81.6074 	 
H 	 -115.263 	 55.9894 	 -82.5208 	 
H 	 -116.729 	 56.6219 	 -81.7974 	 
H 	 -115.656 	 55.7043 	 -80.8417 	 
H 	 -119.299 	 62.2574 	 -81.4503 	 
H 	 -110.878 	 61.1797 	 -82.0155 	 
*
