! wB97X-D3 SP def2-SVP
%pal
nprocs 24
end

* xyz 0 1
S 	 -129.868 	 60.7156 	 -60.7218 	 
C 	 -129.553 	 61.3385 	 -62.2749 	 
C 	 -128.885 	 62.5027 	 -62.3249 	 
C 	 -128.674 	 63.0095 	 -60.9669 	 
C 	 -129.011 	 62.0576 	 -59.99 	 
H 	 -128.195 	 64.0074 	 -60.6804 	 
C 	 -128.784 	 63.3325 	 -63.5918 	 
H 	 -129.719 	 63.2843 	 -64.1594 	 
H 	 -128.049 	 62.774 	 -64.2711 	 
C 	 -128.235 	 64.7764 	 -63.4865 	 
H 	 -128.416 	 65.2609 	 -64.4981 	 
H 	 -128.684 	 65.4039 	 -62.7518 	 
C 	 -126.77 	 64.8394 	 -63.1619 	 
H 	 -126.392 	 65.7686 	 -63.5717 	 
H 	 -126.685 	 64.8421 	 -62.0814 	 
H 	 -126.094 	 64.1405 	 -63.5741 	 
S 	 -127.015 	 62.6235 	 -58.2738 	 
C 	 -127.363 	 62.5174 	 -56.6161 	 
C 	 -128.61 	 61.9101 	 -56.3977 	 
C 	 -129.462 	 61.8849 	 -57.5123 	 
C 	 -128.702 	 62.1517 	 -58.6508 	 
H 	 -128.91 	 61.52 	 -55.4009 	 
C 	 -130.915 	 61.398 	 -57.4767 	 
H 	 -130.855 	 60.2863 	 -57.5441 	 
H 	 -131.413 	 61.834 	 -58.3158 	 
C 	 -131.66 	 61.834 	 -56.2552 	 
H 	 -131.792 	 62.9222 	 -56.1729 	 
H 	 -131.13 	 61.5249 	 -55.3256 	 
C 	 -133.126 	 61.3382 	 -56.2163 	 
H 	 -133.755 	 61.7005 	 -57.034 	 
H 	 -133.519 	 61.6539 	 -55.2012 	 
H 	 -133.195 	 60.1964 	 -56.3201 	 
H 	 -130.006 	 60.9744 	 -63.1848 	 
H 	 -126.67 	 62.7556 	 -55.8977 	 
*
