! wB97X-D3 SP def2-SVP
%pal
nprocs 24
end

* xyz 0 1
S 	 -106.888 	 59.1261 	 -90.4961 	 
C 	 -106.688 	 60.8513 	 -90.4343 	 
C 	 -106.06 	 61.2635 	 -91.5924 	 
C 	 -105.88 	 60.1679 	 -92.5348 	 
C 	 -106.62 	 59.0653 	 -92.2267 	 
H 	 -105.263 	 60.1246 	 -93.3777 	 
C 	 -105.35 	 62.553 	 -91.7869 	 
H 	 -105.759 	 63.3902 	 -91.1875 	 
H 	 -105.516 	 62.7349 	 -92.8016 	 
C 	 -103.791 	 62.5265 	 -91.7384 	 
H 	 -103.35 	 62.2574 	 -90.7625 	 
H 	 -103.46 	 61.756 	 -92.383 	 
C 	 -103.267 	 63.8754 	 -92.2519 	 
H 	 -102.285 	 64.0838 	 -91.8851 	 
H 	 -103.388 	 64.1077 	 -93.3574 	 
H 	 -103.927 	 64.6897 	 -91.8738 	 
S 	 -105.844 	 56.4399 	 -92.468 	 
C 	 -105.984 	 55.6664 	 -94.0445 	 
C 	 -106.812 	 56.3587 	 -94.9108 	 
C 	 -107.095 	 57.6456 	 -94.3452 	 
C 	 -106.727 	 57.8244 	 -92.9858 	 
H 	 -107.142 	 55.9111 	 -95.9163 	 
C 	 -107.772 	 58.7603 	 -95.2335 	 
H 	 -107.815 	 59.6616 	 -94.6541 	 
H 	 -108.77 	 58.4022 	 -95.5244 	 
C 	 -106.997 	 58.951 	 -96.5431 	 
H 	 -107.096 	 58.1668 	 -97.2664 	 
H 	 -105.888 	 58.9177 	 -96.4256 	 
C 	 -107.259 	 60.3611 	 -97.1301 	 
H 	 -108.246 	 60.5112 	 -97.6102 	 
H 	 -106.427 	 60.6246 	 -97.8195 	 
H 	 -107.22 	 61.0723 	 -96.38 	 
H 	 -106.854 	 61.4245 	 -89.4868 	 
H 	 -105.781 	 54.5738 	 -94.166 	 
*
