! wB97X-D3 SP def2-SVP
%pal
nprocs 24
end

* xyz 0 1
S 	 -117.875 	 46.9182 	 -33.4138 	 
C 	 -117.682 	 45.2621 	 -32.9054 	 
C 	 -118.556 	 44.9095 	 -31.8659 	 
C 	 -119.343 	 46.0187 	 -31.496 	 
C 	 -119.107 	 47.1831 	 -32.1766 	 
H 	 -120.272 	 45.9918 	 -30.8804 	 
C 	 -118.731 	 43.5717 	 -31.1609 	 
H 	 -117.944 	 42.8715 	 -31.4467 	 
H 	 -119.697 	 43.1914 	 -31.495 	 
C 	 -118.728 	 43.4826 	 -29.5827 	 
H 	 -119.598 	 43.8769 	 -29.0916 	 
H 	 -118.84 	 42.4426 	 -29.3889 	 
C 	 -117.398 	 43.99 	 -28.9852 	 
H 	 -117.233 	 45.0804 	 -29.2002 	 
H 	 -117.328 	 43.7673 	 -27.9338 	 
H 	 -116.541 	 43.5881 	 -29.4879 	 
S 	 -120.753 	 48.6087 	 -33.7894 	 
C 	 -121.785 	 49.8703 	 -33.0916 	 
C 	 -121.537 	 50.0822 	 -31.7687 	 
C 	 -120.589 	 49.1612 	 -31.2327 	 
C 	 -120.045 	 48.3485 	 -32.2646 	 
H 	 -121.983 	 50.8669 	 -31.2238 	 
C 	 -120.011 	 49.2004 	 -29.8467 	 
H 	 -119.497 	 50.0954 	 -29.6747 	 
H 	 -119.285 	 48.3637 	 -29.6983 	 
C 	 -120.983 	 49.1284 	 -28.6244 	 
H 	 -120.309 	 48.8492 	 -27.8107 	 
H 	 -121.766 	 48.3559 	 -28.5555 	 
C 	 -121.556 	 50.528 	 -28.2065 	 
H 	 -122.434 	 50.7935 	 -28.8427 	 
H 	 -120.775 	 51.2698 	 -28.3816 	 
H 	 -121.928 	 50.5645 	 -27.1729 	 
H 	 -116.912 	 44.6556 	 -33.2914 	 
H 	 -122.495 	 50.4402 	 -33.6463 	 
*
