! wB97X-D3 SP def2-SVP
%pal
nprocs 24
end

* xyz 0 1
S 	 -100.838 	 12.3537 	 -118.839 	 
C 	 -99.3848 	 12.0918 	 -117.894 	 
C 	 -99.5608 	 12.386 	 -116.556 	 
C 	 -100.713 	 13.2104 	 -116.419 	 
C 	 -101.491 	 13.3498 	 -117.519 	 
H 	 -100.933 	 13.7391 	 -115.53 	 
C 	 -98.5694 	 12.1004 	 -115.469 	 
H 	 -97.8686 	 11.3953 	 -115.907 	 
H 	 -99.1912 	 11.705 	 -114.705 	 
C 	 -97.8489 	 13.1883 	 -114.719 	 
H 	 -97.2711 	 13.7489 	 -115.42 	 
H 	 -98.5037 	 13.8336 	 -114.232 	 
C 	 -96.9257 	 12.5773 	 -113.627 	 
H 	 -96.5207 	 11.661 	 -113.918 	 
H 	 -96.0889 	 13.2357 	 -113.468 	 
H 	 -97.4673 	 12.3759 	 -112.738 	 
S 	 -102.639 	 15.8377 	 -117.745 	 
C 	 -104.209 	 15.9928 	 -118.42 	 
C 	 -104.789 	 14.7644 	 -118.381 	 
C 	 -103.973 	 13.7014 	 -117.931 	 
C 	 -102.699 	 14.137 	 -117.579 	 
H 	 -105.771 	 14.585 	 -118.69 	 
C 	 -104.501 	 12.2694 	 -117.714 	 
H 	 -104.014 	 11.6671 	 -118.482 	 
H 	 -105.538 	 12.2008 	 -118.035 	 
C 	 -104.243 	 11.7846 	 -116.219 	 
H 	 -104.798 	 12.5239 	 -115.552 	 
H 	 -103.238 	 11.8675 	 -115.883 	 
C 	 -104.851 	 10.3533 	 -116.039 	 
H 	 -104.449 	 9.59128 	 -116.73 	 
H 	 -105.883 	 10.3741 	 -116.354 	 
H 	 -104.867 	 10.0235 	 -115.044 	 
H 	 -98.6178 	 11.3676 	 -118.231 	 
H 	 -104.782 	 16.8908 	 -118.723 	 
*
