! wB97X-D3 SP def2-SVP
%pal
nprocs 24
end

* xyz 0 1
S 	 -132.237 	 73.9659 	 -65.9631 	 
C 	 -130.853 	 73.7587 	 -64.8635 	 
C 	 -131.209 	 73.0738 	 -63.7647 	 
C 	 -132.612 	 72.8141 	 -63.69 	 
C 	 -133.293 	 73.4013 	 -64.7093 	 
H 	 -133.222 	 72.4108 	 -62.9207 	 
C 	 -130.17 	 72.5489 	 -62.766 	 
H 	 -129.259 	 73.1561 	 -62.9485 	 
H 	 -129.944 	 71.481 	 -62.9723 	 
C 	 -130.569 	 72.6728 	 -61.3056 	 
H 	 -131.596 	 72.3303 	 -61.2648 	 
H 	 -129.844 	 72.0482 	 -60.7572 	 
C 	 -130.569 	 74.0776 	 -60.6859 	 
H 	 -131.384 	 74.7341 	 -61.1341 	 
H 	 -130.658 	 74.1276 	 -59.6337 	 
H 	 -129.587 	 74.5508 	 -60.8148 	 
S 	 -135.163 	 72.0406 	 -66.0051 	 
C 	 -136.804 	 72.5201 	 -66.0504 	 
C 	 -136.992 	 73.5994 	 -65.1986 	 
C 	 -135.744 	 74.0458 	 -64.6231 	 
C 	 -134.683 	 73.2484 	 -64.8862 	 
H 	 -137.909 	 74.0709 	 -65.1421 	 
C 	 -135.804 	 75.2143 	 -63.6671 	 
H 	 -136.114 	 76.0641 	 -64.284 	 
H 	 -134.813 	 75.4439 	 -63.2863 	 
C 	 -136.78 	 75.2248 	 -62.4571 	 
H 	 -136.623 	 74.2577 	 -62.1036 	 
H 	 -137.756 	 75.2699 	 -62.9113 	 
C 	 -136.597 	 76.2715 	 -61.4915 	 
H 	 -137.166 	 75.9256 	 -60.6526 	 
H 	 -137.045 	 77.2662 	 -61.7638 	 
H 	 -135.595 	 76.4463 	 -61.2529 	 
H 	 -129.892 	 74.0844 	 -65.0539 	 
H 	 -137.505 	 72.13 	 -66.7453 	 
*
