! wB97X-D3 SP def2-SVP
%pal
nprocs 24
end

* xyz 0 1
S 	 -135.389 	 4.77073 	 4.43389 	 
C 	 -135.038 	 3.16942 	 3.84696 	 
C 	 -133.85 	 2.67485 	 4.35633 	 
C 	 -133.358 	 3.51308 	 5.37784 	 
C 	 -134.159 	 4.63528 	 5.62954 	 
H 	 -132.348 	 3.32706 	 5.82778 	 
C 	 -133.211 	 1.31629 	 3.85198 	 
H 	 -133.924 	 0.541432 	 3.64954 	 
H 	 -132.72 	 0.837351 	 4.71393 	 
C 	 -132.304 	 1.30046 	 2.65897 	 
H 	 -132.972 	 1.51411 	 1.84577 	 
H 	 -131.651 	 2.12357 	 2.82533 	 
C 	 -131.384 	 0.0339041 	 2.3834 	 
H 	 -130.599 	 -0.00149922 	 3.15549 	 
H 	 -131.899 	 -0.906712 	 2.25806 	 
H 	 -130.793 	 0.119201 	 1.46497 	 
S 	 -133.019 	 6.99575 	 6.20176 	 
C 	 -133.112 	 7.62992 	 7.86118 	 
C 	 -133.791 	 6.83262 	 8.68312 	 
C 	 -134.294 	 5.61669 	 8.01163 	 
C 	 -133.931 	 5.56871 	 6.67622 	 
H 	 -133.928 	 7.14951 	 9.67918 	 
C 	 -135.019 	 4.52129 	 8.79714 	 
H 	 -134.539 	 3.5831 	 8.40628 	 
H 	 -136.124 	 4.483 	 8.50699 	 
C 	 -134.999 	 4.5348 	 10.3527 	 
H 	 -135.667 	 3.71354 	 10.6663 	 
H 	 -135.455 	 5.46676 	 10.7102 	 
C 	 -133.638 	 4.29353 	 11.0002 	 
H 	 -133.76 	 4.17086 	 12.0842 	 
H 	 -132.905 	 5.08445 	 10.7108 	 
H 	 -133.203 	 3.39252 	 10.6004 	 
H 	 -135.668 	 2.69549 	 3.00185 	 
H 	 -132.622 	 8.54862 	 8.24682 	 
*
