! wB97X-D3 SP def2-SVP
%pal
nprocs 24
end

* xyz 0 1
S 	 14.8632 	 -13.0577 	 -122.034 	 
C 	 14.8468 	 -12.0285 	 -123.377 	 
C 	 14.8697 	 -10.6646 	 -122.956 	 
C 	 15.0161 	 -10.4997 	 -121.5 	 
C 	 15.1371 	 -11.7604 	 -120.869 	 
H 	 15.0661 	 -9.59275 	 -120.852 	 
C 	 14.7668 	 -9.44349 	 -123.871 	 
H 	 15.686 	 -9.41607 	 -124.465 	 
H 	 14.6599 	 -8.50685 	 -123.291 	 
C 	 13.6012 	 -9.4527 	 -124.802 	 
H 	 13.7353 	 -10.3987 	 -125.347 	 
H 	 12.6505 	 -9.42411 	 -124.306 	 
C 	 13.6546 	 -8.17988 	 -125.694 	 
H 	 13.4638 	 -7.21283 	 -125.257 	 
H 	 14.5937 	 -8.15511 	 -126.343 	 
H 	 12.8612 	 -8.46993 	 -126.401 	 
S 	 14.2706 	 -12.9133 	 -118.561 	 
C 	 15.1298 	 -12.7462 	 -117.074 	 
C 	 16.2442 	 -11.8951 	 -117.256 	 
C 	 16.517 	 -11.5404 	 -118.59 	 
C 	 15.5082 	 -11.9782 	 -119.44 	 
H 	 16.764 	 -11.4663 	 -116.506 	 
C 	 17.6751 	 -10.6187 	 -118.841 	 
H 	 17.9451 	 -9.98695 	 -118.013 	 
H 	 17.2702 	 -9.97192 	 -119.611 	 
C 	 18.9596 	 -11.1604 	 -119.373 	 
H 	 19.7221 	 -10.3478 	 -119.536 	 
H 	 18.7547 	 -11.6316 	 -120.376 	 
C 	 19.5332 	 -12.1085 	 -118.363 	 
H 	 20.1332 	 -11.594 	 -117.506 	 
H 	 20.2668 	 -12.7949 	 -118.786 	 
H 	 18.7926 	 -12.7413 	 -117.929 	 
H 	 14.8371 	 -12.3488 	 -124.374 	 
H 	 14.6935 	 -13.0387 	 -116.151 	 
*
