! wB97X-D3 SP def2-SVP
%pal
nprocs 24
end

* xyz 0 1
S 	 40.335 	 -31.8008 	 -115.045 	 
C 	 40.0318 	 -33.4269 	 -115.53 	 
C 	 41.1272 	 -34.2394 	 -115.365 	 
C 	 42.316 	 -33.4874 	 -114.924 	 
C 	 42.036 	 -32.1703 	 -114.69 	 
H 	 43.274 	 -33.911 	 -114.625 	 
C 	 41.1333 	 -35.7157 	 -115.655 	 
H 	 40.9889 	 -36.2188 	 -114.772 	 
H 	 42.1637 	 -36.0249 	 -115.983 	 
C 	 40.175 	 -36.2081 	 -116.689 	 
H 	 39.126 	 -35.9668 	 -116.389 	 
H 	 40.3542 	 -35.57 	 -117.567 	 
C 	 40.3287 	 -37.6892 	 -117.036 	 
H 	 39.9224 	 -38.2572 	 -116.18 	 
H 	 39.6916 	 -37.8969 	 -117.842 	 
H 	 41.3517 	 -38.0316 	 -117.121 	 
S 	 43.1724 	 -29.7125 	 -115.313 	 
C 	 44.5248 	 -29.1085 	 -114.473 	 
C 	 44.8778 	 -29.947 	 -113.431 	 
C 	 43.975 	 -31.0771 	 -113.273 	 
C 	 42.961 	 -31.1456 	 -114.303 	 
H 	 45.6592 	 -29.6202 	 -112.767 	 
C 	 44.0918 	 -32.0775 	 -112.19 	 
H 	 43.249 	 -32.803 	 -112.111 	 
H 	 43.9522 	 -31.5488 	 -111.242 	 
C 	 45.4059 	 -32.9268 	 -112.315 	 
H 	 45.5338 	 -33.4286 	 -111.375 	 
H 	 46.1788 	 -32.149 	 -112.42 	 
C 	 45.5083 	 -33.8447 	 -113.617 	 
H 	 44.8496 	 -34.6757 	 -113.382 	 
H 	 46.5724 	 -34.1485 	 -113.644 	 
H 	 45.2621 	 -33.3984 	 -114.586 	 
H 	 39.1213 	 -33.8934 	 -115.9 	 
H 	 44.9267 	 -28.1516 	 -114.504 	 
*
