! wB97X-D3 SP def2-SVP
%pal
nprocs 24
end

* xyz 0 1
S 	 -50.1485 	 16.8493 	 19.0572 	 
C 	 -51.2894 	 15.9684 	 20.0873 	 
C 	 -50.6967 	 15.0643 	 20.9251 	 
C 	 -49.2571 	 15.2168 	 20.8037 	 
C 	 -48.7813 	 16.0632 	 19.8342 	 
H 	 -48.4812 	 14.5772 	 21.1993 	 
C 	 -51.183 	 14.0957 	 21.8725 	 
H 	 -50.3791 	 13.7783 	 22.5769 	 
H 	 -51.386 	 13.2394 	 21.1971 	 
C 	 -52.4359 	 14.5394 	 22.7124 	 
H 	 -53.2451 	 14.6147 	 22.0627 	 
H 	 -52.6994 	 13.7702 	 23.4693 	 
C 	 -52.3617 	 15.8518 	 23.6091 	 
H 	 -53.3085 	 16.0341 	 24.1615 	 
H 	 -51.693 	 15.6966 	 24.418 	 
H 	 -52.1641 	 16.7481 	 23.0486 	 
S 	 -46.3397 	 14.9499 	 19.0717 	 
C 	 -45.0939 	 16.0647 	 18.5269 	 
C 	 -45.5306 	 17.3447 	 18.461 	 
C 	 -46.7748 	 17.5233 	 19.1253 	 
C 	 -47.3661 	 16.3111 	 19.435 	 
H 	 -44.8547 	 18.1086 	 18.022 	 
C 	 -47.5211 	 18.8431 	 19.0434 	 
H 	 -48.1752 	 18.8692 	 19.8886 	 
H 	 -48.2473 	 18.8519 	 18.2255 	 
C 	 -46.6786 	 20.0959 	 18.8815 	 
H 	 -47.2876 	 21.0135 	 18.8533 	 
H 	 -46.0538 	 20.1562 	 18.0313 	 
C 	 -45.7892 	 20.2835 	 20.1196 	 
H 	 -45.3399 	 21.241 	 20.0063 	 
H 	 -44.9098 	 19.6847 	 19.9714 	 
H 	 -46.2328 	 20.1883 	 21.1531 	 
H 	 -52.3677 	 16.1298 	 20.0132 	 
H 	 -44.1203 	 15.7373 	 18.3124 	 
*
