! wB97X-D3 SP def2-SVP
%pal
nprocs 24
end

* xyz 0 1
S 	 4.55893 	 -18.7625 	 -112.966 	 
C 	 3.4974 	 -18.0757 	 -114.191 	 
C 	 2.22312 	 -18.6241 	 -114.192 	 
C 	 2.21151 	 -19.799 	 -113.367 	 
C 	 3.39983 	 -20.0055 	 -112.643 	 
H 	 1.34766 	 -20.4165 	 -113.241 	 
C 	 1.02753 	 -18.2187 	 -115.053 	 
H 	 1.09397 	 -17.1811 	 -115.117 	 
H 	 0.234235 	 -18.3294 	 -114.443 	 
C 	 0.801315 	 -19.0974 	 -116.26 	 
H 	 0.699319 	 -20.1204 	 -115.944 	 
H 	 -0.144496 	 -18.7871 	 -116.839 	 
C 	 1.99277 	 -19.2845 	 -117.229 	 
H 	 2.8159 	 -19.6642 	 -116.788 	 
H 	 1.54014 	 -19.8591 	 -118.05 	 
H 	 2.23773 	 -18.301 	 -117.625 	 
S 	 4.23967 	 -20.5026 	 -110.161 	 
C 	 3.97751 	 -22.0475 	 -109.392 	 
C 	 3.6074 	 -23.0002 	 -110.393 	 
C 	 3.35341 	 -22.3872 	 -111.699 	 
C 	 3.63602 	 -21.0487 	 -111.674 	 
H 	 3.3685 	 -23.9477 	 -110.085 	 
C 	 2.80273 	 -23.2766 	 -112.841 	 
H 	 2.2432 	 -22.6213 	 -113.498 	 
H 	 2.17128 	 -24.0527 	 -112.496 	 
C 	 3.94972 	 -24.1065 	 -113.557 	 
H 	 3.5955 	 -24.9672 	 -114.095 	 
H 	 4.46632 	 -24.5105 	 -112.645 	 
C 	 4.82119 	 -23.1722 	 -114.475 	 
H 	 4.33126 	 -22.958 	 -115.444 	 
H 	 5.75193 	 -23.6506 	 -114.785 	 
H 	 5.07777 	 -22.2062 	 -114.035 	 
H 	 3.76915 	 -17.2174 	 -114.837 	 
H 	 4.16324 	 -22.1982 	 -108.32 	 
*
