! wB97X-D3 SP def2-SVP
%pal
nprocs 24
end

* xyz 0 1
S 	 -126.398 	 67.0774 	 -39.3801 	 
C 	 -127.103 	 68.707 	 -39.4758 	 
C 	 -126.554 	 69.4322 	 -40.4704 	 
C 	 -125.482 	 68.6959 	 -41.0837 	 
C 	 -125.3 	 67.3739 	 -40.6558 	 
H 	 -124.806 	 68.9625 	 -41.9122 	 
C 	 -126.911 	 70.8736 	 -40.9129 	 
H 	 -126.75 	 71.4631 	 -40.0012 	 
H 	 -127.947 	 70.896 	 -41.1162 	 
C 	 -126.073 	 71.5014 	 -42.0784 	 
H 	 -125.09 	 71.6117 	 -41.7205 	 
H 	 -125.896 	 70.7405 	 -42.8478 	 
C 	 -126.509 	 72.728 	 -42.732 	 
H 	 -126.695 	 73.5687 	 -42.0447 	 
H 	 -125.865 	 73.0448 	 -43.5958 	 
H 	 -127.542 	 72.6364 	 -43.096 	 
S 	 -123.294 	 65.613 	 -39.9083 	 
C 	 -122.483 	 64.7694 	 -41.2815 	 
C 	 -123.011 	 65.0036 	 -42.4792 	 
C 	 -123.995 	 66.0728 	 -42.4217 	 
C 	 -124.363 	 66.3706 	 -41.1009 	 
H 	 -122.646 	 64.4804 	 -43.337 	 
C 	 -124.569 	 66.6125 	 -43.7327 	 
H 	 -125.404 	 67.304 	 -43.5154 	 
H 	 -125.135 	 65.7939 	 -44.2639 	 
C 	 -123.638 	 67.3413 	 -44.5959 	 
H 	 -122.873 	 66.5556 	 -44.8165 	 
H 	 -123.233 	 68.1975 	 -44.1121 	 
C 	 -124.259 	 67.8893 	 -45.868 	 
H 	 -124.71 	 67.105 	 -46.4817 	 
H 	 -123.483 	 68.3191 	 -46.5084 	 
H 	 -124.97 	 68.6449 	 -45.6374 	 
H 	 -127.857 	 69.1011 	 -38.8479 	 
H 	 -121.588 	 64.1891 	 -41.1628 	 
*
