! wB97X-D3 SP def2-SVP
%pal
nprocs 24
end

* xyz 0 1
S 	 -100.186 	 -3.42631 	 -111.693 	 
C 	 -101.543 	 -3.78101 	 -112.813 	 
C 	 -102.792 	 -3.80923 	 -112.235 	 
C 	 -102.639 	 -3.23948 	 -110.882 	 
C 	 -101.35 	 -2.99335 	 -110.414 	 
H 	 -103.352 	 -3.06298 	 -110.112 	 
C 	 -104.066 	 -4.16516 	 -112.935 	 
H 	 -104.334 	 -3.345 	 -113.653 	 
H 	 -104.826 	 -3.97638 	 -112.09 	 
C 	 -104.115 	 -5.54483 	 -113.566 	 
H 	 -103.205 	 -5.5584 	 -114.207 	 
H 	 -104.041 	 -6.3083 	 -112.814 	 
C 	 -105.414 	 -5.84084 	 -114.242 	 
H 	 -105.495 	 -6.88882 	 -114.628 	 
H 	 -106.285 	 -5.75452 	 -113.517 	 
H 	 -105.643 	 -5.16823 	 -115.06 	 
S 	 -99.4865 	 -3.49313 	 -108.503 	 
C 	 -99.4209 	 -2.66678 	 -106.907 	 
C 	 -100.509 	 -1.77673 	 -106.865 	 
C 	 -101.27 	 -1.63663 	 -108.106 	 
C 	 -100.934 	 -2.61949 	 -109.041 	 
H 	 -100.856 	 -1.20168 	 -106.017 	 
C 	 -102.48 	 -0.730724 	 -108.147 	 
H 	 -103.248 	 -1.00642 	 -107.403 	 
H 	 -102.872 	 -1.01733 	 -109.096 	 
C 	 -102.276 	 0.74211 	 -107.928 	 
H 	 -101.612 	 0.942058 	 -107.015 	 
H 	 -103.301 	 1.11506 	 -107.494 	 
C 	 -101.86 	 1.59223 	 -109.149 	 
H 	 -101.822 	 2.53278 	 -108.757 	 
H 	 -102.674 	 1.54124 	 -109.883 	 
H 	 -100.868 	 1.39598 	 -109.636 	 
H 	 -101.372 	 -4.11412 	 -113.792 	 
H 	 -98.7284 	 -2.90014 	 -106.093 	 
*
