! wB97X-D3 SP def2-SVP
%pal
nprocs 24
end

* xyz 0 1
S 	 -45.662 	 -3.48336 	 -11.6539 	 
C 	 -46.9077 	 -3.22075 	 -10.4933 	 
C 	 -47.6914 	 -2.12231 	 -10.8791 	 
C 	 -47.342 	 -1.66652 	 -12.183 	 
C 	 -46.3577 	 -2.40003 	 -12.8267 	 
H 	 -47.8538 	 -0.87777 	 -12.6806 	 
C 	 -48.7961 	 -1.52187 	 -10.0985 	 
H 	 -49.0418 	 -0.509486 	 -10.3811 	 
H 	 -48.493 	 -1.59865 	 -9.03904 	 
C 	 -50.0582 	 -2.31842 	 -10.1076 	 
H 	 -49.8869 	 -3.21672 	 -9.50986 	 
H 	 -50.6536 	 -1.73464 	 -9.43748 	 
C 	 -50.6496 	 -2.48669 	 -11.5624 	 
H 	 -49.9428 	 -2.94989 	 -12.3328 	 
H 	 -51.5316 	 -3.09383 	 -11.5016 	 
H 	 -51.0919 	 -1.55347 	 -11.9758 	 
S 	 -44.0102 	 -2.54437 	 -14.1711 	 
C 	 -43.8782 	 -2.13205 	 -15.8476 	 
C 	 -45.0988 	 -1.77025 	 -16.3476 	 
C 	 -46.1047 	 -1.60675 	 -15.3885 	 
C 	 -45.7026 	 -2.17562 	 -14.1574 	 
H 	 -45.2614 	 -1.53698 	 -17.3892 	 
C 	 -47.5119 	 -1.18662 	 -15.7862 	 
H 	 -48.0917 	 -1.67066 	 -15.0473 	 
H 	 -47.6968 	 -1.67438 	 -16.7135 	 
C 	 -47.7729 	 0.361326 	 -15.8649 	 
H 	 -47.6579 	 0.753354 	 -14.8563 	 
H 	 -48.7999 	 0.513705 	 -16.1597 	 
C 	 -46.6948 	 1.06004 	 -16.7009 	 
H 	 -46.9306 	 2.14098 	 -16.9856 	 
H 	 -46.6032 	 0.539019 	 -17.689 	 
H 	 -45.7288 	 1.00388 	 -16.1991 	 
H 	 -46.9409 	 -3.78577 	 -9.56643 	 
H 	 -42.9869 	 -2.40844 	 -16.4268 	 
*
