! wB97X-D3 SP def2-SVP
%pal
nprocs 24
end

* xyz 0 1
S 	 -88.1389 	 -2.9993 	 6.72214 	 
C 	 -87.6354 	 -1.44452 	 6.04549 	 
C 	 -86.2981 	 -1.28478 	 6.22851 	 
C 	 -85.6139 	 -2.39802 	 6.74881 	 
C 	 -86.476 	 -3.39945 	 7.17238 	 
H 	 -84.5718 	 -2.41566 	 6.94336 	 
C 	 -85.4971 	 0.00159107 	 6.03646 	 
H 	 -85.3482 	 0.558278 	 6.96671 	 
H 	 -86.0508 	 0.648316 	 5.34715 	 
C 	 -84.0463 	 -0.0159179 	 5.40243 	 
H 	 -83.4786 	 0.911194 	 5.56401 	 
H 	 -83.4887 	 -0.76613 	 5.96672 	 
C 	 -84.1502 	 -0.412838 	 3.96795 	 
H 	 -84.7389 	 0.324305 	 3.37611 	 
H 	 -83.2042 	 -0.740196 	 3.51432 	 
H 	 -84.647 	 -1.42972 	 3.96252 	 
S 	 -85.8401 	 -5.96621 	 6.54484 	 
C 	 -85.2154 	 -7.06622 	 7.73543 	 
C 	 -85.0467 	 -6.36894 	 8.91347 	 
C 	 -85.5542 	 -5.02776 	 8.90482 	 
C 	 -86.0757 	 -4.66576 	 7.72467 	 
H 	 -84.5546 	 -6.78838 	 9.7185 	 
C 	 -85.5382 	 -4.24097 	 10.2053 	 
H 	 -85.3145 	 -4.80905 	 11.0616 	 
H 	 -86.5945 	 -4.03287 	 10.4963 	 
C 	 -84.6799 	 -3.0006 	 10.2217 	 
H 	 -84.8851 	 -2.44609 	 9.3248 	 
H 	 -83.6116 	 -3.25191 	 9.97418 	 
C 	 -84.7707 	 -2.04529 	 11.3129 	 
H 	 -84.3053 	 -2.36231 	 12.2121 	 
H 	 -85.8291 	 -1.7581 	 11.4114 	 
H 	 -84.2342 	 -1.1393 	 11.1111 	 
H 	 -88.304 	 -0.639089 	 5.82214 	 
H 	 -84.7415 	 -8.01082 	 7.64744 	 
*
