! wB97X-D3 SP def2-SVP
%pal
nprocs 24
end

* xyz 0 1
S 	 -69.2394 	 8.96766 	 -70.4999 	 
C 	 -70.5451 	 7.9354 	 -71.0367 	 
C 	 -70.1308 	 7.13101 	 -72.0911 	 
C 	 -68.738 	 7.24524 	 -72.4458 	 
C 	 -68.0932 	 8.14067 	 -71.5547 	 
H 	 -68.2043 	 6.7481 	 -73.2292 	 
C 	 -70.9979 	 6.14439 	 -72.8346 	 
H 	 -71.7989 	 5.80165 	 -72.2013 	 
H 	 -70.3382 	 5.22732 	 -73.0954 	 
C 	 -71.5719 	 6.62094 	 -74.2236 	 
H 	 -70.6955 	 6.84062 	 -74.8411 	 
H 	 -72.1966 	 5.87783 	 -74.7215 	 
C 	 -72.2597 	 8.0164 	 -74.1823 	 
H 	 -73.3308 	 7.95593 	 -73.9744 	 
H 	 -71.7164 	 8.66574 	 -73.5152 	 
H 	 -72.1658 	 8.42709 	 -75.203 	 
S 	 -66.2889 	 10.2792 	 -71.674 	 
C 	 -64.5786 	 9.90056 	 -71.4149 	 
C 	 -64.2609 	 8.54796 	 -71.2096 	 
C 	 -65.4817 	 7.80069 	 -71.3647 	 
C 	 -66.6759 	 8.58379 	 -71.518 	 
H 	 -63.2902 	 8.2164 	 -71.1244 	 
C 	 -65.4655 	 6.29309 	 -71.1994 	 
H 	 -66.4327 	 5.80029 	 -71.5885 	 
H 	 -65.4084 	 5.99403 	 -70.1625 	 
C 	 -64.2816 	 5.62243 	 -71.9691 	 
H 	 -63.3896 	 6.12388 	 -71.5639 	 
H 	 -64.4184 	 5.7661 	 -73.0233 	 
C 	 -64.2805 	 4.00031 	 -71.7421 	 
H 	 -65.1767 	 3.54276 	 -72.2267 	 
H 	 -64.2369 	 3.69675 	 -70.6799 	 
H 	 -63.3554 	 3.70463 	 -72.1955 	 
H 	 -71.5737 	 7.88881 	 -70.7206 	 
H 	 -63.8157 	 10.6019 	 -71.6635 	 
*
