! wB97X-D3 SP def2-SVP
%pal
nprocs 24
end

* xyz 0 1
S 	 31.2786 	 -7.74143 	 -114.448 	 
C 	 32.9777 	 -7.58639 	 -114.294 	 
C 	 33.4629 	 -8.36785 	 -113.27 	 
C 	 32.3888 	 -9.07264 	 -112.69 	 
C 	 31.1241 	 -8.83085 	 -113.103 	 
H 	 32.5396 	 -9.737 	 -111.852 	 
C 	 34.9122 	 -8.46749 	 -112.788 	 
H 	 35.1017 	 -9.05204 	 -111.862 	 
H 	 35.234 	 -7.42634 	 -112.668 	 
C 	 35.9785 	 -8.93636 	 -113.935 	 
H 	 36.9398 	 -8.56204 	 -113.575 	 
H 	 35.836 	 -10.0335 	 -114.074 	 
C 	 35.765 	 -8.26435 	 -115.27 	 
H 	 36.6601 	 -8.45084 	 -115.778 	 
H 	 34.9504 	 -8.73914 	 -115.748 	 
H 	 35.7685 	 -7.21612 	 -115.17 	 
S 	 29.1339 	 -10.4678 	 -113.89 	 
C 	 28.0117 	 -11.1451 	 -112.711 	 
C 	 28.2772 	 -10.5947 	 -111.469 	 
C 	 29.4207 	 -9.77867 	 -111.451 	 
C 	 29.9417 	 -9.55935 	 -112.678 	 
H 	 27.6748 	 -10.9144 	 -110.631 	 
C 	 29.8808 	 -9.1475 	 -110.183 	 
H 	 28.9521 	 -8.99277 	 -109.618 	 
H 	 30.2983 	 -8.12525 	 -110.403 	 
C 	 30.8841 	 -9.94978 	 -109.34 	 
H 	 31.8854 	 -9.93245 	 -109.716 	 
H 	 30.6259 	 -11.0316 	 -109.263 	 
C 	 30.8379 	 -9.51172 	 -107.904 	 
H 	 29.8637 	 -9.42966 	 -107.44 	 
H 	 31.3499 	 -8.57118 	 -107.723 	 
H 	 31.5084 	 -10.139 	 -107.257 	 
H 	 33.5524 	 -6.96441 	 -115.011 	 
H 	 27.123 	 -11.8074 	 -112.891 	 
*
