! wB97X-D3 SP def2-SVP
%pal
nprocs 24
end

* xyz 0 1
S 	 -38.4823 	 15.4446 	 14.7931 	 
C 	 -39.0826 	 15.2083 	 16.4093 	 
C 	 -39.473 	 16.4508 	 16.9876 	 
C 	 -39.0416 	 17.4755 	 16.1354 	 
C 	 -38.3916 	 17.0956 	 14.9505 	 
H 	 -39.1081 	 18.5592 	 16.1776 	 
C 	 -39.8472 	 16.719 	 18.4259 	 
H 	 -39.4662 	 17.6906 	 18.7205 	 
H 	 -39.3645 	 15.9967 	 19.1624 	 
C 	 -41.3526 	 16.7486 	 18.6511 	 
H 	 -41.8248 	 17.6198 	 18.1598 	 
H 	 -41.9054 	 15.8394 	 18.1817 	 
C 	 -41.9119 	 16.9658 	 20.1331 	 
H 	 -41.7842 	 16.0121 	 20.7052 	 
H 	 -41.3325 	 17.6356 	 20.7335 	 
H 	 -42.9074 	 17.4453 	 20.2007 	 
S 	 -38.1684 	 17.2356 	 12.2047 	 
C 	 -38.0577 	 18.7783 	 11.5059 	 
C 	 -37.8409 	 19.7593 	 12.433 	 
C 	 -37.8667 	 19.2986 	 13.7514 	 
C 	 -38.2149 	 17.9849 	 13.798 	 
H 	 -37.6771 	 20.7405 	 12.0796 	 
C 	 -37.652 	 20.2193 	 14.9079 	 
H 	 -36.719 	 20.6844 	 14.7463 	 
H 	 -37.4862 	 19.806 	 15.9172 	 
C 	 -38.765 	 21.2891 	 14.9801 	 
H 	 -38.6469 	 21.935 	 14.0877 	 
H 	 -38.4213 	 21.9598 	 15.737 	 
C 	 -40.1889 	 20.8336 	 15.0654 	 
H 	 -40.8628 	 21.6457 	 14.9645 	 
H 	 -40.3947 	 20.2394 	 15.9277 	 
H 	 -40.3828 	 20.2726 	 14.1813 	 
H 	 -39.195 	 14.2398 	 16.9018 	 
H 	 -38.2389 	 18.9492 	 10.4615 	 
*
