! wB97X-D3 SP def2-SVP
%pal
nprocs 24
end

* xyz 0 1
S 	 -110.895 	 55.556 	 -100.674 	 
C 	 -112.644 	 55.1772 	 -100.682 	 
C 	 -113.35 	 56.3279 	 -100.397 	 
C 	 -112.513 	 57.4841 	 -100.213 	 
C 	 -111.15 	 57.1962 	 -100.274 	 
H 	 -112.777 	 58.5453 	 -100.012 	 
C 	 -114.866 	 56.4545 	 -100.213 	 
H 	 -115.096 	 56.6296 	 -99.1453 	 
H 	 -115.397 	 55.5781 	 -100.492 	 
C 	 -115.411 	 57.665 	 -100.955 	 
H 	 -114.783 	 58.4915 	 -100.758 	 
H 	 -115.497 	 57.4972 	 -102.01 	 
C 	 -116.833 	 58.1051 	 -100.545 	 
H 	 -117.014 	 59.0991 	 -100.968 	 
H 	 -117.525 	 57.4765 	 -101.056 	 
H 	 -116.982 	 58.08 	 -99.5237 	 
S 	 -109.067 	 57.6596 	 -98.5087 	 
C 	 -108.452 	 59.2965 	 -98.3738 	 
C 	 -108.829 	 60.0343 	 -99.4582 	 
C 	 -109.719 	 59.3393 	 -100.326 	 
C 	 -110.008 	 58.034 	 -99.9203 	 
H 	 -108.611 	 61.074 	 -99.4135 	 
C 	 -110.472 	 60.0164 	 -101.486 	 
H 	 -110.914 	 59.3891 	 -102.179 	 
H 	 -109.608 	 60.4014 	 -102.136 	 
C 	 -111.388 	 61.2728 	 -101.209 	 
H 	 -110.907 	 62.0305 	 -100.55 	 
H 	 -112.226 	 60.8235 	 -100.605 	 
C 	 -111.78 	 62.0082 	 -102.456 	 
H 	 -110.89 	 62.3617 	 -103.013 	 
H 	 -112.324 	 62.8898 	 -102.177 	 
H 	 -112.318 	 61.3696 	 -103.192 	 
H 	 -113.081 	 54.1767 	 -100.86 	 
H 	 -107.894 	 59.695 	 -97.5473 	 
*
