! wB97X-D3 SP def2-SVP
%pal
nprocs 24
end

* xyz 0 1
S 	 -57.0206 	 21.552 	 -99.5493 	 
C 	 -58.4195 	 22.4167 	 -100.324 	 
C 	 -59.3907 	 21.5773 	 -100.764 	 
C 	 -59.1547 	 20.2633 	 -100.263 	 
C 	 -57.9453 	 20.0794 	 -99.5635 	 
H 	 -59.8086 	 19.4168 	 -100.423 	 
C 	 -60.6748 	 22.1453 	 -101.357 	 
H 	 -61.2489 	 21.3773 	 -101.869 	 
H 	 -60.4631 	 22.9656 	 -102.001 	 
C 	 -61.6089 	 22.7291 	 -100.336 	 
H 	 -61.6974 	 21.9956 	 -99.5115 	 
H 	 -61.2231 	 23.5677 	 -99.9001 	 
C 	 -62.9982 	 23.1905 	 -100.675 	 
H 	 -63.0368 	 24.1392 	 -101.036 	 
H 	 -63.4317 	 22.5194 	 -101.462 	 
H 	 -63.5866 	 23.1712 	 -99.7849 	 
S 	 -56.4385 	 18.8994 	 -97.4457 	 
C 	 -56.2415 	 17.1766 	 -97.4907 	 
C 	 -57.1695 	 16.62 	 -98.2988 	 
C 	 -57.8993 	 17.4725 	 -99.1401 	 
C 	 -57.4522 	 18.7943 	 -98.9429 	 
H 	 -57.354 	 15.5186 	 -98.199 	 
C 	 -58.7032 	 16.96 	 -100.366 	 
H 	 -58.1862 	 16.0764 	 -100.742 	 
H 	 -58.6279 	 17.6487 	 -101.262 	 
C 	 -60.1143 	 16.6773 	 -100.016 	 
H 	 -60.5464 	 17.6236 	 -99.6573 	 
H 	 -60.03 	 15.9239 	 -99.3422 	 
C 	 -60.8851 	 16.1507 	 -101.34 	 
H 	 -61.9707 	 16.0131 	 -101.116 	 
H 	 -60.4942 	 15.1386 	 -101.677 	 
H 	 -60.7294 	 16.8645 	 -102.149 	 
H 	 -58.4013 	 23.4955 	 -100.427 	 
H 	 -55.7953 	 16.5482 	 -96.7343 	 
*
