! wB97X-D3 SP def2-SVP
%pal
nprocs 24
end

* xyz 0 1
S 	 -121.084 	 45.7423 	 -25.2813 	 
C 	 -119.752 	 44.5925 	 -25.3922 	 
C 	 -119.645 	 44.0639 	 -26.6964 	 
C 	 -120.564 	 44.7423 	 -27.5882 	 
C 	 -121.238 	 45.8094 	 -26.9941 	 
H 	 -120.675 	 44.5997 	 -28.5916 	 
C 	 -118.714 	 42.9199 	 -27.1414 	 
H 	 -118.083 	 43.4055 	 -27.8288 	 
H 	 -119.395 	 42.2304 	 -27.6966 	 
C 	 -117.946 	 42.1346 	 -26.1133 	 
H 	 -117.228 	 42.8405 	 -25.736 	 
H 	 -118.625 	 41.8766 	 -25.3036 	 
C 	 -117.409 	 40.8968 	 -26.736 	 
H 	 -116.838 	 40.3862 	 -25.992 	 
H 	 -118.234 	 40.3263 	 -27.0922 	 
H 	 -116.773 	 40.9387 	 -27.6832 	 
S 	 -123.769 	 46.926 	 -27.0494 	 
C 	 -124.173 	 48.1602 	 -28.2044 	 
C 	 -123.076 	 48.553 	 -28.8875 	 
C 	 -122.014 	 47.6673 	 -28.7199 	 
C 	 -122.144 	 46.7574 	 -27.6431 	 
H 	 -123.016 	 49.3976 	 -29.5386 	 
C 	 -120.723 	 47.8711 	 -29.4944 	 
H 	 -121.037 	 48.467 	 -30.3342 	 
H 	 -120.454 	 46.9592 	 -29.9991 	 
C 	 -119.589 	 48.5593 	 -28.7225 	 
H 	 -119.343 	 47.8912 	 -27.9315 	 
H 	 -119.923 	 49.5203 	 -28.2972 	 
C 	 -118.385 	 48.6542 	 -29.6818 	 
H 	 -118.385 	 47.6561 	 -30.2335 	 
H 	 -117.426 	 48.8027 	 -29.1869 	 
H 	 -118.527 	 49.3994 	 -30.444 	 
H 	 -119.127 	 44.2474 	 -24.5619 	 
H 	 -125.17 	 48.6049 	 -28.0855 	 
*
