! wB97X-D3 SP def2-SVP
%pal
nprocs 24
end

* xyz 0 1
S 	 -47.1071 	 11.5243 	 26.1591 	 
C 	 -46.5062 	 12.2814 	 24.7089 	 
C 	 -47.4453 	 13.1484 	 24.1462 	 
C 	 -48.6458 	 13.211 	 24.9388 	 
C 	 -48.5447 	 12.4888 	 26.1521 	 
H 	 -49.5894 	 13.7745 	 24.7248 	 
C 	 -47.3391 	 13.793 	 22.8364 	 
H 	 -48.2815 	 14.166 	 22.5249 	 
H 	 -47.1844 	 13.0045 	 22.1309 	 
C 	 -46.2791 	 14.8849 	 22.6741 	 
H 	 -45.2614 	 14.5851 	 22.989 	 
H 	 -46.1791 	 15.1594 	 21.6522 	 
C 	 -46.7589 	 16.2098 	 23.33 	 
H 	 -47.1044 	 16.1679 	 24.3248 	 
H 	 -45.8659 	 16.8389 	 23.339 	 
H 	 -47.5033 	 16.7629 	 22.6707 	 
S 	 -50.3312 	 10.7467 	 27.1033 	 
C 	 -51.5553 	 11.2898 	 28.2322 	 
C 	 -51.3796 	 12.657 	 28.5344 	 
C 	 -50.3061 	 13.3023 	 27.863 	 
C 	 -49.593 	 12.3519 	 27.1046 	 
H 	 -52.0213 	 13.1293 	 29.2177 	 
C 	 -49.9784 	 14.7711 	 27.968 	 
H 	 -50.9183 	 15.3549 	 27.8829 	 
H 	 -49.4615 	 15.0462 	 27.0983 	 
C 	 -48.982 	 15.2799 	 29.0509 	 
H 	 -48.7772 	 16.2945 	 28.7865 	 
H 	 -47.9752 	 14.7444 	 28.9534 	 
C 	 -49.5324 	 15.3065 	 30.441 	 
H 	 -50.4626 	 15.8855 	 30.3882 	 
H 	 -48.8586 	 15.7488 	 31.1694 	 
H 	 -49.6736 	 14.2575 	 30.7302 	 
H 	 -45.6556 	 11.9962 	 24.1295 	 
H 	 -52.3051 	 10.6297 	 28.7185 	 
*
