! wB97X-D3 SP def2-SVP
%pal
nprocs 24
end

* xyz 0 1
S 	 -48.1806 	 14.4964 	 25.176 	 
C 	 -48.0564 	 15.994 	 24.2657 	 
C 	 -46.8167 	 16.6663 	 24.4024 	 
C 	 -45.9407 	 15.8575 	 25.1721 	 
C 	 -46.5376 	 14.7614 	 25.722 	 
H 	 -44.9303 	 16.0955 	 25.3789 	 
C 	 -46.3808 	 17.8864 	 23.6992 	 
H 	 -46.7586 	 18.7643 	 24.2335 	 
H 	 -46.8002 	 17.8377 	 22.6854 	 
C 	 -44.8036 	 18.1269 	 23.6316 	 
H 	 -44.4217 	 18.1148 	 24.657 	 
H 	 -44.5136 	 17.1809 	 23.1145 	 
C 	 -44.3023 	 19.3451 	 22.8004 	 
H 	 -44.0033 	 19.1058 	 21.7924 	 
H 	 -44.9949 	 20.1385 	 22.8213 	 
H 	 -43.4442 	 19.7504 	 23.2338 	 
S 	 -45.8328 	 12.0819 	 26.3054 	 
C 	 -45.1539 	 11.6889 	 27.87 	 
C 	 -44.7072 	 12.8567 	 28.4308 	 
C 	 -44.9863 	 14.0389 	 27.7325 	 
C 	 -45.767 	 13.8291 	 26.6281 	 
H 	 -44.1007 	 12.9003 	 29.3365 	 
C 	 -44.4702 	 15.3502 	 28.3324 	 
H 	 -44.192 	 16.1314 	 27.5931 	 
H 	 -43.5812 	 15.2045 	 28.991 	 
C 	 -45.4496 	 16.1118 	 29.2102 	 
H 	 -46.3562 	 16.3242 	 28.6566 	 
H 	 -45.0692 	 17.0816 	 29.3852 	 
C 	 -45.778 	 15.4262 	 30.5025 	 
H 	 -46.4168 	 16.1879 	 31.0262 	 
H 	 -44.907 	 15.2916 	 31.1493 	 
H 	 -46.3511 	 14.4599 	 30.3879 	 
H 	 -48.8386 	 16.213 	 23.5516 	 
H 	 -45.0296 	 10.722 	 28.2856 	 
*
