! wB97X-D3 SP def2-SVP
%pal
nprocs 24
end

* xyz 0 1
S 	 -38.7792 	 9.98061 	 -7.70687 	 
C 	 -38.939 	 8.73813 	 -8.91244 	 
C 	 -39.5954 	 7.63032 	 -8.38063 	 
C 	 -39.7511 	 7.74942 	 -6.97796 	 
C 	 -39.2739 	 8.94129 	 -6.45938 	 
H 	 -40.3201 	 6.97522 	 -6.40389 	 
C 	 -39.9981 	 6.3557 	 -8.95651 	 
H 	 -40.2962 	 6.56173 	 -9.9551 	 
H 	 -40.9334 	 5.98474 	 -8.45851 	 
C 	 -38.9295 	 5.24954 	 -9.00113 	 
H 	 -38.2241 	 5.60056 	 -9.71025 	 
H 	 -38.2976 	 5.18127 	 -8.14327 	 
C 	 -39.3852 	 3.79418 	 -9.37887 	 
H 	 -40.1349 	 3.74846 	 -10.0707 	 
H 	 -38.5859 	 3.2652 	 -9.81566 	 
H 	 -39.7356 	 3.23101 	 -8.51557 	 
S 	 -39.8629 	 11.1239 	 -4.98805 	 
C 	 -39.8631 	 10.9403 	 -3.20653 	 
C 	 -39.684 	 9.6531 	 -2.74778 	 
C 	 -39.3843 	 8.79239 	 -3.80155 	 
C 	 -39.4074 	 9.40507 	 -5.06714 	 
H 	 -39.6476 	 9.44559 	 -1.66805 	 
C 	 -38.8858 	 7.44401 	 -3.58267 	 
H 	 -38.5009 	 7.07081 	 -4.54793 	 
H 	 -39.7854 	 6.82558 	 -3.39741 	 
C 	 -37.776 	 7.30841 	 -2.5087 	 
H 	 -37.6632 	 6.2152 	 -2.52715 	 
H 	 -38.0695 	 7.67031 	 -1.50883 	 
C 	 -36.5022 	 8.03547 	 -2.94828 	 
H 	 -35.9019 	 7.58128 	 -3.7527 	 
H 	 -35.862 	 8.27902 	 -2.08425 	 
H 	 -36.7704 	 9.03135 	 -3.30686 	 
H 	 -38.7861 	 8.84012 	 -9.98473 	 
H 	 -40.1568 	 11.8124 	 -2.63186 	 
*
