! wB97X-D3 SP def2-SVP
%pal
nprocs 24
end

* xyz 0 1
S 	 -86.6343 	 -31.2856 	 -61.8134 	 
C 	 -86.423 	 -29.6109 	 -62.1697 	 
C 	 -86.785 	 -28.8423 	 -61.0538 	 
C 	 -87.1389 	 -29.6208 	 -59.8994 	 
C 	 -87.1259 	 -30.9772 	 -60.1911 	 
H 	 -87.4736 	 -29.1496 	 -58.9872 	 
C 	 -86.5082 	 -27.3319 	 -61.042 	 
H 	 -85.4296 	 -27.0855 	 -60.976 	 
H 	 -86.9206 	 -26.9734 	 -60.0884 	 
C 	 -87.2914 	 -26.5672 	 -62.1273 	 
H 	 -86.9357 	 -25.5426 	 -62.1005 	 
H 	 -87.0351 	 -26.9263 	 -63.0891 	 
C 	 -88.7704 	 -26.5124 	 -61.9406 	 
H 	 -89.3496 	 -27.341 	 -62.4173 	 
H 	 -89.0671 	 -26.4362 	 -60.899 	 
H 	 -89.1158 	 -25.4972 	 -62.1946 	 
S 	 -88.6543 	 -33.1814 	 -59.5353 	 
C 	 -88.2318 	 -34.0745 	 -58.0823 	 
C 	 -87.1411 	 -33.5021 	 -57.4549 	 
C 	 -86.604 	 -32.3207 	 -58.0764 	 
C 	 -87.2878 	 -32.04 	 -59.2476 	 
H 	 -86.8834 	 -33.8582 	 -56.4656 	 
C 	 -85.572 	 -31.4494 	 -57.4564 	 
H 	 -85.072 	 -30.89 	 -58.3001 	 
H 	 -84.8141 	 -32.0996 	 -56.9287 	 
C 	 -86.0465 	 -30.3496 	 -56.5031 	 
H 	 -86.5463 	 -30.9669 	 -55.7356 	 
H 	 -86.7886 	 -29.6265 	 -56.8531 	 
C 	 -84.7716 	 -29.6204 	 -55.8974 	 
H 	 -84.2432 	 -29.1132 	 -56.7028 	 
H 	 -84.0287 	 -30.327 	 -55.4155 	 
H 	 -84.9778 	 -28.8503 	 -55.1542 	 
H 	 -85.9924 	 -29.25 	 -63.0781 	 
H 	 -88.7111 	 -34.926 	 -57.6461 	 
*
