! wB97X-D3 SP def2-SVP
%pal
nprocs 24
end

* xyz 0 1
S 	 -64.8976 	 7.14576 	 -86.297 	 
C 	 -66.1954 	 6.1491 	 -85.7228 	 
C 	 -66.2724 	 6.23145 	 -84.2827 	 
C 	 -65.1889 	 6.9501 	 -83.7435 	 
C 	 -64.4808 	 7.57219 	 -84.6645 	 
H 	 -64.9088 	 7.0127 	 -82.6638 	 
C 	 -67.4396 	 5.75794 	 -83.4157 	 
H 	 -67.0344 	 4.95141 	 -82.7496 	 
H 	 -68.1331 	 5.28513 	 -84.1297 	 
C 	 -68.129 	 6.783 	 -82.5016 	 
H 	 -68.8577 	 6.20547 	 -81.8664 	 
H 	 -67.4503 	 7.30736 	 -81.8485 	 
C 	 -69.0699 	 7.74091 	 -83.2355 	 
H 	 -69.4463 	 8.51341 	 -82.5681 	 
H 	 -68.5989 	 8.15924 	 -84.1215 	 
H 	 -69.8892 	 7.34857 	 -83.7639 	 
S 	 -63.2507 	 9.88333 	 -85.6249 	 
C 	 -62.0465 	 10.651 	 -84.6448 	 
C 	 -61.7546 	 9.92555 	 -83.4831 	 
C 	 -62.3578 	 8.64244 	 -83.4579 	 
C 	 -63.335 	 8.47987 	 -84.4691 	 
H 	 -61.077 	 10.3983 	 -82.7754 	 
C 	 -62.1905 	 7.75837 	 -82.221 	 
H 	 -61.1114 	 7.56269 	 -82.0176 	 
H 	 -62.4813 	 6.73565 	 -82.6008 	 
C 	 -62.925 	 8.37331 	 -80.9182 	 
H 	 -63.9087 	 8.76843 	 -81.0358 	 
H 	 -62.4019 	 9.22116 	 -80.7189 	 
C 	 -63.0781 	 7.3793 	 -79.6959 	 
H 	 -63.434 	 6.32408 	 -79.8233 	 
H 	 -63.6706 	 7.96703 	 -79.0561 	 
H 	 -62.1068 	 7.26595 	 -79.1939 	 
H 	 -66.9427 	 5.6914 	 -86.341 	 
H 	 -61.8516 	 11.7339 	 -84.6779 	 
*
