! wB97X-D3 SP def2-SVP
%pal
nprocs 24
end

* xyz 0 1
S 	 -64.6535 	 7.87966 	 -103.458 	 
C 	 -64.9917 	 8.20734 	 -105.145 	 
C 	 -64.0937 	 9.16251 	 -105.625 	 
C 	 -63.2356 	 9.72016 	 -104.619 	 
C 	 -63.2371 	 9.0382 	 -103.425 	 
H 	 -62.637 	 10.5735 	 -104.754 	 
C 	 -64.0459 	 9.7911 	 -107.02 	 
H 	 -64.514 	 9.02329 	 -107.624 	 
H 	 -63.0092 	 9.70926 	 -107.343 	 
C 	 -64.6813 	 11.1191 	 -107.27 	 
H 	 -65.7703 	 11.1493 	 -106.989 	 
H 	 -64.2201 	 11.7937 	 -106.573 	 
C 	 -64.7125 	 11.6607 	 -108.716 	 
H 	 -63.8842 	 11.2921 	 -109.302 	 
H 	 -65.5402 	 11.2584 	 -109.258 	 
H 	 -64.7089 	 12.724 	 -108.927 	 
S 	 -63.0418 	 9.24463 	 -100.59 	 
C 	 -61.4959 	 9.92928 	 -100.072 	 
C 	 -60.4943 	 9.81251 	 -101.04 	 
C 	 -60.9808 	 9.56885 	 -102.31 	 
C 	 -62.3627 	 9.24682 	 -102.281 	 
H 	 -59.4785 	 10.1021 	 -100.844 	 
C 	 -60.1756 	 9.46376 	 -103.522 	 
H 	 -60.8077 	 9.10532 	 -104.378 	 
H 	 -59.5768 	 8.59159 	 -103.299 	 
C 	 -59.4918 	 10.7971 	 -103.806 	 
H 	 -58.9267 	 11.1906 	 -102.897 	 
H 	 -60.2238 	 11.6219 	 -103.935 	 
C 	 -58.5858 	 10.7152 	 -105.088 	 
H 	 -58.388 	 11.6406 	 -105.47 	 
H 	 -59.0212 	 10.3734 	 -105.983 	 
H 	 -57.6232 	 10.1583 	 -105.001 	 
H 	 -65.7614 	 7.79199 	 -105.713 	 
H 	 -61.2658 	 10.1031 	 -99.001 	 
*
