! wB97X-D3 SP def2-SVP
%pal
nprocs 24
end

* xyz 0 1
S 	 -101.202 	 0.316663 	 -118.788 	 
C 	 -102.936 	 0.444635 	 -119.112 	 
C 	 -103.573 	 -0.705426 	 -118.748 	 
C 	 -102.759 	 -1.6801 	 -118.263 	 
C 	 -101.413 	 -1.39047 	 -118.303 	 
H 	 -103.069 	 -2.62881 	 -117.904 	 
C 	 -105.085 	 -0.811831 	 -118.678 	 
H 	 -105.399 	 -0.162604 	 -117.805 	 
H 	 -105.284 	 -1.74806 	 -118.302 	 
C 	 -105.75 	 -0.584961 	 -120.003 	 
H 	 -105.459 	 0.43349 	 -120.281 	 
H 	 -105.352 	 -1.2514 	 -120.74 	 
C 	 -107.248 	 -0.777951 	 -119.91 	 
H 	 -107.482 	 -1.79268 	 -119.521 	 
H 	 -107.504 	 0.0976013 	 -119.271 	 
H 	 -107.691 	 -0.563784 	 -120.846 	 
S 	 -99.2474 	 -1.20323 	 -116.824 	 
C 	 -98.2464 	 -2.54737 	 -116.478 	 
C 	 -98.7433 	 -3.68369 	 -116.949 	 
C 	 -100.017 	 -3.51554 	 -117.608 	 
C 	 -100.303 	 -2.14858 	 -117.79 	 
H 	 -98.2436 	 -4.64443 	 -116.673 	 
C 	 -100.833 	 -4.64473 	 -118.037 	 
H 	 -101.743 	 -4.59086 	 -117.435 	 
H 	 -100.146 	 -5.54886 	 -117.863 	 
C 	 -101.029 	 -4.58611 	 -119.529 	 
H 	 -101.281 	 -3.66407 	 -120.033 	 
H 	 -101.758 	 -5.30448 	 -119.726 	 
C 	 -99.7029 	 -5.02564 	 -120.232 	 
H 	 -99.0074 	 -4.20323 	 -119.997 	 
H 	 -99.8795 	 -5.13046 	 -121.328 	 
H 	 -99.3045 	 -5.94926 	 -119.798 	 
H 	 -103.435 	 1.33026 	 -119.534 	 
H 	 -97.2674 	 -2.53135 	 -116.087 	 
*
