! wB97X-D3 SP def2-SVP
%pal
nprocs 24
end

* xyz 0 1
S 	 -96.2483 	 13.8183 	 -119.635 	 
C 	 -95.0764 	 14.7323 	 -118.755 	 
C 	 -94.9911 	 14.3049 	 -117.394 	 
C 	 -96.1082 	 13.4782 	 -117.041 	 
C 	 -96.9402 	 13.233 	 -118.136 	 
H 	 -96.4306 	 13.1782 	 -116.026 	 
C 	 -93.8428 	 14.6876 	 -116.458 	 
H 	 -93.0131 	 14.1531 	 -116.702 	 
H 	 -94.1158 	 14.4432 	 -115.397 	 
C 	 -93.4833 	 16.1186 	 -116.485 	 
H 	 -92.4847 	 16.2631 	 -115.961 	 
H 	 -93.3347 	 16.4332 	 -117.46 	 
C 	 -94.6278 	 16.9616 	 -115.861 	 
H 	 -95.5231 	 16.6804 	 -116.485 	 
H 	 -94.886 	 16.5218 	 -114.819 	 
H 	 -94.3027 	 18.0475 	 -115.765 	 
S 	 -99.7339 	 13.354 	 -118.198 	 
C 	 -100.588 	 11.8272 	 -118.387 	 
C 	 -99.8313 	 10.7593 	 -118.192 	 
C 	 -98.45 	 11.0707 	 -117.99 	 
C 	 -98.1916 	 12.4536 	 -118.061 	 
H 	 -100.344 	 9.82947 	 -118.23 	 
C 	 -97.3768 	 10.0537 	 -117.724 	 
H 	 -97.8911 	 9.22442 	 -117.279 	 
H 	 -96.8539 	 10.5376 	 -116.903 	 
C 	 -96.3699 	 9.59964 	 -118.853 	 
H 	 -95.6723 	 8.83114 	 -118.447 	 
H 	 -95.7892 	 10.4466 	 -119.273 	 
C 	 -97.1323 	 8.89415 	 -120.026 	 
H 	 -97.5924 	 9.62943 	 -120.607 	 
H 	 -97.8427 	 8.18333 	 -119.616 	 
H 	 -96.4688 	 8.41608 	 -120.82 	 
H 	 -94.3303 	 15.4376 	 -119.146 	 
H 	 -101.661 	 11.6208 	 -118.529 	 
*
