! wB97X-D3 SP def2-SVP
%pal
nprocs 24
end

* xyz 0 1
S 	 -44.9382 	 14.6819 	 34.1612 	 
C 	 -43.2502 	 14.2836 	 34.7124 	 
C 	 -42.4788 	 15.4764 	 34.6704 	 
C 	 -43.139 	 16.5298 	 34.0086 	 
C 	 -44.4937 	 16.3195 	 33.7374 	 
H 	 -42.638 	 17.4322 	 33.7469 	 
C 	 -41.0676 	 15.5283 	 35.0305 	 
H 	 -40.6111 	 15.7142 	 34.1133 	 
H 	 -40.8441 	 14.5118 	 35.22 	 
C 	 -40.5694 	 16.5915 	 36.1377 	 
H 	 -39.5043 	 16.4912 	 36.1899 	 
H 	 -40.7612 	 17.5255 	 35.6655 	 
C 	 -41.2016 	 16.612 	 37.4422 	 
H 	 -41.1811 	 17.5836 	 37.8607 	 
H 	 -42.1905 	 16.3774 	 37.271 	 
H 	 -40.8356 	 15.9195 	 38.1207 	 
S 	 -46.3713 	 16.6699 	 31.7539 	 
C 	 -47.1371 	 18.3322 	 31.5655 	 
C 	 -46.8638 	 19.1203 	 32.5655 	 
C 	 -45.7987 	 18.6154 	 33.4056 	 
C 	 -45.4417 	 17.2408 	 33.1101 	 
H 	 -47.4049 	 20.0609 	 32.6703 	 
C 	 -45.2838 	 19.3402 	 34.6626 	 
H 	 -44.6086 	 18.6744 	 35.1539 	 
H 	 -46.1777 	 19.5735 	 35.2598 	 
C 	 -44.6996 	 20.7343 	 34.3076 	 
H 	 -44.4483 	 21.2132 	 35.272 	 
H 	 -45.3415 	 21.4114 	 33.75 	 
C 	 -43.3178 	 20.6231 	 33.5237 	 
H 	 -42.6341 	 19.8622 	 33.9943 	 
H 	 -42.8148 	 21.5531 	 33.3866 	 
H 	 -43.5522 	 20.2957 	 32.4886 	 
H 	 -42.9624 	 13.2824 	 34.9929 	 
H 	 -47.8242 	 18.6062 	 30.8487 	 
*
