! wB97X-D3 SP def2-SVP
%pal
nprocs 24
end

* xyz 0 1
S 	 -115.123 	 33.9962 	 -14.9452 	 
C 	 -114.884 	 32.986 	 -16.4305 	 
C 	 -115.86 	 31.9694 	 -16.5065 	 
C 	 -116.831 	 32.0514 	 -15.4363 	 
C 	 -116.551 	 33.0413 	 -14.5283 	 
H 	 -117.51 	 31.2601 	 -15.332 	 
C 	 -115.876 	 30.9906 	 -17.6268 	 
H 	 -115.818 	 29.9257 	 -17.228 	 
H 	 -115.02 	 31.1045 	 -18.3137 	 
C 	 -117.26 	 31.0317 	 -18.3555 	 
H 	 -118.075 	 31.0293 	 -17.607 	 
H 	 -117.327 	 31.9498 	 -18.9133 	 
C 	 -117.481 	 29.7857 	 -19.3223 	 
H 	 -117.211 	 28.8451 	 -18.8873 	 
H 	 -118.527 	 29.6461 	 -19.6194 	 
H 	 -116.858 	 29.9867 	 -20.1839 	 
S 	 -116.77 	 32.9831 	 -11.7768 	 
C 	 -118.4 	 32.8629 	 -11.161 	 
C 	 -119.338 	 33.2795 	 -12.012 	 
C 	 -118.782 	 33.4496 	 -13.3128 	 
C 	 -117.389 	 33.3239 	 -13.3655 	 
H 	 -120.412 	 33.2056 	 -11.7399 	 
C 	 -119.767 	 33.6573 	 -14.5312 	 
H 	 -120.822 	 33.6306 	 -14.122 	 
H 	 -119.685 	 32.7782 	 -15.1597 	 
C 	 -119.481 	 34.9149 	 -15.4477 	 
H 	 -118.467 	 34.7552 	 -15.9093 	 
H 	 -119.363 	 35.8112 	 -14.8153 	 
C 	 -120.492 	 35.1841 	 -16.584 	 
H 	 -121.462 	 35.4303 	 -16.2097 	 
H 	 -120.559 	 34.2932 	 -17.1469 	 
H 	 -120.243 	 35.9833 	 -17.3187 	 
H 	 -114.046 	 33.1191 	 -17.0543 	 
H 	 -118.593 	 32.7864 	 -10.1219 	 
*
