! wB97X-D3 SP def2-SVP
%pal
nprocs 24
end

* xyz 0 1
S 	 -61.8539 	 16.2057 	 -102.941 	 
C 	 -62.4104 	 14.5474 	 -102.808 	 
C 	 -62.7785 	 14.0048 	 -104.067 	 
C 	 -62.821 	 15.0183 	 -105.053 	 
C 	 -62.3297 	 16.2443 	 -104.657 	 
H 	 -63.0962 	 14.8002 	 -106.064 	 
C 	 -63.1573 	 12.5072 	 -104.219 	 
H 	 -63.4205 	 12.1823 	 -103.217 	 
H 	 -62.329 	 11.8386 	 -104.569 	 
C 	 -64.4138 	 12.1087 	 -105.082 	 
H 	 -65.4603 	 12.4226 	 -104.888 	 
H 	 -64.2014 	 12.5847 	 -106.022 	 
C 	 -64.5763 	 10.5782 	 -105.219 	 
H 	 -63.6711 	 10.2085 	 -105.644 	 
H 	 -64.7359 	 10.0604 	 -104.302 	 
H 	 -65.4737 	 10.4766 	 -105.874 	 
S 	 -60.8455 	 18.5072 	 -105.057 	 
C 	 -61.2801 	 19.5032 	 -106.393 	 
C 	 -62.3315 	 19.0272 	 -107.223 	 
C 	 -62.8507 	 17.7783 	 -106.701 	 
C 	 -62.1484 	 17.3947 	 -105.544 	 
H 	 -62.6769 	 19.7045 	 -107.934 	 
C 	 -64.0821 	 17.1277 	 -107.347 	 
H 	 -64.7257 	 17.9568 	 -107.665 	 
H 	 -64.4629 	 16.4825 	 -106.532 	 
C 	 -63.6768 	 16.2433 	 -108.579 	 
H 	 -64.6047 	 15.8152 	 -108.936 	 
H 	 -63.0611 	 15.3579 	 -108.307 	 
C 	 -63.0777 	 17.1108 	 -109.787 	 
H 	 -62.039 	 17.4731 	 -109.809 	 
H 	 -63.6163 	 18.033 	 -109.856 	 
H 	 -63.2244 	 16.574 	 -110.742 	 
H 	 -62.1509 	 13.8902 	 -101.976 	 
H 	 -60.846 	 20.4579 	 -106.607 	 
*
