! wB97X-D3 SP def2-SVP
%pal
nprocs 24
end

* xyz 0 1
S 	 -37.7395 	 19.5178 	 11.2047 	 
C 	 -37.9823 	 18.34 	 12.5127 	 
C 	 -37.9121 	 18.9358 	 13.7378 	 
C 	 -38.0087 	 20.3283 	 13.6287 	 
C 	 -37.8076 	 20.7851 	 12.3843 	 
H 	 -38.0483 	 21.0311 	 14.4851 	 
C 	 -38.0095 	 18.166 	 15.0158 	 
H 	 -38.8754 	 17.4877 	 14.8573 	 
H 	 -38.3809 	 18.8518 	 15.7986 	 
C 	 -36.7049 	 17.4402 	 15.3326 	 
H 	 -36.7305 	 16.5494 	 14.7479 	 
H 	 -35.7628 	 17.9369 	 15.2197 	 
C 	 -36.713 	 16.89 	 16.6837 	 
H 	 -35.7301 	 16.3997 	 16.9687 	 
H 	 -37.0689 	 17.7001 	 17.3385 	 
H 	 -37.4884 	 16.0844 	 16.6859 	 
S 	 -38.6165 	 22.9747 	 11.0098 	 
C 	 -37.7696 	 24.3949 	 11.3354 	 
C 	 -36.6722 	 24.2913 	 12.1123 	 
C 	 -36.4837 	 22.9765 	 12.5474 	 
C 	 -37.4665 	 22.1344 	 12.049 	 
H 	 -36.0034 	 25.0804 	 12.2954 	 
C 	 -35.3653 	 22.628 	 13.5612 	 
H 	 -34.359 	 22.6786 	 13.0895 	 
H 	 -35.3308 	 21.5937 	 13.9025 	 
C 	 -35.3414 	 23.5723 	 14.7721 	 
H 	 -34.975 	 24.5783 	 14.4617 	 
H 	 -34.6516 	 23.2151 	 15.4835 	 
C 	 -36.5994 	 23.7077 	 15.6462 	 
H 	 -36.4204 	 24.2309 	 16.5984 	 
H 	 -37.1192 	 22.7312 	 15.6137 	 
H 	 -37.317 	 24.5158 	 15.2977 	 
H 	 -38.2069 	 17.2834 	 12.4419 	 
H 	 -37.9837 	 25.3513 	 10.9209 	 
*
