! wB97X-D3 SP def2-SVP
%pal
nprocs 24
end

* xyz 0 1
S 	 -108.293 	 0.766205 	 -108.713 	 
C 	 -108.288 	 2.50663 	 -108.752 	 
C 	 -108.338 	 3.04481 	 -110.003 	 
C 	 -108.251 	 2.00844 	 -110.963 	 
C 	 -108.146 	 0.711936 	 -110.526 	 
H 	 -108.189 	 2.23664 	 -111.998 	 
C 	 -108.477 	 4.50374 	 -110.268 	 
H 	 -107.45 	 4.85618 	 -110.428 	 
H 	 -108.774 	 5.00794 	 -109.36 	 
C 	 -109.4 	 4.87925 	 -111.452 	 
H 	 -109.283 	 5.90028 	 -111.698 	 
H 	 -109.215 	 4.26152 	 -112.371 	 
C 	 -110.916 	 4.609 	 -111.198 	 
H 	 -111.546 	 5.01685 	 -112.11 	 
H 	 -111.103 	 3.54726 	 -111.011 	 
H 	 -111.207 	 5.09277 	 -110.26 	 
S 	 -106.69 	 -1.45503 	 -111.163 	 
C 	 -106.88 	 -2.08617 	 -112.762 	 
C 	 -108.089 	 -1.698 	 -113.383 	 
C 	 -108.708 	 -0.685471 	 -112.582 	 
C 	 -108.045 	 -0.407827 	 -111.401 	 
H 	 -108.376 	 -2.09799 	 -114.37 	 
C 	 -110.094 	 -0.108177 	 -112.844 	 
H 	 -110.318 	 0.642135 	 -112.056 	 
H 	 -110.767 	 -0.878452 	 -112.546 	 
C 	 -110.26 	 0.312006 	 -114.242 	 
H 	 -111.226 	 0.782552 	 -114.346 	 
H 	 -110.329 	 -0.575115 	 -114.85 	 
C 	 -109.164 	 1.26431 	 -114.77 	 
H 	 -109.448 	 1.59806 	 -115.764 	 
H 	 -108.247 	 0.756341 	 -114.845 	 
H 	 -109.117 	 2.22857 	 -114.154 	 
H 	 -108.158 	 3.05521 	 -107.913 	 
H 	 -106.332 	 -2.8717 	 -113.24 	 
*
