! wB97X-D3 SP def2-SVP
%pal
nprocs 24
end

* xyz 0 1
S 	 -85.2847 	 -45.6922 	 -74.8075 	 
C 	 -83.8886 	 -45.8631 	 -73.8226 	 
C 	 -84.1901 	 -45.8095 	 -72.4893 	 
C 	 -85.5396 	 -45.6249 	 -72.2533 	 
C 	 -86.3253 	 -45.4836 	 -73.4059 	 
H 	 -85.9792 	 -45.5618 	 -71.2527 	 
C 	 -83.1924 	 -46.1182 	 -71.3555 	 
H 	 -82.8719 	 -45.1637 	 -70.9206 	 
H 	 -82.3539 	 -46.4896 	 -71.8483 	 
C 	 -83.5379 	 -47.3151 	 -70.4655 	 
H 	 -82.763 	 -47.4839 	 -69.7227 	 
H 	 -84.333 	 -46.923 	 -69.86 	 
C 	 -83.9471 	 -48.6384 	 -71.1536 	 
H 	 -84.763 	 -48.3316 	 -71.8007 	 
H 	 -83.1702 	 -49.0722 	 -71.821 	 
H 	 -84.3349 	 -49.3183 	 -70.4298 	 
S 	 -88.1946 	 -43.5065 	 -73.1188 	 
C 	 -89.861 	 -43.7718 	 -73.4734 	 
C 	 -90.0273 	 -45.0571 	 -73.9046 	 
C 	 -88.8019 	 -45.8308 	 -73.9082 	 
C 	 -87.7044 	 -45.1585 	 -73.4395 	 
H 	 -91.0297 	 -45.401 	 -74.1429 	 
C 	 -88.7977 	 -47.2946 	 -74.2304 	 
H 	 -89.871 	 -47.4798 	 -74.1937 	 
H 	 -88.3329 	 -47.8088 	 -73.3792 	 
C 	 -88.2052 	 -47.6951 	 -75.5053 	 
H 	 -88.1596 	 -48.7844 	 -75.2582 	 
H 	 -87.1708 	 -47.3814 	 -75.8533 	 
C 	 -89.1871 	 -47.701 	 -76.6671 	 
H 	 -90.1105 	 -48.1519 	 -76.4442 	 
H 	 -88.7452 	 -48.3795 	 -77.3555 	 
H 	 -89.3852 	 -46.7764 	 -77.1485 	 
H 	 -82.8758 	 -46.1809 	 -74.0905 	 
H 	 -90.7839 	 -43.1758 	 -73.338 	 
*
