! wB97X-D3 SP def2-SVP
%pal
nprocs 24
end

* xyz 0 1
S 	 -38.8357 	 -14.4871 	 15.3065 	 
C 	 -40.0725 	 -13.2524 	 15.7469 	 
C 	 -39.4786 	 -12.2515 	 16.4859 	 
C 	 -38.0938 	 -12.473 	 16.7107 	 
C 	 -37.6525 	 -13.5801 	 16.0766 	 
H 	 -37.3802 	 -11.8975 	 17.3225 	 
C 	 -40.2201 	 -11.0056 	 16.9347 	 
H 	 -40.7975 	 -11.2999 	 17.775 	 
H 	 -41.1126 	 -10.8331 	 16.251 	 
C 	 -39.4737 	 -9.63524 	 17.067 	 
H 	 -40.2494 	 -8.91236 	 17.2505 	 
H 	 -38.7764 	 -9.66318 	 17.9632 	 
C 	 -38.7648 	 -9.28205 	 15.7252 	 
H 	 -39.2631 	 -9.4165 	 14.7666 	 
H 	 -38.5558 	 -8.18505 	 15.7586 	 
H 	 -37.9083 	 -9.88537 	 15.8183 	 
S 	 -36.2597 	 -15.7458 	 16.6521 	 
C 	 -34.5257 	 -15.7709 	 16.5487 	 
C 	 -34.0826 	 -14.4845 	 16.3889 	 
C 	 -35.0784 	 -13.4589 	 16.2588 	 
C 	 -36.3089 	 -14.0936 	 16.2349 	 
H 	 -33.0004 	 -14.4091 	 16.3284 	 
C 	 -34.7515 	 -11.9529 	 15.9733 	 
H 	 -35.6588 	 -11.3272 	 15.9246 	 
H 	 -34.0958 	 -11.8777 	 15.0352 	 
C 	 -33.9578 	 -11.4221 	 17.1685 	 
H 	 -33.0557 	 -11.9928 	 17.4012 	 
H 	 -34.5844 	 -11.3365 	 18.0858 	 
C 	 -33.4148 	 -9.99882 	 16.9739 	 
H 	 -32.7577 	 -9.86425 	 16.0987 	 
H 	 -32.7873 	 -9.77135 	 17.8638 	 
H 	 -34.2124 	 -9.2755 	 16.8938 	 
H 	 -41.1308 	 -13.1213 	 15.3625 	 
H 	 -33.9213 	 -16.6148 	 16.8309 	 
*
