! wB97X-D3 SP def2-SVP
%pal
nprocs 24
end

* xyz 0 1
S 	 -90.8818 	 -34.5272 	 -61.1396 	 
C 	 -90.7217 	 -35.4635 	 -62.5908 	 
C 	 -90.6099 	 -36.853 	 -62.3083 	 
C 	 -90.7161 	 -37.0654 	 -60.8931 	 
C 	 -90.7413 	 -35.9502 	 -60.1287 	 
H 	 -90.7863 	 -38.0453 	 -60.5156 	 
C 	 -90.7449 	 -37.9871 	 -63.2538 	 
H 	 -91.3523 	 -37.6059 	 -64.0843 	 
H 	 -91.4157 	 -38.6924 	 -62.729 	 
C 	 -89.4295 	 -38.5465 	 -63.7106 	 
H 	 -88.8454 	 -37.738 	 -64.0716 	 
H 	 -88.8834 	 -38.885 	 -62.8434 	 
C 	 -89.4661 	 -39.6077 	 -64.7714 	 
H 	 -89.6321 	 -40.5979 	 -64.3709 	 
H 	 -90.1477 	 -39.4345 	 -65.5366 	 
H 	 -88.5592 	 -39.5122 	 -65.3583 	 
S 	 -89.9138 	 -36.998 	 -57.6607 	 
C 	 -90.5882 	 -36.2771 	 -56.2411 	 
C 	 -91.6649 	 -35.5238 	 -56.5637 	 
C 	 -91.8951 	 -35.3445 	 -57.9557 	 
C 	 -90.9543 	 -35.9587 	 -58.6835 	 
H 	 -92.3706 	 -35.2246 	 -55.8165 	 
C 	 -93.0158 	 -34.4106 	 -58.4933 	 
H 	 -93.3827 	 -34.6944 	 -59.4535 	 
H 	 -92.5817 	 -33.4239 	 -58.7579 	 
C 	 -94.3016 	 -34.2518 	 -57.6799 	 
H 	 -94.9981 	 -33.4905 	 -58.067 	 
H 	 -94.0857 	 -33.7934 	 -56.681 	 
C 	 -95.1341 	 -35.525 	 -57.6249 	 
H 	 -94.6467 	 -36.2121 	 -56.8367 	 
H 	 -94.9989 	 -36.1112 	 -58.5802 	 
H 	 -96.2155 	 -35.5213 	 -57.3606 	 
H 	 -90.9421 	 -35.0227 	 -63.5895 	 
H 	 -90.2129 	 -36.6041 	 -55.2797 	 
*
