! wB97X-D3 SP def2-SVP
%pal
nprocs 24
end

* xyz 0 1
S 	 -57.6715 	 12.6307 	 -94.4048 	 
C 	 -57.9168 	 11.7286 	 -95.9 	 
C 	 -58.6215 	 12.4547 	 -96.8744 	 
C 	 -58.9548 	 13.7851 	 -96.4572 	 
C 	 -58.4967 	 14.09 	 -95.195 	 
H 	 -59.4592 	 14.5016 	 -97.0357 	 
C 	 -58.9805 	 11.9801 	 -98.3061 	 
H 	 -60.0524 	 12.2617 	 -98.4822 	 
H 	 -58.7866 	 10.9793 	 -98.3081 	 
C 	 -57.9893 	 12.6172 	 -99.3925 	 
H 	 -58.1745 	 13.7214 	 -99.4705 	 
H 	 -56.9863 	 12.49 	 -99.0578 	 
C 	 -58.2149 	 11.972 	 -100.775 	 
H 	 -57.3649 	 12.3764 	 -101.38 	 
H 	 -58.2073 	 10.8837 	 -100.661 	 
H 	 -59.1996 	 12.2086 	 -101.158 	 
S 	 -60.0256 	 14.9179 	 -93.2332 	 
C 	 -60.1635 	 16.5491 	 -92.7823 	 
C 	 -59.6877 	 17.3475 	 -93.7865 	 
C 	 -58.8922 	 16.6375 	 -94.7468 	 
C 	 -58.8779 	 15.2723 	 -94.4499 	 
H 	 -59.7474 	 18.3834 	 -93.7184 	 
C 	 -58.0183 	 17.3619 	 -95.7141 	 
H 	 -57.231 	 16.6189 	 -95.9677 	 
H 	 -57.4458 	 18.0856 	 -95.287 	 
C 	 -58.7095 	 17.754 	 -97.1033 	 
H 	 -59.2658 	 16.9173 	 -97.4295 	 
H 	 -57.9983 	 18.0003 	 -97.9369 	 
C 	 -59.6797 	 18.9095 	 -96.8911 	 
H 	 -59.1127 	 19.8361 	 -96.8575 	 
H 	 -60.3008 	 18.7689 	 -95.9508 	 
H 	 -60.3675 	 19.1825 	 -97.733 	 
H 	 -57.4878 	 10.7483 	 -96.1293 	 
H 	 -60.7261 	 16.9867 	 -91.9507 	 
*
