! wB97X-D3 SP def2-SVP
%pal
nprocs 24
end

* xyz 0 1
S 	 41.0477 	 -23.9534 	 -122.651 	 
C 	 40.2397 	 -22.6706 	 -123.393 	 
C 	 38.8655 	 -22.9714 	 -123.627 	 
C 	 38.6629 	 -24.3972 	 -123.54 	 
C 	 39.753 	 -25.0743 	 -123.109 	 
H 	 37.7103 	 -24.8927 	 -123.889 	 
C 	 37.8611 	 -21.926 	 -124.244 	 
H 	 38.2333 	 -20.8968 	 -124.286 	 
H 	 36.8833 	 -21.9026 	 -123.716 	 
C 	 37.5841 	 -22.3846 	 -125.668 	 
H 	 38.436 	 -22.3944 	 -126.322 	 
H 	 36.9728 	 -23.3121 	 -125.644 	 
C 	 36.5877 	 -21.387 	 -126.301 	 
H 	 35.6242 	 -21.4346 	 -125.851 	 
H 	 36.9761 	 -20.3764 	 -126.272 	 
H 	 36.4304 	 -21.7478 	 -127.288 	 
S 	 39.9794 	 -27.0023 	 -121.261 	 
C 	 39.6566 	 -28.6531 	 -121.801 	 
C 	 39.626 	 -28.7916 	 -123.152 	 
C 	 39.7002 	 -27.5215 	 -123.811 	 
C 	 39.8238 	 -26.477 	 -122.886 	 
H 	 39.4948 	 -29.7522 	 -123.564 	 
C 	 39.3538 	 -27.325 	 -125.329 	 
H 	 39.4098 	 -26.2172 	 -125.568 	 
H 	 38.3241 	 -27.7419 	 -125.49 	 
C 	 40.384 	 -27.9505 	 -126.234 	 
H 	 40.4559 	 -29.0141 	 -126.171 	 
H 	 41.3759 	 -27.5165 	 -126.063 	 
C 	 40.06 	 -27.7009 	 -127.822 	 
H 	 39.1732 	 -28.0948 	 -128.215 	 
H 	 40.8594 	 -28.1649 	 -128.445 	 
H 	 40.0503 	 -26.6424 	 -127.917 	 
H 	 40.5964 	 -21.6822 	 -123.569 	 
H 	 39.3963 	 -29.4721 	 -121.14 	 
*
