! wB97X-D3 SP def2-SVP
%pal
nprocs 24
end

* xyz 0 1
S 	 -56.252 	 15.4263 	 -85.9167 	 
C 	 -57.8968 	 15.7325 	 -86.3034 	 
C 	 -58.2648 	 17.0304 	 -86.0975 	 
C 	 -57.2178 	 17.7808 	 -85.5961 	 
C 	 -56.0398 	 17.1113 	 -85.4736 	 
H 	 -57.1645 	 18.7448 	 -85.1675 	 
C 	 -59.6206 	 17.5512 	 -86.3681 	 
H 	 -59.847 	 18.3134 	 -85.5933 	 
H 	 -60.3309 	 16.7288 	 -86.3629 	 
C 	 -59.7523 	 18.342 	 -87.685 	 
H 	 -58.8652 	 19.0432 	 -87.6784 	 
H 	 -59.5742 	 17.7056 	 -88.6051 	 
C 	 -60.9794 	 19.1882 	 -87.8001 	 
H 	 -61.4825 	 19.2315 	 -86.8252 	 
H 	 -60.9778 	 20.2375 	 -88.0963 	 
H 	 -61.7374 	 18.6965 	 -88.3926 	 
S 	 -53.987 	 16.8147 	 -83.696 	 
C 	 -52.7377 	 18.0606 	 -83.6316 	 
C 	 -52.9787 	 18.9583 	 -84.6131 	 
C 	 -54.1571 	 18.8167 	 -85.4209 	 
C 	 -54.7262 	 17.6238 	 -85.0894 	 
H 	 -52.1801 	 19.7547 	 -84.6538 	 
C 	 -54.5567 	 19.7763 	 -86.4588 	 
H 	 -55.568 	 19.9435 	 -86.1178 	 
H 	 -54.5434 	 19.3913 	 -87.4775 	 
C 	 -53.7988 	 21.1085 	 -86.5213 	 
H 	 -52.75 	 20.8714 	 -86.6304 	 
H 	 -53.857 	 21.5438 	 -85.5276 	 
C 	 -54.2401 	 22.1209 	 -87.5554 	 
H 	 -53.9654 	 21.7642 	 -88.5342 	 
H 	 -53.5655 	 22.9413 	 -87.4645 	 
H 	 -55.2296 	 22.57 	 -87.3831 	 
H 	 -58.6654 	 14.9184 	 -86.3763 	 
H 	 -51.9499 	 18.1636 	 -82.9072 	 
*
