! wB97X-D3 SP def2-SVP
%pal
nprocs 24
end

* xyz 0 1
S 	 -132.161 	 74.597 	 -66.4362 	 
C 	 -130.773 	 74.3321 	 -65.3465 	 
C 	 -131.08 	 74.3024 	 -64.0124 	 
C 	 -132.529 	 74.4705 	 -63.8581 	 
C 	 -133.293 	 74.5152 	 -65.0489 	 
H 	 -133.078 	 74.517 	 -62.9476 	 
C 	 -130.137 	 74.2742 	 -62.8193 	 
H 	 -129.132 	 74.049 	 -63.152 	 
H 	 -130.459 	 73.4972 	 -62.1382 	 
C 	 -130.128 	 75.5928 	 -62.0524 	 
H 	 -130.975 	 75.6179 	 -61.2648 	 
H 	 -129.27 	 75.6941 	 -61.2936 	 
C 	 -130.048 	 76.8375 	 -62.8748 	 
H 	 -130.987 	 77.0483 	 -63.2554 	 
H 	 -129.874 	 77.7071 	 -62.1955 	 
H 	 -129.336 	 76.8009 	 -63.5916 	 
S 	 -135.434 	 73.4769 	 -66.3554 	 
C 	 -137.03 	 73.8032 	 -65.7109 	 
C 	 -137.042 	 74.7908 	 -64.7734 	 
C 	 -135.724 	 75.3147 	 -64.6311 	 
C 	 -134.76 	 74.5342 	 -65.2265 	 
H 	 -137.924 	 75.1536 	 -64.2836 	 
C 	 -135.506 	 76.4513 	 -63.6763 	 
H 	 -136.03 	 77.3042 	 -64.1071 	 
H 	 -134.536 	 76.8884 	 -63.6486 	 
C 	 -136.054 	 76.1684 	 -62.2198 	 
H 	 -135.516 	 75.2825 	 -61.7756 	 
H 	 -137.049 	 75.7805 	 -62.2534 	 
C 	 -135.941 	 77.2607 	 -61.1245 	 
H 	 -136.495 	 76.7482 	 -60.2371 	 
H 	 -136.264 	 78.3019 	 -61.3006 	 
H 	 -134.862 	 77.4133 	 -60.7427 	 
H 	 -129.765 	 74.2563 	 -65.7076 	 
H 	 -137.871 	 73.3197 	 -66.1146 	 
*
