! wB97X-D3 SP def2-SVP
%pal
nprocs 24
end

* xyz 0 1
S 	 -84.7079 	 -41.4272 	 -73.1997 	 
C 	 -84.5874 	 -43.1768 	 -73.4997 	 
C 	 -85.5447 	 -43.8819 	 -72.8885 	 
C 	 -86.4698 	 -43.0393 	 -72.3127 	 
C 	 -86.2361 	 -41.6724 	 -72.3858 	 
H 	 -87.3052 	 -43.4606 	 -71.6949 	 
C 	 -85.5811 	 -45.3973 	 -72.7337 	 
H 	 -85.9837 	 -45.5701 	 -71.7568 	 
H 	 -84.5717 	 -45.7376 	 -72.8304 	 
C 	 -86.5818 	 -46.0253 	 -73.7339 	 
H 	 -86.9457 	 -47.0426 	 -73.5783 	 
H 	 -87.4999 	 -45.3912 	 -73.8038 	 
C 	 -86.0057 	 -46.0152 	 -75.1804 	 
H 	 -86.7267 	 -46.2104 	 -75.9784 	 
H 	 -85.4761 	 -45.0881 	 -75.3129 	 
H 	 -85.242 	 -46.7945 	 -75.2472 	 
S 	 -87.6201 	 -39.5258 	 -73.5119 	 
C 	 -88.7734 	 -38.6534 	 -72.5661 	 
C 	 -88.9111 	 -39.2972 	 -71.3447 	 
C 	 -87.8826 	 -40.2371 	 -71.0711 	 
C 	 -87.1757 	 -40.5518 	 -72.2039 	 
H 	 -89.7877 	 -38.9988 	 -70.769 	 
C 	 -87.7905 	 -40.8079 	 -69.6556 	 
H 	 -87.1348 	 -41.621 	 -69.7192 	 
H 	 -88.8229 	 -41.2243 	 -69.3891 	 
C 	 -87.333 	 -39.8255 	 -68.5607 	 
H 	 -88.0024 	 -38.9081 	 -68.5654 	 
H 	 -86.3831 	 -39.5549 	 -68.8613 	 
C 	 -87.5123 	 -40.5406 	 -67.1701 	 
H 	 -88.5452 	 -40.6717 	 -66.9488 	 
H 	 -87.0529 	 -39.9443 	 -66.3847 	 
H 	 -87.0606 	 -41.4725 	 -67.1343 	 
H 	 -83.7039 	 -43.5985 	 -73.9681 	 
H 	 -89.3276 	 -37.853 	 -72.8889 	 
*
