! wB97X-D3 SP def2-SVP
%pal
nprocs 24
end

* xyz 0 1
S 	 -53.4011 	 20.517 	 33.3255 	 
C 	 -52.0626 	 21.6067 	 33.6668 	 
C 	 -50.9375 	 20.9114 	 34.0978 	 
C 	 -51.1387 	 19.4563 	 34.089 	 
C 	 -52.3353 	 19.0786 	 33.6168 	 
H 	 -50.3082 	 18.7755 	 34.1829 	 
C 	 -49.6519 	 21.554 	 34.6551 	 
H 	 -49.0266 	 20.7709 	 35.1549 	 
H 	 -49.8279 	 22.1263 	 35.5861 	 
C 	 -48.8744 	 22.4316 	 33.7204 	 
H 	 -49.4346 	 23.2032 	 33.3045 	 
H 	 -47.9857 	 22.904 	 34.195 	 
C 	 -48.25 	 21.655 	 32.5138 	 
H 	 -47.2646 	 22.0351 	 32.1445 	 
H 	 -48.0774 	 20.6018 	 32.8443 	 
H 	 -49.033 	 21.4926 	 31.7726 	 
S 	 -54.0298 	 16.9185 	 34.2884 	 
C 	 -54.072 	 15.487 	 33.2635 	 
C 	 -53.0627 	 15.5748 	 32.312 	 
C 	 -52.4128 	 16.8643 	 32.2965 	 
C 	 -52.8219 	 17.7196 	 33.2884 	 
H 	 -52.921 	 14.7229 	 31.5236 	 
C 	 -51.3591 	 17.1175 	 31.2548 	 
H 	 -50.4358 	 16.5441 	 31.4925 	 
H 	 -51.0208 	 18.1018 	 31.409 	 
C 	 -51.8507 	 17.0905 	 29.8085 	 
H 	 -52.7059 	 17.7473 	 29.6106 	 
H 	 -52.0957 	 16.0464 	 29.4438 	 
C 	 -50.7632 	 17.6041 	 28.8662 	 
H 	 -50.488 	 18.6154 	 29.1666 	 
H 	 -51.0319 	 17.8014 	 27.8602 	 
H 	 -49.8754 	 16.9305 	 28.8516 	 
H 	 -52.0797 	 22.7005 	 33.412 	 
H 	 -54.6345 	 14.6395 	 33.4691 	 
*
