! wB97X-D3 SP def2-SVP
%pal
nprocs 24
end

* xyz 0 1
S 	 -47.4612 	 9.28898 	 -16.5337 	 
C 	 -48.8118 	 9.43022 	 -15.3603 	 
C 	 -48.5316 	 10.39 	 -14.3708 	 
C 	 -47.2581 	 11.0054 	 -14.5208 	 
C 	 -46.6996 	 10.6526 	 -15.7688 	 
H 	 -46.8489 	 11.8881 	 -14.0043 	 
C 	 -49.4498 	 10.612 	 -13.2494 	 
H 	 -49.063 	 10.1566 	 -12.2976 	 
H 	 -50.329 	 10.0054 	 -13.4578 	 
C 	 -49.8721 	 12.0891 	 -12.98 	 
H 	 -50.1642 	 12.1868 	 -11.9481 	 
H 	 -48.9508 	 12.6342 	 -13.0446 	 
C 	 -50.7579 	 12.6732 	 -14.0175 	 
H 	 -51.5812 	 12.0638 	 -14.2259 	 
H 	 -51.1847 	 13.6692 	 -13.6822 	 
H 	 -50.3191 	 12.6769 	 -15.041 	 
S 	 -43.9596 	 10.9296 	 -16.053 	 
C 	 -43.4639 	 12.341 	 -17.0717 	 
C 	 -44.5505 	 13.2063 	 -17.4105 	 
C 	 -45.7489 	 12.7233 	 -16.9155 	 
C 	 -45.6463 	 11.445 	 -16.3565 	 
H 	 -44.3798 	 14.2309 	 -17.8036 	 
C 	 -47.0222 	 13.5454 	 -17.0774 	 
H 	 -47.8349 	 12.7684 	 -17.1927 	 
H 	 -46.9201 	 14.0533 	 -18.0507 	 
C 	 -47.3945 	 14.542 	 -15.9361 	 
H 	 -46.5907 	 15.0964 	 -15.5517 	 
H 	 -47.6248 	 13.891 	 -15.0333 	 
C 	 -48.6529 	 15.4624 	 -16.2216 	 
H 	 -49.5092 	 14.8254 	 -16.0255 	 
H 	 -48.8071 	 16.0121 	 -17.1876 	 
H 	 -48.7415 	 16.2171 	 -15.5042 	 
H 	 -49.661 	 8.78978 	 -15.2456 	 
H 	 -42.4439 	 12.6757 	 -17.3053 	 
*
