! wB97X-D3 SP def2-SVP
%pal
nprocs 24
end

* xyz 0 1
S 	 -137.009 	 25.8946 	 -16.2122 	 
C 	 -138.197 	 24.6132 	 -16.6502 	 
C 	 -137.602 	 23.6365 	 -17.3958 	 
C 	 -136.165 	 23.7545 	 -17.4021 	 
C 	 -135.695 	 24.8924 	 -16.7885 	 
H 	 -135.383 	 23.1199 	 -17.773 	 
C 	 -138.297 	 22.4624 	 -18.1156 	 
H 	 -138.498 	 22.8027 	 -19.1692 	 
H 	 -139.298 	 22.3524 	 -17.76 	 
C 	 -137.54 	 21.156 	 -18.1122 	 
H 	 -138.023 	 20.4998 	 -18.7861 	 
H 	 -136.583 	 21.2671 	 -18.5881 	 
C 	 -137.582 	 20.3519 	 -16.7496 	 
H 	 -136.838 	 20.864 	 -16.1521 	 
H 	 -138.551 	 20.1704 	 -16.3108 	 
H 	 -137.172 	 19.4461 	 -17.0097 	 
S 	 -132.928 	 24.5876 	 -16.2513 	 
C 	 -131.825 	 25.7936 	 -16.7352 	 
C 	 -132.414 	 26.6978 	 -17.5372 	 
C 	 -133.844 	 26.5773 	 -17.5913 	 
C 	 -134.351 	 25.4564 	 -16.8999 	 
H 	 -131.754 	 27.4363 	 -17.9812 	 
C 	 -134.73 	 27.5416 	 -18.3485 	 
H 	 -134.725 	 28.4368 	 -17.6883 	 
H 	 -135.762 	 27.1212 	 -18.3577 	 
C 	 -134.303 	 27.9371 	 -19.7379 	 
H 	 -134.015 	 27.1969 	 -20.5089 	 
H 	 -133.288 	 28.3073 	 -19.6976 	 
C 	 -135.147 	 29.0562 	 -20.3072 	 
H 	 -135.164 	 29.9275 	 -19.6846 	 
H 	 -136.184 	 28.8484 	 -20.6074 	 
H 	 -134.711 	 29.4487 	 -21.2322 	 
H 	 -139.277 	 24.6607 	 -16.5218 	 
H 	 -130.754 	 25.6923 	 -16.5529 	 
*
