! wB97X-D3 SP def2-SVP
%pal
nprocs 24
end

* xyz 0 1
S 	 -36.6125 	 2.60696 	 10.9138 	 
C 	 -35.8484 	 1.77753 	 12.2192 	 
C 	 -36.6697 	 0.775102 	 12.7544 	 
C 	 -37.9725 	 0.865156 	 12.171 	 
C 	 -38.1785 	 1.84564 	 11.2019 	 
H 	 -38.7584 	 0.210193 	 12.5123 	 
C 	 -36.2998 	 -0.268111 	 13.7982 	 
H 	 -35.7438 	 -0.971672 	 13.2844 	 
H 	 -37.3135 	 -0.713507 	 13.8569 	 
C 	 -35.6856 	 0.252676 	 15.1903 	 
H 	 -35.3382 	 -0.635897 	 15.8009 	 
H 	 -34.8764 	 0.902628 	 14.926 	 
C 	 -36.7208 	 1.00827 	 16.021 	 
H 	 -37.7152 	 0.533359 	 16.0275 	 
H 	 -36.5553 	 1.07042 	 17.0436 	 
H 	 -36.8708 	 2.14257 	 15.6862 	 
S 	 -39.4915 	 2.14773 	 8.72236 	 
C 	 -41.2002 	 2.04583 	 8.73414 	 
C 	 -41.6624 	 1.96238 	 10.0034 	 
C 	 -40.6905 	 2.14932 	 11.0537 	 
C 	 -39.4056 	 2.18506 	 10.4986 	 
H 	 -42.6915 	 1.8121 	 10.1227 	 
C 	 -41.1328 	 2.0651 	 12.5066 	 
H 	 -41.9303 	 2.79808 	 12.7046 	 
H 	 -40.3058 	 2.39959 	 13.0888 	 
C 	 -41.6975 	 0.58744 	 13.0375 	 
H 	 -40.8135 	 -0.0817381 	 12.9049 	 
H 	 -42.463 	 0.229989 	 12.3861 	 
C 	 -42.2252 	 0.515779 	 14.4982 	 
H 	 -42.5448 	 -0.476987 	 14.6849 	 
H 	 -42.8789 	 1.37799 	 14.7046 	 
H 	 -41.3562 	 0.580178 	 15.1751 	 
H 	 -34.8554 	 1.98903 	 12.5982 	 
H 	 -41.8645 	 2.05968 	 7.81735 	 
*
