! wB97X-D3 SP def2-SVP
%pal
nprocs 24
end

* xyz 0 1
S 	 -145.202 	 26.164 	 -19.7736 	 
C 	 -145.068 	 24.7899 	 -20.7906 	 
C 	 -143.837 	 24.3027 	 -20.893 	 
C 	 -142.999 	 24.9719 	 -19.9341 	 
C 	 -143.57 	 25.9343 	 -19.0989 	 
H 	 -141.893 	 24.7961 	 -19.7923 	 
C 	 -143.377 	 23.2207 	 -21.8001 	 
H 	 -144.176 	 22.9288 	 -22.4923 	 
H 	 -143.247 	 22.3106 	 -21.2111 	 
C 	 -142.087 	 23.6093 	 -22.5152 	 
H 	 -142.273 	 24.504 	 -23.0349 	 
H 	 -141.211 	 23.7413 	 -21.9253 	 
C 	 -141.606 	 22.5244 	 -23.6065 	 
H 	 -142.307 	 22.4724 	 -24.476 	 
H 	 -140.674 	 22.7958 	 -24.0052 	 
H 	 -141.536 	 21.4949 	 -23.1783 	 
S 	 -143.573 	 28.521 	 -18.4605 	 
C 	 -142.534 	 29.0827 	 -17.1543 	 
C 	 -141.742 	 28.0978 	 -16.7098 	 
C 	 -141.98 	 26.821 	 -17.3465 	 
C 	 -142.942 	 26.889 	 -18.2767 	 
H 	 -140.997 	 28.195 	 -15.9651 	 
C 	 -141.135 	 25.6413 	 -17.0217 	 
H 	 -141.79 	 24.795 	 -17.1411 	 
H 	 -140.87 	 25.6506 	 -16.0085 	 
C 	 -139.83 	 25.442 	 -17.8544 	 
H 	 -139.36 	 26.4223 	 -17.7374 	 
H 	 -140.075 	 25.2834 	 -18.9197 	 
C 	 -138.949 	 24.3338 	 -17.2818 	 
H 	 -139.518 	 23.4655 	 -17.1269 	 
H 	 -138.435 	 24.594 	 -16.3587 	 
H 	 -138.146 	 23.9934 	 -17.9971 	 
H 	 -145.896 	 24.4284 	 -21.4747 	 
H 	 -142.372 	 30.0847 	 -16.7557 	 
*
