! wB97X-D3 SP def2-SVP
%pal
nprocs 24
end

* xyz 0 1
S 	 -74.4257 	 6.88967 	 -111.076 	 
C 	 -75.7483 	 7.794 	 -110.427 	 
C 	 -76.737 	 6.92818 	 -109.98 	 
C 	 -76.3107 	 5.5839 	 -110.07 	 
C 	 -75.1371 	 5.37418 	 -110.69 	 
H 	 -77.0106 	 4.7664 	 -109.754 	 
C 	 -77.983 	 7.41187 	 -109.394 	 
H 	 -77.7963 	 8.48011 	 -109.142 	 
H 	 -78.1021 	 7.02974 	 -108.394 	 
C 	 -79.2471 	 7.24313 	 -110.211 	 
H 	 -79.1295 	 7.9337 	 -111.073 	 
H 	 -79.0832 	 6.28418 	 -110.749 	 
C 	 -80.5991 	 7.45122 	 -109.564 	 
H 	 -80.7757 	 6.74174 	 -108.688 	 
H 	 -80.6602 	 8.47261 	 -109.167 	 
H 	 -81.4188 	 7.30962 	 -110.316 	 
S 	 -72.7687 	 4.06207 	 -110.935 	 
C 	 -72.6976 	 2.43855 	 -111.471 	 
C 	 -73.9494 	 1.87537 	 -111.383 	 
C 	 -75.0441 	 2.78663 	 -111.128 	 
C 	 -74.5159 	 4.06831 	 -110.976 	 
H 	 -74.1667 	 0.885694 	 -111.524 	 
C 	 -76.4968 	 2.38174 	 -111.073 	 
H 	 -77.2183 	 3.21668 	 -111.036 	 
H 	 -76.626 	 1.86066 	 -110.081 	 
C 	 -76.93 	 1.42427 	 -112.193 	 
H 	 -76.2837 	 0.513469 	 -112.198 	 
H 	 -76.8545 	 1.85186 	 -113.209 	 
C 	 -78.4629 	 1.0167 	 -111.976 	 
H 	 -78.9533 	 0.909037 	 -112.985 	 
H 	 -78.9298 	 1.76322 	 -111.367 	 
H 	 -78.5172 	 0.126348 	 -111.424 	 
H 	 -75.7024 	 8.84923 	 -110.101 	 
H 	 -71.8134 	 1.85958 	 -111.657 	 
*
