! wB97X-D3 SP def2-SVP
%pal
nprocs 24
end

* xyz 0 1
S 	 -39.116 	 17.9451 	 12.0508 	 
C 	 -39.1885 	 16.4331 	 12.8544 	 
C 	 -38.2902 	 16.3464 	 13.8729 	 
C 	 -37.4376 	 17.5331 	 13.9357 	 
C 	 -37.7073 	 18.5152 	 12.9885 	 
H 	 -36.7201 	 17.6078 	 14.7948 	 
C 	 -38.2013 	 15.1277 	 14.7162 	 
H 	 -37.2749 	 14.6099 	 14.3255 	 
H 	 -39.1015 	 14.4617 	 14.5172 	 
C 	 -37.9027 	 15.3802 	 16.2281 	 
H 	 -37.1395 	 16.0777 	 16.3322 	 
H 	 -38.7648 	 15.8233 	 16.6345 	 
C 	 -37.548 	 14.1282 	 17.0055 	 
H 	 -36.5323 	 13.9854 	 16.7052 	 
H 	 -37.4284 	 14.3022 	 18.0725 	 
H 	 -38.1024 	 13.2828 	 16.9399 	 
S 	 -38.1314 	 21.2897 	 12.8425 	 
C 	 -36.7113 	 22.2871 	 13.0506 	 
C 	 -35.5342 	 21.5413 	 13.083 	 
C 	 -35.7393 	 20.1002 	 13.0135 	 
C 	 -37.1209 	 19.8351 	 13.0197 	 
H 	 -34.6626 	 22.2357 	 13.2691 	 
C 	 -34.6101 	 19.0616 	 12.9173 	 
H 	 -34.4766 	 18.759 	 11.859 	 
H 	 -34.9317 	 18.1945 	 13.3533 	 
C 	 -33.2795 	 19.3916 	 13.5115 	 
H 	 -33.037 	 20.4006 	 13.26 	 
H 	 -32.5107 	 18.8355 	 12.9869 	 
C 	 -33.0855 	 19.2537 	 14.9961 	 
H 	 -33.6967 	 19.9881 	 15.5003 	 
H 	 -32.057 	 19.3857 	 15.2808 	 
H 	 -33.559 	 18.3812 	 15.4155 	 
H 	 -39.9522 	 15.6955 	 12.673 	 
H 	 -36.6954 	 23.3513 	 13.1077 	 
*
