! wB97X-D3 SP def2-SVP
%pal
nprocs 24
end

* xyz 0 1
S 	 -106.846 	 50.9625 	 -81.4098 	 
C 	 -105.154 	 51.3481 	 -81.4816 	 
C 	 -104.504 	 50.6642 	 -82.4759 	 
C 	 -105.408 	 49.6618 	 -83.0596 	 
C 	 -106.707 	 49.7383 	 -82.6196 	 
H 	 -105.215 	 49.1186 	 -83.9948 	 
C 	 -103.095 	 50.9036 	 -83.0215 	 
H 	 -102.456 	 50.0642 	 -82.6326 	 
H 	 -102.767 	 51.7834 	 -82.4379 	 
C 	 -102.84 	 50.9749 	 -84.5576 	 
H 	 -101.704 	 51.1401 	 -84.8071 	 
H 	 -103.174 	 50.0587 	 -85.0699 	 
C 	 -103.508 	 52.1851 	 -85.2194 	 
H 	 -103.411 	 52.0206 	 -86.3044 	 
H 	 -104.575 	 52.2975 	 -84.8932 	 
H 	 -102.989 	 53.053 	 -84.9376 	 
S 	 -109.149 	 49.8204 	 -83.8283 	 
C 	 -109.912 	 48.2882 	 -84.3015 	 
C 	 -109.116 	 47.2052 	 -84.0191 	 
C 	 -107.956 	 47.5349 	 -83.2628 	 
C 	 -107.87 	 48.9108 	 -83.0461 	 
H 	 -109.332 	 46.1987 	 -84.2594 	 
C 	 -106.965 	 46.4701 	 -82.9059 	 
H 	 -106.166 	 47.0366 	 -82.4138 	 
H 	 -106.644 	 46.1502 	 -83.8992 	 
C 	 -107.524 	 45.202 	 -82.1993 	 
H 	 -106.769 	 44.4144 	 -82.305 	 
H 	 -108.311 	 44.9036 	 -82.8447 	 
C 	 -107.984 	 45.3685 	 -80.741 	 
H 	 -108.682 	 46.1868 	 -80.6641 	 
H 	 -107.135 	 45.59 	 -80.0616 	 
H 	 -108.486 	 44.4862 	 -80.2735 	 
H 	 -104.818 	 52.3617 	 -81.1364 	 
H 	 -110.83 	 48.3059 	 -84.8421 	 
*
