! wB97X-D3 SP def2-SVP
%pal
nprocs 24
end

* xyz 0 1
S 	 -95.3926 	 12.8943 	 -116.135 	 
C 	 -95.8192 	 11.4576 	 -115.164 	 
C 	 -96.6461 	 10.5462 	 -115.893 	 
C 	 -97.0205 	 11.0442 	 -117.151 	 
C 	 -96.3677 	 12.2287 	 -117.47 	 
H 	 -97.7438 	 10.6137 	 -117.884 	 
C 	 -97.2699 	 9.30886 	 -115.225 	 
H 	 -97.9687 	 9.62509 	 -114.445 	 
H 	 -96.5123 	 8.85061 	 -114.614 	 
C 	 -97.8623 	 8.32318 	 -116.239 	 
H 	 -98.2578 	 7.49185 	 -115.624 	 
H 	 -98.7346 	 8.59275 	 -116.761 	 
C 	 -96.8036 	 7.7508 	 -117.208 	 
H 	 -97.0845 	 8.09198 	 -118.213 	 
H 	 -95.8669 	 8.11284 	 -116.97 	 
H 	 -96.6708 	 6.62313 	 -117.178 	 
S 	 -95.0889 	 13.0622 	 -119.719 	 
C 	 -95.9948 	 13.8412 	 -121.033 	 
C 	 -97.277 	 14.0567 	 -120.681 	 
C 	 -97.6872 	 13.5069 	 -119.413 	 
C 	 -96.6055 	 12.9905 	 -118.716 	 
H 	 -98.0001 	 14.3368 	 -121.344 	 
C 	 -99.1738 	 13.6219 	 -118.908 	 
H 	 -99.1199 	 13.0436 	 -117.972 	 
H 	 -99.7687 	 13.0325 	 -119.605 	 
C 	 -99.5709 	 15.1309 	 -118.717 	 
H 	 -99.3558 	 15.702 	 -119.656 	 
H 	 -99.1371 	 15.4653 	 -117.818 	 
C 	 -101.041 	 15.1713 	 -118.504 	 
H 	 -101.619 	 14.859 	 -119.366 	 
H 	 -101.413 	 16.1436 	 -118.169 	 
H 	 -101.429 	 14.3701 	 -117.841 	 
H 	 -95.4258 	 11.1854 	 -114.178 	 
H 	 -95.4804 	 14.1544 	 -121.986 	 
*
