! wB97X-D3 SP def2-SVP
%pal
nprocs 24
end

* xyz 0 1
S 	 -43.2617 	 10.1977 	 29.0278 	 
C 	 -43.524 	 8.78345 	 27.9395 	 
C 	 -44.5077 	 9.12794 	 26.9862 	 
C 	 -44.9678 	 10.4489 	 27.1522 	 
C 	 -44.5107 	 11.0734 	 28.2606 	 
H 	 -45.7763 	 10.9192 	 26.5343 	 
C 	 -44.7374 	 8.27338 	 25.8019 	 
H 	 -43.9324 	 7.53857 	 25.7201 	 
H 	 -44.6164 	 8.98362 	 24.9681 	 
C 	 -46.1517 	 7.74478 	 25.5607 	 
H 	 -46.0963 	 7.42367 	 24.5065 	 
H 	 -46.2845 	 6.91999 	 26.2231 	 
C 	 -47.2077 	 8.78108 	 25.7902 	 
H 	 -48.2326 	 8.36325 	 25.7023 	 
H 	 -47.1555 	 9.19315 	 26.8403 	 
H 	 -47.2179 	 9.60459 	 25.1051 	 
S 	 -43.7746 	 13.5974 	 28.7203 	 
C 	 -44.8862 	 14.8888 	 29.1893 	 
C 	 -46.1695 	 14.3718 	 29.1116 	 
C 	 -46.224 	 12.9474 	 28.9233 	 
C 	 -44.9753 	 12.3871 	 28.7565 	 
H 	 -47.0613 	 14.9505 	 29.4812 	 
C 	 -47.5558 	 12.1571 	 28.9565 	 
H 	 -47.9452 	 12.2342 	 30.0039 	 
H 	 -47.3495 	 11.0861 	 28.7685 	 
C 	 -48.6856 	 12.7557 	 28.2056 	 
H 	 -48.8699 	 13.7828 	 28.6079 	 
H 	 -49.6696 	 12.1838 	 28.2737 	 
C 	 -48.534 	 12.8716 	 26.6561 	 
H 	 -47.6035 	 13.2719 	 26.3658 	 
H 	 -49.2783 	 13.4436 	 26.0683 	 
H 	 -48.4969 	 11.8935 	 26.1344 	 
H 	 -42.8985 	 7.91944 	 27.9564 	 
H 	 -44.6919 	 15.9392 	 29.4969 	 
*
