! wB97X-D3 SP def2-SVP
%pal
nprocs 24
end

* xyz 0 1
S 	 -112.247 	 48.2527 	 -71.4685 	 
C 	 -113.346 	 48.0895 	 -72.8621 	 
C 	 -113.275 	 49.1961 	 -73.6859 	 
C 	 -112.227 	 50.0805 	 -73.342 	 
C 	 -111.748 	 49.8679 	 -72.065 	 
H 	 -111.948 	 51.088 	 -73.7859 	 
C 	 -114.24 	 49.4824 	 -74.824 	 
H 	 -114.312 	 48.6478 	 -75.5735 	 
H 	 -113.825 	 50.3536 	 -75.3362 	 
C 	 -115.718 	 49.7824 	 -74.3925 	 
H 	 -116.326 	 49.7841 	 -75.2868 	 
H 	 -116.085 	 48.9847 	 -73.8253 	 
C 	 -115.972 	 51.0783 	 -73.6382 	 
H 	 -115.371 	 51.0457 	 -72.6731 	 
H 	 -115.781 	 52.0077 	 -74.248 	 
H 	 -117.07 	 51.0454 	 -73.4495 	 
S 	 -109.118 	 49.8523 	 -71.2961 	 
C 	 -108.44 	 51.3108 	 -70.6163 	 
C 	 -109.397 	 52.2123 	 -70.2902 	 
C 	 -110.748 	 51.8186 	 -70.6545 	 
C 	 -110.719 	 50.6093 	 -71.3531 	 
H 	 -109.072 	 53.1109 	 -69.7777 	 
C 	 -111.908 	 52.7029 	 -70.5814 	 
H 	 -111.767 	 53.1856 	 -69.6292 	 
H 	 -112.811 	 52.1688 	 -70.3374 	 
C 	 -112.135 	 53.6469 	 -71.8573 	 
H 	 -112.164 	 52.9914 	 -72.7175 	 
H 	 -111.292 	 54.3273 	 -71.7924 	 
C 	 -113.462 	 54.4546 	 -71.8407 	 
H 	 -113.692 	 55.0036 	 -72.7768 	 
H 	 -113.482 	 55.1326 	 -70.9797 	 
H 	 -114.347 	 53.8564 	 -71.6628 	 
H 	 -114.221 	 47.4167 	 -73.0066 	 
H 	 -107.423 	 51.589 	 -70.4355 	 
*
