! wB97X-D3 SP def2-SVP
%pal
nprocs 24
end

* xyz 0 1
S 	 -90.9923 	 -29.4674 	 -74.049 	 
C 	 -89.5719 	 -30.4232 	 -73.7292 	 
C 	 -88.8028 	 -30.5809 	 -74.8677 	 
C 	 -89.1815 	 -29.7045 	 -75.967 	 
C 	 -90.3732 	 -29.1374 	 -75.6991 	 
H 	 -88.6507 	 -29.4654 	 -76.9162 	 
C 	 -87.5357 	 -31.3901 	 -74.8447 	 
H 	 -86.938 	 -31.2557 	 -73.9707 	 
H 	 -86.8272 	 -31.0538 	 -75.6575 	 
C 	 -87.7096 	 -32.9444 	 -74.889 	 
H 	 -86.6927 	 -33.2904 	 -74.8348 	 
H 	 -88.0925 	 -33.3351 	 -73.9212 	 
C 	 -88.4089 	 -33.5026 	 -76.1019 	 
H 	 -87.6876 	 -33.4387 	 -76.8573 	 
H 	 -88.5851 	 -34.6016 	 -75.8699 	 
H 	 -89.3734 	 -32.9303 	 -76.3495 	 
S 	 -90.9859 	 -26.5001 	 -76.485 	 
C 	 -91.986 	 -26.3137 	 -77.8833 	 
C 	 -92.3034 	 -27.5329 	 -78.4816 	 
C 	 -91.901 	 -28.6428 	 -77.7064 	 
C 	 -91.0623 	 -28.2911 	 -76.653 	 
H 	 -92.8582 	 -27.3826 	 -79.3747 	 
C 	 -92.1172 	 -30.0292 	 -78.2242 	 
H 	 -93.1393 	 -30.2528 	 -77.985 	 
H 	 -91.49 	 -30.764 	 -77.7111 	 
C 	 -91.9395 	 -30.2375 	 -79.7566 	 
H 	 -91.1381 	 -29.6779 	 -80.169 	 
H 	 -92.8146 	 -29.823 	 -80.1722 	 
C 	 -91.8053 	 -31.641 	 -80.3464 	 
H 	 -90.8476 	 -32.0847 	 -80.1967 	 
H 	 -91.9053 	 -31.475 	 -81.4147 	 
H 	 -92.5622 	 -32.252 	 -79.9247 	 
H 	 -89.265 	 -30.734 	 -72.7836 	 
H 	 -92.3265 	 -25.3809 	 -78.3473 	 
*
