! wB97X-D3 SP def2-SVP
%pal
nprocs 24
end

* xyz 0 1
S 	 -38.4024 	 -7.71699 	 12.087 	 
C 	 -37.0699 	 -6.61993 	 12.2486 	 
C 	 -37.3686 	 -5.44028 	 11.562 	 
C 	 -38.7097 	 -5.4069 	 11.0048 	 
C 	 -39.4649 	 -6.57704 	 11.2772 	 
H 	 -39.2688 	 -4.62502 	 10.4791 	 
C 	 -36.4545 	 -4.28301 	 11.5306 	 
H 	 -35.7491 	 -4.29438 	 12.2512 	 
H 	 -37.0794 	 -3.46054 	 11.7491 	 
C 	 -35.7072 	 -3.80213 	 10.2603 	 
H 	 -35.2987 	 -2.78391 	 10.4814 	 
H 	 -34.7791 	 -4.40335 	 10.1406 	 
C 	 -36.4907 	 -3.86015 	 8.91959 	 
H 	 -35.8424 	 -3.49113 	 8.10027 	 
H 	 -36.6771 	 -4.86012 	 8.74856 	 
H 	 -37.4884 	 -3.3914 	 9.01904 	 
S 	 -41.2403 	 -8.66245 	 10.8384 	 
C 	 -42.9884 	 -8.2746 	 10.6821 	 
C 	 -43.2194 	 -6.92988 	 10.5671 	 
C 	 -42.053 	 -6.1823 	 10.8009 	 
C 	 -40.8755 	 -6.91498 	 10.982 	 
H 	 -44.2305 	 -6.59973 	 10.5698 	 
C 	 -42.0664 	 -4.69145 	 10.9659 	 
H 	 -41.341 	 -4.44636 	 11.7598 	 
H 	 -43.0109 	 -4.41017 	 11.4453 	 
C 	 -41.8654 	 -3.84155 	 9.78669 	 
H 	 -42.6058 	 -4.17212 	 9.08401 	 
H 	 -40.8457 	 -3.98355 	 9.30381 	 
C 	 -41.9357 	 -2.3893 	 10.0934 	 
H 	 -41.8253 	 -1.76888 	 9.24307 	 
H 	 -41.0509 	 -2.15732 	 10.7323 	 
H 	 -42.8475 	 -2.11105 	 10.5384 	 
H 	 -36.1026 	 -6.74334 	 12.7284 	 
H 	 -43.8105 	 -8.92518 	 10.3452 	 
*
