! wB97X-D3 SP def2-SVP
%pal
nprocs 24
end

* xyz 0 1
S 	 17.4785 	 -5.03021 	 -112.715 	 
C 	 17.5837 	 -4.84739 	 -110.981 	 
C 	 18.4077 	 -5.77349 	 -110.381 	 
C 	 19.1009 	 -6.59129 	 -111.406 	 
C 	 18.624 	 -6.35299 	 -112.67 	 
H 	 19.8166 	 -7.36703 	 -111.218 	 
C 	 18.7087 	 -5.96572 	 -108.893 	 
H 	 18.8225 	 -6.98422 	 -108.817 	 
H 	 17.7201 	 -5.68645 	 -108.372 	 
C 	 19.9031 	 -5.24942 	 -108.299 	 
H 	 19.8856 	 -4.24713 	 -108.598 	 
H 	 19.8066 	 -5.36617 	 -107.234 	 
C 	 21.2827 	 -5.87657 	 -108.678 	 
H 	 21.5238 	 -5.98137 	 -109.739 	 
H 	 22.1004 	 -5.39434 	 -108.227 	 
H 	 21.2885 	 -6.87865 	 -108.37 	 
S 	 20.6585 	 -7.29614 	 -114.13 	 
C 	 20.4416 	 -7.99998 	 -115.691 	 
C 	 19.1347 	 -8.16775 	 -115.95 	 
C 	 18.2852 	 -7.63377 	 -114.904 	 
C 	 19.0107 	 -7.17977 	 -113.798 	 
H 	 18.8474 	 -8.60547 	 -116.872 	 
C 	 16.7324 	 -7.63627 	 -115.063 	 
H 	 16.2995 	 -6.98825 	 -114.285 	 
H 	 16.2942 	 -8.65441 	 -114.726 	 
C 	 16.1271 	 -7.27272 	 -116.35 	 
H 	 16.4556 	 -8.02346 	 -117.098 	 
H 	 16.6101 	 -6.29661 	 -116.541 	 
C 	 14.558 	 -7.26258 	 -116.318 	 
H 	 14.1352 	 -6.54054 	 -115.671 	 
H 	 14.1074 	 -8.16235 	 -115.922 	 
H 	 14.0104 	 -7.0725 	 -117.215 	 
H 	 17.1968 	 -4.02416 	 -110.471 	 
H 	 21.1889 	 -8.27839 	 -116.469 	 
*
