! wB97X-D3 SP def2-SVP
%pal
nprocs 24
end

* xyz 0 1
S 	 -48.9663 	 20.873 	 28.4105 	 
C 	 -49.9648 	 22.217 	 29.0199 	 
C 	 -51.0929 	 22.3529 	 28.2048 	 
C 	 -51.1666 	 21.3889 	 27.1708 	 
C 	 -50.137 	 20.4736 	 27.1613 	 
H 	 -51.987 	 21.4193 	 26.5094 	 
C 	 -52.1921 	 23.3088 	 28.3895 	 
H 	 -52.6388 	 23.6709 	 27.4623 	 
H 	 -51.974 	 24.263 	 28.954 	 
C 	 -53.3785 	 22.687 	 29.1746 	 
H 	 -53.2686 	 22.5273 	 30.2982 	 
H 	 -54.2565 	 23.3596 	 29.1384 	 
C 	 -53.8994 	 21.3063 	 28.5384 	 
H 	 -54.9381 	 21.0409 	 28.8916 	 
H 	 -53.9958 	 21.3131 	 27.4432 	 
H 	 -53.206 	 20.527 	 28.9163 	 
S 	 -49.7462 	 17.8163 	 27.5094 	 
C 	 -50.034 	 16.7041 	 26.1988 	 
C 	 -50.189 	 17.3602 	 25.0291 	 
C 	 -50.2638 	 18.7633 	 25.1384 	 
C 	 -50.0327 	 19.2074 	 26.4551 	 
H 	 -50.4331 	 16.8397 	 24.1417 	 
C 	 -50.8366 	 19.6677 	 23.983 	 
H 	 -50.2695 	 19.2296 	 23.1361 	 
H 	 -50.2826 	 20.6392 	 24.0691 	 
C 	 -52.3874 	 19.7105 	 23.8531 	 
H 	 -52.7777 	 20.3362 	 24.5935 	 
H 	 -52.7922 	 18.7413 	 24.0818 	 
C 	 -52.9899 	 20.0783 	 22.4628 	 
H 	 -52.7913 	 21.1732 	 22.2923 	 
H 	 -54.0118 	 19.9117 	 22.4971 	 
H 	 -52.5895 	 19.5637 	 21.6036 	 
H 	 -49.7976 	 22.8468 	 29.8802 	 
H 	 -50.2528 	 15.654 	 26.3144 	 
*
