! wB97X-D3 SP def2-SVP
%pal
nprocs 24
end

* xyz 0 1
S 	 -106.178 	 49.3997 	 -81.0395 	 
C 	 -104.702 	 49.9564 	 -80.5572 	 
C 	 -103.867 	 50.1119 	 -81.6636 	 
C 	 -104.414 	 49.5068 	 -82.8873 	 
C 	 -105.646 	 49.015 	 -82.6656 	 
H 	 -103.861 	 49.5154 	 -83.8483 	 
C 	 -102.596 	 50.7664 	 -81.5915 	 
H 	 -101.837 	 50.1361 	 -81.1262 	 
H 	 -102.626 	 51.5947 	 -80.9163 	 
C 	 -102.038 	 51.3666 	 -82.9263 	 
H 	 -101.044 	 51.823 	 -82.7439 	 
H 	 -101.924 	 50.5695 	 -83.6523 	 
C 	 -102.771 	 52.6002 	 -83.4282 	 
H 	 -102.781 	 53.5363 	 -82.8461 	 
H 	 -102.434 	 52.8941 	 -84.4079 	 
H 	 -103.84 	 52.4281 	 -83.4535 	 
S 	 -108.064 	 49.2753 	 -83.9197 	 
C 	 -108.567 	 47.8906 	 -84.9328 	 
C 	 -107.576 	 47.013 	 -85.1989 	 
C 	 -106.334 	 47.361 	 -84.521 	 
C 	 -106.558 	 48.4526 	 -83.6765 	 
H 	 -107.755 	 46.1127 	 -85.8303 	 
C 	 -105.033 	 46.4819 	 -84.5337 	 
H 	 -104.166 	 47.1083 	 -84.1893 	 
H 	 -104.696 	 46.2347 	 -85.5479 	 
C 	 -105.12 	 45.1065 	 -83.8542 	 
H 	 -104.351 	 44.5277 	 -84.35 	 
H 	 -105.977 	 44.5293 	 -84.1937 	 
C 	 -104.993 	 45.0998 	 -82.3405 	 
H 	 -105.836 	 45.6224 	 -81.9505 	 
H 	 -104.135 	 45.809 	 -82.0635 	 
H 	 -104.969 	 44.1277 	 -81.9109 	 
H 	 -104.57 	 50.4314 	 -79.6651 	 
H 	 -109.505 	 47.7827 	 -85.3776 	 
*
