! wB97X-D3 SP def2-SVP
%pal
nprocs 24
end

* xyz 0 1
S 	 38.401 	 -6.51823 	 -107.554 	 
C 	 39.4694 	 -5.72553 	 -108.713 	 
C 	 38.8285 	 -5.43464 	 -109.925 	 
C 	 37.4679 	 -5.92728 	 -109.906 	 
C 	 37.0718 	 -6.47353 	 -108.68 	 
H 	 36.7341 	 -5.94032 	 -110.734 	 
C 	 39.4988 	 -4.85551 	 -111.161 	 
H 	 38.8985 	 -4.76695 	 -112.05 	 
H 	 40.2055 	 -5.66707 	 -111.436 	 
C 	 40.1002 	 -3.47854 	 -110.902 	 
H 	 39.2772 	 -2.76625 	 -110.746 	 
H 	 40.6299 	 -3.62332 	 -109.949 	 
C 	 41.1164 	 -3.03832 	 -111.939 	 
H 	 40.7099 	 -3.07659 	 -112.912 	 
H 	 41.4229 	 -2.05265 	 -111.79 	 
H 	 41.9639 	 -3.73999 	 -111.888 	 
S 	 35.8947 	 -8.61399 	 -107.446 	 
C 	 34.2018 	 -8.78502 	 -107.187 	 
C 	 33.5479 	 -7.67089 	 -107.702 	 
C 	 34.4438 	 -6.66752 	 -108.212 	 
C 	 35.7623 	 -7.04262 	 -108.274 	 
H 	 32.4949 	 -7.57791 	 -107.503 	 
C 	 33.9907 	 -5.22485 	 -108.446 	 
H 	 32.9068 	 -5.21779 	 -108.623 	 
H 	 34.414 	 -4.8221 	 -109.395 	 
C 	 34.2457 	 -4.11989 	 -107.435 	 
H 	 33.3762 	 -3.50677 	 -107.209 	 
H 	 34.9918 	 -3.38934 	 -107.761 	 
C 	 34.7749 	 -4.60795 	 -106.01 	 
H 	 35.76 	 -5.17103 	 -106.221 	 
H 	 34.2699 	 -5.46648 	 -105.657 	 
H 	 34.9231 	 -3.81643 	 -105.286 	 
H 	 40.4843 	 -5.43181 	 -108.554 	 
H 	 33.6497 	 -9.59714 	 -106.668 	 
*
