! wB97X-D3 SP def2-SVP
%pal
nprocs 24
end

* xyz 0 1
S 	 -53.5583 	 -47.9214 	 -82.304 	 
C 	 -53.3047 	 -46.6138 	 -81.1428 	 
C 	 -53.148 	 -47.1424 	 -79.8449 	 
C 	 -52.9726 	 -48.5636 	 -79.8749 	 
C 	 -52.9694 	 -49.1341 	 -81.1289 	 
H 	 -52.7004 	 -49.096 	 -78.9373 	 
C 	 -53.1074 	 -46.3417 	 -78.5664 	 
H 	 -53.9577 	 -46.6103 	 -77.9302 	 
H 	 -53.2287 	 -45.2677 	 -78.7656 	 
C 	 -51.7252 	 -46.6155 	 -77.841 	 
H 	 -51.7902 	 -46.0511 	 -76.8878 	 
H 	 -51.6762 	 -47.6232 	 -77.478 	 
C 	 -50.3467 	 -46.3086 	 -78.5203 	 
H 	 -49.5031 	 -46.0954 	 -77.7815 	 
H 	 -50.061 	 -47.1737 	 -79.1484 	 
H 	 -50.4773 	 -45.4978 	 -79.2132 	 
S 	 -53.904 	 -51.1348 	 -82.6169 	 
C 	 -53.1843 	 -52.6953 	 -82.4999 	 
C 	 -52.1201 	 -52.7225 	 -81.6573 	 
C 	 -51.9112 	 -51.4989 	 -80.9722 	 
C 	 -52.7922 	 -50.5178 	 -81.4237 	 
H 	 -51.6316 	 -53.7048 	 -81.4653 	 
C 	 -50.7665 	 -51.3373 	 -79.9576 	 
H 	 -50.2195 	 -52.2928 	 -79.6883 	 
H 	 -51.2964 	 -50.9358 	 -79.0339 	 
C 	 -49.7708 	 -50.2536 	 -80.4127 	 
H 	 -50.3147 	 -49.3168 	 -80.6706 	 
H 	 -49.3217 	 -50.6835 	 -81.3104 	 
C 	 -48.7105 	 -50.0464 	 -79.4009 	 
H 	 -48.2538 	 -51.017 	 -79.1536 	 
H 	 -49.0243 	 -49.5354 	 -78.4561 	 
H 	 -47.9463 	 -49.3507 	 -79.7055 	 
H 	 -53.673 	 -45.6319 	 -81.3325 	 
H 	 -53.4678 	 -53.5827 	 -83.0719 	 
*
