! wB97X-D3 SP def2-SVP
%pal
nprocs 24
end

* xyz 0 1
S 	 -84.3905 	 -13.4635 	 -58.2239 	 
C 	 -83.9211 	 -12.0567 	 -59.1637 	 
C 	 -83.1679 	 -11.0835 	 -58.4153 	 
C 	 -83.0392 	 -11.6135 	 -57.1048 	 
C 	 -83.6158 	 -12.8834 	 -56.8193 	 
H 	 -82.5141 	 -11.1211 	 -56.3052 	 
C 	 -82.3588 	 -10.0097 	 -59.079 	 
H 	 -83.081 	 -9.3827 	 -59.5754 	 
H 	 -81.7446 	 -10.3884 	 -59.9396 	 
C 	 -81.3208 	 -9.19296 	 -58.2933 	 
H 	 -81.8317 	 -8.51856 	 -57.5913 	 
H 	 -80.7493 	 -9.86146 	 -57.625 	 
C 	 -80.4115 	 -8.3354 	 -59.1918 	 
H 	 -79.581 	 -7.90449 	 -58.6658 	 
H 	 -79.8074 	 -8.94931 	 -59.8673 	 
H 	 -81.0143 	 -7.60978 	 -59.7745 	 
S 	 -82.1335 	 -14.6409 	 -55.5134 	 
C 	 -82.6831 	 -15.2084 	 -53.9525 	 
C 	 -83.8571 	 -14.6209 	 -53.5234 	 
C 	 -84.4249 	 -13.735 	 -54.5187 	 
C 	 -83.5187 	 -13.5789 	 -55.5646 	 
H 	 -84.3527 	 -14.9402 	 -52.591 	 
C 	 -85.7249 	 -12.9548 	 -54.4064 	 
H 	 -85.7812 	 -12.3615 	 -55.291 	 
H 	 -85.6371 	 -12.3749 	 -53.5177 	 
C 	 -86.9309 	 -13.8492 	 -54.2985 	 
H 	 -87.7951 	 -13.2495 	 -54.149 	 
H 	 -86.7113 	 -14.4067 	 -53.3798 	 
C 	 -87.2422 	 -14.8758 	 -55.323 	 
H 	 -87.3254 	 -14.2966 	 -56.2164 	 
H 	 -88.0809 	 -15.4612 	 -55.0942 	 
H 	 -86.3646 	 -15.5126 	 -55.4527 	 
H 	 -84.0353 	 -12.097 	 -60.2714 	 
H 	 -82.07 	 -15.8272 	 -53.2544 	 
*
