! wB97X-D3 SP def2-SVP
%pal
nprocs 24
end

* xyz 0 1
S 	 -78.4863 	 -2.65095 	 3.1827 	 
C 	 -78.2969 	 -2.36346 	 1.42161 	 
C 	 -79.1474 	 -3.19907 	 0.768487 	 
C 	 -79.7713 	 -4.15905 	 1.6198 	 
C 	 -79.3194 	 -4.16364 	 2.93035 	 
H 	 -80.4391 	 -4.98304 	 1.30232 	 
C 	 -79.4881 	 -3.07695 	 -0.725164 	 
H 	 -80.1326 	 -2.24976 	 -0.906573 	 
H 	 -80.0504 	 -3.89158 	 -1.13929 	 
C 	 -78.3189 	 -2.9644 	 -1.68789 	 
H 	 -78.6716 	 -2.55794 	 -2.60288 	 
H 	 -77.573 	 -2.283 	 -1.31159 	 
C 	 -77.4452 	 -4.19434 	 -1.67691 	 
H 	 -77.8906 	 -4.82392 	 -2.42317 	 
H 	 -76.3988 	 -4.07339 	 -1.97965 	 
H 	 -77.419 	 -4.64142 	 -0.672194 	 
S 	 -80.6137 	 -4.01916 	 5.29397 	 
C 	 -80.9768 	 -5.49219 	 6.18823 	 
C 	 -80.6818 	 -6.6173 	 5.46901 	 
C 	 -80.0347 	 -6.31122 	 4.23221 	 
C 	 -79.8883 	 -4.92234 	 3.99259 	 
H 	 -80.834 	 -7.5832 	 5.86677 	 
C 	 -79.4922 	 -7.29512 	 3.23804 	 
H 	 -80.2212 	 -7.43139 	 2.50637 	 
H 	 -79.4885 	 -8.24037 	 3.76313 	 
C 	 -78.0457 	 -7.17155 	 2.6973 	 
H 	 -77.5412 	 -6.8675 	 3.58318 	 
H 	 -77.9809 	 -6.32923 	 2.01277 	 
C 	 -77.4616 	 -8.41132 	 2.02893 	 
H 	 -76.4808 	 -8.2416 	 1.62389 	 
H 	 -78.0741 	 -8.78851 	 1.18777 	 
H 	 -77.3662 	 -9.23956 	 2.76436 	 
H 	 -77.835 	 -1.48361 	 1.00952 	 
H 	 -81.6744 	 -5.55244 	 7.07004 	 
*
