! wB97X-D3 SP def2-SVP
%pal
nprocs 24
end

* xyz 0 1
S 	 -100.065 	 0.733005 	 -104.3 	 
C 	 -99.5978 	 1.26029 	 -105.886 	 
C 	 -100.757 	 1.70321 	 -106.585 	 
C 	 -101.937 	 1.28745 	 -105.923 	 
C 	 -101.744 	 0.545017 	 -104.831 	 
H 	 -102.932 	 1.51778 	 -106.286 	 
C 	 -100.757 	 2.39856 	 -107.984 	 
H 	 -101.004 	 1.63231 	 -108.645 	 
H 	 -99.7546 	 2.66319 	 -108.368 	 
C 	 -101.666 	 3.63569 	 -108.11 	 
H 	 -101.872 	 3.88152 	 -109.128 	 
H 	 -102.65 	 3.52471 	 -107.665 	 
C 	 -101.002 	 4.85282 	 -107.363 	 
H 	 -100.169 	 5.2168 	 -107.954 	 
H 	 -101.681 	 5.79099 	 -107.358 	 
H 	 -100.74 	 4.59955 	 -106.311 	 
S 	 -102.049 	 -1.94851 	 -103.784 	 
C 	 -103.724 	 -2.40869 	 -103.212 	 
C 	 -104.603 	 -1.3671 	 -103.3 	 
C 	 -104.017 	 -0.203757 	 -103.879 	 
C 	 -102.667 	 -0.325173 	 -104.16 	 
H 	 -105.634 	 -1.38005 	 -102.973 	 
C 	 -104.763 	 1.02041 	 -104.094 	 
H 	 -104.979 	 1.01059 	 -105.227 	 
H 	 -104.139 	 1.89741 	 -103.88 	 
C 	 -106.075 	 1.23891 	 -103.418 	 
H 	 -105.9 	 1.269 	 -102.314 	 
H 	 -106.9 	 0.52305 	 -103.598 	 
C 	 -106.721 	 2.5068 	 -103.811 	 
H 	 -107.267 	 2.44861 	 -104.793 	 
H 	 -106.116 	 3.40554 	 -103.725 	 
H 	 -107.544 	 2.52759 	 -103.147 	 
H 	 -98.6049 	 1.382 	 -106.259 	 
H 	 -103.97 	 -3.44412 	 -102.981 	 
*
