! wB97X-D3 SP def2-SVP
%pal
nprocs 24
end

* xyz 0 1
S 	 -31.8353 	 14.9344 	 10.0746 	 
C 	 -32.3434 	 13.2847 	 10.347 	 
C 	 -31.2896 	 12.4104 	 10.5042 	 
C 	 -30.0503 	 13.0925 	 10.1509 	 
C 	 -30.2236 	 14.4082 	 9.834 	 
H 	 -29.0689 	 12.6073 	 10.1878 	 
C 	 -31.3468 	 10.9899 	 10.7393 	 
H 	 -30.3254 	 10.543 	 10.6707 	 
H 	 -31.888 	 10.5468 	 9.92821 	 
C 	 -32.012 	 10.5333 	 12.0525 	 
H 	 -31.3281 	 10.6622 	 12.9109 	 
H 	 -32.7896 	 11.1911 	 12.2673 	 
C 	 -32.4588 	 9.02999 	 11.8886 	 
H 	 -32.97 	 8.70665 	 12.8038 	 
H 	 -33.1551 	 8.86418 	 11.0518 	 
H 	 -31.6627 	 8.39448 	 11.6695 	 
S 	 -28.9391 	 15.5417 	 7.77706 	 
C 	 -27.7314 	 16.7733 	 8.07178 	 
C 	 -27.5471 	 16.9663 	 9.415 	 
C 	 -28.3884 	 16.1986 	 10.2349 	 
C 	 -29.1751 	 15.3486 	 9.50156 	 
H 	 -26.74 	 17.5779 	 9.79563 	 
C 	 -28.2345 	 16.3273 	 11.7879 	 
H 	 -27.1783 	 16.4915 	 12.0142 	 
H 	 -28.4725 	 15.3341 	 12.1416 	 
C 	 -29.1701 	 17.313 	 12.5174 	 
H 	 -30.2242 	 16.9963 	 12.4612 	 
H 	 -29.0365 	 18.2581 	 11.9292 	 
C 	 -28.7955 	 17.8608 	 13.9402 	 
H 	 -29.6275 	 18.4104 	 14.4546 	 
H 	 -28.0028 	 18.6431 	 13.9254 	 
H 	 -28.4249 	 17.0498 	 14.5918 	 
H 	 -33.3899 	 12.8952 	 10.3631 	 
H 	 -27.0423 	 17.3452 	 7.42631 	 
*
