! wB97X-D3 SP def2-SVP
%pal
nprocs 24
end

* xyz 0 1
S 	 -52.1648 	 3.33333 	 -23.0953 	 
C 	 -51.8124 	 3.91878 	 -21.4585 	 
C 	 -52.8579 	 3.6877 	 -20.5803 	 
C 	 -53.9392 	 3.10703 	 -21.2838 	 
C 	 -53.8595 	 3.06219 	 -22.6397 	 
H 	 -54.8207 	 2.80131 	 -20.7679 	 
C 	 -52.7958 	 4.00518 	 -19.0968 	 
H 	 -53.6258 	 3.58959 	 -18.5456 	 
H 	 -52.837 	 5.05111 	 -19.1368 	 
C 	 -51.6187 	 3.48935 	 -18.2556 	 
H 	 -51.3802 	 2.47601 	 -18.4736 	 
H 	 -50.6922 	 3.99823 	 -18.3604 	 
C 	 -51.9969 	 3.40351 	 -16.7706 	 
H 	 -52.1517 	 4.36726 	 -16.418 	 
H 	 -52.882 	 2.87036 	 -16.565 	 
H 	 -51.1464 	 2.97138 	 -16.275 	 
S 	 -55.8584 	 3.57228 	 -24.4955 	 
C 	 -56.6542 	 2.19177 	 -25.1216 	 
C 	 -56.1377 	 1.0249 	 -24.6642 	 
C 	 -55.1263 	 1.16188 	 -23.672 	 
C 	 -54.8327 	 2.49966 	 -23.554 	 
H 	 -56.559 	 0.0892719 	 -24.9309 	 
C 	 -54.3443 	 -0.0404318 	 -23.1021 	 
H 	 -54.629 	 -0.0789139 	 -21.999 	 
H 	 -53.2401 	 0.0845238 	 -23.0619 	 
C 	 -54.7549 	 -1.39122 	 -23.7555 	 
H 	 -54.5446 	 -1.39165 	 -24.838 	 
H 	 -55.8206 	 -1.52285 	 -23.6542 	 
C 	 -54.0014 	 -2.59047 	 -23.1931 	 
H 	 -52.9188 	 -2.43936 	 -23.1447 	 
H 	 -54.0659 	 -3.44791 	 -23.9393 	 
H 	 -54.3846 	 -2.90757 	 -22.2437 	 
H 	 -50.8035 	 4.21341 	 -21.1898 	 
H 	 -57.4706 	 2.24878 	 -25.8979 	 
*
