! wB97X-D3 SP def2-SVP
%pal
nprocs 24
end

* xyz 0 1
S 	 -44.8644 	 -4.03481 	 -11.8041 	 
C 	 -46.5679 	 -4.10402 	 -11.3524 	 
C 	 -47.2586 	 -3.09381 	 -12.0157 	 
C 	 -46.3786 	 -2.30513 	 -12.8136 	 
C 	 -45.0041 	 -2.63622 	 -12.7621 	 
H 	 -46.6301 	 -1.46454 	 -13.4193 	 
C 	 -48.6984 	 -2.74589 	 -11.7303 	 
H 	 -48.9458 	 -1.69225 	 -11.8195 	 
H 	 -48.9231 	 -2.84404 	 -10.6573 	 
C 	 -49.6658 	 -3.71272 	 -12.4525 	 
H 	 -49.3966 	 -4.60209 	 -11.8652 	 
H 	 -50.7815 	 -3.49122 	 -12.2377 	 
C 	 -49.513 	 -3.83564 	 -13.9716 	 
H 	 -50.3337 	 -4.36408 	 -14.4824 	 
H 	 -49.5512 	 -2.80097 	 -14.3075 	 
H 	 -48.5178 	 -4.29307 	 -14.3244 	 
S 	 -43.3513 	 -0.480928 	 -12.5277 	 
C 	 -42.0615 	 -0.220481 	 -13.6157 	 
C 	 -41.9512 	 -1.31304 	 -14.4624 	 
C 	 -42.971 	 -2.29619 	 -14.2997 	 
C 	 -43.8355 	 -1.97885 	 -13.2612 	 
H 	 -41.0795 	 -1.29276 	 -15.193 	 
C 	 -43.1108 	 -3.51572 	 -15.2124 	 
H 	 -43.1856 	 -4.52773 	 -14.7048 	 
H 	 -42.2466 	 -3.51831 	 -15.9747 	 
C 	 -44.4125 	 -3.56423 	 -16.0969 	 
H 	 -44.4021 	 -2.73784 	 -16.8271 	 
H 	 -45.3074 	 -3.50814 	 -15.4812 	 
C 	 -44.6308 	 -4.84322 	 -16.9705 	 
H 	 -45.6371 	 -4.85598 	 -17.4756 	 
H 	 -44.6735 	 -5.61292 	 -16.2096 	 
H 	 -43.7406 	 -5.03209 	 -17.6466 	 
H 	 -46.9778 	 -4.73967 	 -10.6134 	 
H 	 -41.273 	 0.491397 	 -13.5707 	 
*
