! wB97X-D3 SP def2-SVP
%pal
nprocs 24
end

* xyz 0 1
S 	 -36.9037 	 3.87469 	 12.5743 	 
C 	 -35.4323 	 3.39474 	 13.4087 	 
C 	 -35.4886 	 2.08583 	 13.8664 	 
C 	 -36.7241 	 1.51181 	 13.5769 	 
C 	 -37.6554 	 2.32863 	 12.9525 	 
H 	 -36.8746 	 0.427373 	 13.7789 	 
C 	 -34.4092 	 1.328 	 14.5849 	 
H 	 -33.6102 	 1.04 	 13.8855 	 
H 	 -34.8646 	 0.349995 	 14.9118 	 
C 	 -33.7438 	 2.0788 	 15.7482 	 
H 	 -32.8676 	 1.52825 	 15.9987 	 
H 	 -33.414 	 3.06593 	 15.3988 	 
C 	 -34.5915 	 2.20407 	 16.9214 	 
H 	 -35.0324 	 1.26496 	 17.2361 	 
H 	 -34.0301 	 2.52796 	 17.7981 	 
H 	 -35.3823 	 2.85358 	 16.7805 	 
S 	 -39.7988 	 0.639204 	 13.4431 	 
C 	 -41.2885 	 0.806317 	 12.5509 	 
C 	 -41.1934 	 1.81976 	 11.6083 	 
C 	 -39.9019 	 2.50615 	 11.631 	 
C 	 -38.9909 	 1.89816 	 12.4948 	 
H 	 -42.0236 	 2.06767 	 10.9661 	 
C 	 -39.7001 	 3.75473 	 10.7246 	 
H 	 -40.2292 	 3.42411 	 9.76534 	 
H 	 -38.6537 	 3.97957 	 10.4678 	 
C 	 -40.514 	 5.00229 	 11.2619 	 
H 	 -40.0462 	 5.35533 	 12.2114 	 
H 	 -41.5132 	 4.65444 	 11.5205 	 
C 	 -40.6801 	 6.15678 	 10.1875 	 
H 	 -40.876 	 7.09622 	 10.5877 	 
H 	 -41.5183 	 5.84752 	 9.52221 	 
H 	 -39.7427 	 6.39772 	 9.5579 	 
H 	 -34.693 	 4.07737 	 13.8123 	 
H 	 -42.182 	 0.24518 	 12.6212 	 
*
