! wB97X-D3 SP def2-SVP
%pal
nprocs 24
end

* xyz 0 1
S 	 6.81376 	 -14.9102 	 -109.633 	 
C 	 5.87804 	 -15.541 	 -111.01 	 
C 	 4.52549 	 -15.6515 	 -110.769 	 
C 	 4.20076 	 -15.2602 	 -109.41 	 
C 	 5.34084 	 -14.955 	 -108.688 	 
H 	 3.27927 	 -15.2386 	 -108.925 	 
C 	 3.47487 	 -16.1191 	 -111.728 	 
H 	 2.89166 	 -15.2571 	 -112.031 	 
H 	 2.82353 	 -16.8123 	 -111.135 	 
C 	 3.93931 	 -16.7119 	 -113.07 	 
H 	 4.39659 	 -16.0106 	 -113.703 	 
H 	 4.58278 	 -17.5106 	 -112.89 	 
C 	 2.80811 	 -17.2464 	 -113.906 	 
H 	 3.19977 	 -17.676 	 -114.769 	 
H 	 2.16761 	 -17.9758 	 -113.381 	 
H 	 2.1186 	 -16.4956 	 -114.243 	 
S 	 6.46325 	 -15.543 	 -106.268 	 
C 	 6.09516 	 -14.4682 	 -104.926 	 
C 	 4.92279 	 -13.8502 	 -105.101 	 
C 	 4.43563 	 -13.8673 	 -106.45 	 
C 	 5.29328 	 -14.6532 	 -107.262 	 
H 	 4.51478 	 -13.1601 	 -104.388 	 
C 	 3.08985 	 -13.1912 	 -106.828 	 
H 	 2.85851 	 -13.558 	 -107.844 	 
H 	 3.30109 	 -12.1119 	 -106.992 	 
C 	 1.91262 	 -13.2336 	 -105.871 	 
H 	 1.21034 	 -12.5036 	 -106.136 	 
H 	 2.21311 	 -12.8675 	 -104.938 	 
C 	 1.38521 	 -14.667 	 -105.784 	 
H 	 1.04714 	 -14.9777 	 -106.69 	 
H 	 0.688476 	 -14.9141 	 -104.943 	 
H 	 2.33195 	 -15.206 	 -105.585 	 
H 	 6.2321 	 -15.6772 	 -111.992 	 
H 	 6.64747 	 -14.5075 	 -103.963 	 
*
