! wB97X-D3 SP def2-SVP
%pal
nprocs 24
end

* xyz 0 1
S 	 -3.37891 	 -25.4227 	 -109.98 	 
C 	 -3.35593 	 -23.7906 	 -110.686 	 
C 	 -2.72622 	 -22.8838 	 -109.819 	 
C 	 -2.36551 	 -23.4699 	 -108.59 	 
C 	 -2.75859 	 -24.7643 	 -108.474 	 
H 	 -1.93272 	 -23.0532 	 -107.671 	 
C 	 -2.22577 	 -21.5141 	 -110.281 	 
H 	 -2.33637 	 -21.3036 	 -111.391 	 
H 	 -1.19303 	 -21.5044 	 -110.113 	 
C 	 -2.84082 	 -20.1995 	 -109.587 	 
H 	 -2.70978 	 -20.397 	 -108.498 	 
H 	 -2.28928 	 -19.3408 	 -109.84 	 
C 	 -4.33112 	 -20.045 	 -109.964 	 
H 	 -4.85141 	 -20.8569 	 -109.298 	 
H 	 -4.46214 	 -19.0224 	 -109.741 	 
H 	 -4.59073 	 -20.2264 	 -111.056 	 
S 	 -1.17104 	 -26.4288 	 -106.938 	 
C 	 -1.69264 	 -27.0091 	 -105.403 	 
C 	 -3.01095 	 -26.6208 	 -105.171 	 
C 	 -3.52556 	 -25.6696 	 -106.133 	 
C 	 -2.63829 	 -25.5148 	 -107.205 	 
H 	 -3.55421 	 -27.092 	 -104.357 	 
C 	 -4.92519 	 -25.0845 	 -106.123 	 
H 	 -4.89444 	 -24.1627 	 -106.689 	 
H 	 -5.12171 	 -24.8418 	 -105.066 	 
C 	 -6.16039 	 -25.8074 	 -106.918 	 
H 	 -5.80925 	 -26.0982 	 -107.959 	 
H 	 -7.00285 	 -25.145 	 -107.132 	 
C 	 -6.51326 	 -27.0885 	 -106.13 	 
H 	 -6.93349 	 -26.8382 	 -105.113 	 
H 	 -5.70008 	 -27.8493 	 -106.125 	 
H 	 -7.36512 	 -27.5079 	 -106.651 	 
H 	 -3.69844 	 -23.488 	 -111.668 	 
H 	 -1.41425 	 -27.9118 	 -104.978 	 
*
