! wB97X-D3 SP def2-SVP
%pal
nprocs 24
end

* xyz 0 1
S 	 -61.9727 	 7.56168 	 -76.1667 	 
C 	 -62.5851 	 8.8797 	 -75.2052 	 
C 	 -63.5505 	 9.67616 	 -75.9036 	 
C 	 -63.8866 	 9.03837 	 -77.1677 	 
C 	 -63.2023 	 7.82777 	 -77.3796 	 
H 	 -64.5167 	 9.43567 	 -77.9929 	 
C 	 -64.2013 	 10.9097 	 -75.4162 	 
H 	 -63.8136 	 10.9704 	 -74.3521 	 
H 	 -65.3042 	 10.7168 	 -75.346 	 
C 	 -63.7863 	 12.2502 	 -76.0396 	 
H 	 -64.4134 	 13.0313 	 -75.588 	 
H 	 -62.7191 	 12.3823 	 -75.8128 	 
C 	 -63.9792 	 12.3073 	 -77.5228 	 
H 	 -63.6805 	 13.3278 	 -77.898 	 
H 	 -63.4505 	 11.6124 	 -78.1972 	 
H 	 -65.0047 	 12.2683 	 -77.8334 	 
S 	 -61.9681 	 6.08872 	 -79.0273 	 
C 	 -62.8537 	 5.04699 	 -80.152 	 
C 	 -64.1628 	 5.41335 	 -80.1423 	 
C 	 -64.4997 	 6.36137 	 -79.1635 	 
C 	 -63.4221 	 6.89439 	 -78.5072 	 
H 	 -64.8258 	 5.00094 	 -80.8485 	 
C 	 -66.0041 	 6.72336 	 -78.9794 	 
H 	 -66.4843 	 6.42777 	 -79.9994 	 
H 	 -66.0833 	 7.83834 	 -78.952 	 
C 	 -66.54 	 6.06235 	 -77.7183 	 
H 	 -67.616 	 6.29421 	 -77.5621 	 
H 	 -65.9362 	 6.38817 	 -76.8892 	 
C 	 -66.5114 	 4.50012 	 -77.8673 	 
H 	 -65.4357 	 4.20541 	 -77.9658 	 
H 	 -67.1259 	 4.23437 	 -78.7082 	 
H 	 -66.84 	 4.01742 	 -76.9532 	 
H 	 -62.1724 	 9.10581 	 -74.2549 	 
H 	 -62.4436 	 4.44405 	 -80.9403 	 
*
