! wB97X-D3 SP def2-SVP
%pal
nprocs 24
end

* xyz 0 1
S 	 35.9035 	 -25.8571 	 -113.097 	 
C 	 37.5784 	 -26.3423 	 -112.824 	 
C 	 38.4741 	 -25.4097 	 -113.252 	 
C 	 37.7886 	 -24.2279 	 -113.714 	 
C 	 36.4381 	 -24.2677 	 -113.495 	 
H 	 38.1707 	 -23.2208 	 -114.015 	 
C 	 39.9711 	 -25.4264 	 -113.169 	 
H 	 40.3898 	 -24.9006 	 -114.072 	 
H 	 40.2928 	 -26.5051 	 -113.254 	 
C 	 40.5757 	 -24.6191 	 -112.003 	 
H 	 41.6538 	 -24.7544 	 -111.98 	 
H 	 40.3164 	 -23.5592 	 -112.18 	 
C 	 40.16 	 -25.0423 	 -110.654 	 
H 	 40.1735 	 -26.1291 	 -110.607 	 
H 	 40.7963 	 -24.6321 	 -109.791 	 
H 	 39.1091 	 -24.7714 	 -110.431 	 
S 	 33.9507 	 -23.291 	 -114.413 	 
C 	 33.529 	 -21.6217 	 -114.018 	 
C 	 34.5522 	 -20.9475 	 -113.435 	 
C 	 35.7135 	 -21.7797 	 -113.212 	 
C 	 35.5023 	 -23.1143 	 -113.612 	 
H 	 34.3547 	 -19.8967 	 -113.097 	 
C 	 36.8647 	 -21.2024 	 -112.369 	 
H 	 37.3817 	 -22.0257 	 -111.865 	 
H 	 36.3442 	 -20.6666 	 -111.582 	 
C 	 37.8238 	 -20.2944 	 -113.191 	 
H 	 38.2903 	 -20.9043 	 -114.054 	 
H 	 38.5346 	 -20.0199 	 -112.528 	 
C 	 37.0996 	 -19.0457 	 -113.764 	 
H 	 36.2569 	 -19.3826 	 -114.414 	 
H 	 37.8892 	 -18.5107 	 -114.308 	 
H 	 36.7011 	 -18.4245 	 -112.985 	 
H 	 37.8198 	 -27.2884 	 -112.352 	 
H 	 32.5295 	 -21.1266 	 -114.097 	 
*
