! wB97X-D3 SP def2-SVP
%pal
nprocs 24
end

* xyz 0 1
S 	 -121.223 	 62.0277 	 -38.6214 	 
C 	 -122.406 	 63.3101 	 -38.5566 	 
C 	 -122.244 	 64.014 	 -37.3782 	 
C 	 -121.254 	 63.4 	 -36.5138 	 
C 	 -120.5 	 62.4344 	 -37.1993 	 
H 	 -120.917 	 63.7619 	 -35.5883 	 
C 	 -123.06 	 65.2678 	 -37.0154 	 
H 	 -124.032 	 64.8593 	 -36.6994 	 
H 	 -123.056 	 65.8461 	 -37.9123 	 
C 	 -122.525 	 66.1593 	 -35.7936 	 
H 	 -123.375 	 66.7724 	 -35.454 	 
H 	 -122.295 	 65.5153 	 -34.9085 	 
C 	 -121.363 	 67.0523 	 -36.1429 	 
H 	 -120.499 	 66.4455 	 -36.3931 	 
H 	 -121.484 	 67.6028 	 -37.0615 	 
H 	 -121.109 	 67.7751 	 -35.319 	 
S 	 -118.058 	 61.4265 	 -37.9579 	 
C 	 -117.087 	 60.7526 	 -36.7016 	 
C 	 -117.543 	 60.9576 	 -35.4304 	 
C 	 -118.939 	 61.2935 	 -35.4017 	 
C 	 -119.315 	 61.7104 	 -36.7055 	 
H 	 -116.917 	 60.7524 	 -34.5478 	 
C 	 -119.763 	 61.378 	 -34.1616 	 
H 	 -119.9 	 60.374 	 -33.7233 	 
H 	 -120.754 	 61.7361 	 -34.3995 	 
C 	 -119.203 	 62.3496 	 -33.0218 	 
H 	 -119.198 	 63.4171 	 -33.3418 	 
H 	 -118.133 	 62.1455 	 -32.7505 	 
C 	 -120.009 	 62.3187 	 -31.767 	 
H 	 -119.599 	 63.0667 	 -31.1706 	 
H 	 -119.886 	 61.3785 	 -31.3106 	 
H 	 -121.099 	 62.3752 	 -31.8889 	 
H 	 -123.12 	 63.5564 	 -39.318 	 
H 	 -115.975 	 60.608 	 -36.8432 	 
*
