! wB97X-D3 SP def2-SVP
%pal
nprocs 24
end

* xyz 0 1
S 	 -118.569 	 21.6516 	 -111.649 	 
C 	 -119.346 	 22.2933 	 -113.101 	 
C 	 -120.108 	 21.4065 	 -113.787 	 
C 	 -120.272 	 20.1705 	 -113.038 	 
C 	 -119.595 	 20.1851 	 -111.828 	 
H 	 -120.951 	 19.4248 	 -113.361 	 
C 	 -120.623 	 21.6019 	 -115.183 	 
H 	 -119.674 	 21.5215 	 -115.799 	 
H 	 -120.838 	 22.6396 	 -115.293 	 
C 	 -121.701 	 20.7063 	 -115.808 	 
H 	 -121.225 	 19.7447 	 -115.932 	 
H 	 -122.532 	 20.525 	 -115.148 	 
C 	 -122.128 	 21.0534 	 -117.216 	 
H 	 -122.709 	 21.9885 	 -117.223 	 
H 	 -121.233 	 21.1651 	 -117.834 	 
H 	 -122.845 	 20.3085 	 -117.681 	 
S 	 -117.764 	 18.863 	 -110.256 	 
C 	 -118.117 	 17.5947 	 -109.159 	 
C 	 -119.396 	 17.1063 	 -109.447 	 
C 	 -120.131 	 17.8868 	 -110.452 	 
C 	 -119.388 	 18.9978 	 -110.933 	 
H 	 -119.791 	 16.3159 	 -108.857 	 
C 	 -121.528 	 17.5511 	 -110.914 	 
H 	 -121.928 	 18.4611 	 -111.436 	 
H 	 -122.148 	 17.5636 	 -109.957 	 
C 	 -121.739 	 16.3034 	 -111.823 	 
H 	 -121.482 	 15.3248 	 -111.373 	 
H 	 -121.062 	 16.3708 	 -112.688 	 
C 	 -123.159 	 16.0408 	 -112.308 	 
H 	 -123.853 	 15.9123 	 -111.504 	 
H 	 -123.09 	 15.1179 	 -112.831 	 
H 	 -123.459 	 16.751 	 -113.085 	 
H 	 -119.074 	 23.2313 	 -113.599 	 
H 	 -117.404 	 17.1779 	 -108.492 	 
*
