! wB97X-D3 SP def2-SVP
%pal
nprocs 24
end

* xyz 0 1
S 	 -65.2527 	 -59.0299 	 -83.4219 	 
C 	 -65.3004 	 -60.6345 	 -82.6517 	 
C 	 -64.2612 	 -60.8652 	 -81.8385 	 
C 	 -63.4026 	 -59.7333 	 -81.7259 	 
C 	 -63.8239 	 -58.6529 	 -82.438 	 
H 	 -62.6481 	 -59.6356 	 -81.0046 	 
C 	 -63.958 	 -62.0796 	 -81.0098 	 
H 	 -63.2591 	 -61.8082 	 -80.2174 	 
H 	 -63.4005 	 -62.7621 	 -81.6768 	 
C 	 -65.1816 	 -62.7767 	 -80.4571 	 
H 	 -65.9044 	 -63.088 	 -81.18 	 
H 	 -64.7422 	 -63.6171 	 -79.9095 	 
C 	 -66.0876 	 -61.8594 	 -79.5653 	 
H 	 -66.5858 	 -61.1097 	 -80.2228 	 
H 	 -66.9901 	 -62.3144 	 -79.1108 	 
H 	 -65.5325 	 -61.2319 	 -78.8529 	 
S 	 -62.2422 	 -56.8174 	 -83.5956 	 
C 	 -62.1138 	 -55.2013 	 -83.0214 	 
C 	 -62.7016 	 -55.0782 	 -81.8079 	 
C 	 -63.3093 	 -56.3625 	 -81.3895 	 
C 	 -63.2038 	 -57.342 	 -82.3577 	 
H 	 -62.5978 	 -54.1864 	 -81.1697 	 
C 	 -64.0636 	 -56.5096 	 -80.1341 	 
H 	 -63.6972 	 -55.9076 	 -79.4065 	 
H 	 -64.0413 	 -57.4492 	 -79.5686 	 
C 	 -65.6157 	 -56.3065 	 -80.2003 	 
H 	 -66.0743 	 -57.223 	 -80.7126 	 
H 	 -65.8101 	 -55.3622 	 -80.7918 	 
C 	 -66.3003 	 -56.2485 	 -78.8233 	 
H 	 -65.9862 	 -57.1513 	 -78.2697 	 
H 	 -67.3576 	 -56.1201 	 -78.7966 	 
H 	 -65.9963 	 -55.4347 	 -78.2568 	 
H 	 -66.1095 	 -61.3456 	 -82.7616 	 
H 	 -61.3131 	 -54.5171 	 -83.1769 	 
*
