! wB97X-D3 SP def2-SVP
%pal
nprocs 24
end

* xyz 0 1
S 	 -132.898 	 29.0229 	 -11.3146 	 
C 	 -132.47 	 27.4362 	 -10.7943 	 
C 	 -131.902 	 26.7523 	 -11.8528 	 
C 	 -131.626 	 27.5781 	 -13.0179 	 
C 	 -132.102 	 28.8559 	 -12.8834 	 
H 	 -131.1 	 27.2933 	 -13.8844 	 
C 	 -131.476 	 25.2787 	 -11.8141 	 
H 	 -131.823 	 24.7792 	 -12.7496 	 
H 	 -132.093 	 24.9442 	 -10.9343 	 
C 	 -130.083 	 24.9169 	 -11.5262 	 
H 	 -130.11 	 23.8351 	 -11.4854 	 
H 	 -129.294 	 25.1363 	 -12.278 	 
C 	 -129.453 	 25.3236 	 -10.2044 	 
H 	 -128.392 	 25.1955 	 -10.2486 	 
H 	 -129.827 	 26.3471 	 -9.8864 	 
H 	 -129.686 	 24.7552 	 -9.28115 	 
S 	 -131.187 	 31.4768 	 -13.0244 	 
C 	 -130.947 	 32.1965 	 -14.5643 	 
C 	 -131.362 	 31.3732 	 -15.5956 	 
C 	 -131.772 	 30.0331 	 -15.1801 	 
C 	 -131.737 	 29.9599 	 -13.775 	 
H 	 -131.387 	 31.7802 	 -16.5786 	 
C 	 -132.311 	 28.9249 	 -16.0602 	 
H 	 -132.717 	 29.3794 	 -16.9411 	 
H 	 -133.142 	 28.3965 	 -15.4838 	 
C 	 -131.189 	 28.0024 	 -16.6044 	 
H 	 -130.377 	 27.9134 	 -15.8211 	 
H 	 -130.716 	 28.5434 	 -17.4874 	 
C 	 -131.697 	 26.5953 	 -17.0979 	 
H 	 -132.427 	 26.6003 	 -17.9203 	 
H 	 -132.07 	 26.1117 	 -16.1884 	 
H 	 -130.813 	 26.0104 	 -17.3868 	 
H 	 -132.748 	 26.8982 	 -9.9322 	 
H 	 -130.72 	 33.2428 	 -14.8375 	 
*
