! wB97X-D3 SP def2-SVP
%pal
nprocs 24
end

* xyz 0 1
S 	 -81.9856 	 -37.0179 	 -77.6192 	 
C 	 -82.9198 	 -38.4056 	 -78.0517 	 
C 	 -84.1301 	 -38.0982 	 -78.556 	 
C 	 -84.4615 	 -36.7099 	 -78.4347 	 
C 	 -83.4429 	 -36.0308 	 -77.8103 	 
H 	 -85.3872 	 -36.199 	 -78.6236 	 
C 	 -85.1609 	 -39.0424 	 -79.147 	 
H 	 -86.1169 	 -38.6472 	 -78.8065 	 
H 	 -84.9271 	 -40.0044 	 -78.5809 	 
C 	 -85.1819 	 -39.201 	 -80.7225 	 
H 	 -85.9437 	 -39.9793 	 -81.0264 	 
H 	 -85.3809 	 -38.2798 	 -81.2481 	 
C 	 -83.9166 	 -39.8719 	 -81.2593 	 
H 	 -83.8696 	 -40.815 	 -80.7104 	 
H 	 -83.8213 	 -40.1404 	 -82.3352 	 
H 	 -83.0233 	 -39.4433 	 -80.9289 	 
S 	 -83.8773 	 -34.1149 	 -75.9636 	 
C 	 -83.6304 	 -32.4462 	 -76.4498 	 
C 	 -83.043 	 -32.2736 	 -77.6757 	 
C 	 -82.975 	 -33.5322 	 -78.3807 	 
C 	 -83.3689 	 -34.5797 	 -77.5868 	 
H 	 -82.8094 	 -31.2872 	 -78.0747 	 
C 	 -82.2971 	 -33.6765 	 -79.7158 	 
H 	 -82.499 	 -32.7054 	 -80.2313 	 
H 	 -82.7141 	 -34.4915 	 -80.2128 	 
C 	 -80.7544 	 -33.9442 	 -79.6889 	 
H 	 -80.7018 	 -35.0079 	 -79.3492 	 
H 	 -80.253 	 -33.3969 	 -78.8482 	 
C 	 -79.9414 	 -33.7311 	 -80.9434 	 
H 	 -79.977 	 -32.7072 	 -81.2878 	 
H 	 -80.2936 	 -34.3859 	 -81.7569 	 
H 	 -78.9156 	 -33.9367 	 -80.7865 	 
H 	 -82.6374 	 -39.4383 	 -78.1834 	 
H 	 -83.8879 	 -31.6596 	 -75.7244 	 
*
