! wB97X-D3 SP def2-SVP
%pal
nprocs 24
end

* xyz 0 1
S 	 39.3401 	 -19.2941 	 -111.159 	 
C 	 37.9015 	 -19.6179 	 -112.101 	 
C 	 36.8622 	 -20.0523 	 -111.269 	 
C 	 37.2216 	 -20.1623 	 -109.93 	 
C 	 38.5226 	 -19.7569 	 -109.673 	 
H 	 36.6278 	 -20.5693 	 -109.167 	 
C 	 35.442 	 -20.476 	 -111.663 	 
H 	 35.2444 	 -19.9491 	 -112.563 	 
H 	 34.7686 	 -19.9604 	 -110.949 	 
C 	 35.143 	 -21.9828 	 -111.852 	 
H 	 35.9861 	 -22.3211 	 -112.453 	 
H 	 35.3501 	 -22.6912 	 -110.974 	 
C 	 33.742 	 -22.4767 	 -112.304 	 
H 	 33.4494 	 -22.2464 	 -113.352 	 
H 	 33.6173 	 -23.5012 	 -112.154 	 
H 	 32.9851 	 -22.0539 	 -111.62 	 
S 	 40.1444 	 -18.0818 	 -108.315 	 
C 	 40.5266 	 -18.3044 	 -106.62 	 
C 	 39.9425 	 -19.429 	 -106.161 	 
C 	 39.2095 	 -20.1463 	 -107.163 	 
C 	 39.1057 	 -19.498 	 -108.394 	 
H 	 40.1465 	 -19.7502 	 -105.15 	 
C 	 38.6807 	 -21.595 	 -106.995 	 
H 	 38.1637 	 -21.9215 	 -107.899 	 
H 	 38.0228 	 -21.5263 	 -106.142 	 
C 	 39.7943 	 -22.6943 	 -106.794 	 
H 	 40.4813 	 -22.4143 	 -105.948 	 
H 	 40.4358 	 -22.6001 	 -107.767 	 
C 	 39.3013 	 -24.1803 	 -106.771 	 
H 	 38.6102 	 -24.4278 	 -106.045 	 
H 	 40.1615 	 -24.8838 	 -106.804 	 
H 	 38.8734 	 -24.471 	 -107.752 	 
H 	 37.8696 	 -19.5163 	 -113.181 	 
H 	 41.0898 	 -17.5151 	 -105.958 	 
*
