! wB97X-D3 SP def2-SVP
%pal
nprocs 24
end

* xyz 0 1
S 	 -45.9314 	 11.0438 	 27.5526 	 
C 	 -45.8133 	 12.4341 	 28.6789 	 
C 	 -47.0745 	 12.9082 	 29.032 	 
C 	 -48.1206 	 12.1062 	 28.4366 	 
C 	 -47.7041 	 11.1806 	 27.5044 	 
H 	 -49.2073 	 12.1568 	 28.5316 	 
C 	 -47.1465 	 14.1508 	 29.818 	 
H 	 -46.3427 	 14.2495 	 30.549 	 
H 	 -48.0222 	 14.0912 	 30.4817 	 
C 	 -47.3448 	 15.4858 	 29.0777 	 
H 	 -48.1732 	 15.304 	 28.3693 	 
H 	 -47.5512 	 16.1675 	 29.8889 	 
C 	 -46.0747 	 15.9448 	 28.3824 	 
H 	 -46.1907 	 16.9076 	 27.8105 	 
H 	 -45.2336 	 16.1816 	 29.0014 	 
H 	 -45.6544 	 15.2386 	 27.6282 	 
S 	 -48.5569 	 8.58171 	 27.599 	 
C 	 -49.9065 	 8.08365 	 26.635 	 
C 	 -50.3938 	 9.10991 	 25.8723 	 
C 	 -49.7285 	 10.3674 	 26.103 	 
C 	 -48.5905 	 10.1783 	 26.9218 	 
H 	 -51.2648 	 8.9048 	 25.2828 	 
C 	 -50.188 	 11.6972 	 25.5643 	 
H 	 -49.8672 	 11.8916 	 24.5366 	 
H 	 -49.781 	 12.6028 	 26.0898 	 
C 	 -51.6761 	 12.1124 	 25.6466 	 
H 	 -52.3534 	 11.4075 	 25.1236 	 
H 	 -51.7111 	 13.0964 	 25.1799 	 
C 	 -52.2238 	 12.1869 	 27.0606 	 
H 	 -53.2852 	 12.5996 	 26.9861 	 
H 	 -51.6323 	 12.8401 	 27.6442 	 
H 	 -52.4018 	 11.1678 	 27.556 	 
H 	 -44.8406 	 12.815 	 29.0349 	 
H 	 -50.3026 	 7.11427 	 26.6969 	 
*
