! wB97X-D3 SP def2-SVP
%pal
nprocs 24
end

* xyz 0 1
S 	 -89.7549 	 -3.77764 	 -121.327 	 
C 	 -89.6242 	 -5.4715 	 -121.299 	 
C 	 -90.5987 	 -6.06475 	 -120.52 	 
C 	 -91.4768 	 -5.12291 	 -119.892 	 
C 	 -91.1072 	 -3.8348 	 -120.153 	 
H 	 -92.1868 	 -5.35215 	 -119.106 	 
C 	 -90.6539 	 -7.52004 	 -120.239 	 
H 	 -91.6919 	 -7.77119 	 -120.283 	 
H 	 -90.3053 	 -7.51182 	 -119.253 	 
C 	 -89.7942 	 -8.48953 	 -121.099 	 
H 	 -89.9882 	 -8.43643 	 -122.15 	 
H 	 -88.7239 	 -8.19597 	 -121.01 	 
C 	 -89.8944 	 -9.98384 	 -120.723 	 
H 	 -90.9057 	 -10.4813 	 -120.885 	 
H 	 -89.0816 	 -10.5737 	 -121.178 	 
H 	 -89.7455 	 -10.131 	 -119.635 	 
S 	 -90.8221 	 -2.36015 	 -117.895 	 
C 	 -91.8001 	 -0.994541 	 -117.586 	 
C 	 -92.5598 	 -0.655571 	 -118.686 	 
C 	 -92.4361 	 -1.60138 	 -119.722 	 
C 	 -91.5995 	 -2.67019 	 -119.431 	 
H 	 -93.0307 	 0.269422 	 -118.759 	 
C 	 -93.2451 	 -1.43113 	 -120.993 	 
H 	 -92.628 	 -1.38452 	 -121.882 	 
H 	 -93.6574 	 -0.461013 	 -120.904 	 
C 	 -94.4103 	 -2.50319 	 -121.19 	 
H 	 -94.8511 	 -2.8977 	 -120.273 	 
H 	 -93.8877 	 -3.33201 	 -121.644 	 
C 	 -95.3729 	 -1.96578 	 -122.253 	 
H 	 -96.2435 	 -2.51002 	 -122.378 	 
H 	 -94.8319 	 -1.92674 	 -123.244 	 
H 	 -95.7183 	 -0.986325 	 -122.003 	 
H 	 -88.8346 	 -6.02584 	 -121.778 	 
H 	 -91.675 	 -0.394905 	 -116.72 	 
*
