! wB97X-D3 SP def2-SVP
%pal
nprocs 24
end

* xyz 0 1
S 	 -115.028 	 22.6319 	 -114.215 	 
C 	 -116.636 	 21.9827 	 -114.482 	 
C 	 -117.516 	 22.321 	 -113.499 	 
C 	 -116.872 	 23.0615 	 -112.446 	 
C 	 -115.555 	 23.4103 	 -112.708 	 
H 	 -117.246 	 23.5208 	 -111.559 	 
C 	 -119.072 	 22.106 	 -113.541 	 
H 	 -119.449 	 22.1999 	 -114.601 	 
H 	 -119.609 	 22.9561 	 -113.118 	 
C 	 -119.637 	 20.8828 	 -112.709 	 
H 	 -119.014 	 19.9873 	 -112.683 	 
H 	 -119.737 	 21.168 	 -111.645 	 
C 	 -121.031 	 20.5795 	 -113.227 	 
H 	 -121.824 	 21.2982 	 -113.035 	 
H 	 -121.064 	 20.3814 	 -114.343 	 
H 	 -121.509 	 19.7356 	 -112.606 	 
S 	 -113.797 	 25.5006 	 -112.832 	 
C 	 -112.947 	 25.9579 	 -111.361 	 
C 	 -113.497 	 25.3662 	 -110.248 	 
C 	 -114.328 	 24.2434 	 -110.599 	 
C 	 -114.648 	 24.2446 	 -111.974 	 
H 	 -113.041 	 25.5724 	 -109.238 	 
C 	 -114.836 	 23.3277 	 -109.561 	 
H 	 -115.843 	 23.083 	 -109.682 	 
H 	 -114.652 	 23.8203 	 -108.65 	 
C 	 -114.015 	 22.0364 	 -109.389 	 
H 	 -114.24 	 21.4493 	 -108.535 	 
H 	 -113.007 	 22.3607 	 -109.031 	 
C 	 -113.98 	 21.0682 	 -110.547 	 
H 	 -114.973 	 20.5685 	 -110.736 	 
H 	 -113.253 	 20.2474 	 -110.492 	 
H 	 -113.638 	 21.6856 	 -111.398 	 
H 	 -117.022 	 21.3985 	 -115.37 	 
H 	 -112.318 	 26.9104 	 -111.393 	 
*
