! wB97X-D3 SP def2-SVP
%pal
nprocs 24
end

* xyz 0 1
S 	 -106.315 	 56.8922 	 -15.8111 	 
C 	 -106.37 	 58.0056 	 -14.4367 	 
C 	 -105.774 	 59.1901 	 -14.7454 	 
C 	 -105.194 	 59.2091 	 -16.0671 	 
C 	 -105.323 	 58.0214 	 -16.771 	 
H 	 -104.594 	 59.9504 	 -16.5435 	 
C 	 -105.736 	 60.4745 	 -13.8621 	 
H 	 -105.626 	 61.2614 	 -14.5524 	 
H 	 -104.905 	 60.24 	 -13.2173 	 
C 	 -106.929 	 60.7693 	 -12.9072 	 
H 	 -107.31 	 59.9135 	 -12.3397 	 
H 	 -106.639 	 61.5113 	 -12.2112 	 
C 	 -108.108 	 61.2963 	 -13.6344 	 
H 	 -108.962 	 61.5447 	 -12.9087 	 
H 	 -107.827 	 62.2078 	 -14.0782 	 
H 	 -108.376 	 60.6664 	 -14.4124 	 
S 	 -106.394 	 57.2858 	 -19.0987 	 
C 	 -105.382 	 57.3991 	 -20.5315 	 
C 	 -104.073 	 57.7862 	 -20.2948 	 
C 	 -103.808 	 58.0239 	 -18.8852 	 
C 	 -104.998 	 57.8145 	 -18.1591 	 
H 	 -103.26 	 57.812 	 -21.0221 	 
C 	 -102.451 	 58.3363 	 -18.327 	 
H 	 -101.718 	 57.9468 	 -19.0786 	 
H 	 -102.308 	 57.7507 	 -17.4309 	 
C 	 -101.992 	 59.759 	 -18.0718 	 
H 	 -102.681 	 60.2776 	 -17.4085 	 
H 	 -102.07 	 60.2227 	 -19.0703 	 
C 	 -100.601 	 59.7465 	 -17.3824 	 
H 	 -99.8533 	 59.4406 	 -18.0691 	 
H 	 -100.691 	 59.1415 	 -16.411 	 
H 	 -100.525 	 60.7956 	 -17.0033 	 
H 	 -106.807 	 57.7971 	 -13.4725 	 
H 	 -105.599 	 57.0883 	 -21.53 	 
*
