! wB97X-D3 SP def2-SVP
%pal
nprocs 24
end

* xyz 0 1
S 	 -56.395 	 13.9236 	 -90.2848 	 
C 	 -56.1562 	 12.5344 	 -89.258 	 
C 	 -56.8533 	 12.7076 	 -88.0556 	 
C 	 -57.5659 	 13.9688 	 -87.9968 	 
C 	 -57.3898 	 14.7821 	 -89.1357 	 
H 	 -58.0938 	 14.342 	 -87.0909 	 
C 	 -56.8566 	 11.7106 	 -86.8886 	 
H 	 -57.4578 	 12.2603 	 -86.1034 	 
H 	 -55.9042 	 11.6146 	 -86.4355 	 
C 	 -57.4296 	 10.2853 	 -87.2264 	 
H 	 -58.4982 	 10.3212 	 -87.3434 	 
H 	 -56.9165 	 9.88146 	 -88.1352 	 
C 	 -57.038 	 9.33219 	 -86.1183 	 
H 	 -57.3763 	 9.69554 	 -85.1992 	 
H 	 -57.3726 	 8.31156 	 -86.3725 	 
H 	 -55.9069 	 9.20036 	 -86.0619 	 
S 	 -59.6356 	 16.3238 	 -89.2336 	 
C 	 -59.514 	 18.0317 	 -89.4362 	 
C 	 -58.2705 	 18.4158 	 -89.7435 	 
C 	 -57.3071 	 17.3359 	 -89.6311 	 
C 	 -57.8805 	 16.1186 	 -89.2556 	 
H 	 -58.0937 	 19.3635 	 -90.1447 	 
C 	 -55.783 	 17.6385 	 -89.8222 	 
H 	 -55.6357 	 18.6423 	 -89.9091 	 
H 	 -55.3749 	 17.0635 	 -90.5997 	 
C 	 -54.9164 	 17.2664 	 -88.6179 	 
H 	 -54.8419 	 16.1931 	 -88.3679 	 
H 	 -55.2824 	 17.8619 	 -87.7725 	 
C 	 -53.4312 	 17.8571 	 -88.7513 	 
H 	 -53.0603 	 17.4699 	 -89.6821 	 
H 	 -52.8513 	 17.4275 	 -87.9199 	 
H 	 -53.4613 	 18.9359 	 -88.8281 	 
H 	 -55.5378 	 11.6321 	 -89.4607 	 
H 	 -60.214 	 18.7448 	 -89.0343 	 
*
