! wB97X-D3 SP def2-SVP
%pal
nprocs 24
end

* xyz 0 1
S 	 -95.7498 	 5.22432 	 -3.98117 	 
C 	 -95.0055 	 6.77525 	 -4.36444 	 
C 	 -95.7766 	 7.42613 	 -5.33857 	 
C 	 -97.1325 	 6.98325 	 -5.23397 	 
C 	 -97.2894 	 5.86934 	 -4.40885 	 
H 	 -97.999 	 7.45818 	 -5.67287 	 
C 	 -95.316 	 8.70073 	 -5.96565 	 
H 	 -95.8974 	 8.9304 	 -6.78266 	 
H 	 -94.2646 	 8.43153 	 -6.24393 	 
C 	 -95.3196 	 9.91399 	 -5.04882 	 
H 	 -95.1223 	 9.73956 	 -3.97229 	 
H 	 -94.4502 	 10.6133 	 -5.25005 	 
C 	 -96.5775 	 10.8095 	 -5.18339 	 
H 	 -96.2697 	 11.6862 	 -5.78432 	 
H 	 -97.469 	 10.3255 	 -5.57229 	 
H 	 -96.8119 	 11.1516 	 -4.16624 	 
S 	 -98.4201 	 3.36345 	 -4.50456 	 
C 	 -100.142 	 3.19647 	 -4.17683 	 
C 	 -100.736 	 4.41959 	 -3.96437 	 
C 	 -99.8233 	 5.49668 	 -3.91727 	 
C 	 -98.5047 	 5.12033 	 -4.1681 	 
H 	 -101.775 	 4.54723 	 -3.91572 	 
C 	 -100.362 	 6.93035 	 -3.83166 	 
H 	 -99.6583 	 7.63608 	 -3.42686 	 
H 	 -101.148 	 6.87956 	 -3.05071 	 
C 	 -101.147 	 7.49981 	 -5.02042 	 
H 	 -101.853 	 6.75641 	 -5.32795 	 
H 	 -100.44 	 7.62926 	 -5.82337 	 
C 	 -101.916 	 8.72752 	 -4.5807 	 
H 	 -101.104 	 9.46469 	 -4.43573 	 
H 	 -102.546 	 8.58095 	 -3.76953 	 
H 	 -102.494 	 9.15379 	 -5.40624 	 
H 	 -93.9704 	 7.00416 	 -4.17518 	 
H 	 -100.67 	 2.29695 	 -4.21808 	 
*
