! wB97X-D3 SP def2-SVP
%pal
nprocs 24
end

* xyz 0 1
S 	 -39.2446 	 16.6739 	 13.2016 	 
C 	 -39.9453 	 17.7772 	 14.3126 	 
C 	 -39.4148 	 19.025 	 14.2959 	 
C 	 -38.2059 	 19.0062 	 13.5513 	 
C 	 -37.9804 	 17.7894 	 12.8758 	 
H 	 -37.3936 	 19.728 	 13.5521 	 
C 	 -39.8728 	 20.1588 	 15.1068 	 
H 	 -40.4417 	 20.8796 	 14.5189 	 
H 	 -39.0317 	 20.8715 	 15.2848 	 
C 	 -40.6119 	 19.8679 	 16.4533 	 
H 	 -41.6513 	 19.6098 	 16.2484 	 
H 	 -40.1316 	 18.9614 	 16.9568 	 
C 	 -40.749 	 20.9886 	 17.4962 	 
H 	 -41.4228 	 20.8162 	 18.2599 	 
H 	 -39.7538 	 21.1075 	 17.9296 	 
H 	 -41.0996 	 21.9713 	 17.0792 	 
S 	 -36.1398 	 15.8225 	 12.2949 	 
C 	 -34.991 	 16.0364 	 11.0369 	 
C 	 -35.0442 	 17.299 	 10.4903 	 
C 	 -36.1655 	 18.126 	 11.0355 	 
C 	 -36.8492 	 17.4065 	 12.0052 	 
H 	 -34.232 	 17.6208 	 9.78263 	 
C 	 -36.504 	 19.5526 	 10.6453 	 
H 	 -35.666 	 20.137 	 11.1343 	 
H 	 -37.4691 	 19.6654 	 11.0589 	 
C 	 -36.636 	 19.8048 	 9.13533 	 
H 	 -35.6755 	 19.7627 	 8.66151 	 
H 	 -36.8501 	 20.8243 	 8.91698 	 
C 	 -37.6033 	 18.85 	 8.45165 	 
H 	 -38.6557 	 19.1399 	 8.68415 	 
H 	 -37.3571 	 17.8855 	 8.70959 	 
H 	 -37.6968 	 18.8199 	 7.39212 	 
H 	 -40.8393 	 17.628 	 14.7744 	 
H 	 -34.2712 	 15.2783 	 10.8023 	 
*
