! wB97X-D3 SP def2-SVP
%pal
nprocs 24
end

* xyz 0 1
S 	 40.7912 	 -14.8863 	 -122.007 	 
C 	 39.9783 	 -13.4416 	 -121.489 	 
C 	 39.4792 	 -12.6768 	 -122.504 	 
C 	 39.8126 	 -13.27 	 -123.774 	 
C 	 40.5208 	 -14.4527 	 -123.716 	 
H 	 39.5423 	 -12.8614 	 -124.739 	 
C 	 38.7588 	 -11.3777 	 -122.309 	 
H 	 38.103 	 -11.6217 	 -121.465 	 
H 	 37.9252 	 -11.2744 	 -123.089 	 
C 	 39.5114 	 -10.0739 	 -122.302 	 
H 	 39.829 	 -9.71417 	 -123.321 	 
H 	 38.9028 	 -9.25462 	 -121.889 	 
C 	 40.6243 	 -10.0131 	 -121.247 	 
H 	 40.3194 	 -10.2503 	 -120.174 	 
H 	 41.3716 	 -10.7908 	 -121.414 	 
H 	 41.1686 	 -9.04932 	 -121.139 	 
S 	 40.3216 	 -16.9134 	 -124.812 	 
C 	 41.1146 	 -17.2744 	 -126.307 	 
C 	 41.8178 	 -16.1883 	 -126.766 	 
C 	 41.6974 	 -14.9924 	 -125.95 	 
C 	 40.9373 	 -15.2737 	 -124.855 	 
H 	 42.3079 	 -16.3249 	 -127.782 	 
C 	 42.3206 	 -13.6637 	 -126.188 	 
H 	 43.0625 	 -13.7002 	 -125.384 	 
H 	 41.7005 	 -12.8401 	 -125.737 	 
C 	 42.8226 	 -13.2623 	 -127.541 	 
H 	 42.0531 	 -13.1428 	 -128.206 	 
H 	 43.4754 	 -14.1098 	 -127.996 	 
C 	 43.6385 	 -12.0074 	 -127.5 	 
H 	 42.9791 	 -11.2184 	 -127.093 	 
H 	 43.7974 	 -11.5889 	 -128.51 	 
H 	 44.461 	 -12.0378 	 -126.816 	 
H 	 39.9185 	 -13.118 	 -120.506 	 
H 	 40.9639 	 -18.2933 	 -126.78 	 
*
