! wB97X-D3 SP def2-SVP
%pal
nprocs 24
end

* xyz 0 1
S 	 -121.702 	 45.1324 	 -34.1995 	 
C 	 -120.931 	 43.8583 	 -33.2634 	 
C 	 -120.607 	 44.334 	 -31.9553 	 
C 	 -120.995 	 45.7034 	 -31.7829 	 
C 	 -121.502 	 46.3226 	 -32.9357 	 
H 	 -120.933 	 46.3443 	 -30.9135 	 
C 	 -119.864 	 43.5175 	 -30.7965 	 
H 	 -120.305 	 42.4952 	 -30.865 	 
H 	 -120.138 	 43.9994 	 -29.8643 	 
C 	 -118.349 	 43.5609 	 -30.9573 	 
H 	 -118.015 	 43.2064 	 -31.9589 	 
H 	 -118.095 	 44.6286 	 -31.0648 	 
C 	 -117.569 	 42.929 	 -29.772 	 
H 	 -117.872 	 43.2739 	 -28.7392 	 
H 	 -117.6 	 41.7713 	 -29.945 	 
H 	 -116.562 	 43.2662 	 -29.926 	 
S 	 -123.177 	 48.2719 	 -33.7557 	 
C 	 -122.671 	 49.9444 	 -33.7813 	 
C 	 -121.473 	 50.168 	 -33.0784 	 
C 	 -120.893 	 48.919 	 -32.6558 	 
C 	 -121.658 	 47.808 	 -33.0722 	 
H 	 -121.066 	 51.1727 	 -32.9786 	 
C 	 -119.539 	 48.812 	 -32.0323 	 
H 	 -118.923 	 49.6741 	 -32.4344 	 
H 	 -119.088 	 47.971 	 -32.4833 	 
C 	 -119.441 	 48.8575 	 -30.5063 	 
H 	 -118.333 	 48.8435 	 -30.2698 	 
H 	 -119.908 	 47.9134 	 -30.1285 	 
C 	 -119.994 	 50.1608 	 -29.8695 	 
H 	 -120.024 	 50.9205 	 -30.6833 	 
H 	 -119.321 	 50.5062 	 -29.0785 	 
H 	 -120.996 	 49.95 	 -29.4178 	 
H 	 -120.671 	 42.8099 	 -33.627 	 
H 	 -123.268 	 50.699 	 -34.2026 	 
*
