! wB97X-D3 SP def2-SVP
%pal
nprocs 24
end

* xyz 0 1
S 	 -105.395 	 55.8273 	 -81.3477 	 
C 	 -104.966 	 56.3148 	 -83.0005 	 
C 	 -105.484 	 55.4418 	 -83.9507 	 
C 	 -106.239 	 54.3812 	 -83.4015 	 
C 	 -106.171 	 54.3207 	 -81.957 	 
H 	 -106.694 	 53.6295 	 -83.974 	 
C 	 -105.317 	 55.7002 	 -85.515 	 
H 	 -104.38 	 56.2318 	 -85.5626 	 
H 	 -106.109 	 56.3564 	 -85.81 	 
C 	 -105.267 	 54.3844 	 -86.3627 	 
H 	 -104.571 	 53.7103 	 -85.8786 	 
H 	 -106.359 	 54.0311 	 -86.4319 	 
C 	 -104.907 	 54.6057 	 -87.8247 	 
H 	 -104.803 	 53.7929 	 -88.5272 	 
H 	 -105.672 	 55.1811 	 -88.2695 	 
H 	 -103.951 	 55.0835 	 -87.8685 	 
S 	 -108.125 	 53.8639 	 -80.2824 	 
C 	 -108.364 	 52.2668 	 -79.5791 	 
C 	 -107.702 	 51.2922 	 -80.3044 	 
C 	 -106.807 	 51.8786 	 -81.2207 	 
C 	 -106.82 	 53.2549 	 -81.1856 	 
H 	 -107.925 	 50.2322 	 -80.2385 	 
C 	 -105.94 	 51.0381 	 -82.1672 	 
H 	 -105.563 	 50.2055 	 -81.6151 	 
H 	 -105.092 	 51.6843 	 -82.4906 	 
C 	 -106.747 	 50.4911 	 -83.343 	 
H 	 -106.08 	 49.9756 	 -84.07 	 
H 	 -107.233 	 51.2361 	 -83.9191 	 
C 	 -107.648 	 49.297 	 -83.0466 	 
H 	 -107.934 	 48.7982 	 -83.9923 	 
H 	 -108.573 	 49.6103 	 -82.642 	 
H 	 -107.18 	 48.6083 	 -82.3973 	 
H 	 -104.361 	 57.1889 	 -83.1614 	 
H 	 -109.129 	 52.0312 	 -78.8369 	 
*
