! wB97X-D3 SP def2-SVP
%pal
nprocs 24
end

* xyz 0 1
S 	 -132.677 	 57.873 	 -60.3422 	 
C 	 -133.467 	 59.1506 	 -61.2279 	 
C 	 -133.944 	 58.7723 	 -62.4447 	 
C 	 -133.96 	 57.3235 	 -62.5421 	 
C 	 -133.325 	 56.6877 	 -61.4747 	 
H 	 -134.435 	 56.6682 	 -63.2161 	 
C 	 -134.607 	 59.6794 	 -63.4625 	 
H 	 -133.857 	 59.9387 	 -64.1777 	 
H 	 -134.94 	 60.6191 	 -62.9413 	 
C 	 -135.852 	 59.1423 	 -64.2262 	 
H 	 -135.66 	 58.269 	 -64.9075 	 
H 	 -136.695 	 58.9234 	 -63.5447 	 
C 	 -136.435 	 60.2019 	 -65.1328 	 
H 	 -137.16 	 59.7572 	 -65.6809 	 
H 	 -136.975 	 60.9526 	 -64.5704 	 
H 	 -135.652 	 60.6528 	 -65.7819 	 
S 	 -133.447 	 54.8073 	 -59.5396 	 
C 	 -133.312 	 53.107 	 -59.9403 	 
C 	 -132.931 	 52.9107 	 -61.2998 	 
C 	 -132.723 	 54.1065 	 -62.0094 	 
C 	 -133.057 	 55.2593 	 -61.2683 	 
H 	 -132.697 	 51.9619 	 -61.7071 	 
C 	 -132.613 	 54.1627 	 -63.5435 	 
H 	 -133.462 	 54.7335 	 -63.8932 	 
H 	 -132.642 	 53.148 	 -63.9567 	 
C 	 -131.38 	 54.9303 	 -64.1145 	 
H 	 -130.403 	 54.5253 	 -63.799 	 
H 	 -131.475 	 55.9693 	 -63.6312 	 
C 	 -131.511 	 55.0347 	 -65.6676 	 
H 	 -132.458 	 55.5197 	 -65.8478 	 
H 	 -131.504 	 54.0128 	 -66.0118 	 
H 	 -130.795 	 55.6234 	 -66.1552 	 
H 	 -133.529 	 60.1758 	 -60.8922 	 
H 	 -133.323 	 52.2787 	 -59.1642 	 
*
