! wB97X-D3 SP def2-SVP
%pal
nprocs 24
end

* xyz 0 1
S 	 -1.33813 	 -24.5766 	 -111.402 	 
C 	 -0.419779 	 -24.9052 	 -112.898 	 
C 	 0.21994 	 -26.1055 	 -112.739 	 
C 	 0.114845 	 -26.6818 	 -111.486 	 
C 	 -0.71514 	 -25.9735 	 -110.601 	 
H 	 0.612136 	 -27.5683 	 -111.191 	 
C 	 1.17433 	 -26.7439 	 -113.726 	 
H 	 1.14309 	 -26.0504 	 -114.678 	 
H 	 0.856958 	 -27.6831 	 -114.147 	 
C 	 2.56783 	 -26.8171 	 -113.131 	 
H 	 2.90222 	 -25.7581 	 -112.892 	 
H 	 2.6071 	 -27.4657 	 -112.243 	 
C 	 3.5685 	 -27.4432 	 -114.12 	 
H 	 3.25021 	 -28.4616 	 -114.273 	 
H 	 3.52985 	 -26.8909 	 -115.038 	 
H 	 4.57298 	 -27.5818 	 -113.766 	 
S 	 -0.592557 	 -24.6123 	 -108.129 	 
C 	 -0.801201 	 -25.4972 	 -106.637 	 
C 	 -0.864476 	 -26.8155 	 -106.915 	 
C 	 -0.880985 	 -27.1888 	 -108.335 	 
C 	 -0.684538 	 -26.0486 	 -109.136 	 
H 	 -1.02906 	 -27.4547 	 -106.04 	 
C 	 -1.14498 	 -28.653 	 -108.683 	 
H 	 -1.66015 	 -28.8231 	 -109.636 	 
H 	 -1.73377 	 -29.0086 	 -107.83 	 
C 	 0.0628997 	 -29.5696 	 -108.733 	 
H 	 0.55782 	 -29.6383 	 -107.761 	 
H 	 0.829464 	 -29.1134 	 -109.367 	 
C 	 -0.309561 	 -31.0341 	 -109.101 	 
H 	 0.590971 	 -31.6384 	 -108.954 	 
H 	 -0.422875 	 -31.2263 	 -110.08 	 
H 	 -1.19474 	 -31.477 	 -108.592 	 
H 	 -0.316184 	 -24.2506 	 -113.775 	 
H 	 -0.926508 	 -25.1768 	 -105.617 	 
*
