! wB97X-D3 SP def2-SVP
%pal
nprocs 24
end

* xyz 0 1
S 	 -128.219 	 63.219 	 -60.2493 	 
C 	 -127.186 	 62.1319 	 -61.1842 	 
C 	 -127.512 	 60.8347 	 -61.0404 	 
C 	 -128.677 	 60.7037 	 -60.2152 	 
C 	 -129.125 	 61.8901 	 -59.5743 	 
H 	 -129.146 	 59.6974 	 -60.0432 	 
C 	 -126.886 	 59.6138 	 -61.6892 	 
H 	 -126.896 	 58.6965 	 -61.095 	 
H 	 -125.786 	 59.7847 	 -61.7361 	 
C 	 -127.492 	 59.1442 	 -63.038 	 
H 	 -127.545 	 59.8747 	 -63.7884 	 
H 	 -126.747 	 58.6121 	 -63.5712 	 
C 	 -128.678 	 58.1113 	 -62.7551 	 
H 	 -128.514 	 57.4386 	 -61.9864 	 
H 	 -129.614 	 58.7212 	 -62.4803 	 
H 	 -128.97 	 57.5144 	 -63.6088 	 
S 	 -131.254 	 63.5868 	 -58.9385 	 
C 	 -132.571 	 62.9073 	 -58.0483 	 
C 	 -132.257 	 61.6902 	 -57.4894 	 
C 	 -130.925 	 61.2341 	 -57.7772 	 
C 	 -130.388 	 62.0212 	 -58.784 	 
H 	 -132.965 	 61.228 	 -56.823 	 
C 	 -130.303 	 59.9872 	 -57.1355 	 
H 	 -130.12 	 59.2688 	 -57.9391 	 
H 	 -131.106 	 59.6037 	 -56.5271 	 
C 	 -129.09 	 60.0435 	 -56.1895 	 
H 	 -128.721 	 59.0203 	 -55.8982 	 
H 	 -129.449 	 60.6323 	 -55.3798 	 
C 	 -127.766 	 60.6838 	 -56.7471 	 
H 	 -127.786 	 61.7578 	 -56.69 	 
H 	 -127.508 	 60.5132 	 -57.7871 	 
H 	 -126.987 	 60.3576 	 -56.0287 	 
H 	 -126.292 	 62.4676 	 -61.6849 	 
H 	 -133.527 	 63.4287 	 -57.8654 	 
*
