! wB97X-D3 SP def2-SVP
%pal
nprocs 24
end

* xyz 0 1
S 	 -58.6433 	 -56.0298 	 -84.7053 	 
C 	 -59.5403 	 -54.5439 	 -84.3587 	 
C 	 -60.9226 	 -54.6608 	 -84.4753 	 
C 	 -61.3039 	 -55.9664 	 -84.8473 	 
C 	 -60.2061 	 -56.783 	 -85.1261 	 
H 	 -62.3835 	 -56.1952 	 -85.1146 	 
C 	 -61.8829 	 -53.4782 	 -84.2234 	 
H 	 -62.6541 	 -53.4772 	 -85.0297 	 
H 	 -61.4763 	 -52.4401 	 -84.3204 	 
C 	 -62.7196 	 -53.4102 	 -82.8796 	 
H 	 -63.2416 	 -54.3698 	 -82.6373 	 
H 	 -61.9684 	 -53.1882 	 -82.1779 	 
C 	 -63.8109 	 -52.2503 	 -82.7772 	 
H 	 -64.5068 	 -52.2395 	 -83.6184 	 
H 	 -64.2463 	 -52.0873 	 -81.8038 	 
H 	 -63.3267 	 -51.3147 	 -82.8369 	 
S 	 -59.276 	 -59.3086 	 -84.9761 	 
C 	 -59.5818 	 -60.4163 	 -86.2335 	 
C 	 -60.5974 	 -60.01 	 -87.0038 	 
C 	 -60.9912 	 -58.5948 	 -86.7556 	 
C 	 -60.2958 	 -58.1015 	 -85.7025 	 
H 	 -60.942 	 -60.7565 	 -87.7047 	 
C 	 -61.9726 	 -57.7952 	 -87.6554 	 
H 	 -61.6701 	 -56.7436 	 -87.614 	 
H 	 -63.0445 	 -57.8622 	 -87.3267 	 
C 	 -61.8654 	 -58.3522 	 -89.1046 	 
H 	 -62.3641 	 -59.302 	 -89.1989 	 
H 	 -60.8595 	 -58.4992 	 -89.3585 	 
C 	 -62.4516 	 -57.207 	 -90.0056 	 
H 	 -63.5324 	 -57.2538 	 -90.132 	 
H 	 -62.0627 	 -57.1527 	 -91.0363 	 
H 	 -62.159 	 -56.2543 	 -89.5881 	 
H 	 -59.0301 	 -53.6233 	 -84.1025 	 
H 	 -59.0106 	 -61.3086 	 -86.285 	 
*
