! wB97X-D3 SP def2-SVP
%pal
nprocs 24
end

* xyz 0 1
S 	 45.9928 	 -18.2031 	 -113.435 	 
C 	 46.3259 	 -18.0008 	 -111.771 	 
C 	 45.6946 	 -16.8366 	 -111.34 	 
C 	 44.9917 	 -16.2032 	 -112.357 	 
C 	 44.9848 	 -16.8658 	 -113.578 	 
H 	 44.4333 	 -15.2503 	 -112.223 	 
C 	 45.7713 	 -16.3411 	 -109.913 	 
H 	 46.2015 	 -17.142 	 -109.327 	 
H 	 44.7472 	 -16.1624 	 -109.62 	 
C 	 46.556 	 -14.9691 	 -109.853 	 
H 	 47.6549 	 -15.1704 	 -109.974 	 
H 	 46.3227 	 -14.3115 	 -110.642 	 
C 	 46.3786 	 -14.2661 	 -108.466 	 
H 	 46.9475 	 -13.3006 	 -108.293 	 
H 	 45.3029 	 -14.2375 	 -108.315 	 
H 	 46.8303 	 -15.0108 	 -107.788 	 
S 	 45.0793 	 -16.9631 	 -116.235 	 
C 	 43.6549 	 -16.6275 	 -117.253 	 
C 	 42.5925 	 -16.2573 	 -116.411 	 
C 	 42.9221 	 -16.1556 	 -115.028 	 
C 	 44.2525 	 -16.5676 	 -114.846 	 
H 	 41.5752 	 -16.1644 	 -116.808 	 
C 	 41.9211 	 -15.8778 	 -113.966 	 
H 	 40.9592 	 -15.4969 	 -114.393 	 
H 	 42.3673 	 -15.1544 	 -113.235 	 
C 	 41.4291 	 -17.1695 	 -113.219 	 
H 	 42.3108 	 -17.525 	 -112.739 	 
H 	 40.9982 	 -18.0113 	 -113.807 	 
C 	 40.4761 	 -16.8626 	 -112.13 	 
H 	 40.7385 	 -15.9594 	 -111.579 	 
H 	 40.2111 	 -17.6564 	 -111.45 	 
H 	 39.4318 	 -16.6756 	 -112.583 	 
H 	 46.8749 	 -18.6889 	 -111.137 	 
H 	 43.5879 	 -16.653 	 -118.321 	 
*
