! wB97X-D3 SP def2-SVP
%pal
nprocs 24
end

* xyz 0 1
S 	 -44.6019 	 10.5822 	 30.464 	 
C 	 -45.0913 	 11.9876 	 29.5355 	 
C 	 -46.471 	 11.9278 	 29.2788 	 
C 	 -46.9197 	 10.5772 	 29.4733 	 
C 	 -46.0731 	 9.73425 	 30.0972 	 
H 	 -47.8595 	 10.0774 	 29.153 	 
C 	 -47.3582 	 13.054 	 28.8294 	 
H 	 -46.8744 	 14.0157 	 29.096 	 
H 	 -48.3286 	 12.9779 	 29.3673 	 
C 	 -47.6482 	 13.0086 	 27.3825 	 
H 	 -47.958 	 12.0166 	 27.149 	 
H 	 -48.5166 	 13.5378 	 27.0589 	 
C 	 -46.4982 	 13.3838 	 26.4962 	 
H 	 -45.7675 	 12.6197 	 26.5663 	 
H 	 -46.8448 	 13.175 	 25.4766 	 
H 	 -46.1224 	 14.4019 	 26.7002 	 
S 	 -45.1485 	 7.1101 	 29.7358 	 
C 	 -46.0413 	 5.7738 	 30.4554 	 
C 	 -47.2661 	 6.23098 	 30.9419 	 
C 	 -47.3936 	 7.63355 	 30.9163 	 
C 	 -46.2673 	 8.36477 	 30.4385 	 
H 	 -48.0056 	 5.52504 	 31.1773 	 
C 	 -48.6063 	 8.33621 	 31.5414 	 
H 	 -49.5596 	 7.73805 	 31.4389 	 
H 	 -48.8213 	 9.30536 	 31.0128 	 
C 	 -48.5466 	 8.62518 	 33.0535 	 
H 	 -49.2533 	 9.41803 	 33.2584 	 
H 	 -47.5689 	 9.01424 	 33.1276 	 
C 	 -48.813 	 7.39399 	 33.9578 	 
H 	 -48.4837 	 7.54401 	 34.9874 	 
H 	 -48.3133 	 6.53045 	 33.6889 	 
H 	 -49.8975 	 7.12548 	 33.9095 	 
H 	 -44.4474 	 12.9167 	 29.4998 	 
H 	 -45.7286 	 4.72101 	 30.5131 	 
*
