! wB97X-D3 SP def2-SVP
%pal
nprocs 24
end

* xyz 0 1
S 	 -136.863 	 8.01413 	 -14.661 	 
C 	 -137.683 	 9.27394 	 -13.8101 	 
C 	 -136.788 	 10.1021 	 -13.2265 	 
C 	 -135.452 	 9.79077 	 -13.5762 	 
C 	 -135.276 	 8.59388 	 -14.2568 	 
H 	 -134.548 	 10.3518 	 -13.3467 	 
C 	 -137.16 	 11.2334 	 -12.3081 	 
H 	 -138.157 	 11.6462 	 -12.5953 	 
H 	 -136.446 	 12.1095 	 -12.4599 	 
C 	 -137.185 	 10.7785 	 -10.8503 	 
H 	 -138.281 	 10.5014 	 -10.7136 	 
H 	 -136.586 	 9.82059 	 -10.7964 	 
C 	 -136.576 	 11.889 	 -9.94671 	 
H 	 -136.406 	 11.4771 	 -8.98037 	 
H 	 -135.745 	 12.3222 	 -10.3891 	 
H 	 -137.352 	 12.647 	 -9.89442 	 
S 	 -133.692 	 7.89282 	 -16.4658 	 
C 	 -132.075 	 7.4016 	 -16.2061 	 
C 	 -131.98 	 6.95422 	 -14.9259 	 
C 	 -132.958 	 7.51081 	 -13.9977 	 
C 	 -134.063 	 7.93888 	 -14.7016 	 
H 	 -131.075 	 6.37535 	 -14.5051 	 
C 	 -132.825 	 7.27477 	 -12.5023 	 
H 	 -132.63 	 6.24652 	 -12.2939 	 
H 	 -133.724 	 7.5183 	 -12.1177 	 
C 	 -131.882 	 8.24993 	 -11.9862 	 
H 	 -132.193 	 9.28566 	 -12.2475 	 
H 	 -130.865 	 8.06556 	 -12.3729 	 
C 	 -131.669 	 8.17153 	 -10.4682 	 
H 	 -130.896 	 7.4154 	 -10.23 	 
H 	 -132.665 	 7.9446 	 -9.96399 	 
H 	 -131.236 	 9.03907 	 -10.1308 	 
H 	 -138.684 	 9.20818 	 -13.4815 	 
H 	 -131.415 	 7.20369 	 -17.0486 	 
*
