! wB97X-D3 SP def2-SVP
%pal
nprocs 24
end

* xyz 0 1
S 	 -48.02 	 10.3912 	 26.2395 	 
C 	 -47.5526 	 10.4608 	 24.6331 	 
C 	 -48.254 	 11.4818 	 23.9909 	 
C 	 -49.091 	 12.2148 	 24.8481 	 
C 	 -48.9324 	 11.8582 	 26.173 	 
H 	 -49.9249 	 12.9209 	 24.5501 	 
C 	 -48.2886 	 11.6246 	 22.4233 	 
H 	 -49.2505 	 11.6293 	 21.9302 	 
H 	 -47.8812 	 10.6717 	 21.9805 	 
C 	 -47.4495 	 12.8459 	 21.9617 	 
H 	 -46.4881 	 12.7466 	 22.3844 	 
H 	 -47.2444 	 12.74 	 20.9131 	 
C 	 -48.1049 	 14.1235 	 22.3197 	 
H 	 -49.1042 	 14.2216 	 21.7967 	 
H 	 -48.0945 	 14.2823 	 23.3653 	 
H 	 -47.4706 	 14.9452 	 21.986 	 
S 	 -49.7363 	 11.4218 	 28.8692 	 
C 	 -50.8474 	 12.5399 	 29.5454 	 
C 	 -50.7295 	 13.7522 	 28.9111 	 
C 	 -49.9136 	 13.6889 	 27.739 	 
C 	 -49.5647 	 12.3786 	 27.4099 	 
H 	 -51.2496 	 14.5916 	 29.2543 	 
C 	 -49.8165 	 14.8529 	 26.7765 	 
H 	 -50.335 	 15.7242 	 27.2365 	 
H 	 -50.3898 	 14.6555 	 25.9261 	 
C 	 -48.4419 	 15.3 	 26.5101 	 
H 	 -48.4903 	 16.1093 	 25.7745 	 
H 	 -47.7084 	 14.574 	 26.1765 	 
C 	 -47.7624 	 15.7782 	 27.8131 	 
H 	 -48.1954 	 16.6957 	 28.3293 	 
H 	 -46.7871 	 16.1319 	 27.5076 	 
H 	 -47.6841 	 15.1259 	 28.7181 	 
H 	 -46.9246 	 9.75369 	 24.0715 	 
H 	 -51.2599 	 12.4235 	 30.5383 	 
*
