! wB97X-D3 SP def2-SVP
%pal
nprocs 24
end

* xyz 0 1
S 	 -94.2919 	 -9.69871 	 -118.982 	 
C 	 -95.434 	 -8.64448 	 -119.853 	 
C 	 -96.575 	 -8.48411 	 -119.117 	 
C 	 -96.5568 	 -9.26309 	 -117.936 	 
C 	 -95.4311 	 -10.1026 	 -117.768 	 
H 	 -97.222 	 -9.15632 	 -117.053 	 
C 	 -97.5382 	 -7.40191 	 -119.346 	 
H 	 -98.4942 	 -7.79786 	 -119.606 	 
H 	 -97.1565 	 -6.88027 	 -120.251 	 
C 	 -97.7859 	 -6.36043 	 -118.231 	 
H 	 -97.9273 	 -6.7703 	 -117.22 	 
H 	 -96.8533 	 -5.71846 	 -118.137 	 
C 	 -98.9678 	 -5.4602 	 -118.68 	 
H 	 -98.7542 	 -4.81128 	 -119.509 	 
H 	 -99.9027 	 -6.03574 	 -118.871 	 
H 	 -99.1596 	 -4.84709 	 -117.846 	 
S 	 -94.1252 	 -10.7527 	 -115.29 	 
C 	 -94.2416 	 -12.3616 	 -114.669 	 
C 	 -95.0183 	 -13.1555 	 -115.534 	 
C 	 -95.4544 	 -12.4551 	 -116.701 	 
C 	 -95.1145 	 -11.147 	 -116.75 	 
H 	 -95.123 	 -14.2375 	 -115.278 	 
C 	 -96.2844 	 -13.2464 	 -117.703 	 
H 	 -96.945 	 -12.5163 	 -118.087 	 
H 	 -96.8315 	 -13.9846 	 -117.142 	 
C 	 -95.4769 	 -13.7775 	 -118.853 	 
H 	 -94.9593 	 -12.8878 	 -119.207 	 
H 	 -96.0676 	 -14.1478 	 -119.664 	 
C 	 -94.3777 	 -14.7358 	 -118.527 	 
H 	 -94.6801 	 -15.8162 	 -118.268 	 
H 	 -93.8394 	 -14.3329 	 -117.66 	 
H 	 -93.7089 	 -14.8388 	 -119.379 	 
H 	 -95.1906 	 -7.93986 	 -120.635 	 
H 	 -93.7519 	 -12.743 	 -113.738 	 
*
