! wB97X-D3 SP def2-SVP
%pal
nprocs 24
end

* xyz 0 1
S 	 -88.8269 	 -32.6713 	 -74.0904 	 
C 	 -89.2306 	 -32.784 	 -75.8206 	 
C 	 -89.6148 	 -31.6024 	 -76.3505 	 
C 	 -89.7245 	 -30.6364 	 -75.3599 	 
C 	 -89.412 	 -31.0594 	 -74.0886 	 
H 	 -89.9953 	 -29.6923 	 -75.4748 	 
C 	 -90.0113 	 -31.4085 	 -77.8423 	 
H 	 -89.1552 	 -31.777 	 -78.3782 	 
H 	 -90.1951 	 -30.3714 	 -78.064 	 
C 	 -91.1864 	 -32.2605 	 -78.2578 	 
H 	 -91.4541 	 -32.0854 	 -79.2843 	 
H 	 -90.8836 	 -33.2748 	 -78.1419 	 
C 	 -92.4381 	 -31.9549 	 -77.4289 	 
H 	 -93.1655 	 -32.7135 	 -77.8043 	 
H 	 -92.2584 	 -32.1456 	 -76.3615 	 
H 	 -92.9328 	 -30.9801 	 -77.6275 	 
S 	 -88.2006 	 -30.8518 	 -71.6747 	 
C 	 -88.4235 	 -29.4147 	 -70.6686 	 
C 	 -89.117 	 -28.4646 	 -71.4394 	 
C 	 -89.6374 	 -28.8654 	 -72.7156 	 
C 	 -89.2134 	 -30.1521 	 -72.9612 	 
H 	 -89.294 	 -27.5536 	 -70.9466 	 
C 	 -90.526 	 -27.9687 	 -73.5606 	 
H 	 -91.1647 	 -27.3827 	 -72.9641 	 
H 	 -91.2802 	 -28.5233 	 -74.0953 	 
C 	 -89.6832 	 -27.1206 	 -74.5665 	 
H 	 -89.152 	 -27.7662 	 -75.236 	 
H 	 -88.9345 	 -26.5634 	 -73.9876 	 
C 	 -90.5205 	 -26.3211 	 -75.4992 	 
H 	 -91.4214 	 -26.8597 	 -75.7931 	 
H 	 -89.9697 	 -26.1286 	 -76.3867 	 
H 	 -90.9744 	 -25.4583 	 -75.0653 	 
H 	 -89.2641 	 -33.7405 	 -76.3128 	 
H 	 -88.2615 	 -29.2737 	 -69.6126 	 
*
