! wB97X-D3 SP def2-SVP
%pal
nprocs 24
end

* xyz 0 1
S 	 -41.0676 	 -2.64801 	 12.003 	 
C 	 -41.054 	 -2.91103 	 13.7504 	 
C 	 -42.0849 	 -2.24137 	 14.3837 	 
C 	 -43.0404 	 -1.78028 	 13.3902 	 
C 	 -42.585 	 -1.84137 	 12.0817 	 
H 	 -44.0152 	 -1.42901 	 13.6657 	 
C 	 -42.1549 	 -2.01584 	 15.9252 	 
H 	 -41.6985 	 -2.89506 	 16.4492 	 
H 	 -43.2561 	 -2.06513 	 16.1622 	 
C 	 -41.5218 	 -0.738485 	 16.5543 	 
H 	 -41.3638 	 -0.711067 	 17.6148 	 
H 	 -40.515 	 -0.645881 	 16.0279 	 
C 	 -42.3945 	 0.445454 	 16.1772 	 
H 	 -42.2549 	 1.27941 	 16.9098 	 
H 	 -42.1402 	 0.753166 	 15.1015 	 
H 	 -43.4844 	 0.206234 	 16.1295 	 
S 	 -43.6118 	 -2.6004 	 9.71743 	 
C 	 -44.2813 	 -1.42598 	 8.64084 	 
C 	 -44.6637 	 -0.329122 	 9.31198 	 
C 	 -43.9985 	 -0.248881 	 10.6074 	 
C 	 -43.3393 	 -1.41321 	 10.9479 	 
H 	 -45.2956 	 0.41419 	 8.86253 	 
C 	 -44.1219 	 0.962063 	 11.4216 	 
H 	 -44.0794 	 1.85093 	 10.7551 	 
H 	 -43.1872 	 1.051 	 11.9151 	 
C 	 -45.2881 	 1.03373 	 12.4669 	 
H 	 -45.2917 	 0.17669 	 13.1477 	 
H 	 -46.2732 	 1.0764 	 11.9515 	 
C 	 -45.1922 	 2.26781 	 13.3612 	 
H 	 -44.1421 	 2.31626 	 13.6346 	 
H 	 -45.8493 	 2.08088 	 14.2164 	 
H 	 -45.4564 	 3.16696 	 12.8495 	 
H 	 -40.213 	 -3.26819 	 14.317 	 
H 	 -44.5298 	 -1.66942 	 7.57484 	 
*
