! wB97X-D3 SP def2-SVP
%pal
nprocs 24
end

* xyz 0 1
S 	 -111.484 	 59.0434 	 -20.2792 	 
C 	 -111.439 	 60.4299 	 -19.3085 	 
C 	 -110.259 	 60.5932 	 -18.6472 	 
C 	 -109.275 	 59.6079 	 -18.9924 	 
C 	 -109.75 	 58.8139 	 -19.9702 	 
H 	 -108.25 	 59.4358 	 -18.6134 	 
C 	 -109.865 	 61.6595 	 -17.6993 	 
H 	 -109.398 	 61.3179 	 -16.8139 	 
H 	 -110.818 	 62.1647 	 -17.4038 	 
C 	 -108.901 	 62.728 	 -18.3228 	 
H 	 -108.149 	 62.239 	 -18.8995 	 
H 	 -109.36 	 63.3253 	 -19.0919 	 
C 	 -108.232 	 63.5923 	 -17.2861 	 
H 	 -107.739 	 62.9825 	 -16.4496 	 
H 	 -107.473 	 64.2361 	 -17.6827 	 
H 	 -108.906 	 64.235 	 -16.6887 	 
S 	 -109.486 	 56.0863 	 -20.6083 	 
C 	 -108.118 	 55.5471 	 -21.5211 	 
C 	 -107.293 	 56.6374 	 -21.8071 	 
C 	 -107.814 	 57.8643 	 -21.3333 	 
C 	 -108.977 	 57.798 	 -20.652 	 
H 	 -106.357 	 56.541 	 -22.3906 	 
C 	 -107.074 	 59.1457 	 -21.5002 	 
H 	 -106.707 	 59.3322 	 -20.4511 	 
H 	 -107.804 	 60.016 	 -21.6435 	 
C 	 -106.155 	 59.4341 	 -22.6875 	 
H 	 -106.706 	 59.3455 	 -23.6716 	 
H 	 -105.35 	 58.6734 	 -22.7471 	 
C 	 -105.532 	 60.8477 	 -22.7174 	 
H 	 -106.467 	 61.5152 	 -22.8798 	 
H 	 -104.907 	 60.9665 	 -23.5423 	 
H 	 -105.041 	 61.1699 	 -21.8269 	 
H 	 -112.325 	 61.0499 	 -19.236 	 
H 	 -107.747 	 54.6322 	 -21.7758 	 
*
