! wB97X-D3 SP def2-SVP
%pal
nprocs 24
end

* xyz 0 1
S 	 -80.6973 	 -1.46653 	 -59.3897 	 
C 	 -79.5164 	 -0.628581 	 -60.3349 	 
C 	 -78.5812 	 -1.46607 	 -60.9291 	 
C 	 -78.8611 	 -2.81315 	 -60.5918 	 
C 	 -79.8536 	 -2.93183 	 -59.6704 	 
H 	 -78.3857 	 -3.68722 	 -61.0224 	 
C 	 -77.4636 	 -1.15651 	 -61.8501 	 
H 	 -76.9847 	 -2.16295 	 -62.1246 	 
H 	 -76.7873 	 -0.533743 	 -61.3424 	 
C 	 -77.9373 	 -0.52173 	 -63.1163 	 
H 	 -78.6067 	 -1.23136 	 -63.5782 	 
H 	 -78.5028 	 0.358271 	 -62.9159 	 
C 	 -76.7956 	 -0.28411 	 -64.1879 	 
H 	 -76.4474 	 -1.29926 	 -64.5064 	 
H 	 -77.1822 	 0.327302 	 -64.9714 	 
H 	 -75.9622 	 0.146949 	 -63.7294 	 
S 	 -79.9449 	 -4.2536 	 -57.3614 	 
C 	 -80.4178 	 -6.00464 	 -57.4061 	 
C 	 -80.9048 	 -6.35253 	 -58.6642 	 
C 	 -80.6403 	 -5.36098 	 -59.6309 	 
C 	 -80.3073 	 -4.13059 	 -59.062 	 
H 	 -81.2716 	 -7.37203 	 -58.7426 	 
C 	 -80.8349 	 -5.57112 	 -61.1192 	 
H 	 -79.7878 	 -5.49352 	 -61.3714 	 
H 	 -81.3379 	 -4.73495 	 -61.5555 	 
C 	 -81.4991 	 -6.85559 	 -61.673 	 
H 	 -80.9761 	 -7.69208 	 -61.2033 	 
H 	 -81.3488 	 -6.90819 	 -62.7748 	 
C 	 -83.0453 	 -6.89782 	 -61.4142 	 
H 	 -83.3421 	 -6.71965 	 -60.4069 	 
H 	 -83.453 	 -7.86733 	 -61.6053 	 
H 	 -83.4902 	 -6.23698 	 -62.0772 	 
H 	 -79.4523 	 0.460394 	 -60.4608 	 
H 	 -80.2997 	 -6.66636 	 -56.5014 	 
*
