! wB97X-D3 SP def2-SVP
%pal
nprocs 24
end

* xyz 0 1
S 	 -100.214 	 15.0286 	 -123.85 	 
C 	 -101.765 	 15.663 	 -124.394 	 
C 	 -102.727 	 14.7286 	 -124.508 	 
C 	 -102.208 	 13.4257 	 -124.25 	 
C 	 -100.876 	 13.402 	 -123.933 	 
H 	 -102.836 	 12.5209 	 -124.339 	 
C 	 -104.23 	 15.0035 	 -124.585 	 
H 	 -104.789 	 14.1585 	 -124.811 	 
H 	 -104.497 	 15.6583 	 -125.466 	 
C 	 -104.86 	 15.6462 	 -123.366 	 
H 	 -104.67 	 16.6883 	 -123.297 	 
H 	 -105.937 	 15.6925 	 -123.604 	 
C 	 -104.489 	 15.0025 	 -122.04 	 
H 	 -103.458 	 14.922 	 -121.814 	 
H 	 -104.882 	 15.6189 	 -121.203 	 
H 	 -104.851 	 13.9763 	 -121.951 	 
S 	 -99.0763 	 12.2091 	 -122.304 	 
C 	 -98.8233 	 10.494 	 -122.342 	 
C 	 -99.3645 	 9.95754 	 -123.458 	 
C 	 -100.205 	 10.9236 	 -124.194 	 
C 	 -100.134 	 12.2108 	 -123.683 	 
H 	 -99.1829 	 8.91511 	 -123.741 	 
C 	 -101.063 	 10.4229 	 -125.321 	 
H 	 -100.342 	 10.1482 	 -126.085 	 
H 	 -101.631 	 11.2026 	 -125.808 	 
C 	 -102.073 	 9.33964 	 -124.976 	 
H 	 -101.469 	 8.56243 	 -124.586 	 
H 	 -102.523 	 8.87948 	 -125.853 	 
C 	 -103.093 	 9.67977 	 -123.893 	 
H 	 -103.938 	 10.3055 	 -124.187 	 
H 	 -102.631 	 10.0844 	 -123 	 
H 	 -103.515 	 8.7268 	 -123.524 	 
H 	 -102.068 	 16.7307 	 -124.378 	 
H 	 -98.0173 	 10.0296 	 -121.797 	 
*
