! wB97X-D3 SP def2-SVP
%pal
nprocs 24
end

* xyz 0 1
S 	 -101.723 	 -4.39815 	 -110.795 	 
C 	 -102.272 	 -5.94687 	 -111.255 	 
C 	 -102.576 	 -6.76034 	 -110.244 	 
C 	 -102.439 	 -6.1044 	 -108.999 	 
C 	 -102.054 	 -4.81902 	 -109.117 	 
H 	 -102.719 	 -6.4828 	 -108.009 	 
C 	 -103.049 	 -8.27085 	 -110.32 	 
H 	 -103.521 	 -8.51111 	 -111.276 	 
H 	 -103.916 	 -8.38671 	 -109.628 	 
C 	 -101.987 	 -9.28052 	 -109.917 	 
H 	 -101.871 	 -9.22533 	 -108.881 	 
H 	 -102.305 	 -10.3503 	 -110.052 	 
C 	 -100.655 	 -9.22991 	 -110.651 	 
H 	 -100.674 	 -9.54635 	 -111.7 	 
H 	 -100.341 	 -8.15295 	 -110.562 	 
H 	 -99.9447 	 -9.94061 	 -110.256 	 
S 	 -103 	 -2.35096 	 -108.186 	 
C 	 -102.565 	 -1.86132 	 -106.563 	 
C 	 -101.666 	 -2.69188 	 -105.979 	 
C 	 -101.403 	 -3.88611 	 -106.772 	 
C 	 -102.016 	 -3.8417 	 -108.025 	 
H 	 -101.386 	 -2.5492 	 -104.95 	 
C 	 -100.418 	 -4.8833 	 -106.235 	 
H 	 -99.6842 	 -4.239 	 -105.782 	 
H 	 -99.8537 	 -5.47257 	 -106.952 	 
C 	 -100.896 	 -5.6413 	 -104.977 	 
H 	 -101.704 	 -6.40956 	 -105.284 	 
H 	 -101.267 	 -4.90779 	 -104.253 	 
C 	 -99.8387 	 -6.47683 	 -104.254 	 
H 	 -99.2438 	 -7.07256 	 -104.88 	 
H 	 -100.295 	 -6.98686 	 -103.409 	 
H 	 -99.0791 	 -5.71178 	 -103.781 	 
H 	 -102.494 	 -6.31218 	 -112.24 	 
H 	 -102.891 	 -0.969318 	 -106.155 	 
*
