! wB97X-D3 SP def2-SVP
%pal
nprocs 24
end

* xyz 0 1
S 	 -94.2294 	 -38.1523 	 -57.1283 	 
C 	 -94.9827 	 -39.1896 	 -55.9053 	 
C 	 -95.1674 	 -38.5372 	 -54.6594 	 
C 	 -94.8889 	 -37.1272 	 -54.7981 	 
C 	 -94.5406 	 -36.7761 	 -56.0783 	 
H 	 -94.9391 	 -36.4321 	 -53.9302 	 
C 	 -95.7303 	 -39.2505 	 -53.3903 	 
H 	 -95.0827 	 -38.7744 	 -52.5958 	 
H 	 -95.5427 	 -40.3262 	 -53.5728 	 
C 	 -97.1798 	 -38.9815 	 -52.9191 	 
H 	 -97.3603 	 -37.9383 	 -52.8032 	 
H 	 -98.0038 	 -39.3591 	 -53.5344 	 
C 	 -97.4901 	 -39.4011 	 -51.4915 	 
H 	 -98.5023 	 -39.2892 	 -51.2469 	 
H 	 -97.3262 	 -40.4407 	 -51.2746 	 
H 	 -96.8923 	 -38.8365 	 -50.7995 	 
S 	 -92.2323 	 -35.3031 	 -56.4466 	 
C 	 -92.3603 	 -33.8581 	 -57.2594 	 
C 	 -93.6545 	 -33.5187 	 -57.6539 	 
C 	 -94.6087 	 -34.4462 	 -57.1399 	 
C 	 -94.0057 	 -35.5341 	 -56.4992 	 
H 	 -93.816 	 -32.6037 	 -58.2187 	 
C 	 -95.9808 	 -34.4677 	 -57.7564 	 
H 	 -96.3932 	 -33.4103 	 -57.7308 	 
H 	 -96.6921 	 -34.994 	 -57.0833 	 
C 	 -96.1441 	 -34.9623 	 -59.2695 	 
H 	 -95.6709 	 -35.91 	 -59.4437 	 
H 	 -95.7034 	 -34.2317 	 -60.0032 	 
C 	 -97.659 	 -35.0518 	 -59.6286 	 
H 	 -97.8687 	 -35.5716 	 -60.5517 	 
H 	 -98.1486 	 -34.1478 	 -59.7419 	 
H 	 -98.2377 	 -35.6857 	 -58.9916 	 
H 	 -95.3519 	 -40.1566 	 -56.18 	 
H 	 -91.5243 	 -33.1089 	 -57.4778 	 
*
