! wB97X-D3 SP def2-SVP
%pal
nprocs 24
end

* xyz 0 1
S 	 -132.966 	 6.76996 	 -1.77652 	 
C 	 -132.087 	 7.67073 	 -0.602842 	 
C 	 -132.38 	 7.26642 	 0.682372 	 
C 	 -133.412 	 6.29776 	 0.710136 	 
C 	 -133.796 	 5.90588 	 -0.546028 	 
H 	 -133.717 	 5.85132 	 1.58068 	 
C 	 -131.56 	 7.68449 	 1.90741 	 
H 	 -130.437 	 7.8007 	 1.79569 	 
H 	 -131.794 	 6.99055 	 2.76952 	 
C 	 -131.939 	 9.06608 	 2.37915 	 
H 	 -131.102 	 9.42413 	 2.96925 	 
H 	 -131.931 	 9.88809 	 1.61018 	 
C 	 -133.191 	 9.16839 	 3.1341 	 
H 	 -133.276 	 10.1926 	 3.51135 	 
H 	 -134.054 	 9.07183 	 2.41026 	 
H 	 -133.248 	 8.46353 	 3.93561 	 
S 	 -136.273 	 5.63045 	 -1.46432 	 
C 	 -137.122 	 4.09273 	 -1.36925 	 
C 	 -136.375 	 3.13189 	 -0.698217 	 
C 	 -135.075 	 3.66227 	 -0.353268 	 
C 	 -134.828 	 4.96437 	 -0.746534 	 
H 	 -136.733 	 2.18742 	 -0.386545 	 
C 	 -134.214 	 2.84075 	 0.597034 	 
H 	 -134.841 	 2.13052 	 1.15462 	 
H 	 -133.809 	 3.56038 	 1.33731 	 
C 	 -133.065 	 2.0421 	 -0.080578 	 
H 	 -132.576 	 1.47305 	 0.728045 	 
H 	 -132.4 	 2.79785 	 -0.489364 	 
C 	 -133.461 	 0.906819 	 -1.13614 	 
H 	 -134.005 	 1.20342 	 -2.03015 	 
H 	 -134.13 	 0.249135 	 -0.535594 	 
H 	 -132.65 	 0.211375 	 -1.37412 	 
H 	 -131.279 	 8.33442 	 -0.767719 	 
H 	 -138.135 	 3.91197 	 -1.62901 	 
*
