! wB97X-D3 SP def2-SVP
%pal
nprocs 24
end

* xyz 0 1
S 	 -43.609 	 -1.66394 	 -11.628 	 
C 	 -43.3828 	 -1.03294 	 -10.0073 	 
C 	 -44.55 	 -1.05226 	 -9.39589 	 
C 	 -45.6244 	 -1.60238 	 -10.2106 	 
C 	 -45.3193 	 -1.97387 	 -11.5135 	 
H 	 -46.6034 	 -1.75264 	 -9.91591 	 
C 	 -44.7635 	 -0.463385 	 -8.03551 	 
H 	 -43.8684 	 -0.468435 	 -7.52355 	 
H 	 -45.3909 	 -1.02408 	 -7.3138 	 
C 	 -45.2147 	 1.02351 	 -8.08701 	 
H 	 -44.4913 	 1.59657 	 -8.61717 	 
H 	 -46.1639 	 1.00676 	 -8.70458 	 
C 	 -45.5849 	 1.71079 	 -6.75477 	 
H 	 -46.3471 	 2.48992 	 -6.88561 	 
H 	 -45.9282 	 0.925959 	 -6.02185 	 
H 	 -44.7232 	 2.25951 	 -6.31481 	 
S 	 -45.8219 	 -1.8911 	 -14.1247 	 
C 	 -47.0221 	 -2.94564 	 -14.8412 	 
C 	 -47.6118 	 -3.77162 	 -13.9145 	 
C 	 -47.1263 	 -3.44506 	 -12.5821 	 
C 	 -46.1214 	 -2.50798 	 -12.517 	 
H 	 -48.3403 	 -4.57599 	 -14.1242 	 
C 	 -47.4956 	 -4.28948 	 -11.3651 	 
H 	 -48.5491 	 -4.5514 	 -11.4065 	 
H 	 -47.3838 	 -3.68545 	 -10.5518 	 
C 	 -46.579 	 -5.49514 	 -11.0575 	 
H 	 -45.4759 	 -5.11983 	 -11.0529 	 
H 	 -46.6459 	 -6.24804 	 -11.8552 	 
C 	 -46.9033 	 -6.10935 	 -9.68396 	 
H 	 -47.9234 	 -6.4987 	 -9.62556 	 
H 	 -46.6581 	 -5.36081 	 -8.9525 	 
H 	 -46.2459 	 -6.89978 	 -9.46856 	 
H 	 -42.5435 	 -0.435893 	 -9.66084 	 
H 	 -47.0975 	 -2.93756 	 -15.9034 	 
*
