! wB97X-D3 SP def2-SVP
%pal
nprocs 24
end

* xyz 0 1
S 	 -53.6058 	 -47.5173 	 -78.9638 	 
C 	 -54.6968 	 -46.1785 	 -79.1405 	 
C 	 -55.0374 	 -45.9747 	 -80.4694 	 
C 	 -54.2495 	 -46.6917 	 -81.3815 	 
C 	 -53.4138 	 -47.5707 	 -80.7507 	 
H 	 -54.2119 	 -46.4966 	 -82.4101 	 
C 	 -55.9286 	 -44.8828 	 -81.0575 	 
H 	 -56.584 	 -44.3384 	 -80.4096 	 
H 	 -56.6146 	 -45.5341 	 -81.5536 	 
C 	 -55.2548 	 -43.9525 	 -82.0278 	 
H 	 -54.7331 	 -44.4351 	 -82.8496 	 
H 	 -56.1577 	 -43.4246 	 -82.5069 	 
C 	 -54.4299 	 -42.8708 	 -81.4044 	 
H 	 -54.9337 	 -42.1905 	 -80.6971 	 
H 	 -53.5331 	 -43.2195 	 -80.9333 	 
H 	 -54.1221 	 -42.1859 	 -82.1684 	 
S 	 -53.2926 	 -49.8497 	 -82.1167 	 
C 	 -51.7069 	 -50.31 	 -82.7128 	 
C 	 -50.7301 	 -49.501 	 -82.3033 	 
C 	 -51.2271 	 -48.4231 	 -81.6162 	 
C 	 -52.5564 	 -48.536 	 -81.3635 	 
H 	 -49.7524 	 -49.627 	 -82.741 	 
C 	 -50.3598 	 -47.1722 	 -81.2767 	 
H 	 -49.2864 	 -47.4151 	 -81.0814 	 
H 	 -50.665 	 -46.8405 	 -80.2547 	 
C 	 -50.6117 	 -45.9157 	 -82.1572 	 
H 	 -49.8252 	 -45.2602 	 -81.7936 	 
H 	 -51.5804 	 -45.3636 	 -82.0747 	 
C 	 -50.2413 	 -46.2687 	 -83.597 	 
H 	 -49.1846 	 -46.6516 	 -83.72 	 
H 	 -50.2418 	 -45.3227 	 -84.2631 	 
H 	 -50.9975 	 -47.0125 	 -83.9991 	 
H 	 -55.2605 	 -45.6611 	 -78.3458 	 
H 	 -51.4319 	 -51.1675 	 -83.415 	 
*
