! wB97X-D3 SP def2-SVP
%pal
nprocs 24
end

* xyz 0 1
S 	 -131.662 	 29.5746 	 -18.819 	 
C 	 -132.06 	 28.1799 	 -17.7513 	 
C 	 -132.343 	 27.0645 	 -18.4619 	 
C 	 -132.317 	 27.2946 	 -19.8985 	 
C 	 -132.033 	 28.6021 	 -20.2337 	 
H 	 -132.471 	 26.5639 	 -20.7014 	 
C 	 -132.767 	 25.7445 	 -17.8874 	 
H 	 -133.814 	 25.6824 	 -17.9202 	 
H 	 -132.613 	 25.651 	 -16.8169 	 
C 	 -132.414 	 24.5442 	 -18.7628 	 
H 	 -132.883 	 23.6545 	 -18.226 	 
H 	 -133.032 	 24.5718 	 -19.6512 	 
C 	 -130.976 	 24.1896 	 -19.0137 	 
H 	 -130.61 	 23.804 	 -17.9783 	 
H 	 -130.919 	 23.3149 	 -19.7887 	 
H 	 -130.3 	 24.8661 	 -19.4715 	 
S 	 -132.857 	 30.5917 	 -21.9852 	 
C 	 -132.321 	 30.6148 	 -23.6398 	 
C 	 -131.591 	 29.496 	 -23.9516 	 
C 	 -131.534 	 28.531 	 -22.8327 	 
C 	 -131.937 	 29.1232 	 -21.626 	 
H 	 -131.173 	 29.3912 	 -24.9629 	 
C 	 -130.9 	 27.1897 	 -23.0793 	 
H 	 -130.656 	 26.6236 	 -22.1577 	 
H 	 -129.969 	 27.376 	 -23.4316 	 
C 	 -131.537 	 26.2362 	 -24.0957 	 
H 	 -130.693 	 25.5063 	 -24.204 	 
H 	 -131.749 	 26.7932 	 -24.9706 	 
C 	 -132.925 	 25.6608 	 -23.672 	 
H 	 -133.23 	 24.7097 	 -24.1834 	 
H 	 -133.758 	 26.3718 	 -23.6974 	 
H 	 -132.711 	 25.3621 	 -22.6493 	 
H 	 -132.177 	 28.3279 	 -16.7079 	 
H 	 -132.574 	 31.3485 	 -24.4473 	 
*
