! wB97X-D3 SP def2-SVP
%pal
nprocs 24
end

* xyz 0 1
S 	 -142.861 	 13.6336 	 -5.72899 	 
C 	 -143.456 	 14.3036 	 -7.21571 	 
C 	 -144.157 	 13.2939 	 -7.90258 	 
C 	 -144.217 	 12.0388 	 -7.16528 	 
C 	 -143.489 	 12.0142 	 -5.98181 	 
H 	 -144.732 	 11.1698 	 -7.50631 	 
C 	 -144.86 	 13.5016 	 -9.16991 	 
H 	 -144.717 	 14.4812 	 -9.52365 	 
H 	 -145.914 	 13.3947 	 -8.9242 	 
C 	 -144.473 	 12.4898 	 -10.2216 	 
H 	 -143.417 	 12.4319 	 -10.3832 	 
H 	 -144.765 	 11.509 	 -9.90897 	 
C 	 -144.988 	 12.9068 	 -11.5994 	 
H 	 -145.993 	 12.6058 	 -11.7488 	 
H 	 -144.786 	 14.0051 	 -11.6224 	 
H 	 -144.348 	 12.5103 	 -12.4167 	 
S 	 -141.646 	 10.7427 	 -4.49683 	 
C 	 -142.011 	 9.21318 	 -3.66332 	 
C 	 -143.303 	 8.83691 	 -3.96408 	 
C 	 -143.984 	 9.72416 	 -4.88688 	 
C 	 -143.24 	 10.8488 	 -5.17158 	 
H 	 -143.689 	 7.95422 	 -3.53928 	 
C 	 -145.329 	 9.30276 	 -5.38699 	 
H 	 -145.844 	 10.1462 	 -5.76301 	 
H 	 -145.945 	 8.96419 	 -4.59853 	 
C 	 -145.238 	 8.16458 	 -6.48603 	 
H 	 -144.631 	 7.32521 	 -6.11254 	 
H 	 -144.783 	 8.43558 	 -7.44391 	 
C 	 -146.545 	 7.41917 	 -6.81601 	 
H 	 -147.194 	 8.01527 	 -7.5138 	 
H 	 -147.125 	 7.36195 	 -5.83543 	 
H 	 -146.504 	 6.3736 	 -7.10474 	 
H 	 -143.243 	 15.3167 	 -7.60805 	 
H 	 -141.354 	 8.59317 	 -3.01562 	 
*
