! wB97X-D3 SP def2-SVP
%pal
nprocs 24
end

* xyz 0 1
S 	 -99.4384 	 -1.82292 	 -110.111 	 
C 	 -100.817 	 -1.99148 	 -111.205 	 
C 	 -102.017 	 -2.12258 	 -110.473 	 
C 	 -101.803 	 -1.92393 	 -109.096 	 
C 	 -100.505 	 -1.66824 	 -108.788 	 
H 	 -102.53 	 -1.97569 	 -108.32 	 
C 	 -103.408 	 -2.48272 	 -111.029 	 
H 	 -103.413 	 -3.61018 	 -111.039 	 
H 	 -103.424 	 -2.3378 	 -112.134 	 
C 	 -104.686 	 -1.80656 	 -110.548 	 
H 	 -104.739 	 -1.72149 	 -109.471 	 
H 	 -104.554 	 -0.809259 	 -111.031 	 
C 	 -106.039 	 -2.35825 	 -111.042 	 
H 	 -106.079 	 -3.38217 	 -110.887 	 
H 	 -106.934 	 -2.02481 	 -110.468 	 
H 	 -106.257 	 -2.09587 	 -112.072 	 
S 	 -98.5277 	 -2.07255 	 -106.844 	 
C 	 -98.5503 	 -0.960735 	 -105.466 	 
C 	 -99.7005 	 -0.29097 	 -105.332 	 
C 	 -100.564 	 -0.464983 	 -106.498 	 
C 	 -100.042 	 -1.32018 	 -107.445 	 
H 	 -99.7509 	 0.356214 	 -104.465 	 
C 	 -101.926 	 0.14419 	 -106.507 	 
H 	 -102.648 	 -0.649982 	 -106.562 	 
H 	 -102.037 	 0.627384 	 -107.502 	 
C 	 -102.251 	 1.04621 	 -105.305 	 
H 	 -102.304 	 0.487634 	 -104.406 	 
H 	 -103.24 	 1.2867 	 -105.477 	 
C 	 -101.567 	 2.4426 	 -105.246 	 
H 	 -101.511 	 2.70288 	 -106.304 	 
H 	 -100.615 	 2.42178 	 -104.731 	 
H 	 -102.208 	 3.19311 	 -104.655 	 
H 	 -100.708 	 -2.27786 	 -112.202 	 
H 	 -97.7559 	 -0.891487 	 -104.723 	 
*
