! wB97X-D3 SP def2-SVP
%pal
nprocs 24
end

* xyz 0 1
S 	 -120.289 	 34.1622 	 -116.187 	 
C 	 -119.384 	 33.5533 	 -117.578 	 
C 	 -118.502 	 34.4797 	 -118.098 	 
C 	 -118.564 	 35.6663 	 -117.294 	 
C 	 -119.532 	 35.6908 	 -116.235 	 
H 	 -117.905 	 36.5418 	 -117.454 	 
C 	 -117.579 	 34.3774 	 -119.276 	 
H 	 -117.923 	 35.1646 	 -119.96 	 
H 	 -117.611 	 33.4384 	 -119.858 	 
C 	 -116.117 	 34.6114 	 -118.789 	 
H 	 -116.038 	 35.5575 	 -118.231 	 
H 	 -115.887 	 33.8374 	 -118.051 	 
C 	 -115.053 	 34.5411 	 -119.868 	 
H 	 -114.831 	 33.5046 	 -120.127 	 
H 	 -115.339 	 35.0001 	 -120.808 	 
H 	 -114.167 	 34.981 	 -119.495 	 
S 	 -119.52 	 35.8074 	 -113.529 	 
C 	 -119.62 	 37.371 	 -112.743 	 
C 	 -119.936 	 38.3391 	 -113.637 	 
C 	 -119.914 	 37.884 	 -114.97 	 
C 	 -119.589 	 36.5808 	 -115.104 	 
H 	 -119.997 	 39.3215 	 -113.237 	 
C 	 -120.274 	 38.827 	 -116.114 	 
H 	 -119.885 	 38.3141 	 -117.054 	 
H 	 -119.718 	 39.7303 	 -116.098 	 
C 	 -121.863 	 39.0706 	 -116.324 	 
H 	 -122.345 	 39.5466 	 -115.458 	 
H 	 -122.324 	 38.0964 	 -116.376 	 
C 	 -122.268 	 39.8851 	 -117.632 	 
H 	 -121.957 	 40.9112 	 -117.416 	 
H 	 -123.362 	 39.74 	 -117.909 	 
H 	 -121.648 	 39.5968 	 -118.449 	 
H 	 -119.611 	 32.6065 	 -118.137 	 
H 	 -119.321 	 37.6117 	 -111.745 	 
*
