! wB97X-D3 SP def2-SVP
%pal
nprocs 24
end

* xyz 0 1
S 	 -48.9083 	 13.2688 	 18.8249 	 
C 	 -50.1932 	 13.3741 	 20.0429 	 
C 	 -49.7675 	 13.9879 	 21.1823 	 
C 	 -48.4887 	 14.6068 	 21.0149 	 
C 	 -47.8924 	 14.4305 	 19.7615 	 
H 	 -48.0876 	 15.2674 	 21.7537 	 
C 	 -50.6767 	 14.1326 	 22.4214 	 
H 	 -50.1432 	 14.1423 	 23.3522 	 
H 	 -51.3046 	 13.2098 	 22.4198 	 
C 	 -51.597 	 15.4058 	 22.4144 	 
H 	 -51.9912 	 15.4911 	 21.4284 	 
H 	 -52.4117 	 15.1775 	 23.083 	 
C 	 -50.8631 	 16.701 	 22.9239 	 
H 	 -51.563 	 17.543 	 22.6583 	 
H 	 -50.6766 	 16.6226 	 24.0406 	 
H 	 -49.8794 	 16.8715 	 22.5404 	 
S 	 -45.3297 	 13.8427 	 19.0816 	 
C 	 -44.1962 	 15.1167 	 18.8015 	 
C 	 -44.8181 	 16.3119 	 19.1006 	 
C 	 -46.1714 	 16.2775 	 19.3695 	 
C 	 -46.6552 	 14.9805 	 19.2894 	 
H 	 -44.3016 	 17.2593 	 18.9746 	 
C 	 -46.9063 	 17.5108 	 19.836 	 
H 	 -47.9604 	 17.2864 	 19.8848 	 
H 	 -46.8926 	 18.1933 	 19.0427 	 
C 	 -46.5117 	 17.9711 	 21.2648 	 
H 	 -45.7213 	 17.3332 	 21.6037 	 
H 	 -47.4165 	 17.8972 	 21.971 	 
C 	 -45.9979 	 19.4258 	 21.1908 	 
H 	 -45.6077 	 19.6931 	 22.1523 	 
H 	 -46.7883 	 20.1905 	 20.9814 	 
H 	 -45.1393 	 19.4918 	 20.5122 	 
H 	 -51.1843 	 12.9198 	 19.8701 	 
H 	 -43.1694 	 15.0864 	 18.5022 	 
*
