! wB97X-D3 SP def2-SVP
%pal
nprocs 24
end

* xyz 0 1
S 	 -121.192 	 49.4122 	 -26.8773 	 
C 	 -120.599 	 48.0992 	 -27.9201 	 
C 	 -121.535 	 47.7153 	 -28.8714 	 
C 	 -122.717 	 48.511 	 -28.8151 	 
C 	 -122.687 	 49.4322 	 -27.789 	 
H 	 -123.583 	 48.3052 	 -29.4527 	 
C 	 -121.376 	 46.4889 	 -29.7561 	 
H 	 -120.358 	 46.149 	 -30.0027 	 
H 	 -121.549 	 46.7687 	 -30.8415 	 
C 	 -122.374 	 45.3231 	 -29.4528 	 
H 	 -122.351 	 45.0568 	 -28.3694 	 
H 	 -123.387 	 45.5768 	 -29.5973 	 
C 	 -121.984 	 44.0556 	 -30.2448 	 
H 	 -122.742 	 43.2824 	 -30.0036 	 
H 	 -121.85 	 44.2171 	 -31.2311 	 
H 	 -121.087 	 43.6403 	 -29.8485 	 
S 	 -123.027 	 52.0067 	 -26.7462 	 
C 	 -124.539 	 52.4763 	 -26.0858 	 
C 	 -125.52 	 51.6213 	 -26.5028 	 
C 	 -125.031 	 50.4768 	 -27.2096 	 
C 	 -123.662 	 50.4661 	 -27.2978 	 
H 	 -126.529 	 51.7624 	 -26.2998 	 
C 	 -125.941 	 49.2772 	 -27.4353 	 
H 	 -126.811 	 49.1487 	 -26.6864 	 
H 	 -125.311 	 48.4212 	 -27.247 	 
C 	 -126.545 	 49.1481 	 -28.8896 	 
H 	 -125.759 	 48.9781 	 -29.7142 	 
H 	 -127.062 	 50.0872 	 -29.2335 	 
C 	 -127.518 	 47.8957 	 -29.0764 	 
H 	 -126.958 	 46.9936 	 -29.3624 	 
H 	 -128.205 	 48.2005 	 -29.8268 	 
H 	 -127.976 	 47.8067 	 -28.1375 	 
H 	 -119.657 	 47.5867 	 -27.7107 	 
H 	 -124.755 	 53.3511 	 -25.5214 	 
*
