! wB97X-D3 SP def2-SVP
%pal
nprocs 24
end

* xyz 0 1
S 	 -134.291 	 6.19929 	 7.06588 	 
C 	 -132.739 	 6.78281 	 6.53556 	 
C 	 -131.756 	 6.20333 	 7.25967 	 
C 	 -132.209 	 5.21623 	 8.25167 	 
C 	 -133.595 	 5.20665 	 8.39279 	 
H 	 -131.535 	 4.62749 	 8.92824 	 
C 	 -130.337 	 6.44048 	 7.21087 	 
H 	 -129.939 	 6.86682 	 8.16025 	 
H 	 -130.153 	 7.20519 	 6.39813 	 
C 	 -129.484 	 5.26759 	 6.82927 	 
H 	 -129.307 	 4.50892 	 7.63226 	 
H 	 -129.956 	 4.66831 	 6.07904 	 
C 	 -128.074 	 5.6422 	 6.32606 	 
H 	 -127.389 	 4.80418 	 6.3471 	 
H 	 -128.208 	 6.03704 	 5.33358 	 
H 	 -127.669 	 6.38761 	 6.97114 	 
S 	 -134.471 	 4.7897 	 10.9445 	 
C 	 -135.724 	 3.62378 	 11.1895 	 
C 	 -136.197 	 3.11777 	 9.97894 	 
C 	 -135.31 	 3.41085 	 8.93204 	 
C 	 -134.371 	 4.32851 	 9.27171 	 
H 	 -137.005 	 2.39497 	 10.0105 	 
C 	 -135.497 	 2.76294 	 7.58202 	 
H 	 -135.178 	 3.61429 	 6.83471 	 
H 	 -136.608 	 2.62869 	 7.38165 	 
C 	 -134.685 	 1.50109 	 7.31881 	 
H 	 -135.031 	 1.02602 	 6.35206 	 
H 	 -134.848 	 0.710614 	 8.10899 	 
C 	 -133.133 	 1.60055 	 7.29427 	 
H 	 -132.83 	 2.45678 	 6.71861 	 
H 	 -132.745 	 0.682786 	 6.85841 	 
H 	 -132.679 	 1.72778 	 8.25168 	 
H 	 -132.594 	 7.64602 	 5.82922 	 
H 	 -136.058 	 3.29869 	 12.1012 	 
*
