! wB97X-D3 SP def2-SVP
%pal
nprocs 24
end

* xyz 0 1
S 	 -124.722 	 63.9554 	 -50.1802 	 
C 	 -124.468 	 65.4535 	 -49.4475 	 
C 	 -125.45 	 66.3712 	 -49.8235 	 
C 	 -126.47 	 65.7719 	 -50.6049 	 
C 	 -126.341 	 64.3626 	 -50.6187 	 
H 	 -127.309 	 66.2875 	 -51.0855 	 
C 	 -125.344 	 67.831 	 -49.6213 	 
H 	 -124.997 	 68.0527 	 -48.6432 	 
H 	 -126.304 	 68.3137 	 -49.7134 	 
C 	 -124.539 	 68.5758 	 -50.6678 	 
H 	 -123.528 	 68.1692 	 -50.5725 	 
H 	 -124.814 	 68.3081 	 -51.6932 	 
C 	 -124.503 	 70.1574 	 -50.6509 	 
H 	 -124.385 	 70.4879 	 -51.6389 	 
H 	 -125.43 	 70.5178 	 -50.234 	 
H 	 -123.651 	 70.6049 	 -50.1824 	 
S 	 -126.606 	 62.0013 	 -52.0798 	 
C 	 -128.17 	 61.3111 	 -52.3267 	 
C 	 -129.163 	 62.0914 	 -51.8767 	 
C 	 -128.672 	 63.3214 	 -51.3131 	 
C 	 -127.283 	 63.3829 	 -51.1827 	 
H 	 -130.212 	 61.7881 	 -52.0499 	 
C 	 -129.661 	 64.3221 	 -50.7163 	 
H 	 -130.694 	 64.0251 	 -50.9694 	 
H 	 -129.565 	 65.2443 	 -51.2784 	 
C 	 -129.673 	 64.602 	 -49.2141 	 
H 	 -128.77 	 65.0619 	 -48.7996 	 
H 	 -129.691 	 63.6849 	 -48.6594 	 
C 	 -130.76 	 65.5267 	 -48.7847 	 
H 	 -131.752 	 65.2243 	 -49.3308 	 
H 	 -130.533 	 66.5069 	 -49.107 	 
H 	 -130.975 	 65.4975 	 -47.6487 	 
H 	 -123.551 	 65.6787 	 -48.9949 	 
H 	 -128.395 	 60.4227 	 -52.9184 	 
*
