! wB97X-D3 SP def2-SVP
%pal
nprocs 24
end

* xyz 0 1
S 	 -63.8155 	 12.6503 	 -94.489 	 
C 	 -63.9492 	 14.297 	 -94.9506 	 
C 	 -63.2159 	 15.0964 	 -94.0455 	 
C 	 -62.6569 	 14.3634 	 -93.0117 	 
C 	 -62.6872 	 12.9669 	 -93.1959 	 
H 	 -62.1975 	 14.8269 	 -92.1374 	 
C 	 -63.3927 	 16.6313 	 -93.9864 	 
H 	 -64.1386 	 16.8477 	 -93.245 	 
H 	 -63.8257 	 16.7728 	 -95.0108 	 
C 	 -62.0716 	 17.4233 	 -93.7217 	 
H 	 -62.308 	 18.4776 	 -93.8446 	 
H 	 -61.8391 	 17.3355 	 -92.6696 	 
C 	 -60.8636 	 17.0898 	 -94.6116 	 
H 	 -60.0454 	 17.7979 	 -94.4779 	 
H 	 -60.4539 	 16.1183 	 -94.291 	 
H 	 -61.1841 	 17.0746 	 -95.5975 	 
S 	 -63.259 	 10.477 	 -91.9584 	 
C 	 -62.0856 	 9.85183 	 -90.8312 	 
C 	 -60.7975 	 10.3954 	 -91.0845 	 
C 	 -60.8761 	 11.5528 	 -91.8756 	 
C 	 -62.1446 	 11.8399 	 -92.4099 	 
H 	 -59.9225 	 10.0251 	 -90.5653 	 
C 	 -59.6688 	 12.4502 	 -91.9669 	 
H 	 -59.655 	 12.9968 	 -92.9438 	 
H 	 -58.7698 	 11.8589 	 -91.8748 	 
C 	 -59.4638 	 13.5007 	 -90.861 	 
H 	 -58.7026 	 13.3688 	 -90.0494 	 
H 	 -60.3775 	 13.6466 	 -90.2054 	 
C 	 -59.0213 	 14.8872 	 -91.5422 	 
H 	 -58.0979 	 14.8479 	 -92.0552 	 
H 	 -58.9011 	 15.5919 	 -90.7963 	 
H 	 -59.7184 	 15.093 	 -92.2787 	 
H 	 -64.5028 	 14.6624 	 -95.7782 	 
H 	 -62.214 	 9.1196 	 -90.1341 	 
*
