! wB97X-D3 SP def2-SVP
%pal
nprocs 24
end

* xyz 0 1
S 	 -72.5257 	 -0.418355 	 -66.5984 	 
C 	 -71.7061 	 1.09556 	 -66.37 	 
C 	 -72.5108 	 1.90989 	 -65.6746 	 
C 	 -73.8646 	 1.44717 	 -65.6732 	 
C 	 -74.0891 	 0.250513 	 -66.3303 	 
H 	 -74.7678 	 1.9291 	 -65.3242 	 
C 	 -72.169 	 3.28436 	 -65.0545 	 
H 	 -71.2732 	 3.14356 	 -64.406 	 
H 	 -72.9219 	 3.72974 	 -64.4408 	 
C 	 -71.9767 	 4.33589 	 -66.1682 	 
H 	 -71.3809 	 3.8959 	 -66.9657 	 
H 	 -72.9248 	 4.60734 	 -66.5891 	 
C 	 -71.2722 	 5.55772 	 -65.7141 	 
H 	 -71.935 	 6.18321 	 -65.0839 	 
H 	 -70.4114 	 5.39258 	 -65.0221 	 
H 	 -70.8526 	 6.11184 	 -66.5352 	 
S 	 -74.8205 	 -2.3886 	 -66.2408 	 
C 	 -76.6248 	 -2.71222 	 -66.1354 	 
C 	 -77.3509 	 -1.56967 	 -66.2694 	 
C 	 -76.5699 	 -0.374708 	 -66.4301 	 
C 	 -75.2248 	 -0.63563 	 -66.3904 	 
H 	 -78.409 	 -1.68462 	 -66.2476 	 
C 	 -77.2089 	 1.00227 	 -66.6257 	 
H 	 -77.9582 	 0.829626 	 -67.3854 	 
H 	 -76.5426 	 1.69491 	 -67.051 	 
C 	 -77.7258 	 1.41081 	 -65.1876 	 
H 	 -76.8703 	 1.77337 	 -64.6646 	 
H 	 -78.0643 	 0.445449 	 -64.7772 	 
C 	 -78.8151 	 2.51414 	 -65.186 	 
H 	 -79.1351 	 2.82304 	 -64.1427 	 
H 	 -79.6415 	 2.23044 	 -65.8152 	 
H 	 -78.3934 	 3.4488 	 -65.5722 	 
H 	 -70.6571 	 1.34071 	 -66.6724 	 
H 	 -77.0534 	 -3.7097 	 -65.8655 	 
*
