! wB97X-D3 SP def2-SVP
%pal
nprocs 24
end

* xyz 0 1
S 	 42.9272 	 -17.2595 	 -112.498 	 
C 	 43.1604 	 -16.9005 	 -110.774 	 
C 	 42.6913 	 -17.9019 	 -109.99 	 
C 	 41.9676 	 -18.8131 	 -110.769 	 
C 	 42.033 	 -18.689 	 -112.139 	 
H 	 41.3892 	 -19.5947 	 -110.361 	 
C 	 42.6237 	 -17.8977 	 -108.441 	 
H 	 43.5558 	 -17.4991 	 -108.065 	 
H 	 42.6872 	 -18.9521 	 -108.183 	 
C 	 41.416 	 -17.1958 	 -107.773 	 
H 	 41.4632 	 -16.1118 	 -107.912 	 
H 	 40.442 	 -17.4292 	 -108.235 	 
C 	 41.3827 	 -17.3116 	 -106.253 	 
H 	 42.3527 	 -16.9865 	 -105.848 	 
H 	 40.5433 	 -16.6859 	 -105.813 	 
H 	 41.1773 	 -18.3808 	 -105.93 	 
S 	 42.4712 	 -19.6398 	 -114.58 	 
C 	 41.4892 	 -20.8283 	 -115.34 	 
C 	 40.4267 	 -21.1992 	 -114.479 	 
C 	 40.3993 	 -20.464 	 -113.247 	 
C 	 41.5036 	 -19.5958 	 -113.154 	 
H 	 39.7858 	 -22.0309 	 -114.701 	 
C 	 39.177 	 -20.6493 	 -112.287 	 
H 	 38.2165 	 -20.6507 	 -112.699 	 
H 	 39.136 	 -19.8221 	 -111.621 	 
C 	 39.1669 	 -21.9199 	 -111.433 	 
H 	 40.1325 	 -22.0952 	 -110.925 	 
H 	 38.9094 	 -22.7993 	 -111.983 	 
C 	 38.1688 	 -21.8694 	 -110.342 	 
H 	 38.4452 	 -22.6559 	 -109.595 	 
H 	 37.1625 	 -22.0389 	 -110.827 	 
H 	 38.1268 	 -20.8696 	 -109.932 	 
H 	 43.5563 	 -16.0122 	 -110.352 	 
H 	 41.5142 	 -21.1401 	 -116.411 	 
*
