! wB97X-D3 SP def2-SVP
%pal
nprocs 24
end

* xyz 0 1
S 	 -81.8936 	 -38.6894 	 -75.9389 	 
C 	 -82.0972 	 -38.4688 	 -77.6685 	 
C 	 -82.6006 	 -39.5985 	 -78.2602 	 
C 	 -82.6258 	 -40.6909 	 -77.3781 	 
C 	 -82.4183 	 -40.3772 	 -76.0265 	 
H 	 -82.8011 	 -41.7211 	 -77.7436 	 
C 	 -83.0623 	 -39.7227 	 -79.6691 	 
H 	 -82.3182 	 -40.226 	 -80.2779 	 
H 	 -83.2985 	 -38.7472 	 -80.1581 	 
C 	 -84.3896 	 -40.4914 	 -79.8001 	 
H 	 -84.6362 	 -40.4214 	 -80.8686 	 
H 	 -84.2392 	 -41.5578 	 -79.6856 	 
C 	 -85.6354 	 -40.0365 	 -79.0564 	 
H 	 -86.0485 	 -39.0651 	 -79.486 	 
H 	 -86.3696 	 -40.9293 	 -78.9802 	 
H 	 -85.3329 	 -39.9018 	 -77.9652 	 
S 	 -83.5299 	 -40.6683 	 -73.4733 	 
C 	 -83.7672 	 -42.3589 	 -72.9008 	 
C 	 -83.1098 	 -43.238 	 -73.6691 	 
C 	 -82.4761 	 -42.6221 	 -74.809 	 
C 	 -82.7114 	 -41.2634 	 -74.9166 	 
H 	 -83.0574 	 -44.2799 	 -73.3545 	 
C 	 -81.5689 	 -43.438 	 -75.6643 	 
H 	 -81.2569 	 -42.7441 	 -76.452 	 
H 	 -82.0653 	 -44.2679 	 -76.135 	 
C 	 -80.3887 	 -44.1711 	 -74.9445 	 
H 	 -79.9006 	 -44.9044 	 -75.5835 	 
H 	 -80.7266 	 -44.684 	 -74.0998 	 
C 	 -79.2575 	 -43.1939 	 -74.46 	 
H 	 -79.6306 	 -42.345 	 -73.8816 	 
H 	 -78.9344 	 -42.6659 	 -75.4224 	 
H 	 -78.336 	 -43.5943 	 -74.0549 	 
H 	 -81.972 	 -37.4884 	 -78.0875 	 
H 	 -84.1487 	 -42.6352 	 -71.944 	 
*
