! wB97X-D3 SP def2-SVP
%pal
nprocs 24
end

* xyz 0 1
S 	 -61.4741 	 17.3202 	 22.3925 	 
C 	 -62.2413 	 16.9113 	 23.985 	 
C 	 -62.3929 	 18.081 	 24.7002 	 
C 	 -61.9446 	 19.2245 	 23.9532 	 
C 	 -61.3936 	 18.9905 	 22.6968 	 
H 	 -61.9812 	 20.2835 	 24.1745 	 
C 	 -62.8934 	 18.1015 	 26.1424 	 
H 	 -63.7513 	 17.4561 	 26.2723 	 
H 	 -63.2955 	 19.1308 	 26.4122 	 
C 	 -61.7479 	 17.8864 	 27.1476 	 
H 	 -61.181 	 17.0695 	 26.8902 	 
H 	 -61.1138 	 18.7737 	 27.3493 	 
C 	 -62.3454 	 17.5006 	 28.5373 	 
H 	 -61.5443 	 17.2191 	 29.2455 	 
H 	 -62.8683 	 18.3584 	 28.9621 	 
H 	 -62.9707 	 16.6159 	 28.359 	 
S 	 -61.7037 	 21.1786 	 20.9934 	 
C 	 -60.2913 	 22.0541 	 20.4407 	 
C 	 -59.106 	 21.3455 	 20.6332 	 
C 	 -59.3984 	 20.1548 	 21.4499 	 
C 	 -60.7426 	 19.9674 	 21.7753 	 
H 	 -58.2364 	 21.7329 	 20.1668 	 
C 	 -58.3011 	 19.2678 	 22.0256 	 
H 	 -58.4622 	 18.2407 	 21.702 	 
H 	 -58.3175 	 19.3226 	 23.0795 	 
C 	 -56.8797 	 19.7356 	 21.6366 	 
H 	 -56.5865 	 20.6298 	 22.1284 	 
H 	 -56.7653 	 19.9876 	 20.5523 	 
C 	 -55.7735 	 18.6557 	 22.0716 	 
H 	 -55.6528 	 18.5084 	 23.1605 	 
H 	 -54.7519 	 18.9334 	 21.6473 	 
H 	 -55.9096 	 17.589 	 21.706 	 
H 	 -62.403 	 15.9184 	 24.3997 	 
H 	 -60.2396 	 22.961 	 19.9063 	 
*
