! wB97X-D3 SP def2-SVP
%pal
nprocs 24
end

* xyz 0 1
S 	 -50.1153 	 27.3825 	 26.0626 	 
C 	 -49.6642 	 28.3394 	 24.6696 	 
C 	 -48.9981 	 29.5398 	 25.0252 	 
C 	 -48.9228 	 29.6388 	 26.4205 	 
C 	 -49.472 	 28.596 	 27.1102 	 
H 	 -48.2523 	 30.3468 	 26.8805 	 
C 	 -48.3083 	 30.524 	 24.0565 	 
H 	 -48.4138 	 31.5311 	 24.618 	 
H 	 -48.9826 	 30.5935 	 23.1603 	 
C 	 -46.8731 	 30.1281 	 23.6742 	 
H 	 -46.1332 	 30.0955 	 24.5123 	 
H 	 -46.9145 	 29.1815 	 23.1285 	 
C 	 -46.2902 	 31.1412 	 22.6944 	 
H 	 -45.4587 	 30.6901 	 22.1022 	 
H 	 -47.0899 	 31.5737 	 22.0591 	 
H 	 -45.926 	 32.0421 	 23.2192 	 
S 	 -47.5816 	 28.6179 	 29.034 	 
C 	 -48.0754 	 28.1711 	 30.602 	 
C 	 -49.4018 	 27.9347 	 30.7101 	 
C 	 -50.1305 	 28.1379 	 29.5104 	 
C 	 -49.2008 	 28.3862 	 28.5432 	 
H 	 -49.8035 	 27.5881 	 31.658 	 
C 	 -51.6228 	 28.0024 	 29.3339 	 
H 	 -51.7962 	 26.9191 	 29.2001 	 
H 	 -51.8583 	 28.3728 	 28.3547 	 
C 	 -52.3847 	 28.6228 	 30.4677 	 
H 	 -52.2176 	 29.6759 	 30.6478 	 
H 	 -52.0225 	 28.2595 	 31.4403 	 
C 	 -53.8857 	 28.3942 	 30.2785 	 
H 	 -54.5804 	 28.8689 	 30.9912 	 
H 	 -54.1121 	 27.3724 	 30.3577 	 
H 	 -54.1992 	 28.6377 	 29.3059 	 
H 	 -49.8855 	 28.0272 	 23.5954 	 
H 	 -47.3749 	 28.0926 	 31.4451 	 
*
