! wB97X-D3 SP def2-SVP
%pal
nprocs 24
end

* xyz 0 1
S 	 -34.1439 	 -34.6481 	 -90.9283 	 
C 	 -35.5106 	 -33.8064 	 -90.2046 	 
C 	 -35.1701 	 -33.0828 	 -89.0853 	 
C 	 -33.7551 	 -33.0929 	 -88.8375 	 
C 	 -33.0208 	 -33.7938 	 -89.8034 	 
H 	 -33.2652 	 -32.7306 	 -87.9586 	 
C 	 -36.0596 	 -32.3006 	 -88.2996 	 
H 	 -35.6449 	 -32.2043 	 -87.3101 	 
H 	 -36.9572 	 -32.9366 	 -88.0693 	 
C 	 -36.4484 	 -30.9735 	 -89.0547 	 
H 	 -36.8496 	 -31.2744 	 -90.0087 	 
H 	 -37.3635 	 -30.5572 	 -88.5792 	 
C 	 -35.2701 	 -30.0494 	 -89.1358 	 
H 	 -34.2775 	 -30.5343 	 -89.2958 	 
H 	 -35.6616 	 -29.2422 	 -89.8262 	 
H 	 -35.1841 	 -29.7468 	 -88.1283 	 
S 	 -31.0388 	 -35.7074 	 -89.4744 	 
C 	 -29.4074 	 -35.1634 	 -89.3865 	 
C 	 -29.2654 	 -33.8169 	 -89.5803 	 
C 	 -30.525 	 -33.1596 	 -89.7957 	 
C 	 -31.6257 	 -34.0419 	 -89.7559 	 
H 	 -28.3588 	 -33.2665 	 -89.455 	 
C 	 -30.4956 	 -31.6929 	 -90.0225 	 
H 	 -31.2267 	 -31.4569 	 -90.7661 	 
H 	 -29.4909 	 -31.4615 	 -90.4355 	 
C 	 -30.7345 	 -30.8707 	 -88.7174 	 
H 	 -30.2129 	 -31.2483 	 -87.8342 	 
H 	 -31.7778 	 -30.8731 	 -88.4692 	 
C 	 -30.3706 	 -29.395 	 -88.8622 	 
H 	 -30.7273 	 -28.947 	 -89.7364 	 
H 	 -29.2905 	 -29.1907 	 -88.8801 	 
H 	 -30.884 	 -28.8074 	 -88.0868 	 
H 	 -36.4555 	 -33.8174 	 -90.5881 	 
H 	 -28.5088 	 -35.7331 	 -89.2432 	 
*
