! wB97X-D3 SP def2-SVP
%pal
nprocs 24
end

* xyz 0 1
S 	 -35.4531 	 8.56415 	 4.60325 	 
C 	 -35.713 	 8.84279 	 6.31276 	 
C 	 -35.401 	 7.69561 	 7.04825 	 
C 	 -35.2216 	 6.54646 	 6.23679 	 
C 	 -35.2164 	 6.86835 	 4.88384 	 
H 	 -35.1059 	 5.54461 	 6.53873 	 
C 	 -35.2302 	 7.62828 	 8.55852 	 
H 	 -35.2481 	 8.68373 	 8.8928 	 
H 	 -34.2221 	 7.23471 	 8.79443 	 
C 	 -36.2547 	 6.9076 	 9.34098 	 
H 	 -36.1516 	 5.85665 	 9.09004 	 
H 	 -36.0485 	 6.95217 	 10.4501 	 
C 	 -37.674 	 7.37837 	 9.06263 	 
H 	 -38.3748 	 6.62728 	 9.43874 	 
H 	 -37.9794 	 8.31497 	 9.49283 	 
H 	 -37.8485 	 7.5727 	 8.06615 	 
S 	 -35.9321 	 4.39175 	 3.90978 	 
C 	 -35.3573 	 3.91093 	 2.28283 	 
C 	 -34.4236 	 4.77685 	 1.83082 	 
C 	 -34.043 	 5.78373 	 2.77965 	 
C 	 -35.015 	 5.89371 	 3.7854 	 
H 	 -33.9587 	 4.51732 	 0.863157 	 
C 	 -32.7918 	 6.67192 	 2.64422 	 
H 	 -32.2601 	 6.72829 	 3.61629 	 
H 	 -33.0986 	 7.64204 	 2.3475 	 
C 	 -31.8273 	 6.4894 	 1.47852 	 
H 	 -31.0537 	 7.22984 	 1.5471 	 
H 	 -32.3214 	 6.6203 	 0.498812 	 
C 	 -31.0655 	 5.19081 	 1.58462 	 
H 	 -31.6335 	 4.17145 	 1.4054 	 
H 	 -30.4799 	 5.10126 	 2.47255 	 
H 	 -30.2693 	 5.17239 	 0.817261 	 
H 	 -35.7589 	 9.83942 	 6.68225 	 
H 	 -35.5127 	 2.929 	 1.88737 	 
*
