! wB97X-D3 SP def2-SVP
%pal
nprocs 24
end

* xyz 0 1
S 	 -36.777 	 -8.47061 	 19.5032 	 
C 	 -36.9971 	 -10.1722 	 19.1076 	 
C 	 -38.274 	 -10.6463 	 19.3966 	 
C 	 -39.0961 	 -9.61484 	 19.9861 	 
C 	 -38.4418 	 -8.37001 	 20.0073 	 
H 	 -40.0611 	 -9.68672 	 20.3377 	 
C 	 -38.726 	 -12.0302 	 19.117 	 
H 	 -39.5951 	 -12.2512 	 19.7075 	 
H 	 -38.1288 	 -12.7996 	 19.5744 	 
C 	 -38.9168 	 -12.3857 	 17.6573 	 
H 	 -39.5784 	 -11.6842 	 17.0813 	 
H 	 -37.8953 	 -12.2611 	 17.2254 	 
C 	 -39.4769 	 -13.7328 	 17.5012 	 
H 	 -39.7908 	 -13.8858 	 16.4574 	 
H 	 -38.7247 	 -14.5254 	 17.7389 	 
H 	 -40.3911 	 -13.9759 	 18 	 
S 	 -37.8422 	 -6.0958 	 21.4769 	 
C 	 -39.0135 	 -4.76921 	 21.5262 	 
C 	 -40.2457 	 -5.13981 	 20.9498 	 
C 	 -40.1505 	 -6.4618 	 20.3611 	 
C 	 -38.9522 	 -7.0899 	 20.5284 	 
H 	 -41.0676 	 -4.43552 	 21.0235 	 
C 	 -41.3196 	 -7.04099 	 19.4872 	 
H 	 -42.2044 	 -6.69569 	 19.8636 	 
H 	 -41.5894 	 -8.11694 	 19.6269 	 
C 	 -41.3113 	 -6.52631 	 17.9996 	 
H 	 -40.9492 	 -5.44612 	 17.9761 	 
H 	 -42.3625 	 -6.49432 	 17.61 	 
C 	 -40.4623 	 -7.45052 	 17.0457 	 
H 	 -40.9288 	 -8.41468 	 16.8286 	 
H 	 -39.4816 	 -7.6185 	 17.5657 	 
H 	 -40.328 	 -6.87516 	 16.0691 	 
H 	 -36.1991 	 -10.8106 	 18.7817 	 
H 	 -38.921 	 -3.82419 	 22.0662 	 
*
