! wB97X-D3 SP def2-SVP
%pal
nprocs 24
end

* xyz 0 1
S 	 -102.576 	 18.9944 	 -121.766 	 
C 	 -102.747 	 20.0678 	 -120.401 	 
C 	 -102.773 	 19.3668 	 -119.244 	 
C 	 -102.821 	 17.9183 	 -119.499 	 
C 	 -102.728 	 17.5738 	 -120.793 	 
H 	 -102.783 	 17.212 	 -118.728 	 
C 	 -102.536 	 19.8062 	 -117.784 	 
H 	 -101.778 	 19.227 	 -117.252 	 
H 	 -103.483 	 19.6876 	 -117.308 	 
C 	 -102.129 	 21.2538 	 -117.544 	 
H 	 -101.081 	 21.3748 	 -117.804 	 
H 	 -102.75 	 21.9487 	 -118.082 	 
C 	 -102.389 	 21.7369 	 -116.071 	 
H 	 -101.683 	 21.2676 	 -115.482 	 
H 	 -102.258 	 22.7774 	 -115.966 	 
H 	 -103.47 	 21.4626 	 -115.717 	 
S 	 -100.588 	 16.1802 	 -121.836 	 
C 	 -100.518 	 14.4731 	 -121.777 	 
C 	 -101.734 	 13.9592 	 -121.336 	 
C 	 -102.753 	 14.9285 	 -121.06 	 
C 	 -102.213 	 16.2629 	 -121.256 	 
H 	 -101.913 	 12.9029 	 -121.36 	 
C 	 -104.179 	 14.5609 	 -120.651 	 
H 	 -104.684 	 15.462 	 -120.26 	 
H 	 -104.057 	 13.8583 	 -119.802 	 
C 	 -105.131 	 13.784 	 -121.64 	 
H 	 -104.53 	 12.9622 	 -122.014 	 
H 	 -105.462 	 14.4239 	 -122.424 	 
C 	 -106.275 	 13.163 	 -120.788 	 
H 	 -106.834 	 13.958 	 -120.231 	 
H 	 -105.798 	 12.4991 	 -120.09 	 
H 	 -107.017 	 12.5667 	 -121.348 	 
H 	 -102.566 	 21.1333 	 -120.508 	 
H 	 -99.7847 	 13.8934 	 -122.273 	 
*
