! wB97X-D3 SP def2-SVP
%pal
nprocs 24
end

* xyz 0 1
S 	 -62.4414 	 -1.39987 	 -22.4215 	 
C 	 -63.9753 	 -1.04681 	 -21.7249 	 
C 	 -64.649 	 -0.0110324 	 -22.3842 	 
C 	 -63.8874 	 0.538559 	 -23.4274 	 
C 	 -62.6993 	 -0.155568 	 -23.6723 	 
H 	 -64.1643 	 1.36313 	 -23.9536 	 
C 	 -65.9358 	 0.694611 	 -21.8697 	 
H 	 -65.7063 	 1.27822 	 -20.9094 	 
H 	 -66.549 	 -0.137528 	 -21.5137 	 
C 	 -66.6834 	 1.61765 	 -22.7923 	 
H 	 -66.1586 	 2.56065 	 -23.0904 	 
H 	 -66.7667 	 1.04653 	 -23.6934 	 
C 	 -68.1377 	 2.1281 	 -22.3293 	 
H 	 -68.9012 	 1.35275 	 -22.1709 	 
H 	 -67.9841 	 2.71374 	 -21.5252 	 
H 	 -68.6496 	 2.75251 	 -23.0198 	 
S 	 -60.2459 	 0.305865 	 -24.5016 	 
C 	 -59.8668 	 0.848075 	 -26.123 	 
C 	 -61.0742 	 0.942107 	 -26.776 	 
C 	 -62.2671 	 0.626284 	 -26.0409 	 
C 	 -61.8798 	 0.167875 	 -24.8132 	 
H 	 -61.1393 	 1.37896 	 -27.7775 	 
C 	 -63.654 	 0.756635 	 -26.6485 	 
H 	 -63.5146 	 1.3357 	 -27.5467 	 
H 	 -64.2959 	 1.38603 	 -26.0831 	 
C 	 -64.4164 	 -0.577098 	 -26.9104 	 
H 	 -65.3458 	 -0.369018 	 -27.4552 	 
H 	 -64.702 	 -1.0528 	 -25.9377 	 
C 	 -63.7059 	 -1.63618 	 -27.7494 	 
H 	 -63.2259 	 -1.22544 	 -28.5868 	 
H 	 -64.4869 	 -2.29701 	 -28.1472 	 
H 	 -62.9658 	 -2.29873 	 -27.2374 	 
H 	 -64.2579 	 -1.36409 	 -20.7432 	 
H 	 -58.943 	 1.30895 	 -26.4082 	 
*
