! wB97X-D3 SP def2-SVP
%pal
nprocs 24
end

* xyz 0 1
S 	 -31.3361 	 19.0343 	 13.0634 	 
C 	 -30.0267 	 20.1636 	 12.6668 	 
C 	 -28.8176 	 19.7197 	 13.2393 	 
C 	 -28.984 	 18.4255 	 13.8989 	 
C 	 -30.2411 	 17.8572 	 13.7463 	 
H 	 -28.2667 	 17.9175 	 14.4083 	 
C 	 -27.439 	 20.4459 	 13.2535 	 
H 	 -26.7216 	 19.7859 	 12.8633 	 
H 	 -27.338 	 20.5229 	 14.2901 	 
C 	 -27.5638 	 21.833 	 12.6446 	 
H 	 -28.1402 	 21.7267 	 11.837 	 
H 	 -28.1585 	 22.5442 	 13.2381 	 
C 	 -26.3055 	 22.7076 	 12.4719 	 
H 	 -25.5446 	 22.4225 	 13.2245 	 
H 	 -25.93 	 22.4569 	 11.5222 	 
H 	 -26.5088 	 23.7839 	 12.4455 	 
S 	 -32.0261 	 16.4462 	 15.3486 	 
C 	 -31.9702 	 14.7366 	 15.3998 	 
C 	 -30.9786 	 14.2696 	 14.5573 	 
C 	 -30.2717 	 15.318 	 13.8622 	 
C 	 -30.6746 	 16.5673 	 14.2637 	 
H 	 -30.821 	 13.1931 	 14.436 	 
C 	 -29.2926 	 14.9838 	 12.7417 	 
H 	 -28.5587 	 14.2443 	 13.0692 	 
H 	 -28.6744 	 15.8545 	 12.5132 	 
C 	 -30.0031 	 14.6128 	 11.4911 	 
H 	 -30.6547 	 13.7478 	 11.6484 	 
H 	 -29.2466 	 14.4353 	 10.6902 	 
C 	 -30.9682 	 15.6392 	 10.9029 	 
H 	 -31.9458 	 15.9103 	 11.4692 	 
H 	 -31.3986 	 15.4036 	 9.94263 	 
H 	 -30.3095 	 16.4921 	 10.7884 	 
H 	 -30.1144 	 21.113 	 12.1572 	 
H 	 -32.7286 	 14.1224 	 15.8878 	 
*
