! wB97X-D3 SP def2-SVP
%pal
nprocs 24
end

* xyz 0 1
S 	 0.830433 	 -28.9732 	 -113.364 	 
C 	 1.77041 	 -28.6348 	 -114.764 	 
C 	 3.03514 	 -28.129 	 -114.419 	 
C 	 3.09952 	 -27.9093 	 -112.981 	 
C 	 1.92541 	 -28.1572 	 -112.299 	 
H 	 3.87082 	 -27.3163 	 -112.504 	 
C 	 4.22055 	 -27.9479 	 -115.357 	 
H 	 3.99696 	 -28.5185 	 -116.272 	 
H 	 5.09627 	 -28.4835 	 -114.945 	 
C 	 4.67605 	 -26.5393 	 -115.556 	 
H 	 3.97703 	 -26.1692 	 -116.353 	 
H 	 4.74807 	 -25.9251 	 -114.696 	 
C 	 6.04982 	 -26.5085 	 -116.194 	 
H 	 6.56987 	 -27.4232 	 -116.113 	 
H 	 6.04357 	 -26.3767 	 -117.216 	 
H 	 6.84377 	 -25.7093 	 -115.918 	 
S 	 1.66489 	 -26.3518 	 -110.268 	 
C 	 1.51547 	 -26.9707 	 -108.699 	 
C 	 1.5071 	 -28.3396 	 -108.555 	 
C 	 1.63509 	 -28.9859 	 -109.834 	 
C 	 1.73857 	 -28.0195 	 -110.85 	 
H 	 1.38248 	 -28.7585 	 -107.562 	 
C 	 1.65654 	 -30.4803 	 -109.923 	 
H 	 0.802467 	 -30.7785 	 -110.452 	 
H 	 1.59121 	 -30.9895 	 -108.974 	 
C 	 2.87543 	 -31.048 	 -110.727 	 
H 	 3.83414 	 -30.6904 	 -110.328 	 
H 	 2.85773 	 -30.4307 	 -111.605 	 
C 	 2.81941 	 -32.5297 	 -111.08 	 
H 	 3.37621 	 -32.7708 	 -111.98 	 
H 	 1.71194 	 -32.5902 	 -111.333 	 
H 	 3.12491 	 -33.2583 	 -110.275 	 
H 	 1.45541 	 -28.8215 	 -115.779 	 
H 	 1.41118 	 -26.2582 	 -107.859 	 
*
