! wB97X-D3 SP def2-SVP
%pal
nprocs 24
end

* xyz 0 1
S 	 -102.385 	 2.00888 	 -119.957 	 
C 	 -102.905 	 1.58181 	 -121.565 	 
C 	 -101.949 	 1.41378 	 -122.515 	 
C 	 -100.635 	 1.69519 	 -121.952 	 
C 	 -100.72 	 1.90507 	 -120.558 	 
H 	 -99.6517 	 1.64663 	 -122.427 	 
C 	 -102.165 	 1.06564 	 -123.972 	 
H 	 -102.539 	 1.89768 	 -124.614 	 
H 	 -103.034 	 0.426915 	 -124.003 	 
C 	 -101.015 	 0.408199 	 -124.674 	 
H 	 -100.24 	 1.19243 	 -124.537 	 
H 	 -100.554 	 -0.452609 	 -124.174 	 
C 	 -101.374 	 0.0289324 	 -126.19 	 
H 	 -102.105 	 -0.827504 	 -126.215 	 
H 	 -101.954 	 0.836283 	 -126.682 	 
H 	 -100.495 	 -0.243092 	 -126.797 	 
S 	 -99.7354 	 2.05353 	 -117.947 	 
C 	 -98.1766 	 2.70447 	 -117.609 	 
C 	 -97.5224 	 2.99315 	 -118.802 	 
C 	 -98.334 	 2.82654 	 -119.965 	 
C 	 -99.5925 	 2.30875 	 -119.676 	 
H 	 -96.4032 	 3.26445 	 -118.671 	 
C 	 -97.7844 	 3.03374 	 -121.369 	 
H 	 -96.9908 	 3.82446 	 -121.248 	 
H 	 -98.581 	 3.43623 	 -121.989 	 
C 	 -96.996 	 1.85229 	 -121.994 	 
H 	 -97.6754 	 1.05159 	 -122.102 	 
H 	 -96.097 	 1.54229 	 -121.491 	 
C 	 -96.4623 	 2.01326 	 -123.458 	 
H 	 -97.2688 	 2.4203 	 -124.161 	 
H 	 -96.206 	 1.06816 	 -123.86 	 
H 	 -95.5532 	 2.70113 	 -123.461 	 
H 	 -104.024 	 1.43637 	 -121.699 	 
H 	 -97.7464 	 2.88995 	 -116.621 	 
*
