! wB97X-D3 SP def2-SVP
%pal
nprocs 24
end

* xyz 0 1
S 	 -141.085 	 4.21001 	 14.7239 	 
C 	 -141.128 	 3.52034 	 13.0937 	 
C 	 -142.25 	 3.94051 	 12.3454 	 
C 	 -143.154 	 4.65836 	 13.1544 	 
C 	 -142.769 	 4.74164 	 14.4613 	 
H 	 -144.11 	 5.02959 	 12.8229 	 
C 	 -142.473 	 3.76521 	 10.8666 	 
H 	 -143.594 	 3.75466 	 10.718 	 
H 	 -141.987 	 2.85571 	 10.4877 	 
C 	 -141.948 	 4.95704 	 9.97533 	 
H 	 -142.432 	 5.84717 	 10.4016 	 
H 	 -140.898 	 5.01622 	 10.1464 	 
C 	 -142.32 	 4.70904 	 8.5348 	 
H 	 -141.898 	 5.5403 	 7.93653 	 
H 	 -141.705 	 3.84742 	 8.12902 	 
H 	 -143.417 	 4.6193 	 8.43434 	 
S 	 -142.89 	 6.70528 	 16.3006 	 
C 	 -144.34 	 7.03434 	 17.1984 	 
C 	 -145.255 	 6.07493 	 16.9129 	 
C 	 -144.913 	 5.24938 	 15.7707 	 
C 	 -143.611 	 5.37055 	 15.4845 	 
H 	 -146.196 	 6.07946 	 17.4273 	 
C 	 -145.775 	 4.17959 	 15.1442 	 
H 	 -146.347 	 3.69262 	 15.8856 	 
H 	 -145.105 	 3.47235 	 14.7139 	 
C 	 -146.671 	 4.70338 	 14.0555 	 
H 	 -146.13 	 5.12919 	 13.1896 	 
H 	 -147.375 	 5.49184 	 14.3833 	 
C 	 -147.622 	 3.60264 	 13.5499 	 
H 	 -147.945 	 3.05229 	 14.4084 	 
H 	 -147.109 	 3.00415 	 12.7964 	 
H 	 -148.453 	 3.98739 	 12.9893 	 
H 	 -140.367 	 2.96556 	 12.6439 	 
H 	 -144.485 	 7.75679 	 18.0082 	 
*
