! wB97X-D3 SP def2-SVP
%pal
nprocs 24
end

* xyz 0 1
S 	 -129.525 	 60.9967 	 -59.0444 	 
C 	 -128.763 	 59.4932 	 -59.2624 	 
C 	 -128.571 	 58.7918 	 -58.1005 	 
C 	 -128.965 	 59.5355 	 -56.9541 	 
C 	 -129.474 	 60.7925 	 -57.2864 	 
H 	 -129.092 	 59.1049 	 -55.9382 	 
C 	 -128.044 	 57.336 	 -58.0513 	 
H 	 -127.237 	 57.4085 	 -57.3663 	 
H 	 -127.565 	 57.3272 	 -59.0116 	 
C 	 -129.081 	 56.184 	 -57.8673 	 
H 	 -129.631 	 56.2999 	 -56.983 	 
H 	 -129.798 	 56.1309 	 -58.6897 	 
C 	 -128.4 	 54.7975 	 -57.9959 	 
H 	 -128.14 	 54.6167 	 -59.053 	 
H 	 -127.488 	 54.619 	 -57.3751 	 
H 	 -129.111 	 54.0426 	 -57.7897 	 
S 	 -131.606 	 62.3264 	 -56.5747 	 
C 	 -131.574 	 63.261 	 -55.1051 	 
C 	 -130.358 	 63.1711 	 -54.4648 	 
C 	 -129.518 	 62.2225 	 -55.1329 	 
C 	 -130.009 	 61.7675 	 -56.3269 	 
H 	 -130.172 	 63.6513 	 -53.5418 	 
C 	 -128.185 	 61.798 	 -54.3805 	 
H 	 -128.129 	 60.6995 	 -54.166 	 
H 	 -128.206 	 62.3079 	 -53.4883 	 
C 	 -126.903 	 62.246 	 -55.1053 	 
H 	 -127.146 	 63.2925 	 -55.2863 	 
H 	 -127.07 	 61.8371 	 -56.0706 	 
C 	 -125.534 	 61.7503 	 -54.595 	 
H 	 -125.142 	 60.8256 	 -55.0529 	 
H 	 -125.364 	 61.6995 	 -53.5592 	 
H 	 -124.857 	 62.5983 	 -54.9767 	 
H 	 -128.468 	 59.0862 	 -60.1958 	 
H 	 -132.276 	 63.9881 	 -54.7718 	 
*
