! wB97X-D3 SP def2-SVP
%pal
nprocs 24
end

* xyz 0 1
S 	 -35.2261 	 7.53551 	 15.9839 	 
C 	 -34.6267 	 8.55192 	 14.6744 	 
C 	 -34.6971 	 9.88517 	 14.9536 	 
C 	 -35.037 	 10.1704 	 16.2859 	 
C 	 -35.2343 	 8.96718 	 17.0395 	 
H 	 -35.061 	 11.146 	 16.7742 	 
C 	 -34.4133 	 10.9508 	 13.9213 	 
H 	 -35.436 	 11.0338 	 13.6717 	 
H 	 -33.8911 	 10.6759 	 13.0635 	 
C 	 -33.7978 	 12.292 	 14.4319 	 
H 	 -33.8434 	 13.0101 	 13.6638 	 
H 	 -34.5079 	 12.5923 	 15.2355 	 
C 	 -32.4299 	 12.1483 	 14.9865 	 
H 	 -31.8825 	 13.1413 	 15.0133 	 
H 	 -32.434 	 11.7774 	 15.9787 	 
H 	 -31.8981 	 11.4049 	 14.4359 	 
S 	 -33.4552 	 8.60675 	 19.064 	 
C 	 -33.8435 	 9.15565 	 20.7087 	 
C 	 -35.1941 	 9.49852 	 20.7774 	 
C 	 -35.7897 	 9.58412 	 19.4787 	 
C 	 -35.0393 	 8.95943 	 18.5011 	 
H 	 -35.7214 	 9.84924 	 21.6332 	 
C 	 -37.1631 	 10.1704 	 19.281 	 
H 	 -37.8517 	 9.81466 	 20.0882 	 
H 	 -37.5856 	 9.72363 	 18.4041 	 
C 	 -37.0815 	 11.7641 	 19.3524 	 
H 	 -36.2934 	 12.1175 	 18.6554 	 
H 	 -36.7477 	 12.011 	 20.3735 	 
C 	 -38.3397 	 12.4015 	 18.8485 	 
H 	 -39.1449 	 12.001 	 19.5219 	 
H 	 -38.6462 	 12.1538 	 17.8506 	 
H 	 -38.2315 	 13.4876 	 18.8693 	 
H 	 -34.3887 	 8.15687 	 13.7527 	 
H 	 -33.2243 	 9.55991 	 21.4026 	 
*
