! wB97X-D3 SP def2-SVP
%pal
nprocs 24
end

* xyz 0 1
S 	 -135.13 	 6.76887 	 10.5867 	 
C 	 -134.705 	 5.77623 	 9.14886 	 
C 	 -135.039 	 4.43733 	 9.28775 	 
C 	 -135.6 	 4.24042 	 10.5983 	 
C 	 -135.552 	 5.34287 	 11.4492 	 
H 	 -135.888 	 3.28092 	 10.9819 	 
C 	 -135.012 	 3.32669 	 8.28068 	 
H 	 -134.854 	 3.91593 	 7.37734 	 
H 	 -136.07 	 2.97048 	 8.28223 	 
C 	 -133.961 	 2.18775 	 8.45108 	 
H 	 -132.931 	 2.58211 	 8.64439 	 
H 	 -134.341 	 1.65445 	 9.3253 	 
C 	 -133.985 	 1.32516 	 7.19652 	 
H 	 -133.72 	 1.97845 	 6.36858 	 
H 	 -133.24 	 0.532044 	 7.22453 	 
H 	 -134.958 	 0.927512 	 7.00787 	 
S 	 -137.02 	 4.0742 	 13.3903 	 
C 	 -137.061 	 4.77826 	 14.9866 	 
C 	 -136.098 	 5.76909 	 15.1984 	 
C 	 -135.592 	 6.17944 	 13.906 	 
C 	 -135.969 	 5.38537 	 12.8424 	 
H 	 -136.164 	 6.21715 	 16.1811 	 
C 	 -134.673 	 7.34317 	 13.9066 	 
H 	 -134.263 	 7.51813 	 12.8596 	 
H 	 -133.793 	 7.0171 	 14.4686 	 
C 	 -135.167 	 8.6773 	 14.4263 	 
H 	 -134.355 	 9.47161 	 14.4328 	 
H 	 -135.462 	 8.42831 	 15.4647 	 
C 	 -136.43 	 9.27216 	 13.8012 	 
H 	 -136.636 	 10.2368 	 14.2196 	 
H 	 -137.282 	 8.62546 	 13.9871 	 
H 	 -136.365 	 9.58453 	 12.7862 	 
H 	 -134.299 	 6.17105 	 8.23642 	 
H 	 -137.85 	 4.59829 	 15.6982 	 
*
