! wB97X-D3 SP def2-SVP
%pal
nprocs 24
end

* xyz 0 1
S 	 43.8685 	 -35.3758 	 -118.93 	 
C 	 43.0799 	 -35.3962 	 -120.498 	 
C 	 43.775 	 -34.783 	 -121.466 	 
C 	 45.0159 	 -34.3173 	 -120.956 	 
C 	 45.2508 	 -34.5461 	 -119.612 	 
H 	 45.6975 	 -33.7304 	 -121.542 	 
C 	 43.2407 	 -34.4759 	 -122.826 	 
H 	 43.7408 	 -35.2324 	 -123.39 	 
H 	 43.6176 	 -33.4282 	 -122.991 	 
C 	 41.7767 	 -34.5756 	 -123.002 	 
H 	 41.5328 	 -34.398 	 -124.019 	 
H 	 41.3843 	 -35.5635 	 -122.69 	 
C 	 41.0094 	 -33.6121 	 -122.178 	 
H 	 41.1625 	 -33.6324 	 -121.09 	 
H 	 41.1841 	 -32.5177 	 -122.492 	 
H 	 40.0075 	 -33.7314 	 -122.271 	 
S 	 47.395 	 -35.4897 	 -118.1 	 
C 	 48.5589 	 -34.3575 	 -117.44 	 
C 	 48.2252 	 -33.0928 	 -117.848 	 
C 	 47.0781 	 -32.9657 	 -118.655 	 
C 	 46.4276 	 -34.1954 	 -118.899 	 
H 	 48.8412 	 -32.2625 	 -117.582 	 
C 	 46.5522 	 -31.5776 	 -119.086 	 
H 	 46.0178 	 -31.3585 	 -118.19 	 
H 	 45.8972 	 -31.8574 	 -119.897 	 
C 	 47.6054 	 -30.4233 	 -119.456 	 
H 	 48.0156 	 -30.7687 	 -120.413 	 
H 	 48.3699 	 -30.4276 	 -118.708 	 
C 	 47.0221 	 -29.009 	 -119.491 	 
H 	 46.1171 	 -29.0394 	 -120.11 	 
H 	 47.6886 	 -28.1573 	 -119.713 	 
H 	 46.6614 	 -28.8249 	 -118.516 	 
H 	 42.1613 	 -36.0015 	 -120.728 	 
H 	 49.4857 	 -34.5052 	 -116.96 	 
*
