! wB97X-D3 SP def2-SVP
%pal
nprocs 24
end

* xyz 0 1
S 	 -48.1124 	 12.6649 	 -97.3032 	 
C 	 -48.3053 	 10.9303 	 -96.9864 	 
C 	 -49.1673 	 10.376 	 -97.9529 	 
C 	 -49.7486 	 11.3262 	 -98.825 	 
C 	 -49.1599 	 12.5925 	 -98.6825 	 
H 	 -50.4056 	 11.1241 	 -99.6781 	 
C 	 -49.5354 	 8.86896 	 -97.9505 	 
H 	 -49.1017 	 8.5498 	 -96.9728 	 
H 	 -48.951 	 8.47713 	 -98.7957 	 
C 	 -50.9319 	 8.32877 	 -98.0816 	 
H 	 -51.3263 	 8.45808 	 -99.086 	 
H 	 -50.8026 	 7.22674 	 -97.8403 	 
C 	 -51.8407 	 9.07366 	 -97.1672 	 
H 	 -51.8012 	 8.72764 	 -96.1189 	 
H 	 -51.665 	 10.1214 	 -96.9742 	 
H 	 -52.8885 	 9.09455 	 -97.416 	 
S 	 -50.2833 	 15.0905 	 -98.9738 	 
C 	 -50.3532 	 15.7838 	 -100.502 	 
C 	 -49.8706 	 14.9023 	 -101.502 	 
C 	 -49.253 	 13.7266 	 -100.922 	 
C 	 -49.3581 	 13.7172 	 -99.5323 	 
H 	 -50.0368 	 15.1485 	 -102.56 	 
C 	 -48.6617 	 12.5978 	 -101.744 	 
H 	 -48.0967 	 12.0025 	 -101.041 	 
H 	 -47.9786 	 13.0347 	 -102.447 	 
C 	 -49.545 	 11.8274 	 -102.704 	 
H 	 -50.1567 	 12.4603 	 -103.349 	 
H 	 -50.2118 	 11.3604 	 -102.012 	 
C 	 -48.8196 	 10.842 	 -103.555 	 
H 	 -49.4141 	 10.3692 	 -104.387 	 
H 	 -48.2627 	 10.0148 	 -103.024 	 
H 	 -47.9836 	 11.4111 	 -103.969 	 
H 	 -47.8003 	 10.3624 	 -96.2338 	 
H 	 -50.9997 	 16.6609 	 -100.695 	 
*
