! wB97X-D3 SP def2-SVP
%pal
nprocs 24
end

* xyz 0 1
S 	 -100.543 	 1.6585 	 -122.717 	 
C 	 -100.656 	 2.56509 	 -121.242 	 
C 	 -100.156 	 1.80073 	 -120.208 	 
C 	 -99.6755 	 0.489402 	 -120.611 	 
C 	 -99.7502 	 0.277532 	 -121.973 	 
H 	 -99.1986 	 -0.199703 	 -119.927 	 
C 	 -100.083 	 2.21773 	 -118.745 	 
H 	 -100.403 	 3.24479 	 -118.612 	 
H 	 -99.0131 	 2.24449 	 -118.446 	 
C 	 -101.013 	 1.37796 	 -117.829 	 
H 	 -101.997 	 1.52882 	 -118.182 	 
H 	 -100.761 	 0.314165 	 -117.872 	 
C 	 -101.01 	 1.94202 	 -116.408 	 
H 	 -101.361 	 1.15559 	 -115.777 	 
H 	 -100.076 	 2.04377 	 -115.892 	 
H 	 -101.703 	 2.78502 	 -116.282 	 
S 	 -100.005 	 -1.25418 	 -124.245 	 
C 	 -98.6723 	 -2.35486 	 -124.599 	 
C 	 -97.5815 	 -2.2483 	 -123.749 	 
C 	 -97.8296 	 -1.3102 	 -122.685 	 
C 	 -99.109 	 -0.719503 	 -122.815 	 
H 	 -96.6873 	 -2.81499 	 -123.873 	 
C 	 -96.815 	 -1.0014 	 -121.665 	 
H 	 -95.9708 	 -1.69726 	 -121.72 	 
H 	 -97.3726 	 -1.12242 	 -120.704 	 
C 	 -96.1923 	 0.402111 	 -121.94 	 
H 	 -96.8339 	 1.27785 	 -121.831 	 
H 	 -95.8152 	 0.483896 	 -122.992 	 
C 	 -95.0475 	 0.601648 	 -120.924 	 
H 	 -94.5642 	 1.51936 	 -121.182 	 
H 	 -94.2781 	 -0.184415 	 -121.069 	 
H 	 -95.2847 	 0.556733 	 -119.848 	 
H 	 -101.181 	 3.56597 	 -121.145 	 
H 	 -98.6606 	 -2.87808 	 -125.56 	 
*
