! wB97X-D3 SP def2-SVP
%pal
nprocs 24
end

* xyz 0 1
S 	 -36.9144 	 -6.58963 	 11.8851 	 
C 	 -35.6927 	 -5.3917 	 11.8444 	 
C 	 -36.1663 	 -4.0617 	 11.5982 	 
C 	 -37.58 	 -4.10211 	 11.3735 	 
C 	 -38.1157 	 -5.40916 	 11.3199 	 
H 	 -38.1888 	 -3.34088 	 11.0733 	 
C 	 -35.3819 	 -2.83903 	 11.2728 	 
H 	 -34.4888 	 -2.98402 	 11.8561 	 
H 	 -35.7562 	 -1.9301 	 11.7878 	 
C 	 -34.9747 	 -2.43401 	 9.82659 	 
H 	 -34.1708 	 -1.67751 	 9.8795 	 
H 	 -34.5385 	 -3.23416 	 9.372 	 
C 	 -36.2049 	 -1.98331 	 8.96847 	 
H 	 -36.8821 	 -2.84428 	 8.76485 	 
H 	 -36.775 	 -1.13537 	 9.4356 	 
H 	 -35.7764 	 -1.68891 	 8.05022 	 
S 	 -39.9724 	 -7.47098 	 10.7997 	 
C 	 -41.6362 	 -7.04449 	 10.4007 	 
C 	 -41.9145 	 -5.74628 	 10.607 	 
C 	 -40.7184 	 -4.99098 	 10.8953 	 
C 	 -39.5623 	 -5.77156 	 11.0518 	 
H 	 -42.8664 	 -5.33515 	 10.4285 	 
C 	 -40.8567 	 -3.41239 	 11.0401 	 
H 	 -40.1173 	 -3.15966 	 11.7153 	 
H 	 -41.8685 	 -3.17253 	 11.4017 	 
C 	 -40.7215 	 -2.60716 	 9.76067 	 
H 	 -41.3982 	 -3.06457 	 9.07688 	 
H 	 -39.6655 	 -2.69703 	 9.37709 	 
C 	 -41.2386 	 -1.17373 	 9.85997 	 
H 	 -40.8481 	 -0.483248 	 9.07109 	 
H 	 -40.846 	 -0.651049 	 10.7247 	 
H 	 -42.3049 	 -0.97497 	 9.89259 	 
H 	 -34.6553 	 -5.57728 	 11.9055 	 
H 	 -42.4321 	 -7.76088 	 10.0661 	 
*
