! wB97X-D3 SP def2-SVP
%pal
nprocs 24
end

* xyz 0 1
S 	 -128.096 	 67.4643 	 -58.5694 	 
C 	 -126.867 	 68.5833 	 -58.2218 	 
C 	 -126.751 	 69.5546 	 -59.2524 	 
C 	 -127.667 	 69.3347 	 -60.2745 	 
C 	 -128.464 	 68.1855 	 -60.0898 	 
H 	 -127.723 	 69.9728 	 -61.1192 	 
C 	 -125.735 	 70.6608 	 -59.3116 	 
H 	 -125.362 	 70.6382 	 -60.3383 	 
H 	 -124.955 	 70.3649 	 -58.659 	 
C 	 -126.208 	 72.0832 	 -58.8636 	 
H 	 -127.141 	 72.4794 	 -59.379 	 
H 	 -126.532 	 72.0348 	 -57.8528 	 
C 	 -125.037 	 73.0787 	 -59.1162 	 
H 	 -124.68 	 72.9586 	 -60.1487 	 
H 	 -125.356 	 74.0878 	 -58.9551 	 
H 	 -124.111 	 72.872 	 -58.5264 	 
S 	 -130.994 	 67.2982 	 -59.9593 	 
C 	 -131.81 	 66.7416 	 -61.4015 	 
C 	 -131.013 	 66.8669 	 -62.4856 	 
C 	 -129.759 	 67.4841 	 -62.2568 	 
C 	 -129.566 	 67.7294 	 -60.8715 	 
H 	 -131.379 	 66.5389 	 -63.4503 	 
C 	 -128.749 	 67.7996 	 -63.3451 	 
H 	 -127.837 	 68.1242 	 -62.9158 	 
H 	 -128.957 	 68.7263 	 -63.8745 	 
C 	 -128.609 	 66.6939 	 -64.4346 	 
H 	 -127.94 	 67.152 	 -65.2467 	 
H 	 -129.607 	 66.4481 	 -64.855 	 
C 	 -128.034 	 65.4259 	 -63.8827 	 
H 	 -127.129 	 65.5929 	 -63.3221 	 
H 	 -127.73 	 64.7766 	 -64.7217 	 
H 	 -128.713 	 64.814 	 -63.2392 	 
H 	 -126.259 	 68.6019 	 -57.343 	 
H 	 -132.865 	 66.3704 	 -61.4595 	 
*
