! wB97X-D3 SP def2-SVP
%pal
nprocs 24
end

* xyz 0 1
S 	 -67.4377 	 -55.2327 	 -82.3026 	 
C 	 -66.0176 	 -56.1369 	 -82.8526 	 
C 	 -65.3749 	 -56.7296 	 -81.7795 	 
C 	 -65.8532 	 -56.1449 	 -80.5692 	 
C 	 -67.0367 	 -55.4757 	 -80.689 	 
H 	 -65.26 	 -56.2339 	 -79.6603 	 
C 	 -64.0776 	 -57.4209 	 -81.9675 	 
H 	 -64.3253 	 -58.0578 	 -82.8672 	 
H 	 -63.9217 	 -58.1726 	 -81.2156 	 
C 	 -62.7681 	 -56.5736 	 -82.1639 	 
H 	 -61.9539 	 -57.2461 	 -82.4423 	 
H 	 -62.9215 	 -55.8875 	 -83.0207 	 
C 	 -62.4675 	 -55.7604 	 -80.9451 	 
H 	 -61.4706 	 -55.4548 	 -80.939 	 
H 	 -63.141 	 -54.9103 	 -80.9583 	 
H 	 -62.5773 	 -56.3431 	 -80.0374 	 
S 	 -68.0078 	 -53.0525 	 -79.8927 	 
C 	 -68.7927 	 -52.9016 	 -78.3205 	 
C 	 -68.8664 	 -54.1164 	 -77.6852 	 
C 	 -68.3095 	 -55.1914 	 -78.4693 	 
C 	 -67.705 	 -54.7829 	 -79.6148 	 
H 	 -69.5255 	 -54.2115 	 -76.7387 	 
C 	 -68.2824 	 -56.6181 	 -78.0146 	 
H 	 -68.4112 	 -57.2408 	 -78.9052 	 
H 	 -69.2073 	 -56.6884 	 -77.4256 	 
C 	 -67.0551 	 -57.0874 	 -77.3068 	 
H 	 -66.228 	 -56.9379 	 -78.0174 	 
H 	 -67.1164 	 -58.1123 	 -77.0644 	 
C 	 -66.7431 	 -56.2908 	 -76.0198 	 
H 	 -67.3766 	 -56.5183 	 -75.2017 	 
H 	 -66.7961 	 -55.1261 	 -76.0609 	 
H 	 -65.7564 	 -56.5623 	 -75.7894 	 
H 	 -65.8814 	 -56.4973 	 -83.844 	 
H 	 -69.29 	 -51.9803 	 -77.9524 	 
*
