! wB97X-D3 SP def2-SVP
%pal
nprocs 24
end

* xyz 0 1
S 	 -48.5311 	 -51.2252 	 -73.3029 	 
C 	 -47.7075 	 -49.759 	 -73.9281 	 
C 	 -46.3957 	 -49.7623 	 -73.5548 	 
C 	 -46.0131 	 -50.9577 	 -72.8914 	 
C 	 -47.0311 	 -51.8543 	 -72.6113 	 
H 	 -45.0411 	 -51.3357 	 -72.6642 	 
C 	 -45.3115 	 -48.7703 	 -74.0051 	 
H 	 -45.8635 	 -48.0235 	 -74.4945 	 
H 	 -44.6033 	 -49.2889 	 -74.6923 	 
C 	 -44.5266 	 -48.0498 	 -72.8866 	 
H 	 -45.0948 	 -47.322 	 -72.2546 	 
H 	 -44.0587 	 -48.7219 	 -72.1438 	 
C 	 -43.3363 	 -47.1668 	 -73.3425 	 
H 	 -42.9558 	 -46.6124 	 -72.4611 	 
H 	 -42.5049 	 -47.7575 	 -73.8474 	 
H 	 -43.6875 	 -46.5202 	 -74.1698 	 
S 	 -47.2499 	 -54.5478 	 -73.0345 	 
C 	 -46.9396 	 -55.6406 	 -71.5943 	 
C 	 -46.7354 	 -54.8949 	 -70.43 	 
C 	 -46.926 	 -53.4915 	 -70.6284 	 
C 	 -47.0721 	 -53.1822 	 -71.9685 	 
H 	 -46.4319 	 -55.5011 	 -69.6038 	 
C 	 -46.8774 	 -52.4783 	 -69.5688 	 
H 	 -47.6835 	 -52.3832 	 -68.8595 	 
H 	 -46.8698 	 -51.5097 	 -70.0317 	 
C 	 -45.5565 	 -52.5439 	 -68.707 	 
H 	 -44.7095 	 -52.2186 	 -69.3181 	 
H 	 -45.4102 	 -53.6239 	 -68.5505 	 
C 	 -45.5434 	 -51.6833 	 -67.4065 	 
H 	 -46.0683 	 -50.7062 	 -67.4713 	 
H 	 -44.4401 	 -51.5087 	 -67.1315 	 
H 	 -46.0228 	 -52.1976 	 -66.5319 	 
H 	 -48.1566 	 -48.9967 	 -74.5104 	 
H 	 -46.8451 	 -56.7043 	 -71.6406 	 
*
