! wB97X-D3 SP def2-SVP
%pal
nprocs 24
end

* xyz 0 1
S 	 -120.166 	 25.6396 	 -12.1972 	 
C 	 -119.672 	 24.4288 	 -13.3689 	 
C 	 -118.33 	 24.5114 	 -13.5765 	 
C 	 -117.67 	 25.5383 	 -12.7862 	 
C 	 -118.514 	 26.2382 	 -11.9938 	 
H 	 -116.642 	 25.8375 	 -12.7828 	 
C 	 -117.554 	 23.715 	 -14.5682 	 
H 	 -117.952 	 22.6892 	 -14.7197 	 
H 	 -116.541 	 23.6647 	 -14.138 	 
C 	 -117.468 	 24.3346 	 -15.9981 	 
H 	 -118.421 	 24.2081 	 -16.5113 	 
H 	 -117.189 	 25.3908 	 -15.9609 	 
C 	 -116.421 	 23.6954 	 -16.9114 	 
H 	 -116.612 	 24.0408 	 -17.8995 	 
H 	 -115.465 	 24.1495 	 -16.7079 	 
H 	 -116.386 	 22.6059 	 -17.0002 	 
S 	 -117.511 	 26.6345 	 -9.45951 	 
C 	 -116.874 	 28.1366 	 -8.98023 	 
C 	 -116.885 	 29.0142 	 -10.0219 	 
C 	 -117.692 	 28.6048 	 -11.1538 	 
C 	 -118.045 	 27.2549 	 -11.0481 	 
H 	 -116.425 	 29.9399 	 -9.84114 	 
C 	 -118.036 	 29.4237 	 -12.3736 	 
H 	 -117.798 	 28.7893 	 -13.2345 	 
H 	 -117.289 	 30.2131 	 -12.4704 	 
C 	 -119.406 	 29.9929 	 -12.3786 	 
H 	 -119.619 	 30.5215 	 -11.3909 	 
H 	 -120.069 	 29.1328 	 -12.2986 	 
C 	 -119.787 	 30.8542 	 -13.586 	 
H 	 -118.981 	 31.6501 	 -13.7663 	 
H 	 -120.602 	 31.5571 	 -13.5157 	 
H 	 -119.789 	 30.2119 	 -14.4485 	 
H 	 -120.277 	 23.9197 	 -14.0792 	 
H 	 -116.319 	 28.4205 	 -8.13662 	 
*
