! wB97X-D3 SP def2-SVP
%pal
nprocs 24
end

* xyz 0 1
S 	 -29.7751 	 8.50499 	 4.11601 	 
C 	 -29.0831 	 9.79178 	 3.15537 	 
C 	 -28.8122 	 10.8721 	 3.99567 	 
C 	 -29.4299 	 10.6852 	 5.32895 	 
C 	 -30.1558 	 9.52418 	 5.44786 	 
H 	 -29.3603 	 11.3981 	 6.13714 	 
C 	 -28.1694 	 12.1904 	 3.46053 	 
H 	 -28.1837 	 12.0524 	 2.3769 	 
H 	 -27.1469 	 12.1204 	 3.88105 	 
C 	 -28.8792 	 13.5248 	 3.89348 	 
H 	 -29.9532 	 13.5316 	 3.74283 	 
H 	 -28.7229 	 13.6008 	 4.9492 	 
C 	 -28.2681 	 14.6003 	 3.08812 	 
H 	 -28.3369 	 15.5086 	 3.78902 	 
H 	 -27.1639 	 14.4239 	 2.9947 	 
H 	 -28.6896 	 14.6183 	 2.08153 	 
S 	 -32.6975 	 9.66674 	 6.41838 	 
C 	 -33.1298 	 8.60413 	 7.7279 	 
C 	 -32.0175 	 7.94368 	 8.22403 	 
C 	 -30.7883 	 8.21542 	 7.55197 	 
C 	 -31.0008 	 9.08997 	 6.52584 	 
H 	 -32.1179 	 7.29497 	 9.14701 	 
C 	 -29.4766 	 7.51918 	 7.81903 	 
H 	 -28.8582 	 7.62632 	 6.99797 	 
H 	 -29.726 	 6.48638 	 7.7596 	 
C 	 -28.7517 	 8.06348 	 9.11495 	 
H 	 -27.8275 	 7.56731 	 9.43752 	 
H 	 -29.4095 	 7.91037 	 9.91641 	 
C 	 -28.43 	 9.58097 	 8.8788 	 
H 	 -27.9695 	 9.92866 	 9.79912 	 
H 	 -29.277 	 10.1706 	 8.8304 	 
H 	 -27.6923 	 9.82336 	 8.16544 	 
H 	 -28.7266 	 9.66391 	 2.1139 	 
H 	 -34.1617 	 8.62804 	 8.09189 	 
*
