! wB97X-D3 SP def2-SVP
%pal
nprocs 24
end

* xyz 0 1
S 	 32.7574 	 0.872358 	 -116.133 	 
C 	 31.6533 	 1.8501 	 -117.081 	 
C 	 30.49 	 2.17794 	 -116.385 	 
C 	 30.5373 	 1.62746 	 -115.074 	 
C 	 31.6624 	 0.961576 	 -114.735 	 
H 	 29.8029 	 1.69441 	 -114.343 	 
C 	 29.4121 	 3.03798 	 -116.975 	 
H 	 28.9202 	 2.44508 	 -117.713 	 
H 	 29.9066 	 3.73782 	 -117.65 	 
C 	 28.5368 	 3.97212 	 -116.114 	 
H 	 28.0771 	 3.19126 	 -115.454 	 
H 	 29.1639 	 4.65351 	 -115.495 	 
C 	 27.4241 	 4.69816 	 -116.899 	 
H 	 26.7548 	 5.26925 	 -116.286 	 
H 	 27.8908 	 5.43684 	 -117.574 	 
H 	 26.7492 	 4.03977 	 -117.446 	 
S 	 32.2776 	 -1.50009 	 -113.836 	 
C 	 32.2765 	 -1.83956 	 -112.13 	 
C 	 32.2277 	 -0.682436 	 -111.414 	 
C 	 31.9337 	 0.460205 	 -112.22 	 
C 	 31.9782 	 0.197478 	 -113.58 	 
H 	 32.1631 	 -0.736902 	 -110.354 	 
C 	 31.6071 	 1.80177 	 -111.506 	 
H 	 32.2808 	 2.50277 	 -111.959 	 
H 	 31.9209 	 1.78536 	 -110.507 	 
C 	 30.2066 	 2.34538 	 -111.491 	 
H 	 29.9514 	 2.74027 	 -112.446 	 
H 	 30.2489 	 3.22505 	 -110.832 	 
C 	 29.2627 	 1.26215 	 -111.034 	 
H 	 29.6052 	 0.80042 	 -110.077 	 
H 	 29.0834 	 0.466643 	 -111.688 	 
H 	 28.3719 	 1.86537 	 -110.887 	 
H 	 31.8606 	 2.15073 	 -118.091 	 
H 	 32.4662 	 -2.82794 	 -111.755 	 
*
