! wB97X-D3 SP def2-SVP
%pal
nprocs 24
end

* xyz 0 1
S 	 -115.801 	 14.899 	 -114.418 	 
C 	 -114.298 	 14.6561 	 -115.283 	 
C 	 -114.513 	 14.4689 	 -116.651 	 
C 	 -115.876 	 14.745 	 -116.937 	 
C 	 -116.725 	 14.9247 	 -115.855 	 
H 	 -116.347 	 14.8156 	 -117.977 	 
C 	 -113.463 	 14.4696 	 -117.696 	 
H 	 -112.521 	 14.1503 	 -117.232 	 
H 	 -113.296 	 15.5137 	 -117.864 	 
C 	 -113.719 	 13.7233 	 -119.029 	 
H 	 -114.304 	 12.8133 	 -118.793 	 
H 	 -114.37 	 14.3525 	 -119.693 	 
C 	 -112.432 	 13.155 	 -119.743 	 
H 	 -111.901 	 12.3841 	 -119.237 	 
H 	 -112.713 	 12.759 	 -120.733 	 
H 	 -111.713 	 14.0641 	 -119.894 	 
S 	 -118.912 	 13.5867 	 -116.697 	 
C 	 -120.494 	 14.058 	 -116.081 	 
C 	 -120.398 	 15.2089 	 -115.333 	 
C 	 -119.087 	 15.7431 	 -115.129 	 
C 	 -118.186 	 15.0039 	 -115.882 	 
H 	 -121.26 	 15.4857 	 -114.791 	 
C 	 -118.833 	 16.9059 	 -114.162 	 
H 	 -117.882 	 16.7157 	 -113.638 	 
H 	 -119.647 	 16.9668 	 -113.426 	 
C 	 -118.819 	 18.2712 	 -114.897 	 
H 	 -118.928 	 19.0818 	 -114.182 	 
H 	 -119.707 	 18.2616 	 -115.632 	 
C 	 -117.462 	 18.3916 	 -115.602 	 
H 	 -117.199 	 19.4133 	 -115.841 	 
H 	 -117.274 	 17.7437 	 -116.502 	 
H 	 -116.644 	 18.1253 	 -114.92 	 
H 	 -113.251 	 14.6299 	 -114.943 	 
H 	 -121.345 	 13.4353 	 -116.335 	 
*
