! wB97X-D3 SP def2-SVP
%pal
nprocs 24
end

* xyz 0 1
S 	 -109.405 	 52.4339 	 -70.0785 	 
C 	 -110.213 	 52.3104 	 -71.5987 	 
C 	 -109.356 	 52.8124 	 -72.5698 	 
C 	 -108.056 	 53.0745 	 -72.0538 	 
C 	 -107.867 	 52.6855 	 -70.7911 	 
H 	 -107.203 	 53.3544 	 -72.5699 	 
C 	 -109.658 	 53.0853 	 -74.0506 	 
H 	 -110.007 	 54.091 	 -73.8566 	 
H 	 -110.494 	 52.47 	 -74.2499 	 
C 	 -108.624 	 52.9786 	 -75.1521 	 
H 	 -107.697 	 53.5367 	 -74.8495 	 
H 	 -108.194 	 52.0163 	 -75.3951 	 
C 	 -109.046 	 53.6543 	 -76.4399 	 
H 	 -108.512 	 53.3062 	 -77.2986 	 
H 	 -110.094 	 53.3575 	 -76.6771 	 
H 	 -109.002 	 54.7636 	 -76.3967 	 
S 	 -106.338 	 51.3749 	 -68.8775 	 
C 	 -104.714 	 51.8907 	 -68.5461 	 
C 	 -104.353 	 52.9723 	 -69.3455 	 
C 	 -105.409 	 53.394 	 -70.2075 	 
C 	 -106.587 	 52.6391 	 -70.0307 	 
H 	 -103.456 	 53.5158 	 -69.3573 	 
C 	 -105.329 	 54.7055 	 -70.9864 	 
H 	 -105.657 	 54.459 	 -71.9973 	 
H 	 -104.252 	 55.0104 	 -71.0096 	 
C 	 -106.207 	 55.7779 	 -70.3193 	 
H 	 -105.951 	 56.039 	 -69.3198 	 
H 	 -107.208 	 55.3684 	 -70.2445 	 
C 	 -106.078 	 57.0841 	 -71.114 	 
H 	 -106.536 	 57.0666 	 -72.1422 	 
H 	 -105.079 	 57.4708 	 -71.1467 	 
H 	 -106.854 	 57.8017 	 -70.6736 	 
H 	 -111.294 	 52.1921 	 -71.8979 	 
H 	 -104.025 	 51.3971 	 -67.8484 	 
*
