! wB97X-D3 SP def2-SVP
%pal
nprocs 24
end

* xyz 0 1
S 	 -103.726 	 41.8021 	 -92.2592 	 
C 	 -103.688 	 40.5455 	 -91.0982 	 
C 	 -103.362 	 39.311 	 -91.6839 	 
C 	 -103.126 	 39.4836 	 -93.0906 	 
C 	 -103.256 	 40.793 	 -93.5893 	 
H 	 -102.965 	 38.6428 	 -93.7859 	 
C 	 -103.344 	 37.96 	 -90.9551 	 
H 	 -103.178 	 37.2486 	 -91.8152 	 
H 	 -104.305 	 37.8356 	 -90.5623 	 
C 	 -102.198 	 37.7832 	 -89.9668 	 
H 	 -101.228 	 38.1277 	 -90.387 	 
H 	 -102.397 	 38.3502 	 -89.0575 	 
C 	 -102.178 	 36.2778 	 -89.6595 	 
H 	 -101.645 	 35.9469 	 -88.7717 	 
H 	 -103.196 	 35.8504 	 -89.6323 	 
H 	 -101.607 	 35.8902 	 -90.5499 	 
S 	 -103.478 	 40.0352 	 -96.3364 	 
C 	 -103.019 	 41.2783 	 -97.4599 	 
C 	 -102.481 	 42.3581 	 -96.86 	 
C 	 -102.531 	 42.4008 	 -95.4534 	 
C 	 -103.08 	 41.2018 	 -94.9694 	 
H 	 -102.007 	 43.1267 	 -97.4665 	 
C 	 -102.028 	 43.4978 	 -94.5968 	 
H 	 -101.713 	 43.092 	 -93.6502 	 
H 	 -102.92 	 44.1411 	 -94.3249 	 
C 	 -100.873 	 44.3709 	 -95.1448 	 
H 	 -101.269 	 44.8222 	 -96.0522 	 
H 	 -100.031 	 43.7651 	 -95.399 	 
C 	 -100.317 	 45.407 	 -94.1208 	 
H 	 -99.3773 	 45.9243 	 -94.4669 	 
H 	 -100.109 	 44.863 	 -93.1827 	 
H 	 -101.075 	 46.175 	 -93.8475 	 
H 	 -104.059 	 40.6964 	 -90.1275 	 
H 	 -103.083 	 41.0941 	 -98.5345 	 
*
