! wB97X-D3 SP def2-SVP
%pal
nprocs 24
end

* xyz 0 1
S 	 -83.1512 	 -14.9171 	 -55.7141 	 
C 	 -84.6213 	 -14.4096 	 -54.9438 	 
C 	 -85.374 	 -15.4766 	 -54.3594 	 
C 	 -84.8905 	 -16.7658 	 -54.8052 	 
C 	 -83.6271 	 -16.6163 	 -55.4643 	 
H 	 -85.4435 	 -17.6904 	 -54.7399 	 
C 	 -86.616 	 -15.3377 	 -53.5358 	 
H 	 -87.4707 	 -15.452 	 -54.1208 	 
H 	 -86.6108 	 -14.3142 	 -53.2282 	 
C 	 -86.654 	 -16.2405 	 -52.2716 	 
H 	 -86.472 	 -17.3218 	 -52.5555 	 
H 	 -85.7365 	 -15.9104 	 -51.7339 	 
C 	 -87.8733 	 -16.0206 	 -51.3535 	 
H 	 -87.6722 	 -15.2352 	 -50.6384 	 
H 	 -88.7644 	 -15.7509 	 -51.928 	 
H 	 -88.0954 	 -16.8879 	 -50.6446 	 
S 	 -82.1351 	 -17.3156 	 -57.5529 	 
C 	 -81.7542 	 -18.9749 	 -57.924 	 
C 	 -82.2027 	 -19.8168 	 -56.9348 	 
C 	 -82.8741 	 -19.0817 	 -55.8988 	 
C 	 -82.9665 	 -17.714 	 -56.1095 	 
H 	 -82.0857 	 -20.8729 	 -56.9137 	 
C 	 -83.4383 	 -19.8068 	 -54.644 	 
H 	 -84.0387 	 -20.6028 	 -54.9923 	 
H 	 -84.0436 	 -19.0485 	 -53.9841 	 
C 	 -82.3375 	 -20.4103 	 -53.8179 	 
H 	 -81.6694 	 -21.0487 	 -54.427 	 
H 	 -82.9775 	 -21.035 	 -53.1811 	 
C 	 -81.4604 	 -19.3814 	 -53.1463 	 
H 	 -80.8095 	 -18.9436 	 -53.9421 	 
H 	 -80.7999 	 -19.8107 	 -52.4451 	 
H 	 -82.0473 	 -18.635 	 -52.6901 	 
H 	 -84.8773 	 -13.4109 	 -54.5877 	 
H 	 -81.1058 	 -19.3738 	 -58.6603 	 
*
