! wB97X-D3 SP def2-SVP
%pal
nprocs 24
end

* xyz 0 1
S 	 -124.654 	 63.9905 	 -53.6125 	 
C 	 -123.303 	 64.3928 	 -54.6885 	 
C 	 -122.068 	 64.6166 	 -54.0926 	 
C 	 -122.169 	 64.2954 	 -52.7124 	 
C 	 -123.438 	 63.896 	 -52.3152 	 
H 	 -121.424 	 64.4814 	 -51.9005 	 
C 	 -120.779 	 65.0909 	 -54.766 	 
H 	 -120.626 	 64.5788 	 -55.7191 	 
H 	 -119.868 	 64.8276 	 -54.2479 	 
C 	 -120.687 	 66.6165 	 -55.14 	 
H 	 -119.699 	 66.9046 	 -55.6768 	 
H 	 -121.476 	 66.8882 	 -55.8109 	 
C 	 -120.766 	 67.5046 	 -53.9254 	 
H 	 -121.044 	 68.557 	 -54.2108 	 
H 	 -121.616 	 67.2809 	 -53.349 	 
H 	 -119.802 	 67.5496 	 -53.4037 	 
S 	 -125.303 	 64.3074 	 -50.2752 	 
C 	 -124.964 	 63.6934 	 -48.631 	 
C 	 -123.764 	 63.0764 	 -48.5796 	 
C 	 -123.155 	 62.8158 	 -49.9064 	 
C 	 -123.846 	 63.5409 	 -50.9237 	 
H 	 -123.308 	 62.6741 	 -47.7056 	 
C 	 -121.843 	 62.06 	 -50.0735 	 
H 	 -121.375 	 62.0451 	 -49.0766 	 
H 	 -121.114 	 62.6204 	 -50.6941 	 
C 	 -121.758 	 60.6979 	 -50.7961 	 
H 	 -120.706 	 60.3919 	 -50.9086 	 
H 	 -122.165 	 60.8557 	 -51.7839 	 
C 	 -122.612 	 59.6757 	 -50.0951 	 
H 	 -123.712 	 60.0147 	 -50.187 	 
H 	 -122.413 	 59.5787 	 -49.0091 	 
H 	 -122.481 	 58.729 	 -50.6179 	 
H 	 -123.474 	 64.5643 	 -55.7172 	 
H 	 -125.557 	 63.7975 	 -47.7031 	 
*
