! wB97X-D3 SP def2-SVP
%pal
nprocs 24
end

* xyz 0 1
S 	 -109.363 	 50.8257 	 -69.684 	 
C 	 -110.094 	 50.4954 	 -71.2249 	 
C 	 -109.255 	 50.8197 	 -72.2879 	 
C 	 -108.006 	 51.4786 	 -71.7835 	 
C 	 -107.982 	 51.5399 	 -70.4094 	 
H 	 -107.256 	 51.8546 	 -72.4445 	 
C 	 -109.633 	 50.8937 	 -73.7426 	 
H 	 -109.425 	 51.8424 	 -74.1139 	 
H 	 -110.718 	 50.7281 	 -73.9465 	 
C 	 -108.895 	 49.8962 	 -74.6553 	 
H 	 -107.8 	 50.0819 	 -74.7319 	 
H 	 -109.141 	 48.8582 	 -74.3749 	 
C 	 -109.282 	 50.1334 	 -76.1041 	 
H 	 -108.961 	 49.2539 	 -76.6328 	 
H 	 -110.36 	 50.1881 	 -76.2379 	 
H 	 -108.841 	 51.0206 	 -76.6147 	 
S 	 -106.23 	 51.0008 	 -68.4352 	 
C 	 -104.878 	 52.0832 	 -68.2061 	 
C 	 -105.057 	 53.2701 	 -68.8158 	 
C 	 -106.224 	 53.2711 	 -69.6758 	 
C 	 -106.929 	 52.071 	 -69.571 	 
H 	 -104.392 	 54.1108 	 -68.733 	 
C 	 -106.386 	 54.3696 	 -70.6646 	 
H 	 -107.471 	 54.5499 	 -70.8327 	 
H 	 -105.969 	 53.9144 	 -71.5724 	 
C 	 -105.778 	 55.7228 	 -70.3134 	 
H 	 -104.687 	 55.6683 	 -70.3371 	 
H 	 -105.967 	 56.0664 	 -69.3521 	 
C 	 -106.344 	 56.6515 	 -71.3805 	 
H 	 -106.14 	 56.3088 	 -72.4136 	 
H 	 -105.907 	 57.6132 	 -71.4117 	 
H 	 -107.369 	 56.9737 	 -71.2777 	 
H 	 -111.086 	 50.0954 	 -71.2477 	 
H 	 -104.005 	 51.9524 	 -67.6264 	 
*
