! wB97X-D3 SP def2-SVP
%pal
nprocs 24
end

* xyz 0 1
S 	 -107.077 	 49.4764 	 -99.0347 	 
C 	 -106.112 	 49.9696 	 -97.6472 	 
C 	 -106.589 	 51.1709 	 -97.1452 	 
C 	 -107.81 	 51.6128 	 -97.7375 	 
C 	 -108.224 	 50.7799 	 -98.7571 	 
H 	 -108.298 	 52.4692 	 -97.3895 	 
C 	 -105.873 	 52.0279 	 -96.1645 	 
H 	 -105.606 	 52.9562 	 -96.6885 	 
H 	 -104.886 	 51.7618 	 -95.935 	 
C 	 -106.475 	 52.2332 	 -94.8181 	 
H 	 -106.101 	 53.1067 	 -94.2361 	 
H 	 -107.502 	 52.4782 	 -94.978 	 
C 	 -106.636 	 50.9181 	 -94.009 	 
H 	 -105.667 	 50.4469 	 -93.8066 	 
H 	 -107.159 	 50.8794 	 -93.0632 	 
H 	 -107.226 	 50.3418 	 -94.6432 	 
S 	 -110.593 	 49.4832 	 -99.4016 	 
C 	 -111.779 	 50.1998 	 -100.453 	 
C 	 -111.359 	 51.5159 	 -100.733 	 
C 	 -110.08 	 51.887 	 -100.205 	 
C 	 -109.454 	 50.8801 	 -99.5161 	 
H 	 -111.939 	 52.1445 	 -101.419 	 
C 	 -109.378 	 53.2017 	 -100.39 	 
H 	 -109.539 	 53.5532 	 -101.442 	 
H 	 -108.304 	 53.0603 	 -100.312 	 
C 	 -109.898 	 54.2677 	 -99.317 	 
H 	 -110.039 	 53.7643 	 -98.3446 	 
H 	 -110.945 	 54.514 	 -99.5113 	 
C 	 -109.047 	 55.5106 	 -99.3048 	 
H 	 -109.138 	 56.0627 	 -100.248 	 
H 	 -108.031 	 55.275 	 -99.0655 	 
H 	 -109.427 	 56.1471 	 -98.5494 	 
H 	 -105.19 	 49.4857 	 -97.2729 	 
H 	 -112.747 	 49.8121 	 -100.955 	 
*
