! wB97X-D3 SP def2-SVP
%pal
nprocs 24
end

* xyz 0 1
S 	 -101.486 	 13.2928 	 -122.41 	 
C 	 -100.952 	 14.4598 	 -121.275 	 
C 	 -99.664 	 14.9305 	 -121.53 	 
C 	 -99.0677 	 14.2046 	 -122.641 	 
C 	 -99.9005 	 13.2917 	 -123.216 	 
H 	 -98.0426 	 14.368 	 -122.978 	 
C 	 -98.8796 	 15.8883 	 -120.646 	 
H 	 -99.6353 	 16.1391 	 -119.903 	 
H 	 -98.8304 	 16.8134 	 -121.233 	 
C 	 -97.5023 	 15.3938 	 -120.328 	 
H 	 -97.1364 	 14.8921 	 -121.255 	 
H 	 -96.8243 	 16.2734 	 -120.166 	 
C 	 -97.4677 	 14.3841 	 -119.155 	 
H 	 -96.4989 	 13.8966 	 -119.087 	 
H 	 -97.6038 	 14.9592 	 -118.185 	 
H 	 -98.3172 	 13.6964 	 -119.147 	 
S 	 -99.0008 	 13.2297 	 -125.821 	 
C 	 -99.0493 	 11.8085 	 -126.72 	 
C 	 -99.5042 	 10.7373 	 -125.95 	 
C 	 -99.7679 	 11.1075 	 -124.622 	 
C 	 -99.7087 	 12.4852 	 -124.406 	 
H 	 -99.4042 	 9.77804 	 -126.442 	 
C 	 -100.229 	 10.1684 	 -123.5 	 
H 	 -101.192 	 9.63473 	 -123.784 	 
H 	 -100.432 	 10.9041 	 -122.725 	 
C 	 -99.2552 	 9.17816 	 -122.94 	 
H 	 -98.9743 	 8.63834 	 -123.83 	 
H 	 -99.8445 	 8.49843 	 -122.28 	 
C 	 -97.9957 	 9.67479 	 -122.244 	 
H 	 -98.2925 	 9.84157 	 -121.289 	 
H 	 -97.5671 	 10.6677 	 -122.509 	 
H 	 -97.2472 	 8.91326 	 -122.124 	 
H 	 -101.539 	 14.7993 	 -120.398 	 
H 	 -98.7211 	 11.6801 	 -127.789 	 
*
