! wB97X-D3 SP def2-SVP
%pal
nprocs 24
end

* xyz 0 1
S 	 -103.631 	 40.8434 	 -95.0738 	 
C 	 -102.333 	 39.6784 	 -94.7759 	 
C 	 -101.378 	 40.1937 	 -93.9059 	 
C 	 -101.74 	 41.4785 	 -93.3469 	 
C 	 -102.886 	 42.0114 	 -93.9288 	 
H 	 -101.165 	 42.0786 	 -92.5945 	 
C 	 -100.199 	 39.4278 	 -93.2669 	 
H 	 -99.3527 	 40.1635 	 -93.0815 	 
H 	 -99.8834 	 38.7129 	 -94.0189 	 
C 	 -100.621 	 38.5736 	 -92.0468 	 
H 	 -101.106 	 39.0343 	 -91.2154 	 
H 	 -101.312 	 37.8498 	 -92.4532 	 
C 	 -99.4036 	 37.7855 	 -91.486 	 
H 	 -98.974 	 37.1816 	 -92.224 	 
H 	 -98.608 	 38.4519 	 -90.9835 	 
H 	 -99.8379 	 37.1963 	 -90.6206 	 
S 	 -104.229 	 43.3404 	 -91.7532 	 
C 	 -104.9 	 44.9158 	 -92.0364 	 
C 	 -104.836 	 45.234 	 -93.3853 	 
C 	 -104.199 	 44.2154 	 -94.1492 	 
C 	 -103.688 	 43.1463 	 -93.4043 	 
H 	 -105.263 	 46.238 	 -93.7126 	 
C 	 -104.129 	 44.3473 	 -95.67 	 
H 	 -104.838 	 45.1717 	 -95.8212 	 
H 	 -104.643 	 43.517 	 -96.0843 	 
C 	 -102.77 	 44.6087 	 -96.3618 	 
H 	 -102.186 	 43.6485 	 -96.2741 	 
H 	 -102.202 	 45.3926 	 -95.8819 	 
C 	 -102.914 	 45.1583 	 -97.783 	 
H 	 -103.701 	 44.648 	 -98.3414 	 
H 	 -102.035 	 45.0463 	 -98.3921 	 
H 	 -102.996 	 46.1949 	 -97.6716 	 
H 	 -102.258 	 38.673 	 -95.1835 	 
H 	 -105.279 	 45.6023 	 -91.2467 	 
*
