! wB97X-D3 SP def2-SVP
%pal
nprocs 24
end

* xyz 0 1
S 	 -61.8058 	 2.66788 	 -23.226 	 
C 	 -63.2999 	 3.46442 	 -23.4723 	 
C 	 -63.7489 	 3.99376 	 -22.2356 	 
C 	 -62.7464 	 3.94843 	 -21.1837 	 
C 	 -61.5216 	 3.35082 	 -21.6457 	 
H 	 -62.736 	 4.47942 	 -20.2409 	 
C 	 -65.1809 	 4.38599 	 -21.8957 	 
H 	 -65.6106 	 3.66897 	 -21.2533 	 
H 	 -65.696 	 4.39161 	 -22.8489 	 
C 	 -65.2485 	 5.86097 	 -21.4385 	 
H 	 -64.5243 	 5.91007 	 -20.5504 	 
H 	 -64.765 	 6.52619 	 -22.1579 	 
C 	 -66.6291 	 6.43121 	 -21.1288 	 
H 	 -67.178 	 6.54613 	 -22.0322 	 
H 	 -67.1261 	 5.69365 	 -20.5085 	 
H 	 -66.621 	 7.37056 	 -20.632 	 
S 	 -59.3949 	 1.4968 	 -21.2221 	 
C 	 -57.9251 	 1.99673 	 -20.4496 	 
C 	 -58.0853 	 3.20631 	 -19.8485 	 
C 	 -59.3764 	 3.77953 	 -20.0958 	 
C 	 -60.2145 	 3.06336 	 -20.9453 	 
H 	 -57.2925 	 3.61871 	 -19.1764 	 
C 	 -59.7069 	 5.19302 	 -19.6127 	 
H 	 -59.0507 	 5.44534 	 -18.7725 	 
H 	 -60.7113 	 5.15518 	 -19.2932 	 
C 	 -59.664 	 6.31473 	 -20.6423 	 
H 	 -60.1502 	 6.11468 	 -21.5653 	 
H 	 -58.6299 	 6.29865 	 -20.9879 	 
C 	 -59.9742 	 7.70014 	 -20.1757 	 
H 	 -59.3642 	 8.00953 	 -19.3373 	 
H 	 -60.9959 	 7.70533 	 -19.7374 	 
H 	 -59.8621 	 8.38837 	 -21.0635 	 
H 	 -63.8657 	 3.26318 	 -24.3364 	 
H 	 -57.1197 	 1.40602 	 -20.303 	 
*
