! wB97X-D3 SP def2-SVP
%pal
nprocs 24
end

* xyz 0 1
S 	 -99.3185 	 4.62704 	 -7.0601 	 
C 	 -97.9339 	 5.7529 	 -7.06477 	 
C 	 -98.3804 	 7.12216 	 -6.90619 	 
C 	 -99.8015 	 7.15634 	 -6.73897 	 
C 	 -100.495 	 5.9225 	 -6.82727 	 
H 	 -100.383 	 8.06348 	 -6.65031 	 
C 	 -97.5425 	 8.32473 	 -7.00913 	 
H 	 -98.1651 	 9.19426 	 -7.04731 	 
H 	 -96.9254 	 8.22008 	 -7.94034 	 
C 	 -96.5891 	 8.55671 	 -5.81865 	 
H 	 -95.9975 	 7.68025 	 -5.61339 	 
H 	 -95.8264 	 9.32822 	 -6.09688 	 
C 	 -97.3077 	 8.91597 	 -4.49191 	 
H 	 -98.114 	 9.61546 	 -4.66242 	 
H 	 -97.8199 	 8.08011 	 -4.04944 	 
H 	 -96.5854 	 9.28177 	 -3.67937 	 
S 	 -102.748 	 5.24282 	 -8.36568 	 
C 	 -104.301 	 5.29528 	 -7.55451 	 
C 	 -104.101 	 5.63644 	 -6.19787 	 
C 	 -102.776 	 5.84594 	 -5.80672 	 
C 	 -101.936 	 5.75435 	 -6.89125 	 
H 	 -105.016 	 5.66398 	 -5.55118 	 
C 	 -102.511 	 5.98233 	 -4.33964 	 
H 	 -101.599 	 5.55735 	 -3.91077 	 
H 	 -103.365 	 5.45154 	 -3.77126 	 
C 	 -102.304 	 7.41719 	 -3.83636 	 
H 	 -101.599 	 7.9158 	 -4.47403 	 
H 	 -101.883 	 7.47217 	 -2.88541 	 
C 	 -103.551 	 8.24043 	 -3.90564 	 
H 	 -104.399 	 7.87453 	 -3.28008 	 
H 	 -103.95 	 8.27807 	 -4.94141 	 
H 	 -103.424 	 9.3206 	 -3.63976 	 
H 	 -96.8193 	 5.451 	 -7.13791 	 
H 	 -105.267 	 5.14627 	 -7.99037 	 
*
