! wB97X-D3 SP def2-SVP
%pal
nprocs 24
end

* xyz 0 1
S 	 -134.629 	 27.1442 	 -20.3675 	 
C 	 -135.336 	 26.2154 	 -19.1031 	 
C 	 -134.597 	 25.1121 	 -18.8191 	 
C 	 -133.569 	 24.8592 	 -19.8079 	 
C 	 -133.297 	 25.9917 	 -20.5362 	 
H 	 -132.848 	 24.0067 	 -19.8642 	 
C 	 -134.935 	 24.011 	 -17.7971 	 
H 	 -135.344 	 23.207 	 -18.3924 	 
H 	 -135.741 	 24.4463 	 -17.2032 	 
C 	 -133.797 	 23.5915 	 -16.97 	 
H 	 -134.205 	 22.8277 	 -16.2972 	 
H 	 -132.949 	 23.2506 	 -17.4692 	 
C 	 -133.298 	 24.6931 	 -15.9956 	 
H 	 -134.047 	 25.0269 	 -15.282 	 
H 	 -132.5 	 24.2723 	 -15.4335 	 
H 	 -132.906 	 25.612 	 -16.4439 	 
S 	 -132.921 	 26.8085 	 -23.0732 	 
C 	 -131.534 	 26.1304 	 -23.9242 	 
C 	 -130.586 	 25.662 	 -23.0351 	 
C 	 -131.097 	 25.527 	 -21.7224 	 
C 	 -132.353 	 26.1043 	 -21.5825 	 
H 	 -129.743 	 25.2331 	 -23.486 	 
C 	 -130.249 	 24.8654 	 -20.6402 	 
H 	 -130.733 	 24.8696 	 -19.6621 	 
H 	 -129.354 	 25.4398 	 -20.6612 	 
C 	 -129.696 	 23.4503 	 -20.8682 	 
H 	 -128.985 	 23.2725 	 -20.0887 	 
H 	 -129.178 	 23.3896 	 -21.8245 	 
C 	 -130.784 	 22.3592 	 -20.7196 	 
H 	 -131.249 	 22.2957 	 -19.7063 	 
H 	 -130.451 	 21.337 	 -21.0204 	 
H 	 -131.673 	 22.6815 	 -21.2887 	 
H 	 -136.262 	 26.6028 	 -18.6059 	 
H 	 -131.187 	 26.2029 	 -24.9771 	 
*
