! wB97X-D3 SP def2-SVP
%pal
nprocs 24
end

* xyz 0 1
S 	 -43.1202 	 21.546 	 23.5804 	 
C 	 -43.7353 	 19.9657 	 24.127 	 
C 	 -43.2228 	 19.6115 	 25.4113 	 
C 	 -42.2654 	 20.5812 	 25.8321 	 
C 	 -42.0523 	 21.6295 	 24.9525 	 
H 	 -41.8974 	 20.6957 	 26.8329 	 
C 	 -43.541 	 18.4672 	 26.2733 	 
H 	 -44.3367 	 17.8143 	 25.8804 	 
H 	 -43.8367 	 19.0955 	 27.151 	 
C 	 -42.328 	 17.5986 	 26.7078 	 
H 	 -41.8121 	 17.1664 	 25.8653 	 
H 	 -41.5008 	 18.2576 	 27.0636 	 
C 	 -42.6485 	 16.4984 	 27.7662 	 
H 	 -43.3426 	 15.8035 	 27.3579 	 
H 	 -41.6605 	 15.9672 	 27.9767 	 
H 	 -43.0108 	 16.8619 	 28.7022 	 
S 	 -41.569 	 24.3176 	 25.4143 	 
C 	 -40.0419 	 24.817 	 25.9157 	 
C 	 -39.1004 	 23.7755 	 25.8876 	 
C 	 -39.7092 	 22.5944 	 25.3606 	 
C 	 -41.0713 	 22.6953 	 25.2152 	 
H 	 -38.1643 	 24.1347 	 26.2799 	 
C 	 -38.8802 	 21.3287 	 25.201 	 
H 	 -38.6908 	 21.2008 	 24.1531 	 
H 	 -39.4577 	 20.4286 	 25.5094 	 
C 	 -37.5009 	 21.3456 	 25.9505 	 
H 	 -36.8575 	 22.1405 	 25.5381 	 
H 	 -36.8842 	 20.5548 	 25.5702 	 
C 	 -37.6599 	 21.2966 	 27.4894 	 
H 	 -37.2086 	 22.1854 	 27.9217 	 
H 	 -36.985 	 20.5151 	 27.9121 	 
H 	 -38.6091 	 20.9717 	 27.9262 	 
H 	 -44.4882 	 19.3901 	 23.6174 	 
H 	 -39.8153 	 25.7935 	 26.2796 	 
*
