! wB97X-D3 SP def2-SVP
%pal
nprocs 24
end

* xyz 0 1
S 	 -32.0879 	 -35.5831 	 -93.6326 	 
C 	 -32.8367 	 -33.9872 	 -93.6289 	 
C 	 -32.0147 	 -33.1885 	 -92.8049 	 
C 	 -30.7523 	 -33.8015 	 -92.441 	 
C 	 -30.6427 	 -35.1613 	 -92.7349 	 
H 	 -29.9397 	 -33.3529 	 -91.8727 	 
C 	 -32.532 	 -31.7749 	 -92.4543 	 
H 	 -32.8272 	 -31.9809 	 -91.4682 	 
H 	 -33.4626 	 -31.4682 	 -92.9022 	 
C 	 -31.4229 	 -30.6389 	 -92.5417 	 
H 	 -31.8828 	 -29.7265 	 -92.098 	 
H 	 -30.4694 	 -30.7891 	 -92.0781 	 
C 	 -31.1283 	 -30.1585 	 -93.9289 	 
H 	 -30.6759 	 -30.9395 	 -94.5616 	 
H 	 -32.1057 	 -29.8333 	 -94.3368 	 
H 	 -30.4107 	 -29.2807 	 -93.7811 	 
S 	 -29.4368 	 -37.3801 	 -93.6246 	 
C 	 -28.1465 	 -38.1607 	 -92.7691 	 
C 	 -27.7963 	 -37.3917 	 -91.6178 	 
C 	 -28.664 	 -36.218 	 -91.4096 	 
C 	 -29.5678 	 -36.1036 	 -92.4581 	 
H 	 -27.0289 	 -37.884 	 -91.0201 	 
C 	 -28.5327 	 -35.3875 	 -90.1328 	 
H 	 -29.1222 	 -34.4744 	 -90.099 	 
H 	 -27.5535 	 -34.9572 	 -90.186 	 
C 	 -28.5968 	 -36.1474 	 -88.7723 	 
H 	 -27.7867 	 -36.82 	 -88.8109 	 
H 	 -29.3987 	 -36.8721 	 -88.7253 	 
C 	 -28.4546 	 -35.1795 	 -87.5975 	 
H 	 -28.2315 	 -35.7609 	 -86.6766 	 
H 	 -29.3152 	 -34.6007 	 -87.3312 	 
H 	 -27.6612 	 -34.4792 	 -87.8662 	 
H 	 -33.8582 	 -33.7277 	 -93.7243 	 
H 	 -27.6348 	 -39.0375 	 -93.0126 	 
*
