! wB97X-D3 SP def2-SVP
%pal
nprocs 24
end

* xyz 0 1
S 	 -30.9772 	 10.9464 	 11.6083 	 
C 	 -31.1492 	 12.4614 	 10.7465 	 
C 	 -30.8318 	 13.5373 	 11.5565 	 
C 	 -30.4897 	 13.1692 	 12.8883 	 
C 	 -30.716 	 11.8051 	 13.1181 	 
H 	 -30.2959 	 13.8627 	 13.7644 	 
C 	 -30.8812 	 14.9526 	 11.1208 	 
H 	 -31.4184 	 15.5346 	 11.8917 	 
H 	 -31.5547 	 14.9162 	 10.2401 	 
C 	 -29.5136 	 15.4664 	 10.7586 	 
H 	 -28.8296 	 15.3577 	 11.5798 	 
H 	 -29.0388 	 14.9589 	 9.9163 	 
C 	 -29.455 	 16.9634 	 10.5231 	 
H 	 -29.9572 	 17.1727 	 9.5259 	 
H 	 -30.0507 	 17.4623 	 11.2811 	 
H 	 -28.4695 	 17.3194 	 10.4813 	 
S 	 -29.8284 	 9.48981 	 14.4193 	 
C 	 -30.3689 	 9.29916 	 16.0479 	 
C 	 -30.7256 	 10.4697 	 16.6843 	 
C 	 -30.9193 	 11.4797 	 15.6755 	 
C 	 -30.5372 	 11.1051 	 14.4139 	 
H 	 -30.8711 	 10.4922 	 17.7423 	 
C 	 -31.5093 	 12.7344 	 16.0932 	 
H 	 -32.2657 	 12.5557 	 16.8195 	 
H 	 -31.9863 	 13.2467 	 15.2164 	 
C 	 -30.6024 	 13.6328 	 16.9011 	 
H 	 -29.5874 	 13.5599 	 16.5931 	 
H 	 -30.542 	 13.3672 	 17.9867 	 
C 	 -31.0667 	 15.1414 	 16.8426 	 
H 	 -30.8129 	 15.7054 	 15.9264 	 
H 	 -30.429 	 15.6303 	 17.5936 	 
H 	 -32.165 	 15.314 	 17.0179 	 
H 	 -31.4519 	 12.6749 	 9.7109 	 
H 	 -30.3616 	 8.34757 	 16.564 	 
*
