! wB97X-D3 SP def2-SVP
%pal
nprocs 24
end

* xyz 0 1
S 	 -41.9425 	 6.07655 	 -0.560101 	 
C 	 -42.5228 	 4.47668 	 -0.887194 	 
C 	 -41.933 	 3.52241 	 -0.0661716 	 
C 	 -40.9254 	 4.12933 	 0.769588 	 
C 	 -40.8347 	 5.52132 	 0.739899 	 
H 	 -40.1562 	 3.62603 	 1.25209 	 
C 	 -42.0371 	 1.99608 	 -0.198544 	 
H 	 -43.0046 	 1.76394 	 -0.735814 	 
H 	 -42.3718 	 1.71389 	 0.864802 	 
C 	 -40.8217 	 1.13077 	 -0.612494 	 
H 	 -40.2578 	 1.88411 	 -1.30524 	 
H 	 -40.2211 	 0.71108 	 0.179799 	 
C 	 -41.3217 	 -0.0542734 	 -1.48619 	 
H 	 -41.7828 	 0.399873 	 -2.35935 	 
H 	 -40.5728 	 -0.777926 	 -1.78001 	 
H 	 -42.1187 	 -0.605621 	 -0.946031 	 
S 	 -38.2521 	 6.35572 	 0.869163 	 
C 	 -37.8805 	 7.84968 	 1.70968 	 
C 	 -38.9818 	 8.36697 	 2.40602 	 
C 	 -40.1687 	 7.5502 	 2.20293 	 
C 	 -39.9046 	 6.45774 	 1.38239 	 
H 	 -38.9924 	 9.25991 	 3.0028 	 
C 	 -41.4087 	 7.87471 	 2.91893 	 
H 	 -42.1542 	 7.29501 	 2.35853 	 
H 	 -41.6322 	 8.9212 	 2.67107 	 
C 	 -41.4848 	 7.75549 	 4.47939 	 
H 	 -42.5214 	 7.89805 	 4.74314 	 
H 	 -40.9118 	 8.48481 	 4.92338 	 
C 	 -41.2101 	 6.36942 	 5.09979 	 
H 	 -41.3302 	 6.44572 	 6.1805 	 
H 	 -40.2622 	 5.9268 	 4.86983 	 
H 	 -42.0138 	 5.715 	 4.77055 	 
H 	 -43.2805 	 4.27831 	 -1.63495 	 
H 	 -36.863 	 8.32157 	 1.72884 	 
*
