! wB97X-D3 SP def2-SVP
%pal
nprocs 24
end

* xyz 0 1
S 	 -30.6656 	 -38.507 	 -92.7936 	 
C 	 -30.3525 	 -38.2635 	 -91.0666 	 
C 	 -31.3742 	 -38.8028 	 -90.2803 	 
C 	 -32.3821 	 -39.397 	 -91.0497 	 
C 	 -32.1698 	 -39.3464 	 -92.433 	 
H 	 -33.2172 	 -39.9553 	 -90.6343 	 
C 	 -31.4353 	 -38.6604 	 -88.7818 	 
H 	 -31.7182 	 -39.667 	 -88.5112 	 
H 	 -32.2582 	 -38.0173 	 -88.52 	 
C 	 -30.246 	 -38.2103 	 -87.9727 	 
H 	 -30.0777 	 -37.1513 	 -88.1106 	 
H 	 -30.4383 	 -38.287 	 -86.906 	 
C 	 -29.0207 	 -39.0777 	 -88.2866 	 
H 	 -29.3442 	 -40.0707 	 -88.6342 	 
H 	 -28.3222 	 -38.7239 	 -89.0407 	 
H 	 -28.3365 	 -39.0672 	 -87.4319 	 
S 	 -32.2892 	 -41.2929 	 -94.4089 	 
C 	 -33.682 	 -41.232 	 -95.4422 	 
C 	 -34.6977 	 -40.4364 	 -94.9434 	 
C 	 -34.2782 	 -39.8511 	 -93.7233 	 
C 	 -32.9798 	 -39.9547 	 -93.4968 	 
H 	 -35.6808 	 -40.2536 	 -95.4321 	 
C 	 -35.1701 	 -38.9247 	 -92.8354 	 
H 	 -34.7277 	 -38.6063 	 -91.9193 	 
H 	 -36.0089 	 -39.5266 	 -92.4881 	 
C 	 -35.6445 	 -37.6152 	 -93.5576 	 
H 	 -36.4787 	 -37.8872 	 -94.1949 	 
H 	 -34.8322 	 -37.328 	 -94.2713 	 
C 	 -36.0186 	 -36.4781 	 -92.7069 	 
H 	 -36.5314 	 -36.8318 	 -91.7524 	 
H 	 -36.6746 	 -35.8578 	 -93.2275 	 
H 	 -35.0866 	 -35.9725 	 -92.4305 	 
H 	 -29.6724 	 -37.5733 	 -90.6893 	 
H 	 -33.7442 	 -41.7837 	 -96.3994 	 
*
