! wB97X-D3 SP def2-SVP
%pal
nprocs 24
end

* xyz 0 1
S 	 -133.204 	 67.9016 	 -54.4969 	 
C 	 -132.936 	 68.3145 	 -56.1755 	 
C 	 -134.086 	 68.526 	 -56.8804 	 
C 	 -135.174 	 68.5635 	 -55.9881 	 
C 	 -134.861 	 68.2737 	 -54.6939 	 
H 	 -136.138 	 68.7999 	 -56.2267 	 
C 	 -134.317 	 68.8345 	 -58.3374 	 
H 	 -133.471 	 69.4715 	 -58.7203 	 
H 	 -135.176 	 69.3961 	 -58.5722 	 
C 	 -134.332 	 67.5258 	 -59.1667 	 
H 	 -134.755 	 66.6357 	 -58.6159 	 
H 	 -134.855 	 67.6264 	 -60.0822 	 
C 	 -132.882 	 67.0735 	 -59.4377 	 
H 	 -132.469 	 67.8285 	 -60.1708 	 
H 	 -132.146 	 66.9022 	 -58.585 	 
H 	 -132.848 	 66.1905 	 -60.1508 	 
S 	 -135.244 	 69.1299 	 -52.1378 	 
C 	 -136.783 	 68.9022 	 -51.3257 	 
C 	 -137.713 	 68.6531 	 -52.2776 	 
C 	 -137.173 	 68.2893 	 -53.548 	 
C 	 -135.817 	 68.487 	 -53.628 	 
H 	 -138.753 	 68.5987 	 -52.069 	 
C 	 -137.964 	 67.5233 	 -54.5731 	 
H 	 -138.439 	 66.7885 	 -53.9654 	 
H 	 -137.236 	 67.0606 	 -55.2565 	 
C 	 -139.127 	 68.243 	 -55.2835 	 
H 	 -138.956 	 69.3327 	 -55.1868 	 
H 	 -140.126 	 68.0496 	 -54.8472 	 
C 	 -139.113 	 67.9445 	 -56.8164 	 
H 	 -139.474 	 66.9013 	 -56.9506 	 
H 	 -138.17 	 68.0787 	 -57.3589 	 
H 	 -139.927 	 68.3825 	 -57.3277 	 
H 	 -131.991 	 68.2356 	 -56.6168 	 
H 	 -136.941 	 68.7374 	 -50.3343 	 
*
