! wB97X-D3 SP def2-SVP
%pal
nprocs 24
end

* xyz 0 1
S 	 -112.074 	 48.7218 	 -73.1856 	 
C 	 -112.431 	 48.449 	 -74.9039 	 
C 	 -111.837 	 49.4384 	 -75.6733 	 
C 	 -111.219 	 50.4111 	 -74.799 	 
C 	 -111.157 	 50.1337 	 -73.4771 	 
H 	 -110.615 	 51.236 	 -75.0942 	 
C 	 -111.922 	 49.7013 	 -77.1997 	 
H 	 -110.91 	 49.8609 	 -77.528 	 
H 	 -112.488 	 50.6534 	 -77.3267 	 
C 	 -112.675 	 48.6489 	 -78.1035 	 
H 	 -112.436 	 48.8254 	 -79.121 	 
H 	 -112.047 	 47.7832 	 -77.9339 	 
C 	 -114.176 	 48.5832 	 -77.8444 	 
H 	 -114.384 	 48.7486 	 -76.82 	 
H 	 -114.623 	 49.4415 	 -78.3852 	 
H 	 -114.732 	 47.7707 	 -78.0748 	 
S 	 -109.482 	 50.1777 	 -71.401 	 
C 	 -109.6 	 51.5284 	 -70.2843 	 
C 	 -110.23 	 52.6272 	 -70.8264 	 
C 	 -110.893 	 52.314 	 -72.0229 	 
C 	 -110.682 	 50.9161 	 -72.378 	 
H 	 -110.375 	 53.5764 	 -70.3442 	 
C 	 -111.749 	 53.2312 	 -72.7839 	 
H 	 -112.446 	 52.624 	 -73.4187 	 
H 	 -111.117 	 53.794 	 -73.516 	 
C 	 -112.687 	 54.1731 	 -71.9942 	 
H 	 -112.117 	 54.7842 	 -71.3808 	 
H 	 -113.278 	 53.4661 	 -71.3971 	 
C 	 -113.673 	 54.8516 	 -72.9883 	 
H 	 -114.337 	 55.4417 	 -72.3298 	 
H 	 -114.282 	 54.0265 	 -73.4275 	 
H 	 -113.264 	 55.5085 	 -73.7568 	 
H 	 -113.073 	 47.6547 	 -75.2854 	 
H 	 -109.028 	 51.6481 	 -69.4003 	 
*
