! wB97X-D3 SP def2-SVP
%pal
nprocs 24
end

* xyz 0 1
S 	 -115.018 	 36.6036 	 -120.834 	 
C 	 -114.318 	 35.0311 	 -120.708 	 
C 	 -115.187 	 34.17 	 -120.031 	 
C 	 -116.286 	 34.8928 	 -119.45 	 
C 	 -116.416 	 36.1467 	 -119.921 	 
H 	 -117.129 	 34.4473 	 -118.986 	 
C 	 -114.988 	 32.6596 	 -119.807 	 
H 	 -114.642 	 32.4516 	 -118.693 	 
H 	 -114.183 	 32.295 	 -120.415 	 
C 	 -116.213 	 31.7896 	 -120.15 	 
H 	 -116.875 	 31.8371 	 -119.271 	 
H 	 -116.771 	 32.0941 	 -121.044 	 
C 	 -115.988 	 30.315 	 -120.345 	 
H 	 -115.148 	 30.0692 	 -120.979 	 
H 	 -115.778 	 29.8069 	 -119.366 	 
H 	 -116.907 	 29.8409 	 -120.752 	 
S 	 -118.402 	 37.4136 	 -121.282 	 
C 	 -119.576 	 38.292 	 -120.398 	 
C 	 -119.345 	 38.2873 	 -119.043 	 
C 	 -118.203 	 37.5715 	 -118.639 	 
C 	 -117.492 	 37.1273 	 -119.772 	 
H 	 -120.018 	 38.6964 	 -118.352 	 
C 	 -117.87 	 37.3215 	 -117.195 	 
H 	 -118.011 	 38.3443 	 -116.689 	 
H 	 -116.827 	 37.023 	 -117.099 	 
C 	 -118.747 	 36.2685 	 -116.503 	 
H 	 -118.67 	 35.2136 	 -116.941 	 
H 	 -119.761 	 36.5105 	 -116.743 	 
C 	 -118.638 	 36.0668 	 -115.005 	 
H 	 -119.238 	 35.2556 	 -114.664 	 
H 	 -119.044 	 37.0049 	 -114.531 	 
H 	 -117.639 	 35.9518 	 -114.525 	 
H 	 -113.357 	 34.7894 	 -120.983 	 
H 	 -120.49 	 38.5227 	 -120.752 	 
*
