! wB97X-D3 SP def2-SVP
%pal
nprocs 24
end

* xyz 0 1
S 	 -104.406 	 60.6695 	 -2.5746 	 
C 	 -102.925 	 61.5326 	 -2.95695 	 
C 	 -103.217 	 62.5365 	 -3.90301 	 
C 	 -104.622 	 62.6474 	 -4.23929 	 
C 	 -105.394 	 61.7817 	 -3.49002 	 
H 	 -105.034 	 63.179 	 -5.14758 	 
C 	 -102.164 	 63.4232 	 -4.58051 	 
H 	 -101.271 	 63.3794 	 -3.89109 	 
H 	 -102.599 	 64.4193 	 -4.51568 	 
C 	 -101.734 	 63.1635 	 -6.01881 	 
H 	 -100.963 	 62.4051 	 -6.00946 	 
H 	 -102.502 	 62.683 	 -6.58408 	 
C 	 -101.049 	 64.4009 	 -6.72138 	 
H 	 -100.534 	 64.0468 	 -7.67744 	 
H 	 -101.786 	 65.1913 	 -6.83606 	 
H 	 -100.275 	 64.9091 	 -6.11518 	 
S 	 -106.948 	 59.6774 	 -4.47641 	 
C 	 -108.621 	 59.8899 	 -4.70933 	 
C 	 -108.975 	 61.1753 	 -4.35606 	 
C 	 -107.922 	 62.0583 	 -3.93104 	 
C 	 -106.739 	 61.3633 	 -3.83046 	 
H 	 -110.011 	 61.5533 	 -4.44194 	 
C 	 -108.057 	 63.4756 	 -3.46874 	 
H 	 -107.22 	 63.6708 	 -2.80009 	 
H 	 -108.863 	 63.3248 	 -2.7335 	 
C 	 -108.315 	 64.4832 	 -4.59088 	 
H 	 -109.167 	 64.2224 	 -5.09993 	 
H 	 -107.46 	 64.3709 	 -5.22356 	 
C 	 -108.474 	 65.8805 	 -4.04992 	 
H 	 -108.758 	 66.5885 	 -4.77321 	 
H 	 -107.56 	 66.3293 	 -3.64922 	 
H 	 -109.161 	 65.8657 	 -3.20994 	 
H 	 -101.927 	 61.2935 	 -2.62875 	 
H 	 -109.295 	 59.2944 	 -5.3562 	 
*
