! wB97X-D3 SP def2-SVP
%pal
nprocs 24
end

* xyz 0 1
S 	 -104.762 	 44.2203 	 -9.60272 	 
C 	 -105.262 	 45.7443 	 -8.92842 	 
C 	 -105.954 	 46.4261 	 -9.94664 	 
C 	 -106.025 	 45.7841 	 -11.1961 	 
C 	 -105.504 	 44.5365 	 -11.1295 	 
H 	 -106.503 	 46.1316 	 -12.1139 	 
C 	 -106.616 	 47.7587 	 -9.70123 	 
H 	 -106.556 	 48.4409 	 -10.5898 	 
H 	 -105.993 	 48.3114 	 -8.97208 	 
C 	 -108.03 	 47.6764 	 -9.14768 	 
H 	 -108.562 	 48.673 	 -9.07129 	 
H 	 -108.606 	 47.175 	 -9.8953 	 
C 	 -108.153 	 46.9612 	 -7.82646 	 
H 	 -107.887 	 46.0005 	 -8.10301 	 
H 	 -107.593 	 47.2731 	 -7.02789 	 
H 	 -109.205 	 47.0716 	 -7.5762 	 
S 	 -104.257 	 43.1011 	 -13.128 	 
C 	 -105.134 	 41.8299 	 -13.9526 	 
C 	 -106.5 	 42.0144 	 -13.7425 	 
C 	 -106.833 	 42.9588 	 -12.7196 	 
C 	 -105.69 	 43.5754 	 -12.2112 	 
H 	 -107.234 	 41.4896 	 -14.2206 	 
C 	 -108.227 	 42.996 	 -12.1254 	 
H 	 -108.198 	 43.6115 	 -11.2744 	 
H 	 -108.358 	 41.9824 	 -11.8159 	 
C 	 -109.259 	 43.6359 	 -13.0463 	 
H 	 -109.358 	 43.0289 	 -13.9903 	 
H 	 -108.887 	 44.676 	 -13.2517 	 
C 	 -110.648 	 43.8569 	 -12.5093 	 
H 	 -111.333 	 44.376 	 -13.1669 	 
H 	 -110.573 	 44.4628 	 -11.6464 	 
H 	 -110.987 	 42.9806 	 -12.1453 	 
H 	 -105.122 	 46.1174 	 -7.89387 	 
H 	 -104.753 	 41.1605 	 -14.7533 	 
*
