! wB97X-D3 SP def2-SVP
%pal
nprocs 24
end

* xyz 0 1
S 	 39.5568 	 -22.1043 	 -125.518 	 
C 	 39.4023 	 -20.6849 	 -126.561 	 
C 	 40.275 	 -19.6795 	 -126.283 	 
C 	 41.1199 	 -20.0218 	 -125.202 	 
C 	 40.9264 	 -21.2921 	 -124.622 	 
H 	 41.8514 	 -19.2869 	 -124.826 	 
C 	 40.273 	 -18.355 	 -127.007 	 
H 	 39.3511 	 -18.3598 	 -127.603 	 
H 	 41.0707 	 -18.3078 	 -127.712 	 
C 	 40.3356 	 -17.0803 	 -126.144 	 
H 	 41.2601 	 -17.1529 	 -125.589 	 
H 	 40.2618 	 -16.1846 	 -126.8 	 
C 	 39.2536 	 -17.0388 	 -124.954 	 
H 	 38.3013 	 -17.3215 	 -125.436 	 
H 	 39.598 	 -17.8291 	 -124.272 	 
H 	 39.2047 	 -16.0231 	 -124.482 	 
S 	 42.1688 	 -23.561 	 -123.691 	 
C 	 42.7253 	 -23.636 	 -122.02 	 
C 	 42.4071 	 -22.4729 	 -121.345 	 
C 	 41.6561 	 -21.5045 	 -122.097 	 
C 	 41.5499 	 -21.9005 	 -123.438 	 
H 	 42.815 	 -22.2616 	 -120.315 	 
C 	 41.0018 	 -20.3268 	 -121.452 	 
H 	 41.2105 	 -19.4321 	 -121.992 	 
H 	 41.4113 	 -20.2702 	 -120.485 	 
C 	 39.4282 	 -20.3976 	 -121.339 	 
H 	 39.1292 	 -21.3304 	 -120.763 	 
H 	 39.0937 	 -20.453 	 -122.388 	 
C 	 38.891 	 -19.1825 	 -120.517 	 
H 	 39.1191 	 -18.1716 	 -120.959 	 
H 	 39.3431 	 -19.2245 	 -119.572 	 
H 	 37.8958 	 -19.0134 	 -120.358 	 
H 	 38.6848 	 -20.5097 	 -127.381 	 
H 	 43.1819 	 -24.5068 	 -121.557 	 
*
