! wB97X-D3 SP def2-SVP
%pal
nprocs 24
end

* xyz 0 1
S 	 -58.5084 	 16.5171 	 -86.6792 	 
C 	 -59.5118 	 16.8456 	 -88.1015 	 
C 	 -59.4206 	 18.1671 	 -88.4273 	 
C 	 -58.4184 	 18.8341 	 -87.6401 	 
C 	 -57.8481 	 18.1345 	 -86.5886 	 
H 	 -58.0397 	 19.8614 	 -87.8067 	 
C 	 -60.1171 	 18.7998 	 -89.6138 	 
H 	 -60.4695 	 19.7934 	 -89.2788 	 
H 	 -61.0845 	 18.3754 	 -89.7816 	 
C 	 -59.2453 	 18.8645 	 -90.9094 	 
H 	 -58.2574 	 18.4681 	 -90.8126 	 
H 	 -59.737 	 18.1699 	 -91.5683 	 
C 	 -59.0508 	 20.2729 	 -91.4751 	 
H 	 -58.8011 	 20.8979 	 -90.6846 	 
H 	 -58.2556 	 20.4541 	 -92.1417 	 
H 	 -59.9796 	 20.7292 	 -91.9168 	 
S 	 -57.0991 	 18.5726 	 -84.0392 	 
C 	 -55.4684 	 18.9439 	 -83.5801 	 
C 	 -54.6274 	 18.9404 	 -84.706 	 
C 	 -55.3313 	 18.6974 	 -85.9313 	 
C 	 -56.701 	 18.5234 	 -85.7414 	 
H 	 -53.5349 	 19.0356 	 -84.5531 	 
C 	 -54.6923 	 18.736 	 -87.2491 	 
H 	 -53.6124 	 18.8827 	 -87.1992 	 
H 	 -55.103 	 19.7237 	 -87.675 	 
C 	 -55.0289 	 17.5574 	 -88.2666 	 
H 	 -56.0618 	 17.423 	 -88.6019 	 
H 	 -54.8873 	 16.6209 	 -87.6233 	 
C 	 -54.0186 	 17.502 	 -89.4342 	 
H 	 -54.3961 	 16.8035 	 -90.1609 	 
H 	 -53.0413 	 17.1964 	 -89.0764 	 
H 	 -53.959 	 18.4795 	 -89.9587 	 
H 	 -60.1006 	 16.0513 	 -88.5862 	 
H 	 -55.226 	 19.027 	 -82.5459 	 
*
