! wB97X-D3 SP def2-SVP
%pal
nprocs 24
end

* xyz 0 1
S 	 -135.221 	 11.3004 	 -3.75606 	 
C 	 -134.585 	 9.93427 	 -2.95183 	 
C 	 -133.912 	 10.1848 	 -1.76467 	 
C 	 -133.938 	 11.6424 	 -1.51801 	 
C 	 -134.612 	 12.3366 	 -2.50364 	 
H 	 -133.528 	 12.0761 	 -0.620696 	 
C 	 -133.215 	 9.20669 	 -0.831415 	 
H 	 -132.163 	 9.45118 	 -0.646535 	 
H 	 -133.119 	 8.29129 	 -1.31514 	 
C 	 -133.785 	 8.8373 	 0.615175 	 
H 	 -133.781 	 9.71035 	 1.28925 	 
H 	 -134.855 	 8.62172 	 0.506503 	 
C 	 -133.091 	 7.60531 	 1.19608 	 
H 	 -133.547 	 6.81797 	 0.618093 	 
H 	 -132.033 	 7.49326 	 1.0785 	 
H 	 -133.367 	 7.52747 	 2.22555 	 
S 	 -136.359 	 14.513 	 -2.91255 	 
C 	 -135.656 	 16.0342 	 -3.09782 	 
C 	 -134.356 	 16.0421 	 -2.63752 	 
C 	 -133.808 	 14.751 	 -2.44078 	 
C 	 -134.761 	 13.7923 	 -2.70742 	 
H 	 -133.802 	 16.9986 	 -2.53332 	 
C 	 -132.322 	 14.5491 	 -2.08891 	 
H 	 -131.678 	 14.2616 	 -2.96218 	 
H 	 -132.177 	 13.8092 	 -1.37176 	 
C 	 -131.638 	 15.7369 	 -1.46455 	 
H 	 -132.017 	 15.9655 	 -0.467595 	 
H 	 -131.931 	 16.6009 	 -2.04253 	 
C 	 -130.12 	 15.6181 	 -1.56687 	 
H 	 -129.74 	 14.8475 	 -0.862349 	 
H 	 -129.592 	 16.4892 	 -1.26246 	 
H 	 -129.763 	 15.3654 	 -2.5298 	 
H 	 -134.731 	 8.96412 	 -3.26474 	 
H 	 -136.159 	 17.0025 	 -3.33322 	 
*
