! wB97X-D3 SP def2-SVP
%pal
nprocs 24
end

* xyz 0 1
S 	 -46.5498 	 11.4766 	 -16.7601 	 
C 	 -46.0776 	 9.75927 	 -16.9663 	 
C 	 -45.0427 	 9.65521 	 -17.8809 	 
C 	 -44.8398 	 10.893 	 -18.5839 	 
C 	 -45.4849 	 11.994 	 -18.0911 	 
H 	 -44.1649 	 10.9263 	 -19.4513 	 
C 	 -44.2797 	 8.41166 	 -18.1148 	 
H 	 -44.5527 	 8.12849 	 -19.1254 	 
H 	 -44.6988 	 7.72365 	 -17.3881 	 
C 	 -42.8311 	 8.59672 	 -17.7899 	 
H 	 -42.4132 	 9.44375 	 -18.3608 	 
H 	 -42.841 	 8.86638 	 -16.708 	 
C 	 -41.9406 	 7.41929 	 -18.1049 	 
H 	 -40.9385 	 7.3548 	 -17.5811 	 
H 	 -42.4259 	 6.46722 	 -17.7459 	 
H 	 -41.7101 	 7.40062 	 -19.2475 	 
S 	 -46.9343 	 14.1749 	 -18.6547 	 
C 	 -46.1437 	 15.675 	 -19.0888 	 
C 	 -44.7624 	 15.532 	 -19.0561 	 
C 	 -44.2855 	 14.2594 	 -18.7572 	 
C 	 -45.4006 	 13.403 	 -18.5373 	 
H 	 -44.2074 	 16.4076 	 -19.3082 	 
C 	 -42.8999 	 13.9513 	 -18.7033 	 
H 	 -42.6565 	 13.4022 	 -17.7854 	 
H 	 -42.3085 	 14.8896 	 -18.6414 	 
C 	 -42.2901 	 13.059 	 -19.7804 	 
H 	 -42.3601 	 11.9654 	 -19.5576 	 
H 	 -41.1989 	 13.3143 	 -19.6976 	 
C 	 -42.6897 	 13.3508 	 -21.2127 	 
H 	 -42.3414 	 14.4022 	 -21.4706 	 
H 	 -43.8 	 13.3257 	 -21.37 	 
H 	 -42.1604 	 12.6818 	 -21.8788 	 
H 	 -46.4332 	 8.90016 	 -16.4092 	 
H 	 -46.6687 	 16.6093 	 -19.1922 	 
*
