! wB97X-D3 SP def2-SVP
%pal
nprocs 24
end

* xyz 0 1
S 	 -44.5174 	 -49.4075 	 -68.6346 	 
C 	 -42.8915 	 -49.172 	 -69.1127 	 
C 	 -42.0875 	 -49.2879 	 -67.9441 	 
C 	 -42.8843 	 -49.2278 	 -66.7412 	 
C 	 -44.2333 	 -49.2723 	 -66.9269 	 
H 	 -42.5006 	 -49.2336 	 -65.7553 	 
C 	 -40.5669 	 -49.272 	 -67.9114 	 
H 	 -40.1634 	 -50.2305 	 -68.2451 	 
H 	 -40.2273 	 -49.1663 	 -66.9306 	 
C 	 -39.8946 	 -48.1419 	 -68.7051 	 
H 	 -40.1998 	 -48.0984 	 -69.7553 	 
H 	 -40.0741 	 -47.2601 	 -68.1113 	 
C 	 -38.381 	 -48.338 	 -68.7061 	 
H 	 -38.0214 	 -49.1376 	 -69.4169 	 
H 	 -37.9398 	 -47.4426 	 -69.1374 	 
H 	 -37.9644 	 -48.3968 	 -67.6832 	 
S 	 -46.7514 	 -50.1694 	 -66.5651 	 
C 	 -47.5074 	 -50.1041 	 -65.0129 	 
C 	 -46.6914 	 -49.471 	 -64.0809 	 
C 	 -45.4369 	 -49.0759 	 -64.57 	 
C 	 -45.3234 	 -49.4185 	 -65.9095 	 
H 	 -47.0289 	 -49.2839 	 -63.1194 	 
C 	 -44.3779 	 -48.3778 	 -63.7207 	 
H 	 -43.9835 	 -47.4847 	 -64.266 	 
H 	 -43.624 	 -49.1738 	 -63.5058 	 
C 	 -44.7943 	 -47.7981 	 -62.3319 	 
H 	 -43.934 	 -47.7694 	 -61.6761 	 
H 	 -45.4085 	 -48.5083 	 -61.79 	 
C 	 -45.5296 	 -46.4462 	 -62.4063 	 
H 	 -45.7713 	 -46.1874 	 -61.3704 	 
H 	 -46.36 	 -46.4343 	 -63.172 	 
H 	 -44.8483 	 -45.7708 	 -62.8 	 
H 	 -42.5366 	 -49.1211 	 -70.1363 	 
H 	 -48.5302 	 -50.4022 	 -64.8354 	 
*
