! wB97X-D3 SP def2-SVP
%pal
nprocs 24
end

* xyz 0 1
S 	 -140.175 	 7.8034 	 10.9612 	 
C 	 -141.051 	 8.02029 	 9.46245 	 
C 	 -142.205 	 8.74103 	 9.79544 	 
C 	 -142.404 	 9.06466 	 11.1523 	 
C 	 -141.325 	 8.75381 	 11.9542 	 
H 	 -143.184 	 9.52344 	 11.5096 	 
C 	 -143.363 	 8.95867 	 8.83045 	 
H 	 -144.255 	 8.47245 	 9.35971 	 
H 	 -143.202 	 8.45744 	 7.84454 	 
C 	 -143.748 	 10.4107 	 8.59166 	 
H 	 -143.953 	 10.858 	 9.54883 	 
H 	 -142.954 	 10.9662 	 8.21581 	 
C 	 -144.959 	 10.7577 	 7.64436 	 
H 	 -145.694 	 9.93889 	 7.53581 	 
H 	 -145.555 	 11.5919 	 8.04322 	 
H 	 -144.649 	 11.0395 	 6.61822 	 
S 	 -140.84 	 7.51537 	 14.4291 	 
C 	 -140.457 	 8.53422 	 15.8282 	 
C 	 -140.762 	 9.8409 	 15.5713 	 
C 	 -141.213 	 10.0436 	 14.2071 	 
C 	 -141.208 	 8.92374 	 13.4416 	 
H 	 -140.714 	 10.5683 	 16.3796 	 
C 	 -141.568 	 11.4121 	 13.7313 	 
H 	 -141.668 	 11.997 	 14.5921 	 
H 	 -142.557 	 11.4117 	 13.2112 	 
C 	 -140.434 	 12.0727 	 12.9402 	 
H 	 -140.188 	 11.5604 	 12.0263 	 
H 	 -139.542 	 12.1788 	 13.5471 	 
C 	 -140.771 	 13.568 	 12.5994 	 
H 	 -140.014 	 13.9332 	 11.847 	 
H 	 -140.524 	 14.1166 	 13.5286 	 
H 	 -141.781 	 13.9174 	 12.3555 	 
H 	 -140.766 	 7.7085 	 8.51567 	 
H 	 -139.95 	 8.41051 	 16.7904 	 
*
