! wB97X-D3 SP def2-SVP
%pal
nprocs 24
end

* xyz 0 1
S 	 -48.485 	 17.7211 	 29.2186 	 
C 	 -47.5617 	 18.5867 	 27.9871 	 
C 	 -46.1918 	 18.4201 	 28.1299 	 
C 	 -45.8882 	 17.6055 	 29.313 	 
C 	 -47.0394 	 17.2272 	 30.0273 	 
H 	 -44.9592 	 17.2409 	 29.6676 	 
C 	 -45.143 	 18.9748 	 27.241 	 
H 	 -44.2389 	 18.9929 	 27.9078 	 
H 	 -45.3662 	 20.0425 	 27.211 	 
C 	 -44.7757 	 18.3593 	 25.8808 	 
H 	 -45.5786 	 18.6057 	 25.1625 	 
H 	 -43.7883 	 18.8332 	 25.4946 	 
C 	 -44.6196 	 16.8399 	 26.0747 	 
H 	 -45.5111 	 16.4168 	 26.4201 	 
H 	 -44.3927 	 16.2595 	 25.1738 	 
H 	 -43.7821 	 16.7549 	 26.7712 	 
S 	 -45.7358 	 16.5893 	 32.407 	 
C 	 -46.195 	 15.1118 	 33.3474 	 
C 	 -47.2623 	 14.5062 	 32.6727 	 
C 	 -47.8385 	 15.2173 	 31.5342 	 
C 	 -47.0223 	 16.3401 	 31.2023 	 
H 	 -47.6455 	 13.5782 	 33.0876 	 
C 	 -49.0458 	 14.6941 	 30.8795 	 
H 	 -49.6522 	 15.5916 	 30.5507 	 
H 	 -49.572 	 14.1309 	 31.6737 	 
C 	 -48.7532 	 13.6403 	 29.7932 	 
H 	 -49.6566 	 13.0213 	 29.7132 	 
H 	 -47.9494 	 12.8838 	 30.1238 	 
C 	 -48.3145 	 14.2548 	 28.4159 	 
H 	 -47.3975 	 14.8423 	 28.3921 	 
H 	 -49.1513 	 14.9114 	 28.1047 	 
H 	 -48.1154 	 13.4148 	 27.7649 	 
H 	 -48.0407 	 19.0946 	 27.1403 	 
H 	 -45.579 	 14.618 	 34.1163 	 
*
