! wB97X-D3 SP def2-SVP
%pal
nprocs 24
end

* xyz 0 1
S 	 -43.1741 	 -4.88648 	 -17.6974 	 
C 	 -43.8318 	 -6.20577 	 -18.6648 	 
C 	 -42.9064 	 -7.17272 	 -18.8709 	 
C 	 -41.6379 	 -6.68928 	 -18.4859 	 
C 	 -41.5945 	 -5.53075 	 -17.7206 	 
H 	 -40.6777 	 -7.10416 	 -18.6252 	 
C 	 -43.0967 	 -8.53635 	 -19.5064 	 
H 	 -44.2076 	 -8.72414 	 -19.5555 	 
H 	 -42.6442 	 -9.24715 	 -18.7491 	 
C 	 -42.3329 	 -8.87713 	 -20.8076 	 
H 	 -42.8709 	 -8.33991 	 -21.5949 	 
H 	 -41.3347 	 -8.51427 	 -20.7607 	 
C 	 -42.2396 	 -10.3187 	 -21.2782 	 
H 	 -41.6943 	 -10.8594 	 -20.4779 	 
H 	 -43.2294 	 -10.8585 	 -21.3322 	 
H 	 -41.6321 	 -10.2931 	 -22.1622 	 
S 	 -39.5551 	 -3.68311 	 -18.1707 	 
C 	 -38.2506 	 -3.5418 	 -17.0072 	 
C 	 -38.4384 	 -4.44202 	 -16.0044 	 
C 	 -39.6925 	 -5.15545 	 -16.0839 	 
C 	 -40.417 	 -4.87489 	 -17.2332 	 
H 	 -37.6775 	 -4.57481 	 -15.239 	 
C 	 -40.1349 	 -6.20584 	 -15.1395 	 
H 	 -39.2434 	 -6.51939 	 -14.7113 	 
H 	 -40.5813 	 -7.15171 	 -15.6088 	 
C 	 -41.1427 	 -5.68367 	 -14.1415 	 
H 	 -41.9667 	 -5.17621 	 -14.7057 	 
H 	 -40.7798 	 -4.94698 	 -13.443 	 
C 	 -41.7286 	 -6.83542 	 -13.3344 	 
H 	 -41.9753 	 -7.60845 	 -14.0267 	 
H 	 -42.618 	 -6.54503 	 -12.8157 	 
H 	 -41.1494 	 -7.2227 	 -12.5852 	 
H 	 -44.8759 	 -6.28537 	 -18.9314 	 
H 	 -37.4065 	 -2.91008 	 -17.1007 	 
*
