! wB97X-D3 SP def2-SVP
%pal
nprocs 24
end

* xyz 0 1
S 	 -85.8381 	 -3.29882 	 -65.5946 	 
C 	 -86.1767 	 -2.04626 	 -66.8116 	 
C 	 -86.3783 	 -0.787955 	 -66.2131 	 
C 	 -86.1463 	 -0.91532 	 -64.8108 	 
C 	 -85.8509 	 -2.16437 	 -64.3263 	 
H 	 -86.2509 	 -0.0243512 	 -64.1895 	 
C 	 -86.8861 	 0.501418 	 -66.9156 	 
H 	 -86.9272 	 1.19727 	 -66.1519 	 
H 	 -87.9222 	 0.436965 	 -67.296 	 
C 	 -85.9615 	 1.22071 	 -67.8299 	 
H 	 -86.4653 	 2.0942 	 -68.2022 	 
H 	 -85.1067 	 1.78482 	 -67.3938 	 
C 	 -85.474 	 0.296786 	 -68.9165 	 
H 	 -84.9149 	 1.01074 	 -69.576 	 
H 	 -84.8544 	 -0.545332 	 -68.6585 	 
H 	 -86.3689 	 -0.1462 	 -69.3954 	 
S 	 -84.3728 	 -1.62773 	 -62.0471 	 
C 	 -84.46 	 -2.74277 	 -60.7334 	 
C 	 -85.3967 	 -3.73048 	 -60.92 	 
C 	 -86.0086 	 -3.66669 	 -62.2177 	 
C 	 -85.5706 	 -2.59983 	 -62.9578 	 
H 	 -85.6077 	 -4.4432 	 -60.1616 	 
C 	 -87.0022 	 -4.72607 	 -62.6618 	 
H 	 -86.7082 	 -5.60715 	 -62.0176 	 
H 	 -86.8135 	 -5.11959 	 -63.665 	 
C 	 -88.3963 	 -4.29162 	 -62.5631 	 
H 	 -89.0286 	 -5.17736 	 -62.8791 	 
H 	 -88.4719 	 -3.45466 	 -63.2175 	 
C 	 -88.8928 	 -3.77436 	 -61.2102 	 
H 	 -89.1885 	 -4.50809 	 -60.5151 	 
H 	 -89.8373 	 -3.25324 	 -61.5373 	 
H 	 -88.1419 	 -3.17018 	 -60.6862 	 
H 	 -86.5316 	 -2.1432 	 -67.8272 	 
H 	 -83.7947 	 -2.73965 	 -59.8894 	 
*
