! wB97X-D3 SP def2-SVP
%pal
nprocs 24
end

* xyz 0 1
S 	 -45.2304 	 10.7768 	 32.5056 	 
C 	 -44.0016 	 11.1837 	 31.361 	 
C 	 -44.3596 	 10.9686 	 30.0515 	 
C 	 -45.6949 	 10.4643 	 29.9723 	 
C 	 -46.3517 	 10.4157 	 31.2443 	 
H 	 -46.2843 	 10.1446 	 29.1088 	 
C 	 -43.5548 	 11.2192 	 28.8441 	 
H 	 -42.4954 	 11.0137 	 29.0996 	 
H 	 -43.6094 	 12.3047 	 28.8437 	 
C 	 -44.0279 	 10.5358 	 27.5623 	 
H 	 -45.0505 	 10.7885 	 27.4126 	 
H 	 -43.5751 	 10.9513 	 26.5939 	 
C 	 -43.6877 	 9.03424 	 27.6178 	 
H 	 -44.472 	 8.56879 	 27.067 	 
H 	 -42.6343 	 8.78374 	 27.352 	 
H 	 -43.8381 	 8.6408 	 28.6466 	 
S 	 -47.9256 	 8.19729 	 31.305 	 
C 	 -49.6406 	 8.40213 	 31.6358 	 
C 	 -49.8774 	 9.62924 	 32.1869 	 
C 	 -48.7882 	 10.5274 	 32.0993 	 
C 	 -47.6561 	 9.9192 	 31.5276 	 
H 	 -50.8133 	 9.83476 	 32.6829 	 
C 	 -48.8445 	 11.9315 	 32.5904 	 
H 	 -47.9426 	 12.4836 	 32.3431 	 
H 	 -49.0467 	 11.7546 	 33.6902 	 
C 	 -50.0745 	 12.7675 	 32.0775 	 
H 	 -50.142 	 13.7569 	 32.4718 	 
H 	 -51.0302 	 12.221 	 32.3405 	 
C 	 -50.0159 	 12.992 	 30.5888 	 
H 	 -49.2396 	 13.6761 	 30.1973 	 
H 	 -50.9965 	 13.3261 	 30.2445 	 
H 	 -49.9021 	 12.0854 	 30.0325 	 
H 	 -42.9633 	 11.4126 	 31.4601 	 
H 	 -50.3961 	 7.68939 	 31.6568 	 
*
