! wB97X-D3 SP def2-SVP
%pal
nprocs 24
end

* xyz 0 1
S 	 -49.8145 	 17.2073 	 26.7755 	 
C 	 -49.7918 	 17.1656 	 25.0316 	 
C 	 -48.6574 	 17.7635 	 24.5137 	 
C 	 -47.8889 	 18.4822 	 25.5353 	 
C 	 -48.3096 	 18.1586 	 26.8008 	 
H 	 -47.0005 	 19.042 	 25.3864 	 
C 	 -48.5026 	 18.0326 	 22.9957 	 
H 	 -48.9416 	 17.3741 	 22.4087 	 
H 	 -47.4624 	 17.8645 	 22.7515 	 
C 	 -49.0557 	 19.3931 	 22.4002 	 
H 	 -48.7154 	 20.2662 	 23.0295 	 
H 	 -48.4544 	 19.4983 	 21.5102 	 
C 	 -50.5298 	 19.4082 	 22.0708 	 
H 	 -51.125 	 19.0769 	 22.8922 	 
H 	 -50.9827 	 20.3142 	 21.7368 	 
H 	 -50.5397 	 18.5963 	 21.2543 	 
S 	 -47.9768 	 20.328 	 28.3471 	 
C 	 -47.2016 	 20.2452 	 29.9116 	 
C 	 -46.6807 	 18.9764 	 30.0944 	 
C 	 -47.0092 	 18.0418 	 29.0263 	 
C 	 -47.7377 	 18.6898 	 28.0428 	 
H 	 -46.1066 	 18.7588 	 31.0098 	 
C 	 -46.6424 	 16.5531 	 29.1762 	 
H 	 -45.5578 	 16.6025 	 29.1703 	 
H 	 -46.9744 	 16.0667 	 28.2638 	 
C 	 -47.0068 	 15.817 	 30.4609 	 
H 	 -46.7614 	 16.4484 	 31.2903 	 
H 	 -46.3838 	 14.9029 	 30.5732 	 
C 	 -48.4751 	 15.2962 	 30.557 	 
H 	 -49.166 	 16.0889 	 30.8492 	 
H 	 -48.5671 	 14.5109 	 31.2707 	 
H 	 -48.9099 	 14.9232 	 29.5814 	 
H 	 -50.5152 	 16.6735 	 24.3952 	 
H 	 -47.0886 	 21.0067 	 30.5982 	 
*
