! wB97X-D3 SP def2-SVP
%pal
nprocs 24
end

* xyz 0 1
S 	 -108.534 	 54.7655 	 -87.5091 	 
C 	 -108.416 	 53.3942 	 -86.5276 	 
C 	 -109.548 	 53.2182 	 -85.7168 	 
C 	 -110.525 	 54.2008 	 -86.037 	 
C 	 -110.078 	 55.2866 	 -86.7493 	 
H 	 -111.502 	 54.3372 	 -85.6994 	 
C 	 -109.732 	 52.1491 	 -84.6883 	 
H 	 -110.018 	 52.6483 	 -83.7833 	 
H 	 -108.741 	 51.6736 	 -84.5202 	 
C 	 -110.829 	 51.0915 	 -84.8774 	 
H 	 -110.897 	 50.9394 	 -85.9611 	 
H 	 -110.586 	 50.181 	 -84.3236 	 
C 	 -112.223 	 51.5093 	 -84.4007 	 
H 	 -112.64 	 52.2893 	 -85.0459 	 
H 	 -112.838 	 50.6709 	 -84.4006 	 
H 	 -112.292 	 51.9731 	 -83.3406 	 
S 	 -109.856 	 57.7344 	 -87.8873 	 
C 	 -111.158 	 58.8145 	 -87.9291 	 
C 	 -112.316 	 58.1983 	 -87.4816 	 
C 	 -112.137 	 56.8559 	 -87.0152 	 
C 	 -110.757 	 56.4826 	 -87.0921 	 
H 	 -113.279 	 58.7559 	 -87.4912 	 
C 	 -113.278 	 55.8756 	 -86.6913 	 
H 	 -113.171 	 55.546 	 -85.6766 	 
H 	 -113.056 	 54.9889 	 -87.3565 	 
C 	 -114.695 	 56.423 	 -86.881 	 
H 	 -114.856 	 56.7305 	 -87.9436 	 
H 	 -114.909 	 57.2875 	 -86.2575 	 
C 	 -115.779 	 55.4836 	 -86.4583 	 
H 	 -115.67 	 55.169 	 -85.3544 	 
H 	 -115.78 	 54.5722 	 -87.1437 	 
H 	 -116.811 	 56.0126 	 -86.5999 	 
H 	 -107.521 	 52.7157 	 -86.4297 	 
H 	 -111.181 	 59.7439 	 -88.4492 	 
*
