! wB97X-D3 SP def2-SVP
%pal
nprocs 24
end

* xyz 0 1
S 	 -44.0573 	 -52.3982 	 -68.7317 	 
C 	 -42.999 	 -52.9744 	 -67.3975 	 
C 	 -41.6648 	 -53.0711 	 -67.7909 	 
C 	 -41.5102 	 -52.7854 	 -69.18 	 
C 	 -42.7206 	 -52.7013 	 -69.8712 	 
H 	 -40.5659 	 -52.7736 	 -69.7442 	 
C 	 -40.5763 	 -53.4009 	 -66.7864 	 
H 	 -40.7137 	 -54.3341 	 -66.295 	 
H 	 -40.6229 	 -52.684 	 -65.9247 	 
C 	 -39.199 	 -53.3554 	 -67.4137 	 
H 	 -39.1106 	 -54.1392 	 -68.1286 	 
H 	 -38.9642 	 -52.3915 	 -67.8323 	 
C 	 -38.0072 	 -53.4661 	 -66.4139 	 
H 	 -37.0134 	 -53.452 	 -66.8566 	 
H 	 -38.0318 	 -52.7103 	 -65.5308 	 
H 	 -38.0345 	 -54.3897 	 -65.8534 	 
S 	 -41.7114 	 -53.5755 	 -72.1661 	 
C 	 -42.3693 	 -52.9816 	 -73.661 	 
C 	 -43.2041 	 -51.8892 	 -73.4288 	 
C 	 -43.492 	 -51.6804 	 -72.0877 	 
C 	 -42.7849 	 -52.5596 	 -71.2936 	 
H 	 -43.6129 	 -51.2823 	 -74.2609 	 
C 	 -44.3469 	 -50.5547 	 -71.6555 	 
H 	 -43.758 	 -49.6397 	 -71.7065 	 
H 	 -44.3633 	 -50.6419 	 -70.5537 	 
C 	 -45.8423 	 -50.3187 	 -72.171 	 
H 	 -46.3655 	 -51.1351 	 -71.6327 	 
H 	 -45.8621 	 -50.4768 	 -73.1873 	 
C 	 -46.3092 	 -48.9248 	 -71.9348 	 
H 	 -47.3253 	 -48.8338 	 -72.2796 	 
H 	 -45.6839 	 -48.2364 	 -72.362 	 
H 	 -46.1996 	 -48.5939 	 -70.8731 	 
H 	 -43.3283 	 -53.133 	 -66.3869 	 
H 	 -42.1683 	 -53.2985 	 -74.6246 	 
*
