! wB97X-D3 SP def2-SVP
%pal
nprocs 24
end

* xyz 0 1
S 	 -34.9431 	 -6.12983 	 5.57541 	 
C 	 -35.8042 	 -5.17133 	 6.7998 	 
C 	 -36.7128 	 -4.33338 	 6.13386 	 
C 	 -36.908 	 -4.75884 	 4.77901 	 
C 	 -36.012 	 -5.72788 	 4.30866 	 
H 	 -37.6582 	 -4.38226 	 4.15488 	 
C 	 -37.4412 	 -3.16936 	 6.67062 	 
H 	 -37.1018 	 -2.96527 	 7.59486 	 
H 	 -38.4573 	 -3.25962 	 6.85706 	 
C 	 -37.1025 	 -1.80551 	 6.01405 	 
H 	 -37.2626 	 -1.90775 	 4.91081 	 
H 	 -37.8746 	 -1.05531 	 6.35213 	 
C 	 -35.6626 	 -1.26076 	 6.18526 	 
H 	 -35.6618 	 -0.25798 	 5.77508 	 
H 	 -35.3863 	 -1.13977 	 7.26638 	 
H 	 -34.869 	 -1.83141 	 5.69627 	 
S 	 -36.0601 	 -7.92776 	 2.79031 	 
C 	 -36.1486 	 -7.79748 	 1.01903 	 
C 	 -35.8191 	 -6.51268 	 0.68735 	 
C 	 -35.8358 	 -5.59227 	 1.7413 	 
C 	 -35.9149 	 -6.20304 	 2.95495 	 
H 	 -35.6377 	 -6.34158 	 -0.411046 	 
C 	 -35.5927 	 -4.09883 	 1.53771 	 
H 	 -34.6505 	 -4.00967 	 1.03758 	 
H 	 -35.3141 	 -3.57788 	 2.44859 	 
C 	 -36.7375 	 -3.28636 	 0.799761 	 
H 	 -37.5741 	 -3.15294 	 1.5214 	 
H 	 -37.0304 	 -3.83697 	 -0.108655 	 
C 	 -36.1693 	 -1.9097 	 0.372849 	 
H 	 -35.3018 	 -1.97818 	 -0.289225 	 
H 	 -35.7821 	 -1.36786 	 1.24127 	 
H 	 -36.9269 	 -1.24902 	 -0.126746 	 
H 	 -35.5891 	 -5.10316 	 7.80804 	 
H 	 -36.1042 	 -8.57891 	 0.272902 	 
*
