! wB97X-D3 SP def2-SVP
%pal
nprocs 24
end

* xyz 0 1
S 	 -110.119 	 49.3553 	 -112.35 	 
C 	 -109.802 	 48.4554 	 -113.883 	 
C 	 -110.683 	 48.8302 	 -114.841 	 
C 	 -111.784 	 49.5547 	 -114.383 	 
C 	 -111.703 	 49.884 	 -113 	 
H 	 -112.729 	 49.6668 	 -114.927 	 
C 	 -110.615 	 48.4014 	 -116.278 	 
H 	 -111.591 	 48.2241 	 -116.714 	 
H 	 -110.105 	 47.4368 	 -116.394 	 
C 	 -109.718 	 49.2642 	 -117.182 	 
H 	 -108.826 	 49.6535 	 -116.594 	 
H 	 -109.263 	 48.5602 	 -117.936 	 
C 	 -110.413 	 50.4485 	 -117.821 	 
H 	 -111.056 	 50.9093 	 -117.049 	 
H 	 -109.85 	 51.2493 	 -118.338 	 
H 	 -111.123 	 50.0218 	 -118.534 	 
S 	 -112.095 	 52.0721 	 -111.266 	 
C 	 -113.792 	 52.6217 	 -110.928 	 
C 	 -114.624 	 51.7085 	 -111.501 	 
C 	 -113.931 	 50.6298 	 -112.162 	 
C 	 -112.595 	 50.7179 	 -112.245 	 
H 	 -115.628 	 51.9121 	 -111.462 	 
C 	 -114.742 	 49.5879 	 -112.834 	 
H 	 -115.436 	 49.1901 	 -112.089 	 
H 	 -114.1 	 48.7911 	 -113.277 	 
C 	 -115.565 	 50.0967 	 -114.005 	 
H 	 -116.047 	 49.2951 	 -114.542 	 
H 	 -114.949 	 50.7452 	 -114.659 	 
C 	 -116.838 	 50.8623 	 -113.582 	 
H 	 -116.751 	 51.9499 	 -113.364 	 
H 	 -117.246 	 50.511 	 -112.666 	 
H 	 -117.623 	 50.7104 	 -114.327 	 
H 	 -108.918 	 47.8863 	 -114.06 	 
H 	 -114.093 	 53.4191 	 -110.256 	 
*
