! wB97X-D3 SP def2-SVP
%pal
nprocs 24
end

* xyz 0 1
S 	 -50.9674 	 6.54489 	 -17.8189 	 
C 	 -49.4306 	 7.43695 	 -17.9411 	 
C 	 -49.5954 	 8.56447 	 -18.7279 	 
C 	 -50.9542 	 8.71088 	 -19.2282 	 
C 	 -51.8731 	 7.82458 	 -18.703 	 
H 	 -51.3349 	 9.47063 	 -19.8486 	 
C 	 -48.49 	 9.49076 	 -19.1229 	 
H 	 -48.4958 	 9.43111 	 -20.2113 	 
H 	 -47.5471 	 9.09443 	 -18.6561 	 
C 	 -48.5958 	 10.9567 	 -18.6723 	 
H 	 -47.682 	 11.4959 	 -18.9111 	 
H 	 -49.4908 	 11.4218 	 -19.0369 	 
C 	 -48.8042 	 11.0612 	 -17.1146 	 
H 	 -49.0199 	 12.0747 	 -16.8238 	 
H 	 -49.6572 	 10.4693 	 -16.7616 	 
H 	 -47.9098 	 10.5959 	 -16.6416 	 
S 	 -54.3513 	 7.55049 	 -17.5597 	 
C 	 -55.7335 	 7.47423 	 -18.5375 	 
C 	 -55.4402 	 7.56816 	 -19.8357 	 
C 	 -54.0275 	 7.69505 	 -20.0539 	 
C 	 -53.3185 	 7.74016 	 -18.8895 	 
H 	 -56.2212 	 7.56306 	 -20.5779 	 
C 	 -53.4002 	 7.55087 	 -21.4429 	 
H 	 -53.0448 	 6.52164 	 -21.5325 	 
H 	 -52.4832 	 8.12931 	 -21.4986 	 
C 	 -54.3577 	 7.91578 	 -22.6086 	 
H 	 -55.0023 	 8.73311 	 -22.3366 	 
H 	 -54.9625 	 7.06954 	 -22.8165 	 
C 	 -53.704 	 8.4049 	 -23.9117 	 
H 	 -52.9747 	 9.19856 	 -23.594 	 
H 	 -54.5221 	 8.90604 	 -24.4736 	 
H 	 -53.4224 	 7.5306 	 -24.4931 	 
H 	 -48.531 	 7.18656 	 -17.5587 	 
H 	 -56.8105 	 7.45174 	 -18.2139 	 
*
