! wB97X-D3 SP def2-SVP
%pal
nprocs 24
end

* xyz 0 1
S 	 -43.8598 	 -51.4632 	 -67.7956 	 
C 	 -42.6198 	 -50.8637 	 -68.8449 	 
C 	 -42.4467 	 -49.488 	 -68.6161 	 
C 	 -43.1815 	 -48.9377 	 -67.4693 	 
C 	 -44.0198 	 -49.9208 	 -66.9673 	 
H 	 -43.1569 	 -47.964 	 -67.0151 	 
C 	 -41.4978 	 -48.5964 	 -69.3609 	 
H 	 -40.5215 	 -49.0185 	 -69.3571 	 
H 	 -41.337 	 -47.6858 	 -68.831 	 
C 	 -41.8498 	 -48.3083 	 -70.8266 	 
H 	 -41.2472 	 -47.4263 	 -71.0238 	 
H 	 -41.6621 	 -49.2096 	 -71.3823 	 
C 	 -43.3626 	 -47.9337 	 -71.0204 	 
H 	 -43.6195 	 -47.9713 	 -72.0429 	 
H 	 -43.9621 	 -48.6662 	 -70.4982 	 
H 	 -43.5635 	 -46.9016 	 -70.6377 	 
S 	 -44.7625 	 -51.1842 	 -64.678 	 
C 	 -46.0082 	 -50.4845 	 -63.7384 	 
C 	 -46.4563 	 -49.3236 	 -64.2192 	 
C 	 -45.8331 	 -48.8669 	 -65.364 	 
C 	 -44.9131 	 -49.8384 	 -65.7653 	 
H 	 -47.3028 	 -48.8835 	 -63.6963 	 
C 	 -46.3267 	 -47.6574 	 -66.1374 	 
H 	 -45.538 	 -47.0278 	 -66.5933 	 
H 	 -46.5279 	 -46.9483 	 -65.3378 	 
C 	 -47.5404 	 -47.7955 	 -67.0686 	 
H 	 -47.873 	 -46.7996 	 -67.3903 	 
H 	 -48.3103 	 -48.336 	 -66.5373 	 
C 	 -47.3205 	 -48.6855 	 -68.42 	 
H 	 -47.0751 	 -49.7738 	 -68.275 	 
H 	 -46.4599 	 -48.3696 	 -68.9788 	 
H 	 -48.115 	 -48.6224 	 -69.1046 	 
H 	 -42.103 	 -51.363 	 -69.6134 	 
H 	 -46.4828 	 -50.8918 	 -62.8957 	 
*
