! wB97X-D3 SP def2-SVP
%pal
nprocs 24
end

* xyz 0 1
S 	 -50.8433 	 13.9478 	 26.5837 	 
C 	 -52.3975 	 13.0334 	 26.5044 	 
C 	 -52.419 	 12.2478 	 25.328 	 
C 	 -51.2362 	 12.395 	 24.5129 	 
C 	 -50.3762 	 13.3911 	 24.9281 	 
H 	 -51.0576 	 11.9929 	 23.5798 	 
C 	 -53.6377 	 11.4742 	 24.8889 	 
H 	 -54.1127 	 11.8933 	 23.9326 	 
H 	 -54.4552 	 11.6059 	 25.6085 	 
C 	 -53.4268 	 9.88176 	 24.7621 	 
H 	 -52.7743 	 9.73681 	 23.8762 	 
H 	 -52.8289 	 9.55977 	 25.6803 	 
C 	 -54.7862 	 9.14017 	 24.638 	 
H 	 -54.7542 	 8.08883 	 24.9242 	 
H 	 -55.6027 	 9.48442 	 25.3037 	 
H 	 -55.2274 	 9.13092 	 23.6228 	 
S 	 -49.8952 	 15.2103 	 23.0335 	 
C 	 -48.4937 	 14.9711 	 21.9293 	 
C 	 -47.5915 	 14.0615 	 22.4826 	 
C 	 -48.1228 	 13.5186 	 23.6679 	 
C 	 -49.3643 	 13.9579 	 24.0559 	 
H 	 -46.7772 	 13.7728 	 21.914 	 
C 	 -47.393 	 12.2969 	 24.3339 	 
H 	 -46.4529 	 12.4771 	 23.7734 	 
H 	 -47.7945 	 11.3551 	 23.9752 	 
C 	 -47.1828 	 12.1745 	 25.8583 	 
H 	 -46.7273 	 11.226 	 26.1728 	 
H 	 -48.1403 	 12.3101 	 26.2637 	 
C 	 -46.2439 	 13.1724 	 26.5435 	 
H 	 -46.6633 	 14.1711 	 26.4073 	 
H 	 -45.1227 	 13.0267 	 26.3506 	 
H 	 -46.3312 	 13.0157 	 27.5989 	 
H 	 -53.2056 	 13.2477 	 27.1522 	 
H 	 -48.3909 	 15.4465 	 21.0115 	 
*
