! wB97X-D3 SP def2-SVP
%pal
nprocs 24
end

* xyz 0 1
S 	 -48.7854 	 1.39432 	 -21.861 	 
C 	 -47.5295 	 2.52159 	 -22.1317 	 
C 	 -47.8271 	 3.35168 	 -23.2081 	 
C 	 -49.1384 	 3.01247 	 -23.8138 	 
C 	 -49.8211 	 1.95618 	 -23.2181 	 
H 	 -49.6517 	 3.64791 	 -24.5613 	 
C 	 -46.9123 	 4.40951 	 -23.6777 	 
H 	 -46.6587 	 4.96094 	 -22.7814 	 
H 	 -47.4882 	 5.05294 	 -24.2033 	 
C 	 -45.6834 	 3.76164 	 -24.3851 	 
H 	 -45.1881 	 3.15857 	 -23.636 	 
H 	 -45.9724 	 2.97699 	 -25.0714 	 
C 	 -44.75 	 4.76807 	 -25.1069 	 
H 	 -44.7257 	 4.55573 	 -26.199 	 
H 	 -45.0456 	 5.83793 	 -25.0293 	 
H 	 -43.8248 	 4.57339 	 -24.5273 	 
S 	 -51.4114 	 1.00187 	 -25.3126 	 
C 	 -53.0177 	 0.445798 	 -24.9319 	 
C 	 -53.2871 	 0.494631 	 -23.5463 	 
C 	 -52.1708 	 0.911806 	 -22.8481 	 
C 	 -51.1266 	 1.40885 	 -23.6586 	 
H 	 -54.218 	 0.139333 	 -23.1153 	 
C 	 -52.2448 	 1.09871 	 -21.3731 	 
H 	 -53.2421 	 1.47026 	 -21.066 	 
H 	 -51.5694 	 1.8989 	 -21.0258 	 
C 	 -51.8779 	 -0.135303 	 -20.6135 	 
H 	 -50.9881 	 -0.582531 	 -21.1178 	 
H 	 -52.6384 	 -0.96403 	 -20.7878 	 
C 	 -51.6421 	 0.119978 	 -19.0954 	 
H 	 -50.9153 	 0.909329 	 -18.8358 	 
H 	 -51.3786 	 -0.829956 	 -18.6419 	 
H 	 -52.5826 	 0.448482 	 -18.7159 	 
H 	 -46.5688 	 2.51034 	 -21.5884 	 
H 	 -53.6911 	 -0.175088 	 -25.4967 	 
*
