! wB97X-D3 SP def2-SVP
%pal
nprocs 24
end

* xyz 0 1
S 	 -108.91 	 51.5732 	 -92.0928 	 
C 	 -108.742 	 50.0734 	 -91.1545 	 
C 	 -109.25 	 50.2082 	 -89.9263 	 
C 	 -109.664 	 51.5471 	 -89.6483 	 
C 	 -109.606 	 52.4098 	 -90.7324 	 
H 	 -110.073 	 52.0243 	 -88.7865 	 
C 	 -109.297 	 49.1312 	 -88.8718 	 
H 	 -109.114 	 48.167 	 -89.3487 	 
H 	 -110.349 	 49.1569 	 -88.6291 	 
C 	 -108.313 	 49.3707 	 -87.6791 	 
H 	 -108.4 	 50.3912 	 -87.37 	 
H 	 -108.605 	 48.86 	 -86.7508 	 
C 	 -106.853 	 49.0175 	 -88.0732 	 
H 	 -106.713 	 47.978 	 -88.2467 	 
H 	 -106.459 	 49.5119 	 -88.9739 	 
H 	 -106.202 	 49.2848 	 -87.2443 	 
S 	 -108.505 	 54.8827 	 -91.0716 	 
C 	 -109.505 	 56.2735 	 -91.094 	 
C 	 -110.771 	 55.9955 	 -90.7435 	 
C 	 -110.981 	 54.5996 	 -90.4655 	 
C 	 -109.879 	 53.8043 	 -90.8007 	 
H 	 -111.452 	 56.781 	 -90.6271 	 
C 	 -112.354 	 54.1149 	 -89.9734 	 
H 	 -112.912 	 54.9322 	 -89.5051 	 
H 	 -112.187 	 53.4896 	 -89.0957 	 
C 	 -113.305 	 53.3826 	 -90.9461 	 
H 	 -112.829 	 52.4145 	 -91.1491 	 
H 	 -113.477 	 54.0306 	 -91.82 	 
C 	 -114.684 	 53.0163 	 -90.3147 	 
H 	 -115.242 	 52.3062 	 -90.9258 	 
H 	 -115.323 	 53.9084 	 -90.3915 	 
H 	 -114.773 	 52.6378 	 -89.2436 	 
H 	 -108.494 	 49.0941 	 -91.5383 	 
H 	 -109.14 	 57.2099 	 -91.3377 	 
*
