! wB97X-D3 SP def2-SVP
%pal
nprocs 24
end

* xyz 0 1
S 	 -143.695 	 6.43749 	 2.04932 	 
C 	 -143.103 	 7.75938 	 1.07674 	 
C 	 -141.949 	 8.27296 	 1.53389 	 
C 	 -141.596 	 7.80727 	 2.82606 	 
C 	 -142.462 	 6.7565 	 3.25568 	 
H 	 -140.689 	 7.95735 	 3.41783 	 
C 	 -140.979 	 9.09713 	 0.663197 	 
H 	 -140.386 	 8.50644 	 -0.0345294 	 
H 	 -140.263 	 9.59347 	 1.25239 	 
C 	 -141.771 	 10.1382 	 -0.217866 	 
H 	 -142.414 	 9.61869 	 -0.984856 	 
H 	 -142.47 	 10.7173 	 0.34291 	 
C 	 -140.774 	 11.0808 	 -0.934561 	 
H 	 -141.225 	 11.8958 	 -1.47453 	 
H 	 -140.253 	 11.5931 	 -0.167753 	 
H 	 -140.108 	 10.5541 	 -1.64981 	 
S 	 -141.592 	 6.68656 	 5.92112 	 
C 	 -141.646 	 5.17472 	 6.845 	 
C 	 -142.233 	 4.20462 	 6.08449 	 
C 	 -142.435 	 4.56851 	 4.75806 	 
C 	 -142.238 	 5.94641 	 4.4789 	 
H 	 -142.313 	 3.22851 	 6.52291 	 
C 	 -142.958 	 3.48186 	 3.78679 	 
H 	 -142.843 	 3.79075 	 2.72592 	 
H 	 -144.018 	 3.41897 	 4.02504 	 
C 	 -142.361 	 2.03595 	 4.02702 	 
H 	 -142.077 	 1.89239 	 4.99718 	 
H 	 -141.43 	 1.9552 	 3.37292 	 
C 	 -143.26 	 0.87001 	 3.61995 	 
H 	 -142.667 	 -0.0833107 	 3.51349 	 
H 	 -143.617 	 1.05264 	 2.56047 	 
H 	 -144.049 	 0.714915 	 4.36352 	 
H 	 -143.316 	 7.93205 	 0.00703488 	 
H 	 -141.524 	 5.09846 	 7.89137 	 
*
