! wB97X-D3 SP def2-SVP
%pal
nprocs 24
end

* xyz 0 1
S 	 -94.6948 	 12.0922 	 -119.077 	 
C 	 -93.7033 	 11.4125 	 -117.832 	 
C 	 -94.2789 	 11.4102 	 -116.545 	 
C 	 -95.5676 	 12.0269 	 -116.565 	 
C 	 -95.9916 	 12.373 	 -117.814 	 
H 	 -96.1858 	 12.1612 	 -115.634 	 
C 	 -93.7517 	 10.8544 	 -115.253 	 
H 	 -92.7943 	 10.2848 	 -115.409 	 
H 	 -94.5919 	 10.189 	 -114.944 	 
C 	 -93.1931 	 11.8956 	 -114.326 	 
H 	 -92.457 	 11.3101 	 -113.695 	 
H 	 -92.5569 	 12.5898 	 -114.824 	 
C 	 -94.0865 	 12.5921 	 -113.309 	 
H 	 -94.7946 	 13.2645 	 -113.879 	 
H 	 -94.6127 	 11.9977 	 -112.586 	 
H 	 -93.4566 	 13.2236 	 -112.605 	 
S 	 -97.2682 	 14.3393 	 -119.196 	 
C 	 -98.9241 	 14.8263 	 -118.843 	 
C 	 -99.4961 	 13.7447 	 -118.23 	 
C 	 -98.5352 	 12.7575 	 -117.699 	 
C 	 -97.2511 	 12.9931 	 -118.133 	 
H 	 -100.557 	 13.7145 	 -118.033 	 
C 	 -98.9424 	 11.5547 	 -116.858 	 
H 	 -98.8997 	 11.6457 	 -115.771 	 
H 	 -98.1638 	 10.7878 	 -116.917 	 
C 	 -100.249 	 10.8967 	 -117.245 	 
H 	 -100.206 	 10.6608 	 -118.344 	 
H 	 -101.052 	 11.6365 	 -117.197 	 
C 	 -100.603 	 9.62255 	 -116.434 	 
H 	 -99.7206 	 9.02189 	 -116.401 	 
H 	 -101.472 	 9.06679 	 -116.853 	 
H 	 -100.838 	 9.89777 	 -115.401 	 
H 	 -92.6874 	 11.2292 	 -117.964 	 
H 	 -99.418 	 15.752 	 -119.07 	 
*
