! wB97X-D3 SP def2-SVP
%pal
nprocs 24
end

* xyz 0 1
S 	 41.9282 	 -18.1495 	 -111.388 	 
C 	 42.87 	 -16.9472 	 -110.557 	 
C 	 44.1383 	 -17.4459 	 -110.425 	 
C 	 44.3471 	 -18.7476 	 -110.925 	 
C 	 43.292 	 -19.247 	 -111.611 	 
H 	 45.2857 	 -19.2954 	 -110.932 	 
C 	 45.1979 	 -16.7582 	 -109.638 	 
H 	 45.0113 	 -15.6072 	 -109.869 	 
H 	 46.1527 	 -17.0021 	 -110.08 	 
C 	 45.2559 	 -17.1307 	 -108.149 	 
H 	 45.9912 	 -17.8902 	 -107.973 	 
H 	 45.6403 	 -16.2519 	 -107.62 	 
C 	 43.9477 	 -17.2723 	 -107.469 	 
H 	 44.235 	 -17.5454 	 -106.44 	 
H 	 43.2706 	 -16.4275 	 -107.483 	 
H 	 43.2767 	 -18.0389 	 -107.757 	 
S 	 42.6837 	 -20.6112 	 -113.957 	 
C 	 42.8549 	 -22.3513 	 -113.964 	 
C 	 43.1793 	 -22.8352 	 -112.741 	 
C 	 43.3472 	 -21.8332 	 -111.772 	 
C 	 43.1207 	 -20.5354 	 -112.268 	 
H 	 43.4033 	 -23.8554 	 -112.632 	 
C 	 43.7948 	 -22.2218 	 -110.329 	 
H 	 43.1385 	 -22.9959 	 -109.967 	 
H 	 43.6869 	 -21.3095 	 -109.674 	 
C 	 45.2047 	 -22.6734 	 -110.204 	 
H 	 45.7611 	 -21.8296 	 -110.614 	 
H 	 45.3187 	 -23.4618 	 -110.968 	 
C 	 45.4403 	 -23.2685 	 -108.813 	 
H 	 45.5723 	 -22.4672 	 -108.099 	 
H 	 46.373 	 -23.8497 	 -108.915 	 
H 	 44.6755 	 -23.9841 	 -108.546 	 
H 	 42.4597 	 -16.0017 	 -110.103 	 
H 	 42.7589 	 -23.128 	 -114.731 	 
*
