! wB97X-D3 SP def2-SVP
%pal
nprocs 24
end

* xyz 0 1
S 	 -48.9101 	 11.6479 	 22.2681 	 
C 	 -49.217 	 9.97255 	 21.7633 	 
C 	 -49.9826 	 9.2801 	 22.7376 	 
C 	 -50.3499 	 10.0554 	 23.8317 	 
C 	 -49.8711 	 11.3942 	 23.8142 	 
H 	 -50.9836 	 9.70231 	 24.6147 	 
C 	 -50.6234 	 7.88516 	 22.5487 	 
H 	 -50.6723 	 7.37928 	 23.5229 	 
H 	 -49.8427 	 7.31588 	 21.9937 	 
C 	 -51.817 	 7.82429 	 21.5855 	 
H 	 -52.6434 	 8.42585 	 21.947 	 
H 	 -51.4682 	 8.09807 	 20.5869 	 
C 	 -52.318 	 6.38273 	 21.6347 	 
H 	 -53.4045 	 6.26743 	 21.2749 	 
H 	 -51.7431 	 5.59731 	 21.1344 	 
H 	 -52.3414 	 5.96199 	 22.6376 	 
S 	 -50.8417 	 14.006 	 23.9535 	 
C 	 -51.4748 	 14.5976 	 25.4353 	 
C 	 -51.177 	 13.7273 	 26.4833 	 
C 	 -50.5563 	 12.4841 	 26.067 	 
C 	 -50.2781 	 12.4741 	 24.6901 	 
H 	 -51.4543 	 13.9659 	 27.5245 	 
C 	 -50.1722 	 11.3684 	 27.0241 	 
H 	 -50.5086 	 10.5289 	 26.3926 	 
H 	 -50.8994 	 11.332 	 27.8706 	 
C 	 -48.7382 	 11.2465 	 27.5508 	 
H 	 -48.5506 	 11.8275 	 28.3862 	 
H 	 -48.0481 	 11.3077 	 26.7745 	 
C 	 -48.6345 	 9.77114 	 28.0245 	 
H 	 -47.5959 	 9.39551 	 28.2069 	 
H 	 -49.0024 	 9.10038 	 27.2718 	 
H 	 -49.111 	 9.72516 	 29.0263 	 
H 	 -48.9308 	 9.37887 	 20.9426 	 
H 	 -52.1031 	 15.485 	 25.5291 	 
*
