! wB97X-D3 SP def2-SVP
%pal
nprocs 24
end

* xyz 0 1
S 	 -128.808 	 64.5732 	 -56.0217 	 
C 	 -129.445 	 66.1782 	 -55.6567 	 
C 	 -130.094 	 66.7476 	 -56.7311 	 
C 	 -130.049 	 65.8935 	 -57.8914 	 
C 	 -129.36 	 64.67 	 -57.6977 	 
H 	 -130.275 	 66.2963 	 -58.8925 	 
C 	 -130.491 	 68.2109 	 -56.7515 	 
H 	 -130.393 	 68.5687 	 -55.6941 	 
H 	 -131.563 	 68.1974 	 -56.8932 	 
C 	 -129.782 	 69.0275 	 -57.8801 	 
H 	 -129.896 	 68.6161 	 -58.7759 	 
H 	 -130.347 	 69.8807 	 -58.0079 	 
C 	 -128.293 	 69.3987 	 -57.5714 	 
H 	 -128.218 	 69.9953 	 -56.641 	 
H 	 -127.61 	 68.5506 	 -57.3679 	 
H 	 -127.757 	 69.9286 	 -58.347 	 
S 	 -130.258 	 62.319 	 -58.8023 	 
C 	 -129.382 	 61.5571 	 -60.1133 	 
C 	 -128.213 	 62.2556 	 -60.4011 	 
C 	 -128.02 	 63.4556 	 -59.6498 	 
C 	 -129.095 	 63.6265 	 -58.662 	 
H 	 -127.547 	 61.9959 	 -61.2104 	 
C 	 -126.879 	 64.3978 	 -59.9644 	 
H 	 -126.676 	 64.3234 	 -61.0273 	 
H 	 -126.015 	 63.9754 	 -59.5175 	 
C 	 -127.083 	 65.9237 	 -59.5669 	 
H 	 -127.504 	 65.9479 	 -58.5325 	 
H 	 -127.872 	 66.3004 	 -60.1193 	 
C 	 -125.837 	 66.7407 	 -59.8051 	 
H 	 -125.061 	 66.424 	 -59.1327 	 
H 	 -126.147 	 67.7764 	 -59.6622 	 
H 	 -125.514 	 66.7913 	 -60.9394 	 
H 	 -129.362 	 66.8026 	 -54.7385 	 
H 	 -129.872 	 60.693 	 -60.6474 	 
*
