! wB97X-D3 SP def2-SVP
%pal
nprocs 24
end

* xyz 0 1
S 	 -36.063 	 9.48588 	 2.40975 	 
C 	 -37.0974 	 9.77961 	 3.78478 	 
C 	 -36.7624 	 8.93474 	 4.83965 	 
C 	 -35.789 	 7.96772 	 4.48366 	 
C 	 -35.3299 	 8.06613 	 3.18197 	 
H 	 -35.3291 	 7.26262 	 5.20485 	 
C 	 -37.3275 	 9.05507 	 6.22182 	 
H 	 -37.7735 	 8.11443 	 6.48713 	 
H 	 -38.2576 	 9.71676 	 6.23476 	 
C 	 -36.4353 	 9.411 	 7.40325 	 
H 	 -36.0166 	 10.4436 	 7.36818 	 
H 	 -36.989 	 9.23402 	 8.25479 	 
C 	 -35.1601 	 8.60321 	 7.52949 	 
H 	 -35.3067 	 7.55179 	 7.43367 	 
H 	 -34.3904 	 8.84771 	 6.8684 	 
H 	 -34.8689 	 8.81539 	 8.47845 	 
S 	 -34.8038 	 5.52866 	 2.34613 	 
C 	 -33.2402 	 5.18985 	 1.78023 	 
C 	 -32.5694 	 6.35335 	 1.44457 	 
C 	 -33.1529 	 7.52982 	 2.00399 	 
C 	 -34.3149 	 7.20796 	 2.61587 	 
H 	 -31.6977 	 6.23782 	 0.781367 	 
C 	 -32.4285 	 8.92725 	 1.88871 	 
H 	 -33.1104 	 9.72688 	 1.89398 	 
H 	 -31.9329 	 8.96321 	 0.996578 	 
C 	 -31.4079 	 9.2077 	 3.03351 	 
H 	 -30.8595 	 10.1087 	 3.01127 	 
H 	 -30.6061 	 8.48321 	 2.99971 	 
C 	 -32.1256 	 9.24785 	 4.40229 	 
H 	 -32.4395 	 8.29605 	 4.79375 	 
H 	 -33.0216 	 9.81581 	 4.19629 	 
H 	 -31.5785 	 9.75087 	 5.22756 	 
H 	 -37.8522 	 10.6364 	 3.77109 	 
H 	 -32.8354 	 4.2435 	 1.41795 	 
*
