! wB97X-D3 SP def2-SVP
%pal
nprocs 24
end

* xyz 0 1
S 	 -58.0692 	 8.32517 	 -93.1965 	 
C 	 -57.946 	 10.0256 	 -93.0951 	 
C 	 -59.1478 	 10.6769 	 -93.3837 	 
C 	 -60.1849 	 9.72222 	 -93.7558 	 
C 	 -59.7569 	 8.44575 	 -93.6725 	 
H 	 -61.1559 	 9.92789 	 -94.154 	 
C 	 -59.3453 	 12.1231 	 -93.4231 	 
H 	 -59.7537 	 12.2895 	 -94.4315 	 
H 	 -58.4019 	 12.7268 	 -93.4724 	 
C 	 -60.331 	 12.6926 	 -92.4364 	 
H 	 -61.3104 	 12.1882 	 -92.7365 	 
H 	 -60.0035 	 12.4656 	 -91.407 	 
C 	 -60.5156 	 14.1756 	 -92.3085 	 
H 	 -61.4484 	 14.5899 	 -91.9748 	 
H 	 -59.7614 	 14.7796 	 -91.7155 	 
H 	 -60.5119 	 14.4567 	 -93.3215 	 
S 	 -60.0564 	 6.37341 	 -95.4413 	 
C 	 -61.3901 	 5.327 	 -95.2356 	 
C 	 -62.3695 	 5.86629 	 -94.4706 	 
C 	 -61.8928 	 6.95637 	 -93.6281 	 
C 	 -60.5492 	 7.28912 	 -94.031 	 
H 	 -63.2731 	 5.33596 	 -94.4172 	 
C 	 -62.7722 	 7.74397 	 -92.6678 	 
H 	 -62.9631 	 8.70225 	 -93.0992 	 
H 	 -62.2087 	 7.83658 	 -91.726 	 
C 	 -64.0596 	 7.05734 	 -92.2174 	 
H 	 -63.9169 	 6.0321 	 -91.9221 	 
H 	 -64.6284 	 7.11516 	 -93.1373 	 
C 	 -64.7566 	 7.85454 	 -91.0691 	 
H 	 -64.2509 	 7.56356 	 -90.1034 	 
H 	 -65.8529 	 7.55511 	 -91.075 	 
H 	 -64.6617 	 8.9513 	 -91.1575 	 
H 	 -57.1462 	 10.5804 	 -92.7108 	 
H 	 -61.5767 	 4.41046 	 -95.8359 	 
*
