! wB97X-D3 SP def2-SVP
%pal
nprocs 24
end

* xyz 0 1
S 	 -48.5034 	 -49.0858 	 -75.9041 	 
C 	 -50.1308 	 -48.9463 	 -75.3743 	 
C 	 -51.0433 	 -49.4196 	 -76.2783 	 
C 	 -50.4408 	 -49.8053 	 -77.5152 	 
C 	 -49.0801 	 -49.7075 	 -77.4972 	 
H 	 -50.9061 	 -50.1705 	 -78.4139 	 
C 	 -52.4934 	 -49.3767 	 -76.0179 	 
H 	 -52.6483 	 -49.49 	 -74.9461 	 
H 	 -52.9123 	 -50.2861 	 -76.5332 	 
C 	 -53.2856 	 -48.1015 	 -76.4703 	 
H 	 -52.9821 	 -47.151 	 -76.0254 	 
H 	 -53.1854 	 -47.9463 	 -77.5697 	 
C 	 -54.8025 	 -48.1326 	 -76.1754 	 
H 	 -55.434 	 -48.7368 	 -76.9266 	 
H 	 -55.0642 	 -48.3498 	 -75.1583 	 
H 	 -55.2898 	 -47.2141 	 -76.2907 	 
S 	 -46.7526 	 -51.2496 	 -77.6948 	 
C 	 -46.0435 	 -51.4787 	 -79.2571 	 
C 	 -46.8621 	 -50.9199 	 -80.2234 	 
C 	 -48.0459 	 -50.4061 	 -79.7514 	 
C 	 -48.1213 	 -50.4019 	 -78.3756 	 
H 	 -46.5765 	 -50.9124 	 -81.2732 	 
C 	 -49.091 	 -49.6979 	 -80.5909 	 
H 	 -48.4989 	 -49.3147 	 -81.3484 	 
H 	 -49.6421 	 -48.8949 	 -80.0753 	 
C 	 -49.9518 	 -50.6437 	 -81.3836 	 
H 	 -50.7688 	 -50.0838 	 -81.9018 	 
H 	 -50.4848 	 -51.3915 	 -80.7817 	 
C 	 -49.2046 	 -51.444 	 -82.4661 	 
H 	 -48.327 	 -51.9044 	 -82.057 	 
H 	 -48.86 	 -50.8868 	 -83.4154 	 
H 	 -49.9732 	 -52.122 	 -82.7004 	 
H 	 -50.4529 	 -48.7497 	 -74.375 	 
H 	 -45.0884 	 -51.8213 	 -79.4827 	 
*
