! wB97X-D3 SP def2-SVP
%pal
nprocs 24
end

* xyz 0 1
S 	 -113.461 	 21.229 	 -111.149 	 
C 	 -112.027 	 22.0383 	 -111.922 	 
C 	 -111.098 	 21.122 	 -112.253 	 
C 	 -111.655 	 19.8392 	 -112.287 	 
C 	 -112.906 	 19.7075 	 -111.629 	 
H 	 -111.222 	 18.9701 	 -112.695 	 
C 	 -109.795 	 21.4361 	 -112.98 	 
H 	 -109.919 	 22.4652 	 -113.272 	 
H 	 -109.852 	 20.8012 	 -113.843 	 
C 	 -108.509 	 21.2527 	 -112.112 	 
H 	 -108.609 	 21.9722 	 -111.226 	 
H 	 -108.467 	 20.238 	 -111.691 	 
C 	 -107.103 	 21.4189 	 -112.67 	 
H 	 -106.437 	 21.2636 	 -111.847 	 
H 	 -106.792 	 20.9069 	 -113.526 	 
H 	 -106.959 	 22.4764 	 -113.025 	 
S 	 -115.231 	 18.418 	 -112.23 	 
C 	 -115.491 	 16.8098 	 -111.611 	 
C 	 -114.464 	 16.4064 	 -110.825 	 
C 	 -113.459 	 17.4048 	 -110.714 	 
C 	 -113.748 	 18.5674 	 -111.34 	 
H 	 -114.457 	 15.4671 	 -110.283 	 
C 	 -112.186 	 17.1523 	 -109.832 	 
H 	 -111.39 	 17.7515 	 -110.222 	 
H 	 -111.79 	 16.164 	 -109.991 	 
C 	 -112.388 	 17.3713 	 -108.322 	 
H 	 -111.406 	 17.2088 	 -107.793 	 
H 	 -113.242 	 16.784 	 -107.925 	 
C 	 -112.597 	 18.865 	 -107.956 	 
H 	 -113.604 	 19.1704 	 -108.173 	 
H 	 -112.076 	 19.5735 	 -108.595 	 
H 	 -112.47 	 19.1409 	 -106.947 	 
H 	 -111.747 	 23.0696 	 -111.845 	 
H 	 -116.22 	 16.0645 	 -111.861 	 
*
