! wB97X-D3 SP def2-SVP
%pal
nprocs 24
end

* xyz 0 1
S 	 -54.737 	 -57.5947 	 -81.6727 	 
C 	 -54.1232 	 -56.2247 	 -80.7572 	 
C 	 -55.1308 	 -55.3144 	 -80.5663 	 
C 	 -56.4224 	 -55.8458 	 -80.8344 	 
C 	 -56.375 	 -57.1374 	 -81.3479 	 
H 	 -57.3228 	 -55.3243 	 -80.5658 	 
C 	 -54.9509 	 -53.9267 	 -80.0416 	 
H 	 -55.3821 	 -53.2221 	 -80.7559 	 
H 	 -53.9012 	 -53.6831 	 -80.1775 	 
C 	 -55.3037 	 -53.7857 	 -78.517 	 
H 	 -56.3574 	 -54.2307 	 -78.4015 	 
H 	 -54.5674 	 -54.4129 	 -77.969 	 
C 	 -55.1738 	 -52.3197 	 -78.091 	 
H 	 -55.9722 	 -51.6887 	 -78.4508 	 
H 	 -55.1367 	 -52.1945 	 -77.0012 	 
H 	 -54.1947 	 -51.9399 	 -78.4891 	 
S 	 -57.0721 	 -59.6829 	 -80.9457 	 
C 	 -58.6666 	 -60.2893 	 -81.3411 	 
C 	 -59.3879 	 -59.2639 	 -81.9016 	 
C 	 -58.6252 	 -58.0647 	 -82.1553 	 
C 	 -57.408 	 -58.0853 	 -81.5686 	 
H 	 -60.4289 	 -59.5662 	 -82.0192 	 
C 	 -59.3181 	 -56.9732 	 -82.9848 	 
H 	 -59.1227 	 -56.0223 	 -82.5241 	 
H 	 -60.4015 	 -56.9892 	 -82.9288 	 
C 	 -58.7872 	 -56.9676 	 -84.4815 	 
H 	 -59.4336 	 -56.3295 	 -85.1512 	 
H 	 -58.9659 	 -58.0003 	 -84.7827 	 
C 	 -57.3089 	 -56.6162 	 -84.6101 	 
H 	 -56.761 	 -57.481 	 -84.2825 	 
H 	 -57.1146 	 -55.7558 	 -84.0228 	 
H 	 -56.9561 	 -56.472 	 -85.7011 	 
H 	 -53.0623 	 -56.0624 	 -80.5931 	 
H 	 -59.1376 	 -61.2548 	 -81.1325 	 
*
