! wB97X-D3 SP def2-SVP
%pal
nprocs 24
end

* xyz 0 1
S 	 -75.2393 	 -5.94757 	 2.8991 	 
C 	 -73.4972 	 -5.88819 	 2.91824 	 
C 	 -72.9559 	 -6.98401 	 2.2514 	 
C 	 -73.9331 	 -8.00654 	 1.94207 	 
C 	 -75.1854 	 -7.48635 	 2.11015 	 
H 	 -73.7449 	 -8.98657 	 1.54161 	 
C 	 -71.5434 	 -7.20703 	 1.86271 	 
H 	 -71.1346 	 -6.4046 	 1.16379 	 
H 	 -71.6356 	 -8.03529 	 1.17725 	 
C 	 -70.6366 	 -7.64091 	 3.04111 	 
H 	 -69.6251 	 -7.49551 	 2.80099 	 
H 	 -70.7228 	 -7.02423 	 3.93405 	 
C 	 -70.8471 	 -9.12674 	 3.42481 	 
H 	 -71.8221 	 -9.24258 	 3.89077 	 
H 	 -70.7193 	 -9.81075 	 2.56383 	 
H 	 -70.097 	 -9.39554 	 4.18758 	 
S 	 -76.9595 	 -8.86286 	 0.557437 	 
C 	 -78.2221 	 -9.9099 	 1.15631 	 
C 	 -78.1235 	 -9.87475 	 2.56653 	 
C 	 -77.1138 	 -8.99928 	 3.08305 	 
C 	 -76.3888 	 -8.35266 	 2.0983 	 
H 	 -78.867 	 -10.3913 	 3.20434 	 
C 	 -76.8156 	 -8.8765 	 4.58111 	 
H 	 -77.7617 	 -9.11364 	 5.04562 	 
H 	 -76.6986 	 -7.7997 	 4.74724 	 
C 	 -75.6995 	 -9.65236 	 5.15788 	 
H 	 -74.7641 	 -9.65025 	 4.57719 	 
H 	 -75.9764 	 -10.7129 	 5.29104 	 
C 	 -75.3336 	 -9.21377 	 6.59384 	 
H 	 -76.201 	 -9.07469 	 7.42144 	 
H 	 -74.7424 	 -8.26971 	 6.57247 	 
H 	 -74.6626 	 -9.89949 	 6.93168 	 
H 	 -73.0285 	 -4.92777 	 3.09064 	 
H 	 -78.8643 	 -10.5781 	 0.605776 	 
*
