! wB97X-D3 SP def2-SVP
%pal
nprocs 24
end

* xyz 0 1
S 	 -119.35 	 59.581 	 -34.722 	 
C 	 -119.662 	 61.3052 	 -34.6727 	 
C 	 -118.509 	 61.9571 	 -35.1676 	 
C 	 -117.441 	 61.0315 	 -35.3738 	 
C 	 -117.647 	 59.7384 	 -34.988 	 
H 	 -116.49 	 61.3018 	 -35.7556 	 
C 	 -118.41 	 63.5094 	 -35.5635 	 
H 	 -117.498 	 63.887 	 -35.1248 	 
H 	 -119.24 	 64.0779 	 -35.189 	 
C 	 -118.488 	 63.7186 	 -37.0972 	 
H 	 -118.233 	 64.7465 	 -37.3895 	 
H 	 -117.701 	 63.055 	 -37.4729 	 
C 	 -119.761 	 63.3325 	 -37.7935 	 
H 	 -119.977 	 62.2664 	 -37.7351 	 
H 	 -120.63 	 63.9093 	 -37.4051 	 
H 	 -119.647 	 63.5836 	 -38.8357 	 
S 	 -117.191 	 57.3866 	 -36.3367 	 
C 	 -115.732 	 56.449 	 -36.1707 	 
C 	 -115.034 	 56.9596 	 -35.1238 	 
C 	 -115.548 	 58.2054 	 -34.5412 	 
C 	 -116.732 	 58.6211 	 -35.173 	 
H 	 -114.119 	 56.4712 	 -34.824 	 
C 	 -114.88 	 58.867 	 -33.3656 	 
H 	 -114.192 	 58.1605 	 -32.9753 	 
H 	 -115.591 	 59.0162 	 -32.5781 	 
C 	 -114.204 	 60.2244 	 -33.7944 	 
H 	 -113.462 	 60.5817 	 -33.0252 	 
H 	 -114.955 	 60.9961 	 -33.9343 	 
C 	 -113.333 	 59.9868 	 -35.0513 	 
H 	 -112.729 	 60.9053 	 -35.1304 	 
H 	 -114.014 	 59.9464 	 -35.8858 	 
H 	 -112.893 	 58.9905 	 -35.1105 	 
H 	 -120.624 	 61.7758 	 -34.6892 	 
H 	 -115.483 	 55.5473 	 -36.7767 	 
*
