! wB97X-D3 SP def2-SVP
%pal
nprocs 24
end

* xyz 0 1
S 	 -38.5223 	 -7.87935 	 19.3485 	 
C 	 -37.9826 	 -8.80308 	 20.6915 	 
C 	 -37.1934 	 -9.85786 	 20.2393 	 
C 	 -37.1912 	 -10.0186 	 18.815 	 
C 	 -37.8953 	 -9.03978 	 18.186 	 
H 	 -36.6484 	 -10.754 	 18.3082 	 
C 	 -36.3836 	 -10.7592 	 21.169 	 
H 	 -36.6345 	 -10.6499 	 22.2039 	 
H 	 -35.3546 	 -10.4609 	 21.168 	 
C 	 -36.4096 	 -12.3139 	 20.9868 	 
H 	 -36.0055 	 -12.8261 	 21.8566 	 
H 	 -37.4572 	 -12.6996 	 20.9119 	 
C 	 -35.5766 	 -12.838 	 19.7992 	 
H 	 -34.687 	 -12.2092 	 19.7037 	 
H 	 -35.2537 	 -13.9046 	 20.0389 	 
H 	 -36.1222 	 -12.8046 	 18.8899 	 
S 	 -39.8255 	 -8.84201 	 16.2764 	 
C 	 -39.386 	 -8.7209 	 14.6264 	 
C 	 -37.9895 	 -8.88739 	 14.443 	 
C 	 -37.27 	 -8.99085 	 15.6819 	 
C 	 -38.1153 	 -8.90673 	 16.7202 	 
H 	 -37.5335 	 -8.84451 	 13.4293 	 
C 	 -35.7486 	 -8.97689 	 15.7604 	 
H 	 -35.4827 	 -9.81767 	 15.3032 	 
H 	 -35.3952 	 -9.10159 	 16.7889 	 
C 	 -35.0586 	 -7.7181 	 15.1469 	 
H 	 -35.2714 	 -7.69373 	 14.0503 	 
H 	 -33.9781 	 -7.53912 	 15.3507 	 
C 	 -35.7439 	 -6.36327 	 15.6683 	 
H 	 -35.7864 	 -6.38243 	 16.7697 	 
H 	 -36.7657 	 -6.23957 	 15.3541 	 
H 	 -35.2253 	 -5.395 	 15.3086 	 
H 	 -38.1085 	 -8.63075 	 21.7636 	 
H 	 -40.1704 	 -8.61217 	 13.8812 	 
*
