! wB97X-D3 SP def2-SVP
%pal
nprocs 24
end

* xyz 0 1
S 	 -31.1484 	 5.03937 	 6.01562 	 
C 	 -31.3879 	 6.45127 	 6.98923 	 
C 	 -32.6944 	 6.93893 	 6.9369 	 
C 	 -33.4909 	 6.12761 	 6.03618 	 
C 	 -32.7914 	 5.13336 	 5.42336 	 
H 	 -34.5146 	 6.46053 	 5.78502 	 
C 	 -33.189 	 8.16512 	 7.65591 	 
H 	 -32.8187 	 8.29782 	 8.62862 	 
H 	 -34.2486 	 8.06008 	 7.81977 	 
C 	 -33.0724 	 9.4546 	 6.78398 	 
H 	 -33.7419 	 9.28883 	 5.90301 	 
H 	 -33.4894 	 10.2529 	 7.35756 	 
C 	 -31.6415 	 9.89239 	 6.41494 	 
H 	 -31.5568 	 10.9884 	 6.53579 	 
H 	 -30.924 	 9.47443 	 7.16276 	 
H 	 -31.4433 	 9.42958 	 5.5104 	 
S 	 -33.2876 	 2.41226 	 5.2972 	 
C 	 -33.8323 	 1.70771 	 3.85625 	 
C 	 -33.9032 	 2.61767 	 2.81587 	 
C 	 -33.5881 	 3.99031 	 3.20125 	 
C 	 -33.3205 	 4.02403 	 4.58894 	 
H 	 -34.1101 	 2.29273 	 1.79896 	 
C 	 -33.5013 	 5.10433 	 2.17473 	 
H 	 -33.8841 	 5.96386 	 2.72003 	 
H 	 -34.0492 	 4.95653 	 1.24387 	 
C 	 -32.125 	 5.40287 	 1.51351 	 
H 	 -32.317 	 5.93599 	 0.540568 	 
H 	 -31.5865 	 4.46805 	 1.38814 	 
C 	 -31.195 	 6.27355 	 2.38795 	 
H 	 -31.0474 	 5.93877 	 3.39547 	 
H 	 -31.59 	 7.31762 	 2.49784 	 
H 	 -30.2413 	 6.29864 	 1.82187 	 
H 	 -30.644 	 6.75907 	 7.66492 	 
H 	 -33.7532 	 0.714394 	 3.64419 	 
*
