! wB97X-D3 SP def2-SVP
%pal
nprocs 24
end

* xyz 0 1
S 	 -43.7933 	 -52.1623 	 -74.4967 	 
C 	 -43.0932 	 -53.6963 	 -75.1289 	 
C 	 -42.1565 	 -53.3269 	 -76.0597 	 
C 	 -41.9022 	 -51.9068 	 -76.1318 	 
C 	 -42.6102 	 -51.1465 	 -75.2731 	 
H 	 -41.2445 	 -51.3805 	 -76.7419 	 
C 	 -41.3381 	 -54.3169 	 -76.8225 	 
H 	 -41.1215 	 -54.0379 	 -77.7926 	 
H 	 -42.0188 	 -55.1334 	 -77.0237 	 
C 	 -40.0319 	 -55.0048 	 -76.2255 	 
H 	 -40.3555 	 -55.3999 	 -75.2966 	 
H 	 -39.6182 	 -55.7146 	 -76.9422 	 
C 	 -38.9569 	 -54.0038 	 -75.8408 	 
H 	 -38.1457 	 -54.5378 	 -75.3152 	 
H 	 -38.5186 	 -53.665 	 -76.7142 	 
H 	 -39.2837 	 -53.1686 	 -75.2667 	 
S 	 -44.0851 	 -49.1076 	 -76.2768 	 
C 	 -43.5253 	 -47.5245 	 -76.1138 	 
C 	 -42.4863 	 -47.4132 	 -75.244 	 
C 	 -42.0062 	 -48.6913 	 -74.776 	 
C 	 -42.7931 	 -49.706 	 -75.2752 	 
H 	 -42.0372 	 -46.4399 	 -75.0415 	 
C 	 -40.7219 	 -48.8756 	 -74.0268 	 
H 	 -40.76 	 -49.8184 	 -73.5318 	 
H 	 -40.6943 	 -48.1449 	 -73.1282 	 
C 	 -39.4461 	 -48.9268 	 -74.8529 	 
H 	 -39.4113 	 -48.1546 	 -75.5389 	 
H 	 -39.3649 	 -49.8678 	 -75.4825 	 
C 	 -38.1977 	 -48.8308 	 -73.9657 	 
H 	 -38.4034 	 -48.5091 	 -72.9679 	 
H 	 -37.6205 	 -47.9672 	 -74.3028 	 
H 	 -37.6816 	 -49.7857 	 -73.819 	 
H 	 -43.167 	 -54.6618 	 -74.6155 	 
H 	 -44.0613 	 -46.6807 	 -76.5047 	 
*
