! wB97X-D3 SP def2-SVP
%pal
nprocs 24
end

* xyz 0 1
S 	 -116.655 	 61.0688 	 -40.2734 	 
C 	 -117.501 	 60.5261 	 -41.6397 	 
C 	 -118.493 	 59.631 	 -41.2635 	 
C 	 -118.32 	 59.206 	 -39.9189 	 
C 	 -117.468 	 60.0083 	 -39.1953 	 
H 	 -118.82 	 58.4265 	 -39.3957 	 
C 	 -119.461 	 58.9288 	 -42.17 	 
H 	 -119.231 	 57.8728 	 -42.078 	 
H 	 -119.137 	 59.1486 	 -43.1588 	 
C 	 -120.97 	 58.9823 	 -41.9161 	 
H 	 -121.507 	 58.2949 	 -42.6528 	 
H 	 -121.288 	 58.6082 	 -40.9132 	 
C 	 -121.469 	 60.4203 	 -42.0468 	 
H 	 -121.425 	 60.8431 	 -42.9802 	 
H 	 -122.519 	 60.4863 	 -41.9483 	 
H 	 -120.935 	 61.0409 	 -41.2855 	 
S 	 -118.365 	 61.0589 	 -36.7735 	 
C 	 -117.594 	 60.4274 	 -35.3424 	 
C 	 -116.845 	 59.2734 	 -35.6108 	 
C 	 -116.786 	 58.9706 	 -36.9653 	 
C 	 -117.272 	 60.0097 	 -37.7596 	 
H 	 -116.678 	 58.5185 	 -34.8642 	 
C 	 -116.018 	 57.8018 	 -37.4675 	 
H 	 -115.224 	 57.6337 	 -36.8192 	 
H 	 -115.583 	 57.9672 	 -38.3702 	 
C 	 -116.834 	 56.5242 	 -37.742 	 
H 	 -117.532 	 56.8574 	 -38.4747 	 
H 	 -117.261 	 56.2007 	 -36.8677 	 
C 	 -115.94 	 55.4047 	 -38.3137 	 
H 	 -115.056 	 55.1713 	 -37.6525 	 
H 	 -115.723 	 55.4889 	 -39.3443 	 
H 	 -116.61 	 54.4983 	 -38.2871 	 
H 	 -117.559 	 60.9038 	 -42.6242 	 
H 	 -117.911 	 60.6361 	 -34.3511 	 
*
