! wB97X-D3 SP def2-SVP
%pal
nprocs 24
end

* xyz 0 1
S 	 -111.597 	 64.2815 	 -74.1873 	 
C 	 -110.096 	 63.3934 	 -74.2189 	 
C 	 -110.206 	 62.2482 	 -74.9154 	 
C 	 -111.446 	 62.1129 	 -75.6309 	 
C 	 -112.306 	 63.0773 	 -75.2112 	 
H 	 -111.791 	 61.302 	 -76.3162 	 
C 	 -109.11 	 61.2448 	 -75.1265 	 
H 	 -108.131 	 61.7747 	 -75.0182 	 
H 	 -109.094 	 60.7575 	 -76.0955 	 
C 	 -108.974 	 60.2544 	 -73.9844 	 
H 	 -108.166 	 59.5213 	 -74.0424 	 
H 	 -108.742 	 60.8624 	 -73.1201 	 
C 	 -110.31 	 59.5347 	 -73.6717 	 
H 	 -110.156 	 58.6452 	 -73.1109 	 
H 	 -111.198 	 60.2017 	 -73.3343 	 
H 	 -110.544 	 59.207 	 -74.6985 	 
S 	 -114.93 	 63.0499 	 -74.1956 	 
C 	 -116.268 	 63.4065 	 -75.3163 	 
C 	 -115.739 	 63.3942 	 -76.6221 	 
C 	 -114.298 	 63.2272 	 -76.7184 	 
C 	 -113.695 	 63.161 	 -75.4746 	 
H 	 -116.267 	 63.5831 	 -77.5158 	 
C 	 -113.535 	 63.2611 	 -78.0067 	 
H 	 -114.168 	 62.8659 	 -78.7555 	 
H 	 -112.76 	 62.4928 	 -78.0389 	 
C 	 -113.136 	 64.6085 	 -78.6034 	 
H 	 -113.909 	 65.324 	 -78.6051 	 
H 	 -112.791 	 64.6313 	 -79.6766 	 
C 	 -111.964 	 65.2892 	 -77.8116 	 
H 	 -111.066 	 64.7624 	 -77.7458 	 
H 	 -112.311 	 65.391 	 -76.7568 	 
H 	 -111.783 	 66.3069 	 -78.1866 	 
H 	 -109.234 	 63.6786 	 -73.5704 	 
H 	 -117.315 	 63.4827 	 -75.1224 	 
*
