! wB97X-D3 SP def2-SVP
%pal
nprocs 24
end

* xyz 0 1
S 	 -41.5952 	 -6.68422 	 8.60558 	 
C 	 -40.5037 	 -7.57351 	 7.60272 	 
C 	 -39.6306 	 -6.72074 	 6.89443 	 
C 	 -39.811 	 -5.34451 	 7.26425 	 
C 	 -40.8052 	 -5.16592 	 8.24378 	 
H 	 -39.3051 	 -4.46943 	 6.85184 	 
C 	 -38.6862 	 -7.19517 	 5.8945 	 
H 	 -37.7531 	 -7.50847 	 6.25028 	 
H 	 -38.5246 	 -6.38729 	 5.1912 	 
C 	 -39.1944 	 -8.31027 	 4.97779 	 
H 	 -38.4802 	 -8.632 	 4.17901 	 
H 	 -39.4802 	 -9.16241 	 5.56448 	 
C 	 -40.4614 	 -7.84119 	 4.25006 	 
H 	 -40.2148 	 -7.0051 	 3.54747 	 
H 	 -40.9662 	 -8.61084 	 3.73654 	 
H 	 -41.262 	 -7.44007 	 4.93131 	 
S 	 -40.9158 	 -3.41406 	 10.482 	 
C 	 -41.3861 	 -1.78513 	 10.2896 	 
C 	 -41.6885 	 -1.51449 	 8.99281 	 
C 	 -41.5759 	 -2.68753 	 8.15037 	 
C 	 -41.1846 	 -3.82408 	 8.76578 	 
H 	 -41.928 	 -0.549135 	 8.74844 	 
C 	 -41.8495 	 -2.5114 	 6.63924 	 
H 	 -42.9103 	 -2.6675 	 6.44612 	 
H 	 -41.2809 	 -3.23635 	 6.08468 	 
C 	 -41.3913 	 -1.18015 	 6.11243 	 
H 	 -40.4037 	 -0.967614 	 6.65698 	 
H 	 -42.1972 	 -0.396804 	 6.31378 	 
C 	 -41.3018 	 -1.19353 	 4.59367 	 
H 	 -40.9762 	 -0.173736 	 4.3032 	 
H 	 -42.281 	 -1.25626 	 4.1393 	 
H 	 -40.5879 	 -1.92484 	 4.14871 	 
H 	 -40.4223 	 -8.66422 	 7.56931 	 
H 	 -41.4862 	 -1.01878 	 11.0481 	 
*
