! wB97X-D3 SP def2-SVP
%pal
nprocs 24
end

* xyz 0 1
S 	 -33.2873 	 2.80421 	 2.45756 	 
C 	 -34.0646 	 1.57062 	 1.57138 	 
C 	 -34.907 	 0.837163 	 2.38137 	 
C 	 -34.7878 	 1.22928 	 3.74322 	 
C 	 -33.9628 	 2.29878 	 4.04084 	 
H 	 -35.2857 	 0.779313 	 4.52483 	 
C 	 -35.9032 	 -0.225461 	 1.94242 	 
H 	 -35.5671 	 -1.02532 	 2.6119 	 
H 	 -35.5971 	 -0.503108 	 0.932627 	 
C 	 -37.4201 	 0.260518 	 2.08485 	 
H 	 -37.6537 	 0.825094 	 3.01075 	 
H 	 -37.5884 	 1.01417 	 1.35837 	 
C 	 -38.5256 	 -0.799328 	 1.88535 	 
H 	 -38.6244 	 -1.03778 	 0.825449 	 
H 	 -38.313 	 -1.70453 	 2.37599 	 
H 	 -39.4703 	 -0.461905 	 2.14628 	 
S 	 -34.3953 	 4.90568 	 5.10063 	 
C 	 -33.7474 	 5.18378 	 6.70142 	 
C 	 -33.4845 	 3.96428 	 7.31878 	 
C 	 -33.6202 	 2.81521 	 6.52052 	 
C 	 -33.9585 	 3.16242 	 5.21669 	 
H 	 -33.3041 	 3.92731 	 8.36763 	 
C 	 -33.5466 	 1.37603 	 7.09452 	 
H 	 -33.8809 	 0.635285 	 6.3641 	 
H 	 -34.2969 	 1.34777 	 7.85631 	 
C 	 -32.1469 	 1.02236 	 7.65848 	 
H 	 -32.1682 	 0.105043 	 8.22087 	 
H 	 -32.0337 	 1.82771 	 8.37339 	 
C 	 -30.9256 	 0.973832 	 6.63596 	 
H 	 -30.3222 	 1.92762 	 6.68508 	 
H 	 -31.2697 	 0.758675 	 5.61659 	 
H 	 -30.1708 	 0.280098 	 6.97903 	 
H 	 -34.1578 	 1.56872 	 0.405716 	 
H 	 -33.596 	 6.10927 	 7.28156 	 
*
