! wB97X-D3 SP def2-SVP
%pal
nprocs 24
end

* xyz 0 1
S 	 -136.799 	 2.10633 	 4.36428 	 
C 	 -136.019 	 0.64538 	 3.77703 	 
C 	 -134.663 	 0.758166 	 3.58778 	 
C 	 -134.234 	 2.03128 	 3.99634 	 
C 	 -135.252 	 2.93057 	 4.38898 	 
H 	 -133.2 	 2.4233 	 4.06017 	 
C 	 -133.707 	 -0.260575 	 3.05973 	 
H 	 -133.712 	 -1.24016 	 3.554 	 
H 	 -132.759 	 0.143575 	 3.30434 	 
C 	 -133.679 	 -0.595919 	 1.57081 	 
H 	 -132.778 	 -1.27238 	 1.43735 	 
H 	 -134.478 	 -1.26251 	 1.2926 	 
C 	 -133.925 	 0.619315 	 0.668976 	 
H 	 -134.997 	 0.937847 	 0.785159 	 
H 	 -133.227 	 1.47528 	 0.669006 	 
H 	 -133.993 	 0.232827 	 -0.366443 	 
S 	 -136.093 	 5.38713 	 3.69249 	 
C 	 -135.413 	 6.74089 	 4.50373 	 
C 	 -134.46 	 6.43746 	 5.49467 	 
C 	 -134.281 	 5.03263 	 5.59108 	 
C 	 -135.043 	 4.32775 	 4.61715 	 
H 	 -134.021 	 7.31407 	 6.01201 	 
C 	 -133.428 	 4.32719 	 6.58388 	 
H 	 -133.518 	 3.18977 	 6.42066 	 
H 	 -133.885 	 4.56552 	 7.60446 	 
C 	 -131.994 	 4.77301 	 6.71061 	 
H 	 -131.474 	 4.26571 	 7.54061 	 
H 	 -132.02 	 5.80759 	 7.08946 	 
C 	 -131.201 	 4.76287 	 5.46669 	 
H 	 -131.511 	 5.45017 	 4.65693 	 
H 	 -131.069 	 3.78682 	 5.00937 	 
H 	 -130.125 	 5.06325 	 5.58964 	 
H 	 -136.567 	 -0.299985 	 3.63119 	 
H 	 -135.491 	 7.79143 	 4.32341 	 
*
