! wB97X-D3 SP def2-SVP
%pal
nprocs 24
end

* xyz 0 1
S 	 1.79039 	 -16.8321 	 -104.676 	 
C 	 1.65259 	 -17.6791 	 -106.245 	 
C 	 0.733908 	 -18.7212 	 -106.18 	 
C 	 0.118591 	 -18.8066 	 -104.944 	 
C 	 0.473852 	 -17.8571 	 -104.001 	 
H 	 -0.623848 	 -19.5225 	 -104.633 	 
C 	 0.323617 	 -19.488 	 -107.343 	 
H 	 0.0254102 	 -18.7962 	 -108.14 	 
H 	 -0.659475 	 -19.8323 	 -107.232 	 
C 	 1.17738 	 -20.6178 	 -107.918 	 
H 	 2.21751 	 -20.3036 	 -108.007 	 
H 	 1.063 	 -21.4254 	 -107.212 	 
C 	 0.725648 	 -21.0279 	 -109.259 	 
H 	 1.31762 	 -21.8618 	 -109.542 	 
H 	 -0.304754 	 -21.2254 	 -109.351 	 
H 	 0.961907 	 -20.2178 	 -109.927 	 
S 	 -0.92686 	 -18.984 	 -101.999 	 
C 	 -1.44126 	 -18.105 	 -100.595 	 
C 	 -1.35091 	 -16.7062 	 -100.845 	 
C 	 -0.649641 	 -16.4594 	 -102.074 	 
C 	 -0.238117 	 -17.6049 	 -102.753 	 
H 	 -1.72691 	 -15.9067 	 -100.171 	 
C 	 -0.592789 	 -15.008 	 -102.531 	 
H 	 -1.56464 	 -14.571 	 -102.376 	 
H 	 -0.544565 	 -14.9328 	 -103.6 	 
C 	 0.501205 	 -14.1724 	 -101.914 	 
H 	 1.48709 	 -14.6186 	 -102.297 	 
H 	 0.513424 	 -14.1894 	 -100.847 	 
C 	 0.539552 	 -12.7213 	 -102.41 	 
H 	 1.24858 	 -12.0767 	 -101.831 	 
H 	 -0.403025 	 -12.2249 	 -102.395 	 
H 	 0.858068 	 -12.8013 	 -103.444 	 
H 	 1.98139 	 -17.2273 	 -107.159 	 
H 	 -1.98619 	 -18.5351 	 -99.7249 	 
*
