! wB97X-D3 SP def2-SVP
%pal
nprocs 24
end

* xyz 0 1
S 	 -108.486 	 58.4594 	 -92.806 	 
C 	 -108.445 	 59.2062 	 -91.2233 	 
C 	 -107.228 	 59.9103 	 -91.0658 	 
C 	 -106.373 	 59.74 	 -92.2151 	 
C 	 -106.839 	 58.9552 	 -93.2177 	 
H 	 -105.38 	 60.2069 	 -92.352 	 
C 	 -106.834 	 60.6601 	 -89.8976 	 
H 	 -105.763 	 60.487 	 -89.7455 	 
H 	 -107.279 	 60.4197 	 -88.9266 	 
C 	 -107.094 	 62.1586 	 -89.9714 	 
H 	 -106.718 	 62.587 	 -89.0141 	 
H 	 -106.604 	 62.708 	 -90.7461 	 
C 	 -108.644 	 62.5881 	 -90.0753 	 
H 	 -109.082 	 62.3523 	 -91.0708 	 
H 	 -109.29 	 62.381 	 -89.2643 	 
H 	 -108.686 	 63.611 	 -90.1651 	 
S 	 -105.943 	 59.7421 	 -95.6206 	 
C 	 -105.024 	 58.7027 	 -96.6587 	 
C 	 -104.751 	 57.4843 	 -96.0251 	 
C 	 -105.452 	 57.3388 	 -94.7916 	 
C 	 -106.015 	 58.5032 	 -94.3184 	 
H 	 -104.227 	 56.7651 	 -96.4918 	 
C 	 -105.438 	 56.0139 	 -93.9803 	 
H 	 -105.518 	 56.3255 	 -92.902 	 
H 	 -104.48 	 55.4556 	 -94.2433 	 
C 	 -106.663 	 55.0648 	 -94.3099 	 
H 	 -106.622 	 54.7832 	 -95.4075 	 
H 	 -107.671 	 55.5217 	 -94.154 	 
C 	 -106.598 	 53.8464 	 -93.4241 	 
H 	 -105.971 	 53.0627 	 -93.7883 	 
H 	 -107.598 	 53.4075 	 -93.3699 	 
H 	 -106.334 	 54.115 	 -92.4485 	 
H 	 -109.128 	 59.0573 	 -90.3996 	 
H 	 -104.801 	 58.8477 	 -97.6927 	 
*
