! wB97X-D3 SP def2-SVP
%pal
nprocs 24
end

* xyz 0 1
S 	 42.1015 	 -18.8916 	 -107.332 	 
C 	 41.1821 	 -19.9703 	 -108.354 	 
C 	 40.0918 	 -20.5161 	 -107.662 	 
C 	 40.1734 	 -20.1337 	 -106.271 	 
C 	 41.1306 	 -19.2176 	 -105.976 	 
H 	 39.3763 	 -20.4285 	 -105.631 	 
C 	 38.9882 	 -21.394 	 -108.237 	 
H 	 38.6243 	 -20.8064 	 -109.05 	 
H 	 38.117 	 -21.5002 	 -107.537 	 
C 	 39.5566 	 -22.723 	 -108.701 	 
H 	 38.8678 	 -23.3555 	 -109.262 	 
H 	 40.3885 	 -22.5073 	 -109.364 	 
C 	 40.028 	 -23.6722 	 -107.576 	 
H 	 39.1512 	 -23.8793 	 -106.896 	 
H 	 40.3135 	 -24.6487 	 -107.906 	 
H 	 40.7223 	 -23.1517 	 -106.929 	 
S 	 41.1247 	 -16.9404 	 -104.431 	 
C 	 41.5484 	 -17.0901 	 -102.759 	 
C 	 41.7249 	 -18.4484 	 -102.393 	 
C 	 41.657 	 -19.3794 	 -103.446 	 
C 	 41.3202 	 -18.6841 	 -104.626 	 
H 	 41.926 	 -18.7194 	 -101.42 	 
C 	 42.064 	 -20.8214 	 -103.263 	 
H 	 43.1217 	 -20.7656 	 -103.16 	 
H 	 41.8891 	 -21.3268 	 -104.215 	 
C 	 41.5033 	 -21.5023 	 -102.046 	 
H 	 40.4316 	 -21.7056 	 -102.186 	 
H 	 41.5521 	 -20.8941 	 -101.2 	 
C 	 42.2615 	 -22.8201 	 -101.715 	 
H 	 41.6394 	 -23.425 	 -101.134 	 
H 	 43.1747 	 -22.5992 	 -101.143 	 
H 	 42.4492 	 -23.3481 	 -102.66 	 
H 	 41.3702 	 -20.3154 	 -109.429 	 
H 	 41.5402 	 -16.1747 	 -102.109 	 
*
