! wB97X-D3 SP def2-SVP
%pal
nprocs 24
end

* xyz 0 1
S 	 -90.4141 	 -30.3696 	 -54.0921 	 
C 	 -89.4152 	 -30.705 	 -55.4897 	 
C 	 -88.3358 	 -29.797 	 -55.5632 	 
C 	 -88.3625 	 -28.8394 	 -54.512 	 
C 	 -89.4369 	 -29.03 	 -53.5997 	 
H 	 -87.62 	 -28.0588 	 -54.319 	 
C 	 -87.3983 	 -29.6955 	 -56.7166 	 
H 	 -88.0329 	 -29.3446 	 -57.5361 	 
H 	 -86.8214 	 -30.5614 	 -57.0282 	 
C 	 -86.2594 	 -28.6918 	 -56.6636 	 
H 	 -86.8546 	 -27.7388 	 -56.5706 	 
H 	 -85.6305 	 -28.7931 	 -55.7574 	 
C 	 -85.3541 	 -28.6911 	 -57.9128 	 
H 	 -85.9067 	 -28.1381 	 -58.7201 	 
H 	 -84.4818 	 -28.1232 	 -57.7277 	 
H 	 -84.9637 	 -29.5758 	 -58.3643 	 
S 	 -90.9852 	 -27.0593 	 -52.6406 	 
C 	 -90.6301 	 -26.408 	 -51.0769 	 
C 	 -89.7253 	 -27.1543 	 -50.4187 	 
C 	 -89.1513 	 -28.1358 	 -51.26 	 
C 	 -89.8251 	 -28.2987 	 -52.442 	 
H 	 -89.538 	 -26.8972 	 -49.3913 	 
C 	 -88.0464 	 -29.0033 	 -50.7435 	 
H 	 -87.825 	 -28.6233 	 -49.7441 	 
H 	 -87.1007 	 -28.8761 	 -51.3538 	 
C 	 -88.488 	 -30.4171 	 -50.579 	 
H 	 -88.6061 	 -30.7157 	 -51.6226 	 
H 	 -89.4706 	 -30.4375 	 -50.1687 	 
C 	 -87.535 	 -31.3218 	 -49.7743 	 
H 	 -86.5782 	 -31.3411 	 -50.1956 	 
H 	 -87.9268 	 -32.3796 	 -49.6832 	 
H 	 -87.299 	 -30.8306 	 -48.8264 	 
H 	 -89.5865 	 -31.3276 	 -56.3702 	 
H 	 -91.1611 	 -25.5754 	 -50.5965 	 
*
