! wB97X-D3 SP def2-SVP
%pal
nprocs 24
end

* xyz 0 1
S 	 -40.8515 	 15.757 	 12.3006 	 
C 	 -40.6267 	 15.1327 	 13.9427 	 
C 	 -40.5491 	 16.1094 	 14.883 	 
C 	 -40.7415 	 17.4335 	 14.3389 	 
C 	 -41.1008 	 17.3815 	 12.9735 	 
H 	 -40.7185 	 18.3746 	 14.7276 	 
C 	 -40.1987 	 15.9235 	 16.3361 	 
H 	 -39.3009 	 16.5441 	 16.4857 	 
H 	 -40.0252 	 14.9155 	 16.4635 	 
C 	 -41.2318 	 16.383 	 17.4302 	 
H 	 -41.5588 	 17.4385 	 17.2629 	 
H 	 -42.1823 	 15.8058 	 17.4553 	 
C 	 -40.6538 	 16.1104 	 18.8301 	 
H 	 -40.3645 	 15.0304 	 18.9416 	 
H 	 -39.7213 	 16.6409 	 18.8949 	 
H 	 -41.3876 	 16.3696 	 19.6304 	 
S 	 -42.6885 	 18.6329 	 10.9616 	 
C 	 -42.2767 	 20.2477 	 10.4335 	 
C 	 -41.0589 	 20.6232 	 10.8818 	 
C 	 -40.4729 	 19.6978 	 11.7925 	 
C 	 -41.2771 	 18.5623 	 12.0898 	 
H 	 -40.6927 	 21.6241 	 10.643 	 
C 	 -39.0612 	 19.9683 	 12.3703 	 
H 	 -38.2386 	 19.9533 	 11.663 	 
H 	 -38.7728 	 19.1345 	 12.9763 	 
C 	 -38.9866 	 21.2466 	 13.1315 	 
H 	 -39.553 	 22.0343 	 12.7215 	 
H 	 -37.8979 	 21.6315 	 13.0567 	 
C 	 -39.3618 	 21.0516 	 14.5972 	 
H 	 -39.0011 	 21.81 	 15.3196 	 
H 	 -38.9474 	 20.0844 	 15.0869 	 
H 	 -40.4724 	 21.1137 	 14.7031 	 
H 	 -40.4009 	 14.1153 	 14.0666 	 
H 	 -42.9028 	 20.9145 	 9.87357 	 
*
