! wB97X-D3 SP def2-SVP
%pal
nprocs 24
end

* xyz 0 1
S 	 -123.143 	 35.905 	 -108.323 	 
C 	 -121.563 	 35.8449 	 -109.129 	 
C 	 -121.438 	 34.8087 	 -110.052 	 
C 	 -122.635 	 34.0644 	 -110.118 	 
C 	 -123.656 	 34.5099 	 -109.302 	 
H 	 -122.836 	 33.1683 	 -110.675 	 
C 	 -120.296 	 34.6216 	 -111.011 	 
H 	 -120.445 	 33.7658 	 -111.683 	 
H 	 -119.335 	 34.5527 	 -110.451 	 
C 	 -120.076 	 35.9115 	 -111.854 	 
H 	 -119.729 	 36.6854 	 -111.17 	 
H 	 -119.161 	 35.9999 	 -112.448 	 
C 	 -121.151 	 36.317 	 -112.794 	 
H 	 -120.759 	 36.9426 	 -113.534 	 
H 	 -121.482 	 35.4479 	 -113.366 	 
H 	 -121.951 	 36.8431 	 -112.28 	 
S 	 -124.854 	 32.8737 	 -107.546 	 
C 	 -126.433 	 32.2215 	 -107.859 	 
C 	 -127.042 	 32.7727 	 -108.985 	 
C 	 -126.11 	 33.6004 	 -109.729 	 
C 	 -124.909 	 33.8374 	 -109.018 	 
H 	 -128.127 	 32.6401 	 -109.289 	 
C 	 -126.446 	 34.2839 	 -110.983 	 
H 	 -126.326 	 35.3574 	 -110.772 	 
H 	 -127.564 	 34.1905 	 -111.07 	 
C 	 -125.708 	 33.6683 	 -112.206 	 
H 	 -125.836 	 32.5959 	 -112.363 	 
H 	 -124.65 	 33.7986 	 -112.029 	 
C 	 -126.055 	 34.3207 	 -113.566 	 
H 	 -127.112 	 34.5459 	 -113.498 	 
H 	 -125.898 	 33.5974 	 -114.435 	 
H 	 -125.452 	 35.1753 	 -113.769 	 
H 	 -120.743 	 36.4586 	 -108.831 	 
H 	 -126.782 	 31.4386 	 -107.214 	 
*
