! wB97X-D3 SP def2-SVP
%pal
nprocs 24
end

* xyz 0 1
S 	 -47.9764 	 -1.82796 	 -18.2364 	 
C 	 -48.8439 	 -3.11803 	 -19.1023 	 
C 	 -49.2337 	 -4.1676 	 -18.2643 	 
C 	 -49.1983 	 -3.69848 	 -16.8906 	 
C 	 -48.5784 	 -2.45948 	 -16.7067 	 
H 	 -49.6245 	 -4.20168 	 -16.01 	 
C 	 -49.9848 	 -5.45785 	 -18.5659 	 
H 	 -50.7491 	 -5.19959 	 -19.3163 	 
H 	 -50.5301 	 -5.80812 	 -17.6841 	 
C 	 -49.0519 	 -6.55006 	 -19.1586 	 
H 	 -48.6134 	 -6.24169 	 -20.1715 	 
H 	 -48.2853 	 -6.60931 	 -18.4613 	 
C 	 -49.7362 	 -7.94983 	 -19.3106 	 
H 	 -48.9116 	 -8.62645 	 -19.2874 	 
H 	 -50.3943 	 -8.2036 	 -18.5027 	 
H 	 -50.357 	 -7.82827 	 -20.2419 	 
S 	 -47.1336 	 -0.780603 	 -15.1942 	 
C 	 -47.7607 	 -0.0637999 	 -13.676 	 
C 	 -49.0152 	 -0.577071 	 -13.4522 	 
C 	 -49.4016 	 -1.6051 	 -14.4022 	 
C 	 -48.5666 	 -1.65874 	 -15.4991 	 
H 	 -49.4814 	 -0.379718 	 -12.5461 	 
C 	 -50.7372 	 -2.33386 	 -14.1224 	 
H 	 -50.8139 	 -2.33107 	 -13.017 	 
H 	 -50.706 	 -3.35055 	 -14.4842 	 
C 	 -51.9587 	 -1.7006 	 -14.6953 	 
H 	 -51.7122 	 -1.66027 	 -15.781 	 
H 	 -52.1413 	 -0.68779 	 -14.2614 	 
C 	 -53.2391 	 -2.61006 	 -14.5875 	 
H 	 -52.994 	 -3.65827 	 -14.7865 	 
H 	 -53.9244 	 -2.31264 	 -15.3327 	 
H 	 -53.7907 	 -2.42483 	 -13.6145 	 
H 	 -49.0299 	 -3.20419 	 -20.1935 	 
H 	 -47.238 	 0.64786 	 -12.9991 	 
*
