! wB97X-D3 SP def2-SVP
%pal
nprocs 24
end

* xyz 0 1
S 	 -74.0582 	 2.38238 	 -61.1744 	 
C 	 -75.0222 	 3.75623 	 -61.7989 	 
C 	 -76.3385 	 3.48488 	 -61.9976 	 
C 	 -76.6312 	 2.09424 	 -61.6048 	 
C 	 -75.5486 	 1.4136 	 -60.9639 	 
H 	 -77.6522 	 1.72367 	 -61.7046 	 
C 	 -77.3224 	 4.33104 	 -62.8073 	 
H 	 -77.962 	 3.59633 	 -63.2587 	 
H 	 -76.7585 	 4.72544 	 -63.6078 	 
C 	 -78.1778 	 5.3495 	 -62.088 	 
H 	 -78.4141 	 4.95705 	 -61.0698 	 
H 	 -77.6443 	 6.31024 	 -61.8822 	 
C 	 -79.5242 	 5.73638 	 -62.7253 	 
H 	 -80.2517 	 4.97541 	 -62.6957 	 
H 	 -79.9814 	 6.63482 	 -62.186 	 
H 	 -79.3301 	 5.94588 	 -63.7955 	 
S 	 -74.1413 	 -0.99114 	 -60.6769 	 
C 	 -74.806 	 -2.136 	 -59.5233 	 
C 	 -76.1055 	 -1.83422 	 -59.2086 	 
C 	 -76.5759 	 -0.592759 	 -59.7192 	 
C 	 -75.5439 	 0.0981009 	 -60.3174 	 
H 	 -76.6026 	 -2.48641 	 -58.6036 	 
C 	 -77.9783 	 -0.15977 	 -59.3741 	 
H 	 -78.1772 	 0.867459 	 -59.8645 	 
H 	 -77.928 	 0.140862 	 -58.3174 	 
C 	 -79.1549 	 -1.0479 	 -59.7664 	 
H 	 -79.2416 	 -2.02482 	 -59.2206 	 
H 	 -79.0611 	 -1.31675 	 -60.7874 	 
C 	 -80.4834 	 -0.255666 	 -59.5772 	 
H 	 -80.5564 	 0.591157 	 -60.2268 	 
H 	 -80.63 	 -0.0271531 	 -58.5086 	 
H 	 -81.4314 	 -0.817397 	 -59.7874 	 
H 	 -74.6594 	 4.7808 	 -62.0686 	 
H 	 -74.3338 	 -3.06225 	 -59.1208 	 
*
