! wB97X-D3 SP def2-SVP
%pal
nprocs 24
end

* xyz 0 1
S 	 -63.4876 	 14.9152 	 -122.07 	 
C 	 -62.1074 	 13.8912 	 -122.515 	 
C 	 -62.5656 	 12.7094 	 -123.129 	 
C 	 -63.9603 	 12.6359 	 -123.245 	 
C 	 -64.6252 	 13.7632 	 -122.762 	 
H 	 -64.4303 	 11.7544 	 -123.646 	 
C 	 -61.7999 	 11.4997 	 -123.561 	 
H 	 -62.4282 	 10.653 	 -123.435 	 
H 	 -61.0418 	 11.3876 	 -122.71 	 
C 	 -61.3472 	 11.3752 	 -125.044 	 
H 	 -62.2951 	 11.3229 	 -125.651 	 
H 	 -60.832 	 12.3321 	 -125.202 	 
C 	 -60.4936 	 10.1442 	 -125.308 	 
H 	 -59.6054 	 10.13 	 -124.731 	 
H 	 -61.1575 	 9.28979 	 -125.094 	 
H 	 -60.274 	 10.0386 	 -126.342 	 
S 	 -66.9818 	 14.2417 	 -123.962 	 
C 	 -68.5316 	 14.0179 	 -123.127 	 
C 	 -68.2917 	 14.0111 	 -121.806 	 
C 	 -66.8901 	 13.8542 	 -121.379 	 
C 	 -66.0808 	 13.9179 	 -122.534 	 
H 	 -69.1048 	 13.9922 	 -121.123 	 
C 	 -66.3925 	 13.4478 	 -119.989 	 
H 	 -65.5656 	 12.7136 	 -119.987 	 
H 	 -67.2416 	 12.9859 	 -119.531 	 
C 	 -66.0805 	 14.7026 	 -119.16 	 
H 	 -66.7652 	 15.4443 	 -119.369 	 
H 	 -65.1684 	 15.2528 	 -119.546 	 
C 	 -65.8396 	 14.576 	 -117.666 	 
H 	 -64.8444 	 14.1484 	 -117.46 	 
H 	 -66.6152 	 13.9624 	 -117.246 	 
H 	 -65.8074 	 15.5204 	 -117.227 	 
H 	 -61.0635 	 14.1028 	 -122.36 	 
H 	 -69.5685 	 14.0443 	 -123.579 	 
*
