! wB97X-D3 SP def2-SVP
%pal
nprocs 24
end

* xyz 0 1
S 	 -105.821 	 58.3744 	 -101.961 	 
C 	 -105.907 	 56.8579 	 -101.134 	 
C 	 -106.705 	 56.9533 	 -100.024 	 
C 	 -107.257 	 58.25 	 -99.8128 	 
C 	 -106.872 	 59.1674 	 -100.811 	 
H 	 -107.978 	 58.5928 	 -99.1054 	 
C 	 -107.036 	 55.8158 	 -99.0621 	 
H 	 -106.415 	 54.9941 	 -99.5046 	 
H 	 -108.05 	 55.6126 	 -99.1922 	 
C 	 -106.795 	 56.1013 	 -97.5667 	 
H 	 -105.815 	 56.4551 	 -97.2172 	 
H 	 -107.45 	 56.9618 	 -97.2425 	 
C 	 -107.015 	 54.9674 	 -96.66 	 
H 	 -106.304 	 54.2048 	 -96.9928 	 
H 	 -106.841 	 55.2446 	 -95.5609 	 
H 	 -108.067 	 54.6585 	 -96.8043 	 
S 	 -106.052 	 61.6748 	 -101.41 	 
C 	 -106.948 	 63.1022 	 -101.041 	 
C 	 -108.217 	 62.6741 	 -100.706 	 
C 	 -108.454 	 61.2247 	 -100.674 	 
C 	 -107.272 	 60.546 	 -100.93 	 
H 	 -108.921 	 63.3424 	 -100.289 	 
C 	 -109.809 	 60.6874 	 -100.32 	 
H 	 -109.72 	 59.5979 	 -100.384 	 
H 	 -110.415 	 61.1874 	 -101.094 	 
C 	 -110.352 	 61.034 	 -98.9409 	 
H 	 -110.511 	 62.0794 	 -98.7701 	 
H 	 -109.807 	 60.6283 	 -98.1322 	 
C 	 -111.764 	 60.4101 	 -98.8312 	 
H 	 -112.469 	 60.7871 	 -99.479 	 
H 	 -112.179 	 60.596 	 -97.8816 	 
H 	 -111.524 	 59.34 	 -98.9304 	 
H 	 -105.602 	 55.903 	 -101.439 	 
H 	 -106.655 	 64.0867 	 -100.796 	 
*
