! wB97X-D3 SP def2-SVP
%pal
nprocs 24
end

* xyz 0 1
S 	 47.634 	 -18.6034 	 -110.013 	 
C 	 46.7763 	 -18.7164 	 -111.566 	 
C 	 46.0427 	 -19.8584 	 -111.614 	 
C 	 46.346 	 -20.7382 	 -110.51 	 
C 	 47.299 	 -20.2633 	 -109.583 	 
H 	 45.9089 	 -21.6835 	 -110.148 	 
C 	 44.8885 	 -20.1256 	 -112.677 	 
H 	 45.2779 	 -20.9746 	 -113.224 	 
H 	 44.6667 	 -19.3251 	 -113.394 	 
C 	 43.5102 	 -20.4916 	 -112.039 	 
H 	 43.6526 	 -21.4185 	 -111.562 	 
H 	 43.3966 	 -19.7177 	 -111.289 	 
C 	 42.3881 	 -20.5172 	 -113.087 	 
H 	 41.3988 	 -20.7874 	 -112.719 	 
H 	 42.1521 	 -19.5274 	 -113.536 	 
H 	 42.5043 	 -21.2239 	 -113.934 	 
S 	 48.4034 	 -22.5695 	 -108.641 	 
C 	 48.9311 	 -22.5682 	 -106.958 	 
C 	 48.6545 	 -21.4076 	 -106.329 	 
C 	 48.0726 	 -20.4372 	 -107.179 	 
C 	 47.8327 	 -20.9037 	 -108.432 	 
H 	 48.9047 	 -21.2483 	 -105.268 	 
C 	 47.5656 	 -19.1235 	 -106.728 	 
H 	 46.9465 	 -19.4152 	 -105.834 	 
H 	 46.8524 	 -18.7079 	 -107.377 	 
C 	 48.6539 	 -18.0625 	 -106.438 	 
H 	 49.3075 	 -17.9912 	 -107.266 	 
H 	 49.1684 	 -18.4821 	 -105.537 	 
C 	 48.179 	 -16.6949 	 -106.05 	 
H 	 48.9473 	 -16.0388 	 -105.728 	 
H 	 47.5423 	 -16.8633 	 -105.203 	 
H 	 47.4883 	 -16.2472 	 -106.796 	 
H 	 46.598 	 -17.9436 	 -112.282 	 
H 	 49.1472 	 -23.4368 	 -106.342 	 
*
