! wB97X-D3 SP def2-SVP
%pal
nprocs 24
end

* xyz 0 1
S 	 46.2061 	 -13.3723 	 -107.567 	 
C 	 46.7398 	 -13.7888 	 -109.183 	 
C 	 45.6793 	 -13.8187 	 -110.079 	 
C 	 44.4485 	 -13.6471 	 -109.346 	 
C 	 44.5833 	 -13.4792 	 -107.991 	 
H 	 43.4083 	 -13.5495 	 -109.722 	 
C 	 45.7045 	 -13.8345 	 -111.571 	 
H 	 46.6344 	 -13.4237 	 -112.053 	 
H 	 44.934 	 -13.1317 	 -111.823 	 
C 	 45.4961 	 -15.2437 	 -112.166 	 
H 	 46.3254 	 -15.8311 	 -111.784 	 
H 	 44.6121 	 -15.8051 	 -111.777 	 
C 	 45.6922 	 -15.284 	 -113.713 	 
H 	 45.6563 	 -16.2733 	 -113.993 	 
H 	 44.9542 	 -14.8219 	 -114.451 	 
H 	 46.7186 	 -14.9764 	 -113.973 	 
S 	 42.5021 	 -14.8824 	 -106.595 	 
C 	 41.77 	 -14.1388 	 -105.21 	 
C 	 42.3701 	 -12.923 	 -104.926 	 
C 	 43.3219 	 -12.4867 	 -105.885 	 
C 	 43.5564 	 -13.4585 	 -106.894 	 
H 	 42.0104 	 -12.4409 	 -104.037 	 
C 	 43.8864 	 -11.1094 	 -105.845 	 
H 	 44.3814 	 -11.116 	 -106.814 	 
H 	 44.7166 	 -11.1539 	 -105.118 	 
C 	 42.8489 	 -9.92245 	 -105.781 	 
H 	 43.505 	 -9.00778 	 -105.934 	 
H 	 42.236 	 -9.73515 	 -104.887 	 
C 	 41.9855 	 -9.82765 	 -107.051 	 
H 	 41.2553 	 -9.04824 	 -106.879 	 
H 	 41.5529 	 -10.7373 	 -107.221 	 
H 	 42.5741 	 -9.48001 	 -107.86 	 
H 	 47.757 	 -14.0221 	 -109.429 	 
H 	 41.1613 	 -14.7384 	 -104.575 	 
*
