! wB97X-D3 SP def2-SVP
%pal
nprocs 24
end

* xyz 0 1
S 	 -18.6545 	 -31.292 	 -105.289 	 
C 	 -19.295 	 -30.1096 	 -104.18 	 
C 	 -18.556 	 -29.964 	 -103.043 	 
C 	 -17.4337 	 -30.9153 	 -103.062 	 
C 	 -17.3255 	 -31.6431 	 -104.245 	 
H 	 -16.9073 	 -31.1014 	 -102.16 	 
C 	 -18.9133 	 -29.0116 	 -101.918 	 
H 	 -19.702 	 -29.3758 	 -101.317 	 
H 	 -19.4216 	 -28.1718 	 -102.308 	 
C 	 -17.7227 	 -28.4926 	 -101.153 	 
H 	 -18.0315 	 -27.8764 	 -100.348 	 
H 	 -17.1448 	 -29.3069 	 -100.695 	 
C 	 -16.7356 	 -27.6376 	 -101.968 	 
H 	 -16.7927 	 -28.2261 	 -102.925 	 
H 	 -17.0143 	 -26.5925 	 -102.068 	 
H 	 -15.7026 	 -27.5882 	 -101.592 	 
S 	 -17.1835 	 -34.2849 	 -104.959 	 
C 	 -15.6767 	 -35.0006 	 -105.267 	 
C 	 -14.6509 	 -34.2075 	 -104.936 	 
C 	 -15.0892 	 -32.9114 	 -104.453 	 
C 	 -16.4635 	 -32.7714 	 -104.508 	 
H 	 -13.6427 	 -34.6358 	 -105.095 	 
C 	 -14.1072 	 -31.7844 	 -103.882 	 
H 	 -14.1627 	 -31.8925 	 -102.785 	 
H 	 -14.6833 	 -30.8969 	 -104.156 	 
C 	 -12.7131 	 -31.8543 	 -104.354 	 
H 	 -12.2893 	 -32.7879 	 -104.053 	 
H 	 -12.1037 	 -31.0608 	 -103.852 	 
C 	 -12.4543 	 -31.5448 	 -105.79 	 
H 	 -12.7847 	 -30.5695 	 -106.139 	 
H 	 -12.9867 	 -32.2845 	 -106.391 	 
H 	 -11.3815 	 -31.5882 	 -105.939 	 
H 	 -20.1448 	 -29.5285 	 -104.386 	 
H 	 -15.5218 	 -35.9404 	 -105.739 	 
*
