! wB97X-D3 SP def2-SVP
%pal
nprocs 24
end

* xyz 0 1
S 	 -32.4091 	 -4.71822 	 8.00967 	 
C 	 -32.0798 	 -4.46101 	 9.77839 	 
C 	 -33.1931 	 -4.83778 	 10.4684 	 
C 	 -34.3175 	 -5.34216 	 9.68528 	 
C 	 -34.0798 	 -5.24107 	 8.34664 	 
H 	 -35.2439 	 -5.65457 	 10.2566 	 
C 	 -33.2896 	 -4.7531 	 11.9503 	 
H 	 -32.2828 	 -4.7796 	 12.3215 	 
H 	 -33.6926 	 -5.63671 	 12.323 	 
C 	 -33.9396 	 -3.47819 	 12.5434 	 
H 	 -33.3399 	 -2.62057 	 12.14 	 
H 	 -34.9268 	 -3.3586 	 12.087 	 
C 	 -33.9899 	 -3.27176 	 14.0554 	 
H 	 -33.0314 	 -3.11668 	 14.5317 	 
H 	 -34.6664 	 -2.52108 	 14.4109 	 
H 	 -34.3413 	 -4.17363 	 14.5564 	 
S 	 -34.5513 	 -6.94584 	 6.17987 	 
C 	 -36.0414 	 -6.73929 	 5.25849 	 
C 	 -36.8656 	 -5.78511 	 5.84453 	 
C 	 -36.3261 	 -5.20736 	 7.05781 	 
C 	 -35.0048 	 -5.65484 	 7.32465 	 
H 	 -37.8159 	 -5.54824 	 5.3859 	 
C 	 -37.0949 	 -4.24737 	 7.88022 	 
H 	 -36.5109 	 -3.3312 	 7.84589 	 
H 	 -37.011 	 -4.44163 	 8.93756 	 
C 	 -38.5744 	 -3.90714 	 7.56729 	 
H 	 -39.1767 	 -4.7641 	 7.8225 	 
H 	 -38.8473 	 -3.80962 	 6.54113 	 
C 	 -38.9899 	 -2.77001 	 8.39823 	 
H 	 -38.417 	 -1.96385 	 8.02901 	 
H 	 -38.8337 	 -2.78212 	 9.51737 	 
H 	 -39.9876 	 -2.38663 	 8.19115 	 
H 	 -31.2185 	 -3.89637 	 10.1862 	 
H 	 -36.5814 	 -7.3381 	 4.52563 	 
*
