! wB97X-D3 SP def2-SVP
%pal
nprocs 24
end

* xyz 0 1
S 	 -43.0896 	 16.4658 	 21.2103 	 
C 	 -44.5074 	 17.1102 	 21.9261 	 
C 	 -45.6045 	 16.2743 	 21.8728 	 
C 	 -45.191 	 15.0589 	 21.3458 	 
C 	 -43.9198 	 14.9788 	 20.913 	 
H 	 -45.8331 	 14.2287 	 21.1757 	 
C 	 -47.0212 	 16.5415 	 22.3858 	 
H 	 -47.0455 	 17.4414 	 22.9865 	 
H 	 -47.3775 	 15.763 	 23.1219 	 
C 	 -48.0772 	 16.7256 	 21.3264 	 
H 	 -47.8912 	 17.674 	 20.7968 	 
H 	 -47.8584 	 16.0213 	 20.4908 	 
C 	 -49.5545 	 16.5383 	 21.7531 	 
H 	 -49.715 	 17.3644 	 22.4049 	 
H 	 -50.2758 	 16.5616 	 20.8642 	 
H 	 -49.7079 	 15.595 	 22.3328 	 
S 	 -42.3409 	 12.6378 	 21.1633 	 
C 	 -41.9219 	 11.8158 	 19.6849 	 
C 	 -42.5876 	 12.3864 	 18.5835 	 
C 	 -43.4502 	 13.5014 	 18.8357 	 
C 	 -43.398 	 13.8194 	 20.2033 	 
H 	 -42.4674 	 12.0176 	 17.514 	 
C 	 -44.1594 	 14.2438 	 17.6911 	 
H 	 -44.9691 	 14.7346 	 18.0864 	 
H 	 -44.712 	 13.5428 	 17.0285 	 
C 	 -43.1892 	 15.11 	 16.8355 	 
H 	 -42.2403 	 14.558 	 16.5289 	 
H 	 -42.8974 	 15.9968 	 17.4129 	 
C 	 -43.8807 	 15.7445 	 15.6805 	 
H 	 -43.2738 	 15.8181 	 14.8003 	 
H 	 -44.1738 	 16.7829 	 15.91 	 
H 	 -44.7772 	 15.2467 	 15.2866 	 
H 	 -44.5911 	 18.1095 	 22.3896 	 
H 	 -41.16 	 11.1036 	 19.5427 	 
*
