! wB97X-D3 SP def2-SVP
%pal
nprocs 24
end

* xyz 0 1
S 	 -107.892 	 71.8904 	 -8.2166 	 
C 	 -107.6 	 73.3128 	 -9.11783 	 
C 	 -108.148 	 73.3573 	 -10.352 	 
C 	 -108.88 	 72.1566 	 -10.6239 	 
C 	 -108.662 	 71.2206 	 -9.65358 	 
H 	 -109.378 	 71.9915 	 -11.5881 	 
C 	 -107.981 	 74.3918 	 -11.3475 	 
H 	 -108.041 	 75.2969 	 -10.7914 	 
H 	 -108.838 	 74.3052 	 -12.0865 	 
C 	 -106.559 	 74.4436 	 -11.9528 	 
H 	 -105.866 	 74.4298 	 -11.0888 	 
H 	 -106.371 	 73.597 	 -12.5985 	 
C 	 -106.176 	 75.6264 	 -12.867 	 
H 	 -106.136 	 76.6091 	 -12.2927 	 
H 	 -105.19 	 75.4805 	 -13.2096 	 
H 	 -106.879 	 75.7891 	 -13.7051 	 
S 	 -110.714 	 69.5423 	 -8.94606 	 
C 	 -110.664 	 67.8645 	 -9.31418 	 
C 	 -109.631 	 67.6346 	 -10.2159 	 
C 	 -108.889 	 68.8106 	 -10.537 	 
C 	 -109.216 	 69.9039 	 -9.7151 	 
H 	 -109.528 	 66.7209 	 -10.6045 	 
C 	 -107.628 	 68.8167 	 -11.364 	 
H 	 -107.073 	 67.9646 	 -11.1552 	 
H 	 -106.906 	 69.6234 	 -11.1164 	 
C 	 -107.801 	 68.9956 	 -12.89 	 
H 	 -106.831 	 68.8885 	 -13.406 	 
H 	 -108.155 	 69.9719 	 -13.051 	 
C 	 -108.763 	 67.9086 	 -13.3595 	 
H 	 -108.444 	 66.846 	 -13.1176 	 
H 	 -108.84 	 67.9605 	 -14.455 	 
H 	 -109.747 	 68.1179 	 -12.9518 	 
H 	 -106.908 	 74.0692 	 -8.66238 	 
H 	 -111.406 	 67.0929 	 -9.03342 	 
*
