! wB97X-D3 SP def2-SVP
%pal
nprocs 24
end

* xyz 0 1
S 	 -33.0811 	 11.6385 	 12.332 	 
C 	 -32.9724 	 13.2914 	 11.7658 	 
C 	 -33.2312 	 14.2345 	 12.7994 	 
C 	 -33.3881 	 13.5173 	 14.0412 	 
C 	 -33.3191 	 12.1655 	 13.9417 	 
H 	 -33.5141 	 13.9825 	 15.0145 	 
C 	 -33.2333 	 15.7692 	 12.6856 	 
H 	 -32.4461 	 16.2162 	 13.2226 	 
H 	 -34.2187 	 16.0722 	 13.1993 	 
C 	 -33.3068 	 16.3455 	 11.2924 	 
H 	 -32.3637 	 16.231 	 10.7837 	 
H 	 -34.0351 	 15.7809 	 10.7387 	 
C 	 -33.7006 	 17.8459 	 11.3139 	 
H 	 -33.642 	 18.3344 	 10.4193 	 
H 	 -34.7369 	 17.9574 	 11.7824 	 
H 	 -33.0509 	 18.5183 	 11.9054 	 
S 	 -32.0682 	 10.7902 	 15.9909 	 
C 	 -33.0076 	 9.61669 	 16.8962 	 
C 	 -34.3282 	 9.64669 	 16.5141 	 
C 	 -34.6474 	 10.5686 	 15.4541 	 
C 	 -33.4904 	 11.2142 	 15.0536 	 
H 	 -35.0167 	 9.01193 	 17.0619 	 
C 	 -35.9907 	 11.0824 	 15.0976 	 
H 	 -35.756 	 12.0375 	 14.6228 	 
H 	 -36.5112 	 11.3745 	 15.9939 	 
C 	 -36.7988 	 10.183 	 14.174 	 
H 	 -36.9738 	 9.26136 	 14.6746 	 
H 	 -36.1845 	 10.0676 	 13.2788 	 
C 	 -38.1809 	 10.6502 	 13.7259 	 
H 	 -37.9336 	 11.4546 	 13.0292 	 
H 	 -38.7622 	 11.1041 	 14.5167 	 
H 	 -38.7469 	 9.9312 	 13.1485 	 
H 	 -32.753 	 13.6608 	 10.772 	 
H 	 -32.6353 	 8.87808 	 17.4706 	 
*
