! wB97X-D3 SP def2-SVP
%pal
nprocs 24
end

* xyz 0 1
S 	 -61.043 	 -57.3087 	 -79.6994 	 
C 	 -60.9103 	 -58.2439 	 -78.1897 	 
C 	 -59.6712 	 -58.0166 	 -77.6564 	 
C 	 -58.9334 	 -57.0107 	 -78.3438 	 
C 	 -59.4828 	 -56.5119 	 -79.4688 	 
H 	 -57.9114 	 -56.5961 	 -78.0449 	 
C 	 -59.1659 	 -58.695 	 -76.4309 	 
H 	 -58.1102 	 -58.5338 	 -76.2151 	 
H 	 -59.1717 	 -59.7637 	 -76.6579 	 
C 	 -59.9298 	 -58.3383 	 -75.1005 	 
H 	 -59.7868 	 -57.2966 	 -74.8914 	 
H 	 -61.0337 	 -58.4837 	 -75.2958 	 
C 	 -59.5851 	 -59.1456 	 -73.8433 	 
H 	 -59.6977 	 -60.2067 	 -74.1186 	 
H 	 -58.6262 	 -58.8759 	 -73.4385 	 
H 	 -60.3045 	 -58.9834 	 -73.0998 	 
S 	 -58.2341 	 -56.2032 	 -81.9087 	 
C 	 -57.3744 	 -54.6825 	 -82.1098 	 
C 	 -57.5208 	 -53.7826 	 -81.0993 	 
C 	 -58.3272 	 -54.2682 	 -80.0608 	 
C 	 -58.7805 	 -55.5485 	 -80.3282 	 
H 	 -57.0466 	 -52.8405 	 -81.1779 	 
C 	 -58.7802 	 -53.4137 	 -78.9059 	 
H 	 -59.6126 	 -53.9588 	 -78.3147 	 
H 	 -59.1537 	 -52.4104 	 -79.2247 	 
C 	 -57.6555 	 -53.1389 	 -77.9323 	 
H 	 -56.6973 	 -52.9557 	 -78.4549 	 
H 	 -57.4607 	 -54.1427 	 -77.4585 	 
C 	 -57.9557 	 -52.0355 	 -76.9756 	 
H 	 -57.4429 	 -52.2248 	 -75.9723 	 
H 	 -59.0482 	 -51.8449 	 -76.751 	 
H 	 -57.4855 	 -51.0941 	 -77.3161 	 
H 	 -61.6157 	 -58.9899 	 -77.8107 	 
H 	 -56.7507 	 -54.6105 	 -83.0205 	 
*
