! wB97X-D3 SP def2-SVP
%pal
nprocs 24
end

* xyz 0 1
S 	 -136.004 	 9.66626 	 -10.3267 	 
C 	 -136.267 	 11.4227 	 -10.0696 	 
C 	 -135.459 	 11.9083 	 -9.10314 	 
C 	 -134.667 	 10.9041 	 -8.45122 	 
C 	 -134.748 	 9.65 	 -9.01733 	 
H 	 -134.075 	 10.9979 	 -7.51585 	 
C 	 -135.234 	 13.3415 	 -8.75928 	 
H 	 -135.387 	 13.9817 	 -9.63909 	 
H 	 -134.211 	 13.4766 	 -8.55586 	 
C 	 -136.136 	 13.9678 	 -7.66101 	 
H 	 -136.028 	 15.0424 	 -7.49659 	 
H 	 -137.197 	 13.8983 	 -7.91833 	 
C 	 -135.937 	 13.3126 	 -6.22108 	 
H 	 -135.81 	 12.2325 	 -6.18321 	 
H 	 -135.074 	 13.5669 	 -5.69362 	 
H 	 -136.811 	 13.471 	 -5.62566 	 
S 	 -134.848 	 6.94158 	 -8.59329 	 
C 	 -133.444 	 6.1333 	 -7.87836 	 
C 	 -132.413 	 6.9808 	 -7.68224 	 
C 	 -132.717 	 8.36487 	 -7.97255 	 
C 	 -134.01 	 8.47802 	 -8.53036 	 
H 	 -131.447 	 6.58867 	 -7.34075 	 
C 	 -131.649 	 9.42707 	 -7.99444 	 
H 	 -131.927 	 10.2156 	 -7.30739 	 
H 	 -131.821 	 9.94381 	 -8.92098 	 
C 	 -130.158 	 9.05972 	 -7.79055 	 
H 	 -129.909 	 8.50577 	 -8.71631 	 
H 	 -129.921 	 8.35281 	 -6.93141 	 
C 	 -129.307 	 10.249 	 -7.49121 	 
H 	 -129.363 	 11.1281 	 -8.16708 	 
H 	 -128.262 	 9.96776 	 -7.46889 	 
H 	 -129.613 	 10.6333 	 -6.51675 	 
H 	 -136.914 	 12.0609 	 -10.6086 	 
H 	 -133.345 	 5.01506 	 -7.77383 	 
*
