! wB97X-D3 SP def2-SVP
%pal
nprocs 24
end

* xyz 0 1
S 	 -119.256 	 26.0819 	 -115.652 	 
C 	 -119.319 	 25.5084 	 -117.314 	 
C 	 -119.695 	 26.4894 	 -118.265 	 
C 	 -119.961 	 27.7094 	 -117.542 	 
C 	 -119.729 	 27.7114 	 -116.123 	 
H 	 -120.255 	 28.5997 	 -118.016 	 
C 	 -119.863 	 26.3561 	 -119.792 	 
H 	 -119.725 	 25.2697 	 -119.94 	 
H 	 -119.052 	 26.8846 	 -120.401 	 
C 	 -121.279 	 26.5848 	 -120.316 	 
H 	 -121.552 	 27.6072 	 -120.243 	 
H 	 -121.258 	 26.5878 	 -121.426 	 
C 	 -122.323 	 25.4258 	 -119.873 	 
H 	 -123.202 	 25.9915 	 -119.436 	 
H 	 -122.733 	 24.8361 	 -120.769 	 
H 	 -121.927 	 24.785 	 -119.014 	 
S 	 -121.337 	 29.5543 	 -114.897 	 
C 	 -120.657 	 30.6543 	 -113.724 	 
C 	 -119.337 	 30.3405 	 -113.447 	 
C 	 -118.81 	 29.4125 	 -114.397 	 
C 	 -119.77 	 28.7672 	 -115.179 	 
H 	 -118.906 	 30.8362 	 -112.622 	 
C 	 -117.419 	 28.8515 	 -114.227 	 
H 	 -117.278 	 28.6036 	 -115.233 	 
H 	 -117.521 	 27.9078 	 -113.754 	 
C 	 -116.247 	 29.6837 	 -113.672 	 
H 	 -115.397 	 28.9999 	 -113.385 	 
H 	 -116.572 	 30.1685 	 -112.772 	 
C 	 -115.677 	 30.7128 	 -114.604 	 
H 	 -114.683 	 31.0493 	 -114.213 	 
H 	 -116.3 	 31.567 	 -114.676 	 
H 	 -115.485 	 30.2768 	 -115.607 	 
H 	 -119.062 	 24.5089 	 -117.66 	 
H 	 -121.176 	 31.5229 	 -113.393 	 
*
