! wB97X-D3 SP def2-SVP
%pal
nprocs 24
end

* xyz 0 1
S 	 -23.1776 	 -32.1488 	 -95.4741 	 
C 	 -22.5079 	 -33.131 	 -96.729 	 
C 	 -21.498 	 -32.5255 	 -97.4991 	 
C 	 -21.5 	 -31.0983 	 -97.1858 	 
C 	 -22.4065 	 -30.7471 	 -96.2017 	 
H 	 -20.9102 	 -30.4121 	 -97.6881 	 
C 	 -20.6278 	 -33.145 	 -98.5542 	 
H 	 -21.001 	 -32.9911 	 -99.4974 	 
H 	 -20.7709 	 -34.186 	 -98.3818 	 
C 	 -19.229 	 -32.713 	 -98.5904 	 
H 	 -19.1752 	 -31.6085 	 -98.798 	 
H 	 -18.6877 	 -32.8086 	 -97.6521 	 
C 	 -18.3424 	 -33.4472 	 -99.5785 	 
H 	 -18.7636 	 -33.3481 	 -100.597 	 
H 	 -17.384 	 -33.0105 	 -99.55 	 
H 	 -18.3349 	 -34.5272 	 -99.4902 	 
S 	 -24.3576 	 -28.936 	 -95.8553 	 
C 	 -23.9862 	 -27.3617 	 -95.3321 	 
C 	 -22.6736 	 -27.1562 	 -95.1849 	 
C 	 -21.8619 	 -28.2974 	 -95.5836 	 
C 	 -22.6955 	 -29.3797 	 -95.8355 	 
H 	 -22.3036 	 -26.1575 	 -95.0053 	 
C 	 -20.3511 	 -28.2443 	 -95.7197 	 
H 	 -20.1183 	 -29.3294 	 -95.5961 	 
H 	 -20.0068 	 -27.6387 	 -94.8586 	 
C 	 -19.7393 	 -27.594 	 -96.9345 	 
H 	 -20.014 	 -26.5527 	 -96.9874 	 
H 	 -20.2433 	 -28.0799 	 -97.8234 	 
C 	 -18.2291 	 -27.66 	 -96.9738 	 
H 	 -17.7914 	 -27.1867 	 -97.7715 	 
H 	 -17.865 	 -28.7021 	 -96.9599 	 
H 	 -17.7893 	 -27.2666 	 -96.0383 	 
H 	 -22.5924 	 -34.2072 	 -96.6166 	 
H 	 -24.6709 	 -26.5739 	 -95.13 	 
*
