! wB97X-D3 SP def2-SVP
%pal
nprocs 24
end

* xyz 0 1
S 	 -43.5861 	 -48.549 	 -78.4121 	 
C 	 -43.4524 	 -50.1154 	 -79.3172 	 
C 	 -42.4145 	 -50.0027 	 -80.2966 	 
C 	 -41.7083 	 -48.7395 	 -80.192 	 
C 	 -42.2177 	 -47.8541 	 -79.273 	 
H 	 -40.9685 	 -48.3173 	 -80.869 	 
C 	 -42.0024 	 -51.0981 	 -81.2596 	 
H 	 -42.2555 	 -50.8752 	 -82.2209 	 
H 	 -42.6359 	 -51.9716 	 -80.9978 	 
C 	 -40.4853 	 -51.3704 	 -81.1888 	 
H 	 -39.8665 	 -50.5337 	 -81.5138 	 
H 	 -40.2087 	 -51.4781 	 -80.1459 	 
C 	 -40.0823 	 -52.6459 	 -81.8785 	 
H 	 -39.0624 	 -52.8124 	 -81.5479 	 
H 	 -40.6573 	 -53.4941 	 -81.5295 	 
H 	 -40.079 	 -52.7034 	 -83.0132 	 
S 	 -40.2594 	 -46.1141 	 -78.304 	 
C 	 -40.4599 	 -44.3737 	 -78.2205 	 
C 	 -41.7007 	 -44.0354 	 -78.7288 	 
C 	 -42.4652 	 -45.1881 	 -79.2343 	 
C 	 -41.8185 	 -46.4085 	 -78.996 	 
H 	 -42.0445 	 -43.0071 	 -78.673 	 
C 	 -43.9036 	 -45.162 	 -79.7509 	 
H 	 -44.5672 	 -44.9603 	 -78.9172 	 
H 	 -44.1022 	 -46.1749 	 -80.0263 	 
C 	 -44.2477 	 -44.1935 	 -80.8475 	 
H 	 -43.5861 	 -44.2744 	 -81.669 	 
H 	 -44.0614 	 -43.2202 	 -80.5386 	 
C 	 -45.6459 	 -44.4772 	 -81.3475 	 
H 	 -46.5078 	 -44.1542 	 -80.8318 	 
H 	 -45.8517 	 -45.5726 	 -81.4584 	 
H 	 -45.6499 	 -44.0436 	 -82.3434 	 
H 	 -43.9882 	 -51.0977 	 -79.1971 	 
H 	 -39.888 	 -43.649 	 -77.6966 	 
*
