! wB97X-D3 SP def2-SVP
%pal
nprocs 24
end

* xyz 0 1
S 	 -119.362 	 48.0612 	 -26.6157 	 
C 	 -119.289 	 47.9991 	 -28.4089 	 
C 	 -120.245 	 48.7769 	 -29.0498 	 
C 	 -121.068 	 49.4358 	 -28.1073 	 
C 	 -120.721 	 49.2267 	 -26.7763 	 
H 	 -121.955 	 50.1039 	 -28.2398 	 
C 	 -120.378 	 48.9103 	 -30.5327 	 
H 	 -119.96 	 49.8945 	 -30.8267 	 
H 	 -121.433 	 49.1387 	 -30.6368 	 
C 	 -119.949 	 47.6937 	 -31.4075 	 
H 	 -118.879 	 47.363 	 -31.3266 	 
H 	 -120.449 	 46.7935 	 -31.0283 	 
C 	 -120.222 	 48.0562 	 -32.8636 	 
H 	 -119.517 	 48.8366 	 -33.2823 	 
H 	 -120.136 	 47.1958 	 -33.5751 	 
H 	 -121.267 	 48.3595 	 -33.0945 	 
S 	 -120.568 	 51.1004 	 -24.9053 	 
C 	 -121.915 	 51.333 	 -23.8222 	 
C 	 -122.984 	 50.44 	 -24.0916 	 
C 	 -122.671 	 49.6 	 -25.2335 	 
C 	 -121.432 	 49.8837 	 -25.7254 	 
H 	 -123.777 	 50.367 	 -23.4662 	 
C 	 -123.482 	 48.3099 	 -25.4927 	 
H 	 -122.98 	 47.563 	 -24.7995 	 
H 	 -123.216 	 47.9269 	 -26.3942 	 
C 	 -124.986 	 48.4188 	 -25.1175 	 
H 	 -125.185 	 48.8248 	 -24.0944 	 
H 	 -125.499 	 47.4544 	 -25.2218 	 
C 	 -125.917 	 49.333 	 -25.9341 	 
H 	 -125.92 	 49.2175 	 -26.9198 	 
H 	 -125.724 	 50.341 	 -25.6458 	 
H 	 -126.942 	 49.1452 	 -25.6501 	 
H 	 -118.66 	 47.2623 	 -28.92 	 
H 	 -121.891 	 52.0356 	 -23.013 	 
*
