! wB97X-D3 SP def2-SVP
%pal
nprocs 24
end

* xyz 0 1
S 	 -137.974 	 8.3971 	 7.88865 	 
C 	 -136.925 	 7.44014 	 6.89605 	 
C 	 -135.928 	 6.86933 	 7.61688 	 
C 	 -135.855 	 7.36103 	 8.9649 	 
C 	 -136.859 	 8.26503 	 9.24746 	 
H 	 -135.15 	 7.12914 	 9.72688 	 
C 	 -134.948 	 5.79051 	 7.1554 	 
H 	 -135.303 	 5.34583 	 6.26988 	 
H 	 -134.83 	 5.00797 	 7.90554 	 
C 	 -133.508 	 6.23094 	 6.95871 	 
H 	 -133.541 	 6.97782 	 6.17388 	 
H 	 -133.163 	 6.59668 	 7.90604 	 
C 	 -132.614 	 5.03867 	 6.52864 	 
H 	 -133.084 	 4.34049 	 5.76412 	 
H 	 -131.656 	 5.26537 	 6.11042 	 
H 	 -132.451 	 4.52107 	 7.47194 	 
S 	 -138.3 	 8.97348 	 11.4036 	 
C 	 -137.553 	 10.0659 	 12.5361 	 
C 	 -136.23 	 10.3193 	 12.2504 	 
C 	 -135.805 	 9.70251 	 11.041 	 
C 	 -136.852 	 9.103 	 10.4104 	 
H 	 -135.466 	 10.8454 	 12.8548 	 
C 	 -134.37 	 9.7954 	 10.5336 	 
H 	 -134.417 	 9.5222 	 9.47487 	 
H 	 -133.752 	 9.04305 	 11.012 	 
C 	 -133.767 	 11.2042 	 10.8157 	 
H 	 -132.681 	 11.0831 	 10.5385 	 
H 	 -133.754 	 11.389 	 11.8689 	 
C 	 -134.334 	 12.377 	 10.1534 	 
H 	 -133.853 	 13.285 	 10.5773 	 
H 	 -135.416 	 12.4407 	 10.3007 	 
H 	 -134.148 	 12.3348 	 9.11115 	 
H 	 -137.007 	 7.17059 	 5.82969 	 
H 	 -137.96 	 10.3048 	 13.4688 	 
*
