! wB97X-D3 SP def2-SVP
%pal
nprocs 24
end

* xyz 0 1
S 	 -129.433 	 12.9553 	 -12.8148 	 
C 	 -128.194 	 12.37 	 -11.7659 	 
C 	 -127.673 	 11.1356 	 -12.1698 	 
C 	 -128.235 	 10.7026 	 -13.3996 	 
C 	 -129.207 	 11.6118 	 -13.9205 	 
H 	 -128.071 	 9.77388 	 -13.9977 	 
C 	 -126.584 	 10.4149 	 -11.454 	 
H 	 -127.104 	 9.6573 	 -10.8285 	 
H 	 -126.189 	 11.0943 	 -10.72 	 
C 	 -125.397 	 9.81133 	 -12.1766 	 
H 	 -125.052 	 8.99837 	 -11.536 	 
H 	 -125.721 	 9.31713 	 -13.0572 	 
C 	 -124.259 	 10.8344 	 -12.3624 	 
H 	 -123.445 	 10.8257 	 -11.644 	 
H 	 -123.764 	 10.7304 	 -13.3318 	 
H 	 -124.565 	 11.8523 	 -12.5072 	 
S 	 -129.447 	 13.0245 	 -16.2219 	 
C 	 -130.394 	 12.4181 	 -17.5072 	 
C 	 -130.915 	 11.1848 	 -17.2264 	 
C 	 -130.591 	 10.7264 	 -15.8948 	 
C 	 -129.782 	 11.6663 	 -15.2353 	 
H 	 -131.478 	 10.6732 	 -18.0071 	 
C 	 -131.072 	 9.45421 	 -15.2698 	 
H 	 -130.733 	 9.59195 	 -14.2266 	 
H 	 -130.44 	 8.59123 	 -15.6388 	 
C 	 -132.598 	 9.03271 	 -15.3913 	 
H 	 -132.666 	 8.40883 	 -16.2784 	 
H 	 -133.316 	 9.85659 	 -15.5345 	 
C 	 -133.089 	 8.01242 	 -14.356 	 
H 	 -133.38 	 8.50572 	 -13.4572 	 
H 	 -132.481 	 7.20428 	 -14.1701 	 
H 	 -133.949 	 7.52243 	 -14.7659 	 
H 	 -127.984 	 12.8942 	 -10.8104 	 
H 	 -130.365 	 12.8247 	 -18.4729 	 
*
