! wB97X-D3 SP def2-SVP
%pal
nprocs 24
end

* xyz 0 1
S 	 -137.466 	 7.91505 	 -3.87503 	 
C 	 -138.722 	 9.1237 	 -3.82895 	 
C 	 -139.999 	 8.63793 	 -4.2056 	 
C 	 -139.888 	 7.25521 	 -4.60648 	 
C 	 -138.589 	 6.66626 	 -4.44245 	 
H 	 -140.72 	 6.64115 	 -4.84679 	 
C 	 -141.306 	 9.43177 	 -4.14616 	 
H 	 -142.018 	 8.96716 	 -4.8436 	 
H 	 -141.089 	 10.4688 	 -4.52212 	 
C 	 -141.865 	 9.5551 	 -2.69499 	 
H 	 -142.275 	 8.61328 	 -2.39197 	 
H 	 -141.113 	 9.79738 	 -1.9812 	 
C 	 -143.09 	 10.5299 	 -2.5653 	 
H 	 -143.77 	 10.2485 	 -3.36326 	 
H 	 -143.638 	 10.6032 	 -1.62246 	 
H 	 -142.926 	 11.5366 	 -2.9045 	 
S 	 -137.276 	 4.94689 	 -6.14421 	 
C 	 -137.512 	 3.2634 	 -5.93499 	 
C 	 -138.348 	 2.9952 	 -4.83268 	 
C 	 -138.816 	 4.13654 	 -4.10675 	 
C 	 -138.243 	 5.26272 	 -4.62563 	 
H 	 -138.655 	 1.96587 	 -4.68319 	 
C 	 -139.706 	 4.05319 	 -2.90326 	 
H 	 -140.593 	 3.33577 	 -3.15831 	 
H 	 -140.299 	 4.90756 	 -2.78048 	 
C 	 -139.194 	 3.69965 	 -1.55282 	 
H 	 -138.493 	 4.4843 	 -1.2991 	 
H 	 -138.646 	 2.75599 	 -1.65628 	 
C 	 -140.176 	 3.66783 	 -0.447129 	 
H 	 -140.651 	 4.69473 	 -0.454839 	 
H 	 -139.716 	 3.35673 	 0.45644 	 
H 	 -140.954 	 2.96676 	 -0.797752 	 
H 	 -138.648 	 10.0408 	 -3.26797 	 
H 	 -137.135 	 2.55412 	 -6.68857 	 
*
