! wB97X-D3 SP def2-SVP
%pal
nprocs 24
end

* xyz 0 1
S 	 -118.254 	 16.453 	 -113.855 	 
C 	 -116.609 	 16.6904 	 -114.38 	 
C 	 -116.18 	 15.5465 	 -115.063 	 
C 	 -117.161 	 14.4886 	 -115.122 	 
C 	 -118.394 	 14.8646 	 -114.518 	 
H 	 -117.001 	 13.4845 	 -115.502 	 
C 	 -114.881 	 15.4836 	 -115.788 	 
H 	 -114.743 	 16.4043 	 -116.196 	 
H 	 -115.025 	 14.7668 	 -116.625 	 
C 	 -113.48 	 15.2592 	 -115.082 	 
H 	 -113.217 	 16.0042 	 -114.333 	 
H 	 -113.549 	 14.3606 	 -114.55 	 
C 	 -112.365 	 14.9799 	 -116.145 	 
H 	 -112.583 	 14.2497 	 -116.868 	 
H 	 -112.244 	 15.8695 	 -116.694 	 
H 	 -111.393 	 14.7413 	 -115.719 	 
S 	 -120.525 	 14.1778 	 -112.91 	 
C 	 -121.623 	 12.8996 	 -113.32 	 
C 	 -121.15 	 12.2333 	 -114.45 	 
C 	 -119.997 	 12.8225 	 -115.02 	 
C 	 -119.514 	 13.9342 	 -114.32 	 
H 	 -121.743 	 11.3712 	 -114.81 	 
C 	 -119.365 	 12.0533 	 -116.158 	 
H 	 -118.707 	 12.6173 	 -116.795 	 
H 	 -120.242 	 11.7398 	 -116.708 	 
C 	 -118.703 	 10.7469 	 -115.784 	 
H 	 -119.406 	 10.0087 	 -115.418 	 
H 	 -117.836 	 10.7097 	 -115.06 	 
C 	 -118.187 	 10.0651 	 -117.091 	 
H 	 -117.699 	 9.12696 	 -116.889 	 
H 	 -117.263 	 10.6627 	 -117.281 	 
H 	 -119.028 	 10.1125 	 -117.836 	 
H 	 -115.966 	 17.563 	 -114.317 	 
H 	 -122.445 	 12.5272 	 -112.724 	 
*
