! wB97X-D3 SP def2-SVP
%pal
nprocs 24
end

* xyz 0 1
S 	 -135.929 	 9.90771 	 -15.0957 	 
C 	 -136.25 	 10.3292 	 -13.3504 	 
C 	 -135.336 	 11.3399 	 -12.9298 	 
C 	 -134.457 	 11.749 	 -13.9744 	 
C 	 -134.664 	 11.1387 	 -15.1814 	 
H 	 -133.742 	 12.5216 	 -13.887 	 
C 	 -135.116 	 11.7999 	 -11.466 	 
H 	 -134.123 	 12.2945 	 -11.5902 	 
H 	 -135.005 	 10.8635 	 -10.8717 	 
C 	 -136.113 	 12.8084 	 -10.9406 	 
H 	 -135.735 	 13.4027 	 -10.0774 	 
H 	 -136.247 	 13.5656 	 -11.7309 	 
C 	 -137.549 	 12.2629 	 -10.6998 	 
H 	 -138.058 	 11.9954 	 -11.6687 	 
H 	 -137.614 	 11.3748 	 -10.0879 	 
H 	 -138.274 	 13.0091 	 -10.284 	 
S 	 -132.872 	 12.9547 	 -16.2558 	 
C 	 -132.346 	 12.7347 	 -17.8912 	 
C 	 -132.763 	 11.5346 	 -18.4475 	 
C 	 -133.731 	 10.8455 	 -17.5968 	 
C 	 -133.902 	 11.4854 	 -16.3718 	 
H 	 -132.412 	 11.3571 	 -19.4297 	 
C 	 -134.337 	 9.51094 	 -18.0231 	 
H 	 -134.493 	 9.38665 	 -19.0865 	 
H 	 -135.347 	 9.41193 	 -17.6927 	 
C 	 -133.475 	 8.29964 	 -17.5153 	 
H 	 -133.486 	 8.35526 	 -16.3656 	 
H 	 -132.434 	 8.28336 	 -17.7397 	 
C 	 -134.04 	 6.96228 	 -17.9438 	 
H 	 -134.238 	 6.94091 	 -18.9968 	 
H 	 -135.033 	 6.77204 	 -17.4145 	 
H 	 -133.336 	 6.14789 	 -17.6929 	 
H 	 -136.769 	 9.72864 	 -12.6976 	 
H 	 -131.604 	 13.4048 	 -18.3549 	 
*
