! wB97X-D3 SP def2-SVP
%pal
nprocs 24
end

* xyz 0 1
S 	 -110.066 	 19.6197 	 -107.626 	 
C 	 -108.573 	 19.2351 	 -106.774 	 
C 	 -107.443 	 19.5503 	 -107.561 	 
C 	 -107.869 	 20.258 	 -108.731 	 
C 	 -109.225 	 20.1912 	 -109.033 	 
H 	 -107.217 	 20.7752 	 -109.402 	 
C 	 -106.029 	 19.1097 	 -107.27 	 
H 	 -105.495 	 19.6469 	 -108.088 	 
H 	 -105.962 	 18.0394 	 -107.465 	 
C 	 -105.402 	 19.4802 	 -105.962 	 
H 	 -105.838 	 18.9025 	 -105.191 	 
H 	 -104.381 	 19.2185 	 -106.029 	 
C 	 -105.46 	 21.0068 	 -105.596 	 
H 	 -106.41 	 21.1632 	 -105.121 	 
H 	 -104.759 	 21.2927 	 -104.866 	 
H 	 -105.405 	 21.7071 	 -106.5 	 
S 	 -111.309 	 21.7624 	 -109.747 	 
C 	 -111.651 	 21.9692 	 -111.405 	 
C 	 -110.679 	 21.476 	 -112.278 	 
C 	 -109.617 	 20.9044 	 -111.54 	 
C 	 -109.869 	 20.8523 	 -110.149 	 
H 	 -110.787 	 21.5058 	 -113.362 	 
C 	 -108.56 	 20.0734 	 -112.27 	 
H 	 -109.182 	 19.4144 	 -112.828 	 
H 	 -107.989 	 19.4246 	 -111.58 	 
C 	 -107.65 	 20.9659 	 -113.202 	 
H 	 -108.357 	 21.3709 	 -113.936 	 
H 	 -107.011 	 20.2643 	 -113.839 	 
C 	 -106.77 	 22.0004 	 -112.433 	 
H 	 -107.413 	 22.7995 	 -112.02 	 
H 	 -106.132 	 22.393 	 -113.15 	 
H 	 -106.145 	 21.5005 	 -111.681 	 
H 	 -108.536 	 18.7336 	 -105.827 	 
H 	 -112.512 	 22.4973 	 -111.777 	 
*
