! wB97X-D3 SP def2-SVP
%pal
nprocs 24
end

* xyz 0 1
S 	 -65.7773 	 9.87663 	 -72.9506 	 
C 	 -65.2214 	 10.3015 	 -71.3688 	 
C 	 -66.2704 	 10.6102 	 -70.4991 	 
C 	 -67.5291 	 10.7055 	 -71.201 	 
C 	 -67.4193 	 10.227 	 -72.5164 	 
H 	 -68.4005 	 11.1282 	 -70.7621 	 
C 	 -66.2116 	 10.8099 	 -68.9775 	 
H 	 -66.7629 	 11.6259 	 -68.4843 	 
H 	 -65.1946 	 11.0785 	 -68.8292 	 
C 	 -66.3111 	 9.57713 	 -68.1364 	 
H 	 -66.0435 	 9.84178 	 -67.1755 	 
H 	 -67.3507 	 9.15734 	 -68.0844 	 
C 	 -65.4189 	 8.43893 	 -68.6645 	 
H 	 -64.4032 	 8.79027 	 -68.66 	 
H 	 -65.4585 	 7.46873 	 -68.1631 	 
H 	 -65.6764 	 8.23129 	 -69.7389 	 
S 	 -68.3403 	 10.3454 	 -75.0542 	 
C 	 -70.0279 	 10.2078 	 -75.4295 	 
C 	 -70.7649 	 9.95103 	 -74.3078 	 
C 	 -69.931 	 9.67973 	 -73.1539 	 
C 	 -68.5865 	 10.0677 	 -73.3555 	 
H 	 -71.8592 	 9.84576 	 -74.2601 	 
C 	 -70.4912 	 9.08743 	 -71.8406 	 
H 	 -71.599 	 9.15741 	 -71.742 	 
H 	 -70.2199 	 9.74248 	 -70.9982 	 
C 	 -70.0748 	 7.58853 	 -71.6861 	 
H 	 -70.5392 	 7.11565 	 -70.8538 	 
H 	 -68.9742 	 7.49267 	 -71.6171 	 
C 	 -70.3726 	 6.62432 	 -72.8829 	 
H 	 -71.4224 	 6.49914 	 -72.9922 	 
H 	 -69.8574 	 5.61923 	 -72.83 	 
H 	 -70.1072 	 7.14599 	 -73.8948 	 
H 	 -64.1737 	 10.3524 	 -71.1276 	 
H 	 -70.4798 	 10.3741 	 -76.406 	 
*
