! wB97X-D3 SP def2-SVP
%pal
nprocs 24
end

* xyz 0 1
S 	 -106.876 	 58.2833 	 -91.7422 	 
C 	 -106.368 	 59.9228 	 -91.4255 	 
C 	 -105.569 	 60.5242 	 -92.3816 	 
C 	 -105.377 	 59.5888 	 -93.4599 	 
C 	 -105.982 	 58.3452 	 -93.2394 	 
H 	 -104.839 	 59.9325 	 -94.3679 	 
C 	 -105.002 	 61.9443 	 -92.3498 	 
H 	 -105.342 	 62.4114 	 -91.4337 	 
H 	 -105.563 	 62.5855 	 -93.0196 	 
C 	 -103.505 	 62.1992 	 -92.4898 	 
H 	 -102.915 	 61.4561 	 -91.9135 	 
H 	 -103.403 	 62.0629 	 -93.5456 	 
C 	 -103.17 	 63.5849 	 -92.05 	 
H 	 -103.74 	 64.3567 	 -92.531 	 
H 	 -103.29 	 63.8253 	 -91.0012 	 
H 	 -102.104 	 63.7786 	 -92.3591 	 
S 	 -105.715 	 55.6688 	 -93.2749 	 
C 	 -105.172 	 54.9668 	 -94.7678 	 
C 	 -105.398 	 55.8936 	 -95.8141 	 
C 	 -105.9 	 57.2027 	 -95.473 	 
C 	 -105.958 	 57.2145 	 -94.1008 	 
H 	 -105.08 	 55.5388 	 -96.7931 	 
C 	 -106.105 	 58.3732 	 -96.4546 	 
H 	 -106.474 	 59.1388 	 -95.7852 	 
H 	 -106.867 	 58.2428 	 -97.1954 	 
C 	 -104.9 	 58.8038 	 -97.2603 	 
H 	 -104.686 	 58.086 	 -98.0252 	 
H 	 -103.93 	 58.7778 	 -96.6591 	 
C 	 -105.126 	 60.0745 	 -98.0622 	 
H 	 -105.459 	 60.864 	 -97.3953 	 
H 	 -105.877 	 59.9063 	 -98.7957 	 
H 	 -104.178 	 60.3548 	 -98.5156 	 
H 	 -106.657 	 60.4063 	 -90.4761 	 
H 	 -104.75 	 53.9764 	 -94.9291 	 
*
