! wB97X-D3 SP def2-SVP
%pal
nprocs 24
end

* xyz 0 1
S 	 -77.0175 	 4.56071 	 -110.057 	 
C 	 -78.0871 	 4.21692 	 -111.344 	 
C 	 -78.901 	 5.30824 	 -111.688 	 
C 	 -78.8789 	 6.28218 	 -110.677 	 
C 	 -77.8188 	 6.12062 	 -109.778 	 
H 	 -79.4747 	 7.19717 	 -110.6 	 
C 	 -79.781 	 5.35818 	 -112.905 	 
H 	 -79.8289 	 4.2792 	 -113.109 	 
H 	 -79.2065 	 5.77625 	 -113.707 	 
C 	 -81.238 	 5.89759 	 -112.851 	 
H 	 -81.9973 	 5.50481 	 -113.543 	 
H 	 -81.5835 	 5.52535 	 -111.894 	 
C 	 -81.4224 	 7.41651 	 -113.076 	 
H 	 -81.0472 	 8.08021 	 -112.225 	 
H 	 -80.7228 	 7.76937 	 -113.824 	 
H 	 -82.4303 	 7.76565 	 -113.317 	 
S 	 -77.3265 	 6.04312 	 -107.02 	 
C 	 -77.0533 	 7.52051 	 -106.116 	 
C 	 -77.4004 	 8.6159 	 -106.862 	 
C 	 -77.5758 	 8.31693 	 -108.28 	 
C 	 -77.5974 	 6.94916 	 -108.577 	 
H 	 -77.6895 	 9.443 	 -106.284 	 
C 	 -77.8387 	 9.38138 	 -109.277 	 
H 	 -78.3287 	 8.94901 	 -110.16 	 
H 	 -76.8957 	 9.85729 	 -109.599 	 
C 	 -78.703 	 10.5958 	 -108.71 	 
H 	 -78.2259 	 11.0123 	 -107.808 	 
H 	 -79.7448 	 10.4209 	 -108.378 	 
C 	 -78.8788 	 11.712 	 -109.747 	 
H 	 -79.4845 	 12.551 	 -109.471 	 
H 	 -79.2095 	 11.3395 	 -110.686 	 
H 	 -77.8527 	 12.1076 	 -109.839 	 
H 	 -77.8965 	 3.34517 	 -111.997 	 
H 	 -76.8329 	 7.69837 	 -105.092 	 
*
