! wB97X-D3 SP def2-SVP
%pal
nprocs 24
end

* xyz 0 1
S 	 -106.144 	 42.8915 	 -11.7334 	 
C 	 -106.497 	 44.3673 	 -10.9236 	 
C 	 -107.67 	 44.9321 	 -11.4089 	 
C 	 -108.299 	 44.0012 	 -12.3454 	 
C 	 -107.616 	 42.8652 	 -12.6357 	 
H 	 -109.248 	 44.2111 	 -12.7417 	 
C 	 -108.391 	 46.1263 	 -10.8713 	 
H 	 -107.928 	 46.4602 	 -9.85722 	 
H 	 -109.448 	 45.9183 	 -10.7821 	 
C 	 -108.191 	 47.3868 	 -11.7553 	 
H 	 -108.644 	 48.2579 	 -11.2275 	 
H 	 -107.193 	 47.6641 	 -11.7008 	 
C 	 -108.791 	 47.4053 	 -13.1571 	 
H 	 -108.812 	 46.4373 	 -13.7357 	 
H 	 -109.79 	 47.7577 	 -13.1687 	 
H 	 -108.179 	 48.0118 	 -13.8032 	 
S 	 -107.041 	 41.4993 	 -14.9638 	 
C 	 -108.049 	 40.3415 	 -15.6125 	 
C 	 -109.234 	 40.3689 	 -14.9976 	 
C 	 -109.257 	 41.1135 	 -13.7804 	 
C 	 -108.082 	 41.8044 	 -13.5836 	 
H 	 -110.003 	 39.7357 	 -15.3588 	 
C 	 -110.514 	 41.219 	 -12.941 	 
H 	 -111.415 	 41.4934 	 -13.5068 	 
H 	 -110.361 	 42.0134 	 -12.2152 	 
C 	 -110.768 	 39.873 	 -12.2166 	 
H 	 -109.953 	 39.6539 	 -11.57 	 
H 	 -110.672 	 39.1493 	 -13.0795 	 
C 	 -111.987 	 39.8545 	 -11.3634 	 
H 	 -112.165 	 38.819 	 -11.1752 	 
H 	 -112.752 	 40.1937 	 -12.0705 	 
H 	 -111.913 	 40.5055 	 -10.495 	 
H 	 -105.876 	 44.7906 	 -10.1707 	 
H 	 -107.947 	 39.7717 	 -16.5597 	 
*
