! wB97X-D3 SP def2-SVP
%pal
nprocs 24
end

* xyz 0 1
S 	 2.45229 	 -26.3942 	 -113.946 	 
C 	 3.46755 	 -26.593 	 -115.326 	 
C 	 3.71557 	 -27.9248 	 -115.651 	 
C 	 3.19457 	 -28.7643 	 -114.63 	 
C 	 2.52409 	 -28.1041 	 -113.656 	 
H 	 3.32179 	 -29.8005 	 -114.61 	 
C 	 4.52463 	 -28.4455 	 -116.822 	 
H 	 5.12199 	 -29.3325 	 -116.572 	 
H 	 5.24569 	 -27.6948 	 -117.115 	 
C 	 3.68455 	 -28.7902 	 -118.071 	 
H 	 2.80758 	 -29.2976 	 -117.812 	 
H 	 3.4246 	 -27.7818 	 -118.471 	 
C 	 4.37824 	 -29.7712 	 -119.042 	 
H 	 4.79207 	 -30.7001 	 -118.526 	 
H 	 3.84756 	 -30.3191 	 -119.775 	 
H 	 5.30697 	 -29.276 	 -119.471 	 
S 	 2.0442 	 -28.0573 	 -110.939 	 
C 	 1.0361 	 -29.3996 	 -110.217 	 
C 	 0.613542 	 -30.2833 	 -111.181 	 
C 	 1.00761 	 -29.9689 	 -112.526 	 
C 	 1.78549 	 -28.7659 	 -112.586 	 
H 	 0.029078 	 -31.0988 	 -110.764 	 
C 	 0.678914 	 -30.7858 	 -113.798 	 
H 	 1.06665 	 -30.3306 	 -114.688 	 
H 	 -0.4058 	 -30.7876 	 -113.775 	 
C 	 1.28747 	 -32.1603 	 -113.78 	 
H 	 0.994307 	 -32.6484 	 -112.84 	 
H 	 2.34544 	 -32.0633 	 -113.789 	 
C 	 0.717648 	 -32.9365 	 -114.969 	 
H 	 0.933133 	 -32.449 	 -115.907 	 
H 	 -0.34656 	 -33.0534 	 -114.866 	 
H 	 1.02694 	 -33.9661 	 -115.132 	 
H 	 4.08583 	 -25.851 	 -115.752 	 
H 	 0.825455 	 -29.548 	 -109.239 	 
*
