! wB97X-D3 SP def2-SVP
%pal
nprocs 24
end

* xyz 0 1
S 	 -71.1674 	 -43.6721 	 -94.267 	 
C 	 -70.8652 	 -41.9866 	 -94.5986 	 
C 	 -70.9164 	 -41.8165 	 -95.9693 	 
C 	 -71.2209 	 -42.9563 	 -96.7559 	 
C 	 -71.4587 	 -44.0681 	 -95.9659 	 
H 	 -71.3554 	 -42.8519 	 -97.8157 	 
C 	 -70.8574 	 -40.4359 	 -96.5926 	 
H 	 -71.6427 	 -39.8926 	 -96.0642 	 
H 	 -71.2122 	 -40.5572 	 -97.5824 	 
C 	 -69.5053 	 -39.7498 	 -96.4212 	 
H 	 -69.4808 	 -38.8142 	 -97.0415 	 
H 	 -69.3102 	 -39.463 	 -95.4202 	 
C 	 -68.3905 	 -40.7134 	 -96.7848 	 
H 	 -67.459 	 -40.2681 	 -96.6628 	 
H 	 -68.3128 	 -41.5886 	 -96.0785 	 
H 	 -68.5323 	 -41.141 	 -97.7844 	 
S 	 -71.3921 	 -46.8043 	 -96.2593 	 
C 	 -72.6421 	 -47.6216 	 -97.2112 	 
C 	 -73.5285 	 -46.6755 	 -97.7284 	 
C 	 -73.2491 	 -45.3665 	 -97.3257 	 
C 	 -72.1456 	 -45.2496 	 -96.4676 	 
H 	 -74.3228 	 -47.0107 	 -98.3276 	 
C 	 -74.1505 	 -44.2347 	 -97.7937 	 
H 	 -74.7963 	 -44.5901 	 -98.5882 	 
H 	 -73.5377 	 -43.5352 	 -98.2383 	 
C 	 -75.0406 	 -43.7002 	 -96.6696 	 
H 	 -75.5887 	 -42.8688 	 -97.0414 	 
H 	 -74.3713 	 -43.5162 	 -95.8783 	 
C 	 -76.2536 	 -44.6047 	 -96.2343 	 
H 	 -76.6516 	 -44.2761 	 -95.2649 	 
H 	 -75.9422 	 -45.595 	 -95.926 	 
H 	 -77.0048 	 -44.6558 	 -96.9513 	 
H 	 -70.666 	 -41.1453 	 -93.9575 	 
H 	 -72.6706 	 -48.6544 	 -97.5067 	 
*
