! wB97X-D3 SP def2-SVP
%pal
nprocs 24
end

* xyz 0 1
S 	 34.6192 	 -35.0285 	 -130.091 	 
C 	 34.5404 	 -33.3697 	 -129.633 	 
C 	 33.7017 	 -32.7243 	 -130.487 	 
C 	 33.1501 	 -33.5265 	 -131.556 	 
C 	 33.4834 	 -34.8575 	 -131.467 	 
H 	 32.5202 	 -33.1158 	 -132.313 	 
C 	 33.4422 	 -31.2336 	 -130.301 	 
H 	 33.322 	 -30.7227 	 -131.262 	 
H 	 34.3281 	 -30.8244 	 -129.807 	 
C 	 32.0727 	 -30.9587 	 -129.571 	 
H 	 31.305 	 -31.6251 	 -129.84 	 
H 	 32.2323 	 -31.2049 	 -128.494 	 
C 	 31.638 	 -29.5095 	 -129.63 	 
H 	 32.5409 	 -28.9035 	 -129.474 	 
H 	 31.3287 	 -29.2617 	 -130.662 	 
H 	 30.8222 	 -29.284 	 -128.94 	 
S 	 34.4493 	 -36.7964 	 -133.216 	 
C 	 33.254 	 -37.8202 	 -134.034 	 
C 	 31.9671 	 -37.5305 	 -133.652 	 
C 	 31.8936 	 -36.3831 	 -132.735 	 
C 	 33.1293 	 -35.9239 	 -132.418 	 
H 	 31.1517 	 -38.1442 	 -133.965 	 
C 	 30.5941 	 -35.7938 	 -132.286 	 
H 	 29.9514 	 -35.6827 	 -133.178 	 
H 	 30.7863 	 -34.7416 	 -131.96 	 
C 	 29.8066 	 -36.4027 	 -131.167 	 
H 	 29.4496 	 -35.653 	 -130.512 	 
H 	 30.4411 	 -37.0596 	 -130.654 	 
C 	 28.6411 	 -37.3578 	 -131.671 	 
H 	 27.9227 	 -37.5945 	 -130.894 	 
H 	 29.0148 	 -38.3582 	 -132.053 	 
H 	 28.0741 	 -36.8347 	 -132.441 	 
H 	 34.9639 	 -32.9076 	 -128.794 	 
H 	 33.4338 	 -38.6141 	 -134.749 	 
*
