! wB97X-D3 SP def2-SVP
%pal
nprocs 24
end

* xyz 0 1
S 	 -102.873 	 13.2499 	 -7.10428 	 
C 	 -103.145 	 13.6265 	 -5.44283 	 
C 	 -103.746 	 12.6387 	 -4.71028 	 
C 	 -103.989 	 11.4588 	 -5.49248 	 
C 	 -103.618 	 11.664 	 -6.85372 	 
H 	 -104.359 	 10.5419 	 -5.101 	 
C 	 -103.978 	 12.7277 	 -3.2257 	 
H 	 -103.395 	 13.5511 	 -2.77899 	 
H 	 -103.541 	 11.7954 	 -2.8572 	 
C 	 -105.491 	 12.6847 	 -2.86316 	 
H 	 -105.906 	 11.723 	 -3.24857 	 
H 	 -105.503 	 12.6864 	 -1.80835 	 
C 	 -106.387 	 13.781 	 -3.51876 	 
H 	 -107.435 	 13.6876 	 -3.24238 	 
H 	 -106.064 	 14.7478 	 -3.13983 	 
H 	 -106.325 	 13.8275 	 -4.52105 	 
S 	 -102.317 	 10.218 	 -8.67472 	 
C 	 -103.265 	 9.27379 	 -9.81413 	 
C 	 -104.641 	 9.19336 	 -9.57183 	 
C 	 -104.935 	 10.0533 	 -8.45394 	 
C 	 -103.8 	 10.6228 	 -7.86272 	 
H 	 -105.289 	 8.60905 	 -10.2094 	 
C 	 -106.334 	 10.156 	 -7.86422 	 
H 	 -106.284 	 10.6052 	 -6.91937 	 
H 	 -106.766 	 9.16299 	 -7.6897 	 
C 	 -107.331 	 10.8758 	 -8.82502 	 
H 	 -107.408 	 10.5158 	 -9.85098 	 
H 	 -106.951 	 11.9305 	 -8.80385 	 
C 	 -108.759 	 11.0548 	 -8.23323 	 
H 	 -108.912 	 11.8753 	 -7.51711 	 
H 	 -109.156 	 10.1618 	 -7.73917 	 
H 	 -109.392 	 11.3611 	 -9.00333 	 
H 	 -102.862 	 14.5739 	 -4.92907 	 
H 	 -102.831 	 8.63928 	 -10.5802 	 
*
