! wB97X-D3 SP def2-SVP
%pal
nprocs 24
end

* xyz 0 1
S 	 -83.6178 	 -38.6058 	 -74.0929 	 
C 	 -83.2667 	 -38.7669 	 -75.7587 	 
C 	 -82.8928 	 -40.0852 	 -76.0997 	 
C 	 -82.9784 	 -40.9335 	 -74.9698 	 
C 	 -83.4565 	 -40.3286 	 -73.832 	 
H 	 -82.7752 	 -42.0018 	 -75.0413 	 
C 	 -82.3918 	 -40.5607 	 -77.4418 	 
H 	 -82.9292 	 -39.941 	 -78.2301 	 
H 	 -82.6228 	 -41.6568 	 -77.6633 	 
C 	 -80.912 	 -40.4024 	 -77.6573 	 
H 	 -80.8293 	 -40.2456 	 -78.7013 	 
H 	 -80.8668 	 -39.5083 	 -77.077 	 
C 	 -79.9598 	 -41.5545 	 -77.2379 	 
H 	 -79.9682 	 -41.8373 	 -76.1765 	 
H 	 -80.2088 	 -42.508 	 -77.6943 	 
H 	 -78.9063 	 -41.2299 	 -77.4667 	 
S 	 -83.1309 	 -39.9996 	 -71.0725 	 
C 	 -83.7671 	 -41.216 	 -70.0021 	 
C 	 -84.0021 	 -42.3393 	 -70.7227 	 
C 	 -83.9397 	 -42.177 	 -72.117 	 
C 	 -83.6124 	 -40.8868 	 -72.5055 	 
H 	 -84.2887 	 -43.201 	 -70.1523 	 
C 	 -84.1629 	 -43.4701 	 -73.0333 	 
H 	 -84.3832 	 -43.2626 	 -74.086 	 
H 	 -85.1369 	 -43.8169 	 -72.6013 	 
C 	 -83.0533 	 -44.6003 	 -72.961 	 
H 	 -83.4211 	 -45.4553 	 -73.5383 	 
H 	 -82.9206 	 -44.8747 	 -71.9402 	 
C 	 -81.783 	 -44.0853 	 -73.6053 	 
H 	 -80.9773 	 -44.8561 	 -73.3971 	 
H 	 -81.5836 	 -43.1178 	 -73.1611 	 
H 	 -81.873 	 -43.9359 	 -74.6475 	 
H 	 -83.2993 	 -37.9682 	 -76.3987 	 
H 	 -83.7403 	 -41.1176 	 -68.9032 	 
*
