! wB97X-D3 SP def2-SVP
%pal
nprocs 24
end

* xyz 0 1
S 	 -112.758 	 21.9922 	 -110.187 	 
C 	 -113.415 	 23.3701 	 -111.07 	 
C 	 -114.387 	 22.9192 	 -111.911 	 
C 	 -114.398 	 21.5057 	 -112.006 	 
C 	 -113.563 	 20.8585 	 -111.139 	 
H 	 -114.936 	 20.9326 	 -112.723 	 
C 	 -115.303 	 23.8211 	 -112.828 	 
H 	 -115.51 	 24.7781 	 -112.333 	 
H 	 -116.193 	 23.122 	 -112.88 	 
C 	 -114.619 	 24.04 	 -114.266 	 
H 	 -113.691 	 24.5085 	 -114.14 	 
H 	 -114.418 	 23.0499 	 -114.742 	 
C 	 -115.339 	 24.9314 	 -115.241 	 
H 	 -115.462 	 25.9832 	 -114.843 	 
H 	 -114.828 	 24.9781 	 -116.176 	 
H 	 -116.353 	 24.66 	 -115.448 	 
S 	 -114.144 	 18.9219 	 -109.23 	 
C 	 -114.25 	 17.2136 	 -109.669 	 
C 	 -113.686 	 17.0799 	 -110.92 	 
C 	 -113.237 	 18.2891 	 -111.626 	 
C 	 -113.505 	 19.411 	 -110.821 	 
H 	 -113.566 	 16.0229 	 -111.281 	 
C 	 -112.822 	 18.4081 	 -113.039 	 
H 	 -112.545 	 19.4375 	 -113.209 	 
H 	 -113.662 	 18.2957 	 -113.735 	 
C 	 -111.9 	 17.3019 	 -113.548 	 
H 	 -111.505 	 17.5134 	 -114.577 	 
H 	 -112.356 	 16.3598 	 -113.607 	 
C 	 -110.678 	 17.0919 	 -112.591 	 
H 	 -109.942 	 17.939 	 -112.638 	 
H 	 -110.152 	 16.1341 	 -112.634 	 
H 	 -111.117 	 16.9531 	 -111.583 	 
H 	 -113.13 	 24.3779 	 -110.982 	 
H 	 -114.59 	 16.3407 	 -109.085 	 
*
