! wB97X-D3 SP def2-SVP
%pal
nprocs 24
end

* xyz 0 1
S 	 -69.9616 	 17.862 	 -108.597 	 
C 	 -68.8367 	 18.0028 	 -107.209 	 
C 	 -67.7993 	 18.914 	 -107.361 	 
C 	 -67.8707 	 19.4219 	 -108.716 	 
C 	 -68.919 	 18.938 	 -109.519 	 
H 	 -67.1488 	 20.0772 	 -109.191 	 
C 	 -66.6805 	 19.3139 	 -106.46 	 
H 	 -65.9952 	 19.9728 	 -106.941 	 
H 	 -66.1197 	 18.3679 	 -106.385 	 
C 	 -67.0941 	 19.7096 	 -105.081 	 
H 	 -67.7339 	 20.5908 	 -105.145 	 
H 	 -67.6416 	 19.0213 	 -104.473 	 
C 	 -65.947 	 20.1038 	 -104.098 	 
H 	 -66.2046 	 20.6639 	 -103.169 	 
H 	 -65.3874 	 19.2267 	 -103.747 	 
H 	 -65.2836 	 20.8886 	 -104.503 	 
S 	 -69.3772 	 21.0351 	 -111.162 	 
C 	 -69.6266 	 20.7333 	 -112.758 	 
C 	 -69.7614 	 19.4343 	 -113.065 	 
C 	 -69.4998 	 18.5628 	 -111.971 	 
C 	 -69.2737 	 19.3349 	 -110.834 	 
H 	 -69.9097 	 19.2041 	 -114.082 	 
C 	 -69.2335 	 17.0958 	 -112.128 	 
H 	 -69.8018 	 16.8156 	 -113.047 	 
H 	 -69.6711 	 16.522 	 -111.325 	 
C 	 -67.8144 	 16.5577 	 -112.37 	 
H 	 -67.3517 	 17.1284 	 -113.172 	 
H 	 -67.9441 	 15.4673 	 -112.544 	 
C 	 -66.9471 	 16.739 	 -111.166 	 
H 	 -67.501 	 16.3422 	 -110.332 	 
H 	 -66.8395 	 17.8213 	 -110.858 	 
H 	 -66.0403 	 16.2568 	 -111.125 	 
H 	 -68.9948 	 17.5438 	 -106.199 	 
H 	 -69.764 	 21.5387 	 -113.409 	 
*
