! wB97X-D3 SP def2-SVP
%pal
nprocs 24
end

* xyz 0 1
S 	 -100.566 	 -0.451484 	 -106.497 	 
C 	 -98.8072 	 -0.607947 	 -106.601 	 
C 	 -98.2307 	 -0.989011 	 -105.331 	 
C 	 -99.2076 	 -1.21174 	 -104.322 	 
C 	 -100.522 	 -0.982729 	 -104.801 	 
H 	 -98.9172 	 -1.38437 	 -103.278 	 
C 	 -96.808 	 -1.15114 	 -105.094 	 
H 	 -96.5463 	 -0.780324 	 -104.122 	 
H 	 -96.381 	 -0.50166 	 -105.808 	 
C 	 -96.2291 	 -2.59276 	 -105.281 	 
H 	 -96.8124 	 -3.30955 	 -104.684 	 
H 	 -96.3322 	 -2.93207 	 -106.341 	 
C 	 -94.7981 	 -2.70161 	 -104.767 	 
H 	 -94.4904 	 -3.75537 	 -104.754 	 
H 	 -94.0136 	 -2.13888 	 -105.281 	 
H 	 -94.6194 	 -2.25585 	 -103.804 	 
S 	 -102.302 	 0.912458 	 -104.097 	 
C 	 -103.561 	 0.603417 	 -102.879 	 
C 	 -103.411 	 -0.691139 	 -102.403 	 
C 	 -102.381 	 -1.43514 	 -103.093 	 
C 	 -101.607 	 -0.662129 	 -103.928 	 
H 	 -104.074 	 -1.11216 	 -101.699 	 
C 	 -102.139 	 -2.9248 	 -102.904 	 
H 	 -102.04 	 -3.34345 	 -103.918 	 
H 	 -103.095 	 -3.38398 	 -102.549 	 
C 	 -100.96 	 -3.2951 	 -102.001 	 
H 	 -100.428 	 -2.39754 	 -101.825 	 
H 	 -100.228 	 -3.89568 	 -102.589 	 
C 	 -101.365 	 -4.05935 	 -100.762 	 
H 	 -100.423 	 -4.40873 	 -100.294 	 
H 	 -101.901 	 -4.94582 	 -101.007 	 
H 	 -101.98 	 -3.49036 	 -100.038 	 
H 	 -98.1142 	 -0.591342 	 -107.417 	 
H 	 -104.213 	 1.30706 	 -102.46 	 
*
