! wB97X-D3 SP def2-SVP
%pal
nprocs 24
end

* xyz 0 1
S 	 -33.8457 	 14.9386 	 13.3066 	 
C 	 -34.0858 	 16.2104 	 12.1098 	 
C 	 -34.5212 	 15.6804 	 10.9254 	 
C 	 -34.3136 	 14.2632 	 10.833 	 
C 	 -33.912 	 13.7391 	 12.0424 	 
H 	 -34.6014 	 13.7367 	 9.94152 	 
C 	 -35.0087 	 16.4332 	 9.76817 	 
H 	 -35.7668 	 17.2186 	 10.0607 	 
H 	 -35.6851 	 15.8903 	 9.1707 	 
C 	 -33.9212 	 16.9585 	 8.88149 	 
H 	 -33.1707 	 17.4679 	 9.4763 	 
H 	 -33.3737 	 16.0981 	 8.50627 	 
C 	 -34.4132 	 17.7687 	 7.64709 	 
H 	 -35.1683 	 18.466 	 7.79452 	 
H 	 -33.5869 	 18.2322 	 7.11981 	 
H 	 -34.8657 	 17.1242 	 6.86838 	 
S 	 -32.7525 	 11.447 	 11.2421 	 
C 	 -33.0063 	 10.0219 	 12.1415 	 
C 	 -33.8402 	 10.1969 	 13.2127 	 
C 	 -34.4683 	 11.4796 	 13.2591 	 
C 	 -33.8754 	 12.3204 	 12.3319 	 
H 	 -34.1238 	 9.36498 	 13.807 	 
C 	 -35.4192 	 11.8656 	 14.3049 	 
H 	 -36.0848 	 10.985 	 14.4628 	 
H 	 -36.0558 	 12.7596 	 14.0234 	 
C 	 -34.8479 	 12.3502 	 15.6532 	 
H 	 -35.6738 	 12.5891 	 16.2443 	 
H 	 -34.2933 	 13.2339 	 15.4515 	 
C 	 -34.0781 	 11.2782 	 16.3599 	 
H 	 -33.1167 	 10.9541 	 15.9427 	 
H 	 -34.7288 	 10.4059 	 16.4807 	 
H 	 -34.015 	 11.6323 	 17.3869 	 
H 	 -34.0955 	 17.2872 	 12.3148 	 
H 	 -32.5564 	 9.0795 	 11.9013 	 
*
