! wB97X-D3 SP def2-SVP
%pal
nprocs 24
end

* xyz 0 1
S 	 -51.3625 	 -51.7948 	 -81.7856 	 
C 	 -50.964 	 -53.4842 	 -81.8526 	 
C 	 -51.6809 	 -54.269 	 -80.9841 	 
C 	 -52.7401 	 -53.464 	 -80.3589 	 
C 	 -52.7181 	 -52.1366 	 -80.718 	 
H 	 -53.4513 	 -53.7599 	 -79.6408 	 
C 	 -51.2964 	 -55.6232 	 -80.5289 	 
H 	 -51.1037 	 -55.542 	 -79.4518 	 
H 	 -50.3585 	 -55.8118 	 -80.9645 	 
C 	 -52.2718 	 -56.6869 	 -81.0017 	 
H 	 -53.1149 	 -56.7322 	 -80.2904 	 
H 	 -52.8606 	 -56.4467 	 -81.887 	 
C 	 -51.7133 	 -58.0958 	 -81.148 	 
H 	 -51.5125 	 -58.4631 	 -80.1434 	 
H 	 -52.5082 	 -58.8057 	 -81.4273 	 
H 	 -50.8737 	 -58.1835 	 -81.8713 	 
S 	 -53.3467 	 -50.3096 	 -78.7327 	 
C 	 -54.6235 	 -49.2059 	 -78.9869 	 
C 	 -55.1849 	 -49.3673 	 -80.2146 	 
C 	 -54.6497 	 -50.439 	 -80.912 	 
C 	 -53.5869 	 -51.0488 	 -80.2916 	 
H 	 -55.9638 	 -48.7809 	 -80.6677 	 
C 	 -54.9556 	 -50.715 	 -82.3517 	 
H 	 -54.0438 	 -50.8987 	 -82.9456 	 
H 	 -55.2137 	 -49.7732 	 -82.7805 	 
C 	 -55.9601 	 -51.8951 	 -82.5589 	 
H 	 -56.9047 	 -51.6013 	 -82.1608 	 
H 	 -55.6725 	 -52.6939 	 -81.9386 	 
C 	 -56.2249 	 -52.168 	 -84.0325 	 
H 	 -56.6513 	 -51.2224 	 -84.4239 	 
H 	 -56.8801 	 -52.9992 	 -84.0421 	 
H 	 -55.4338 	 -52.4615 	 -84.6206 	 
H 	 -50.0408 	 -53.7654 	 -82.3995 	 
H 	 -54.8277 	 -48.4108 	 -78.2981 	 
*
