! wB97X-D3 SP def2-SVP
%pal
nprocs 24
end

* xyz 0 1
S 	 -110.912 	 49.2535 	 -84.4253 	 
C 	 -109.831 	 48.114 	 -85.1921 	 
C 	 -109.41 	 48.6271 	 -86.4402 	 
C 	 -110.022 	 49.8546 	 -86.8365 	 
C 	 -110.859 	 50.2773 	 -85.8688 	 
H 	 -110.05 	 50.2749 	 -87.8921 	 
C 	 -108.225 	 47.9999 	 -87.2113 	 
H 	 -108.503 	 48.2474 	 -88.2844 	 
H 	 -108.322 	 46.9915 	 -86.9285 	 
C 	 -106.925 	 48.6827 	 -86.9337 	 
H 	 -107.005 	 49.7729 	 -87.0147 	 
H 	 -106.722 	 48.5503 	 -85.8913 	 
C 	 -105.793 	 48.1502 	 -87.8815 	 
H 	 -105.49 	 47.1299 	 -87.6622 	 
H 	 -105.963 	 48.2084 	 -88.9926 	 
H 	 -104.92 	 48.7528 	 -87.6896 	 
S 	 -113.524 	 51.2407 	 -85.4986 	 
C 	 -113.923 	 52.7885 	 -86.1824 	 
C 	 -112.772 	 53.5055 	 -86.5844 	 
C 	 -111.637 	 52.7026 	 -86.6122 	 
C 	 -111.826 	 51.4022 	 -86.0914 	 
H 	 -112.887 	 54.5547 	 -86.9131 	 
C 	 -110.383 	 53.2505 	 -87.0493 	 
H 	 -110.651 	 54.2528 	 -87.3539 	 
H 	 -110.129 	 52.7237 	 -87.9804 	 
C 	 -109.233 	 53.1481 	 -86.0704 	 
H 	 -108.463 	 53.7242 	 -86.5331 	 
H 	 -108.918 	 52.1229 	 -85.889 	 
C 	 -109.507 	 53.6311 	 -84.6851 	 
H 	 -110.107 	 52.8669 	 -84.1638 	 
H 	 -110.061 	 54.5332 	 -84.6787 	 
H 	 -108.649 	 53.8602 	 -84.1204 	 
H 	 -109.167 	 47.5082 	 -84.6084 	 
H 	 -114.853 	 53.3491 	 -85.9696 	 
*
