! wB97X-D3 SP def2-SVP
%pal
nprocs 24
end

* xyz 0 1
S 	 -133.945 	 59.3172 	 -59.5841 	 
C 	 -134.77 	 58.0543 	 -58.6311 	 
C 	 -133.917 	 57.1556 	 -58.023 	 
C 	 -132.584 	 57.4546 	 -58.4001 	 
C 	 -132.46 	 58.4557 	 -59.3497 	 
H 	 -131.659 	 57.0369 	 -58.0687 	 
C 	 -134.36 	 56.0792 	 -57.0304 	 
H 	 -133.508 	 55.4313 	 -56.9507 	 
H 	 -135 	 55.4375 	 -57.5712 	 
C 	 -135.044 	 56.5798 	 -55.7543 	 
H 	 -134.484 	 57.1488 	 -55.0177 	 
H 	 -135.892 	 57.1011 	 -56.0372 	 
C 	 -135.403 	 55.3115 	 -54.9485 	 
H 	 -135.883 	 55.6514 	 -54.0336 	 
H 	 -136.279 	 54.8831 	 -55.4852 	 
H 	 -134.508 	 54.7983 	 -54.7508 	 
S 	 -131.343 	 58.2675 	 -61.8514 	 
C 	 -129.975 	 59.3367 	 -62.0738 	 
C 	 -129.338 	 59.7434 	 -60.9165 	 
C 	 -130.16 	 59.4421 	 -59.8026 	 
C 	 -131.314 	 58.7628 	 -60.1617 	 
H 	 -128.372 	 60.2606 	 -60.955 	 
C 	 -129.683 	 59.8348 	 -58.3787 	 
H 	 -129.306 	 58.8813 	 -57.8668 	 
H 	 -130.588 	 60.1055 	 -57.8463 	 
C 	 -128.613 	 61.0062 	 -58.3386 	 
H 	 -129.143 	 61.9279 	 -58.4996 	 
H 	 -127.837 	 60.8063 	 -59.0917 	 
C 	 -127.837 	 61.1142 	 -56.9859 	 
H 	 -127.039 	 61.8186 	 -57.0242 	 
H 	 -127.468 	 60.0676 	 -56.7447 	 
H 	 -128.44 	 61.4286 	 -56.1569 	 
H 	 -135.879 	 58.0883 	 -58.4948 	 
H 	 -129.778 	 59.6761 	 -63.0956 	 
*
