! wB97X-D3 SP def2-SVP
%pal
nprocs 24
end

* xyz 0 1
S 	 43.034 	 -20.5086 	 -113.554 	 
C 	 41.7691 	 -19.4169 	 -114.159 	 
C 	 42.096 	 -18.0855 	 -113.94 	 
C 	 43.3662 	 -17.9781 	 -113.224 	 
C 	 43.9053 	 -19.1977 	 -112.875 	 
H 	 43.8521 	 -17.0809 	 -113.038 	 
C 	 41.3538 	 -16.9527 	 -114.608 	 
H 	 40.8026 	 -17.1161 	 -115.558 	 
H 	 42.0185 	 -16.1855 	 -114.865 	 
C 	 40.3577 	 -16.2954 	 -113.665 	 
H 	 41.0021 	 -15.956 	 -112.797 	 
H 	 39.9488 	 -15.4031 	 -114.08 	 
C 	 39.2322 	 -17.1414 	 -113.175 	 
H 	 39.6451 	 -17.9956 	 -112.619 	 
H 	 38.6279 	 -16.6197 	 -112.432 	 
H 	 38.5708 	 -17.5194 	 -113.904 	 
S 	 46.1318 	 -20.8124 	 -112.672 	 
C 	 47.4127 	 -20.4868 	 -111.502 	 
C 	 47.1655 	 -19.361 	 -110.782 	 
C 	 45.9223 	 -18.727 	 -111.205 	 
C 	 45.1845 	 -19.4872 	 -112.184 	 
H 	 47.8172 	 -19.1038 	 -109.98 	 
C 	 45.3985 	 -17.481 	 -110.577 	 
H 	 45.1885 	 -16.6817 	 -111.316 	 
H 	 46.1251 	 -17.0177 	 -109.947 	 
C 	 44.1155 	 -17.6761 	 -109.708 	 
H 	 44.1099 	 -18.4598 	 -109.001 	 
H 	 43.2372 	 -17.763 	 -110.339 	 
C 	 43.7978 	 -16.3522 	 -108.927 	 
H 	 44.5201 	 -16.0998 	 -108.218 	 
H 	 42.8383 	 -16.4092 	 -108.45 	 
H 	 43.5913 	 -15.4804 	 -109.647 	 
H 	 40.9436 	 -19.7775 	 -114.804 	 
H 	 48.1633 	 -21.2431 	 -111.351 	 
*
