! wB97X-D3 SP def2-SVP
%pal
nprocs 24
end

* xyz 0 1
S 	 -21.1631 	 -33.812 	 -96.4071 	 
C 	 -19.8557 	 -34.815 	 -96.1178 	 
C 	 -18.6781 	 -34.1462 	 -96.0509 	 
C 	 -18.8298 	 -32.695 	 -96.3796 	 
C 	 -20.1556 	 -32.4025 	 -96.6475 	 
H 	 -18.1215 	 -31.8991 	 -96.4353 	 
C 	 -17.3259 	 -34.7685 	 -95.7725 	 
H 	 -17.3578 	 -35.7079 	 -95.2885 	 
H 	 -16.8284 	 -34.0676 	 -95.1353 	 
C 	 -16.4405 	 -35.0098 	 -97.0479 	 
H 	 -16.9562 	 -35.7393 	 -97.6131 	 
H 	 -16.3499 	 -34.1552 	 -97.6831 	 
C 	 -15.0291 	 -35.4817 	 -96.7242 	 
H 	 -14.4608 	 -35.7063 	 -97.5978 	 
H 	 -14.4577 	 -34.7657 	 -96.1044 	 
H 	 -15.0589 	 -36.4224 	 -96.1559 	 
S 	 -22.2239 	 -31.2187 	 -98.0002 	 
C 	 -22.4158 	 -29.5217 	 -98.018 	 
C 	 -21.2788 	 -28.9504 	 -97.5682 	 
C 	 -20.2698 	 -29.8396 	 -97.0822 	 
C 	 -20.7231 	 -31.1505 	 -97.0888 	 
H 	 -21.0872 	 -27.8981 	 -97.714 	 
C 	 -18.9135 	 -29.3061 	 -96.6029 	 
H 	 -18.5889 	 -30.0889 	 -95.9446 	 
H 	 -19.0696 	 -28.4416 	 -96.0293 	 
C 	 -17.8452 	 -29.1927 	 -97.7124 	 
H 	 -18.2899 	 -28.5002 	 -98.5766 	 
H 	 -17.5995 	 -30.1765 	 -98.171 	 
C 	 -16.5104 	 -28.702 	 -97.1603 	 
H 	 -15.9085 	 -28.3739 	 -97.9624 	 
H 	 -15.9003 	 -29.4157 	 -96.6206 	 
H 	 -16.7071 	 -27.8788 	 -96.5211 	 
H 	 -19.9533 	 -35.872 	 -95.8823 	 
H 	 -23.1636 	 -28.9418 	 -98.5151 	 
*
