! wB97X-D3 SP def2-SVP
%pal
nprocs 24
end

* xyz 0 1
S 	 -112.062 	 62.0049 	 -67.9911 	 
C 	 -111.231 	 60.6049 	 -67.3295 	 
C 	 -110.911 	 60.7539 	 -65.9821 	 
C 	 -111.569 	 61.8903 	 -65.3832 	 
C 	 -112.171 	 62.673 	 -66.3582 	 
H 	 -111.501 	 62.2958 	 -64.391 	 
C 	 -110.048 	 59.7029 	 -65.1748 	 
H 	 -109.15 	 59.5022 	 -65.8515 	 
H 	 -110.523 	 58.7637 	 -65.0994 	 
C 	 -109.576 	 60.0921 	 -63.744 	 
H 	 -108.967 	 61.0156 	 -63.8353 	 
H 	 -110.429 	 60.4233 	 -63.2148 	 
C 	 -108.685 	 58.9976 	 -63.0983 	 
H 	 -108.378 	 59.2409 	 -62.1378 	 
H 	 -109.132 	 57.9664 	 -63.0367 	 
H 	 -107.793 	 58.8088 	 -63.7386 	 
S 	 -112.506 	 65.2951 	 -66.8401 	 
C 	 -113.818 	 66.2731 	 -66.0587 	 
C 	 -114.609 	 65.4412 	 -65.3295 	 
C 	 -114.213 	 64.0534 	 -65.4179 	 
C 	 -113.029 	 63.8359 	 -66.1331 	 
H 	 -115.533 	 65.8078 	 -64.7357 	 
C 	 -114.898 	 63.0978 	 -64.4429 	 
H 	 -114.775 	 63.4944 	 -63.4604 	 
H 	 -114.232 	 62.201 	 -64.2894 	 
C 	 -116.314 	 62.6466 	 -64.6592 	 
H 	 -117.012 	 63.4935 	 -64.4969 	 
H 	 -116.581 	 61.955 	 -63.9004 	 
C 	 -116.498 	 61.9862 	 -66.0669 	 
H 	 -115.87 	 61.1226 	 -66.2256 	 
H 	 -116.318 	 62.6277 	 -66.909 	 
H 	 -117.47 	 61.6039 	 -66.1341 	 
H 	 -110.881 	 59.8045 	 -68.0116 	 
H 	 -114.02 	 67.266 	 -66.3539 	 
*
