! wB97X-D3 SP def2-SVP
%pal
nprocs 24
end

* xyz 0 1
S 	 -49.1069 	 13.0136 	 24.2642 	 
C 	 -48.5606 	 14.5533 	 23.7673 	 
C 	 -47.2917 	 14.8494 	 24.1702 	 
C 	 -46.8171 	 13.8478 	 25.0436 	 
C 	 -47.7201 	 12.8339 	 25.2911 	 
H 	 -45.9055 	 13.9075 	 25.5764 	 
C 	 -46.4308 	 16.1101 	 23.8025 	 
H 	 -45.5711 	 16.2007 	 24.3673 	 
H 	 -47.1191 	 17.0166 	 24.0163 	 
C 	 -46.0863 	 16.2128 	 22.2966 	 
H 	 -45.7018 	 15.187 	 21.9601 	 
H 	 -46.9473 	 16.3852 	 21.6358 	 
C 	 -45.0611 	 17.2828 	 21.9662 	 
H 	 -44.756 	 17.297 	 21.0145 	 
H 	 -45.2125 	 18.3196 	 22.2688 	 
H 	 -44.1652 	 17.1083 	 22.5352 	 
S 	 -48.0856 	 10.1535 	 25.2713 	 
C 	 -47.5725 	 9.19367 	 26.572 	 
C 	 -46.9658 	 9.95075 	 27.5741 	 
C 	 -46.9497 	 11.3725 	 27.2002 	 
C 	 -47.4886 	 11.6155 	 25.9762 	 
H 	 -46.5349 	 9.48376 	 28.4807 	 
C 	 -46.1861 	 12.3619 	 28.0206 	 
H 	 -45.4713 	 12.9336 	 27.3157 	 
H 	 -45.5543 	 11.683 	 28.6744 	 
C 	 -47.0241 	 13.2633 	 28.9012 	 
H 	 -47.6149 	 13.9644 	 28.3522 	 
H 	 -46.4472 	 13.9663 	 29.4518 	 
C 	 -48.0002 	 12.5305 	 29.8259 	 
H 	 -47.3521 	 11.8878 	 30.4392 	 
H 	 -48.6275 	 11.7924 	 29.2453 	 
H 	 -48.6166 	 13.1596 	 30.4062 	 
H 	 -49.0101 	 15.0367 	 22.8726 	 
H 	 -47.7535 	 8.10089 	 26.5575 	 
*
