! wB97X-D3 SP def2-SVP
%pal
nprocs 24
end

* xyz 0 1
S 	 20.7678 	 0.794662 	 -109.796 	 
C 	 19.9734 	 -0.518816 	 -108.943 	 
C 	 18.73 	 -0.712824 	 -109.498 	 
C 	 18.4475 	 0.084671 	 -110.621 	 
C 	 19.422 	 0.995904 	 -110.938 	 
H 	 17.455 	 0.0962893 	 -111.039 	 
C 	 17.724 	 -1.63024 	 -108.894 	 
H 	 16.7009 	 -1.27037 	 -108.974 	 
H 	 17.7767 	 -1.61156 	 -107.814 	 
C 	 17.6846 	 -2.99466 	 -109.593 	 
H 	 16.7338 	 -3.49559 	 -109.391 	 
H 	 17.6584 	 -2.90686 	 -110.688 	 
C 	 19.0259 	 -3.83381 	 -109.151 	 
H 	 19.9751 	 -3.50343 	 -109.63 	 
H 	 19.0778 	 -3.70398 	 -108.066 	 
H 	 18.7685 	 -4.88916 	 -109.302 	 
S 	 20.0836 	 3.60131 	 -111.419 	 
C 	 19.5038 	 4.39145 	 -112.915 	 
C 	 18.7934 	 3.49795 	 -113.675 	 
C 	 18.5729 	 2.24068 	 -113.02 	 
C 	 19.3001 	 2.11856 	 -111.855 	 
H 	 18.4533 	 3.83404 	 -114.668 	 
C 	 17.9115 	 1.1109 	 -113.868 	 
H 	 17.4615 	 1.61856 	 -114.678 	 
H 	 17.128 	 0.792386 	 -113.212 	 
C 	 18.9012 	 0.123927 	 -114.553 	 
H 	 19.4128 	 -0.3079 	 -113.692 	 
H 	 19.5227 	 0.569047 	 -115.277 	 
C 	 18.135 	 -0.984816 	 -115.238 	 
H 	 18.787 	 -1.53438 	 -115.958 	 
H 	 17.2172 	 -0.608871 	 -115.652 	 
H 	 17.8695 	 -1.70264 	 -114.5 	 
H 	 20.2102 	 -0.898111 	 -107.982 	 
H 	 19.8331 	 5.3153 	 -113.254 	 
*
