! wB97X-D3 SP def2-SVP
%pal
nprocs 24
end

* xyz 0 1
S 	 -87.0235 	 -1.83924 	 -64.6779 	 
C 	 -87.372 	 -0.180132 	 -64.9858 	 
C 	 -87.4539 	 0.544938 	 -63.8571 	 
C 	 -87.0988 	 -0.249178 	 -62.6703 	 
C 	 -86.6928 	 -1.52343 	 -62.9907 	 
H 	 -87.1267 	 0.0348905 	 -61.64 	 
C 	 -87.8623 	 2.01629 	 -63.837 	 
H 	 -88.7589 	 2.00435 	 -63.2366 	 
H 	 -88.1896 	 2.28062 	 -64.7985 	 
C 	 -86.8082 	 3.03837 	 -63.3552 	 
H 	 -87.2369 	 4.06363 	 -63.3936 	 
H 	 -86.5206 	 2.85662 	 -62.3029 	 
C 	 -85.5892 	 3.14022 	 -64.295 	 
H 	 -85.8865 	 3.4097 	 -65.3567 	 
H 	 -84.8865 	 3.87265 	 -63.9357 	 
H 	 -85.2152 	 2.14616 	 -64.3984 	 
S 	 -84.6378 	 -3.34862 	 -62.4869 	 
C 	 -84.5281 	 -4.009 	 -60.883 	 
C 	 -85.6024 	 -3.79195 	 -60.1249 	 
C 	 -86.5987 	 -3.0508 	 -60.8256 	 
C 	 -86.1792 	 -2.59104 	 -62.1115 	 
H 	 -85.6714 	 -4.15203 	 -59.1122 	 
C 	 -87.8962 	 -2.53086 	 -60.2097 	 
H 	 -88.5391 	 -3.40985 	 -59.8014 	 
H 	 -88.502 	 -2.11767 	 -61.008 	 
C 	 -87.7654 	 -1.46492 	 -59.1082 	 
H 	 -88.6941 	 -0.9459 	 -59.0952 	 
H 	 -87.0674 	 -0.655793 	 -59.275 	 
C 	 -87.642 	 -1.99195 	 -57.6803 	 
H 	 -88.3319 	 -2.7776 	 -57.4374 	 
H 	 -87.7664 	 -1.15488 	 -57.0003 	 
H 	 -86.6467 	 -2.38385 	 -57.5557 	 
H 	 -87.5442 	 0.263306 	 -65.9671 	 
H 	 -83.6433 	 -4.53394 	 -60.5602 	 
*
