! wB97X-D3 SP def2-SVP
%pal
nprocs 24
end

* xyz 0 1
S 	 -57.3778 	 1.17011 	 -21.4912 	 
C 	 -55.9239 	 1.47416 	 -22.4607 	 
C 	 -55.1131 	 2.47579 	 -21.8601 	 
C 	 -55.7236 	 2.95747 	 -20.6298 	 
C 	 -56.9225 	 2.35505 	 -20.2709 	 
H 	 -55.3422 	 3.74098 	 -19.9348 	 
C 	 -53.8119 	 3.01617 	 -22.3579 	 
H 	 -53.2327 	 2.14282 	 -22.5369 	 
H 	 -53.2163 	 3.65754 	 -21.6064 	 
C 	 -53.8905 	 3.9232 	 -23.5623 	 
H 	 -54.7858 	 3.65479 	 -24.1085 	 
H 	 -54.1334 	 4.9135 	 -23.3443 	 
C 	 -52.7377 	 3.80435 	 -24.5301 	 
H 	 -51.8436 	 3.80404 	 -24.0415 	 
H 	 -52.7678 	 2.90834 	 -25.1523 	 
H 	 -52.6928 	 4.74565 	 -25.1039 	 
S 	 -58.653 	 4.18313 	 -19.0848 	 
C 	 -59.3705 	 3.83142 	 -17.4998 	 
C 	 -58.8189 	 2.66133 	 -17.0406 	 
C 	 -58.0349 	 1.93677 	 -17.9628 	 
C 	 -57.8056 	 2.67894 	 -19.1242 	 
H 	 -58.9487 	 2.31784 	 -16.0228 	 
C 	 -57.415 	 0.672151 	 -17.5457 	 
H 	 -56.6364 	 0.883058 	 -16.9145 	 
H 	 -57.0013 	 0.0164107 	 -18.3315 	 
C 	 -58.3287 	 -0.306424 	 -16.7578 	 
H 	 -59.2269 	 -0.442519 	 -17.38 	 
H 	 -58.7916 	 0.186518 	 -15.9205 	 
C 	 -57.6816 	 -1.62269 	 -16.3698 	 
H 	 -58.3234 	 -2.06749 	 -15.5967 	 
H 	 -56.6342 	 -1.49307 	 -16.0338 	 
H 	 -57.5914 	 -2.22522 	 -17.2283 	 
H 	 -55.6822 	 0.987157 	 -23.3811 	 
H 	 -59.8763 	 4.4632 	 -16.8661 	 
*
