! wB97X-D3 SP def2-SVP
%pal
nprocs 24
end

* xyz 0 1
S 	 -32.8675 	 -38.395 	 -93.7936 	 
C 	 -33.4448 	 -36.8165 	 -94.2309 	 
C 	 -33.0758 	 -35.8391 	 -93.3474 	 
C 	 -32.0947 	 -36.3658 	 -92.4738 	 
C 	 -31.8693 	 -37.6883 	 -92.5389 	 
H 	 -31.5205 	 -35.7605 	 -91.7969 	 
C 	 -33.3773 	 -34.3585 	 -93.2908 	 
H 	 -33.2724 	 -34.0352 	 -92.245 	 
H 	 -34.4268 	 -34.3011 	 -93.6243 	 
C 	 -32.4848 	 -33.551 	 -94.1769 	 
H 	 -32.7647 	 -32.5135 	 -94.0529 	 
H 	 -31.4815 	 -33.6835 	 -93.9472 	 
C 	 -32.6239 	 -33.8288 	 -95.6075 	 
H 	 -33.5354 	 -34.2582 	 -95.9005 	 
H 	 -32.6655 	 -32.797 	 -96.1822 	 
H 	 -31.7731 	 -34.3424 	 -96.1522 	 
S 	 -30.173 	 -39.7649 	 -92.834 	 
C 	 -29.0505 	 -40.1909 	 -91.6447 	 
C 	 -29.1643 	 -39.3857 	 -90.5473 	 
C 	 -30.19 	 -38.4024 	 -90.574 	 
C 	 -30.8102 	 -38.4285 	 -91.8356 	 
H 	 -28.5069 	 -39.5227 	 -89.6479 	 
C 	 -30.5219 	 -37.3831 	 -89.4631 	 
H 	 -30.9806 	 -37.9579 	 -88.6533 	 
H 	 -31.3092 	 -36.8443 	 -89.8984 	 
C 	 -29.3431 	 -36.5383 	 -88.9978 	 
H 	 -28.9521 	 -35.9114 	 -89.8353 	 
H 	 -28.5318 	 -37.2716 	 -88.646 	 
C 	 -29.7332 	 -35.5588 	 -87.8324 	 
H 	 -30.2847 	 -34.666 	 -88.2919 	 
H 	 -28.8325 	 -35.1837 	 -87.3832 	 
H 	 -30.3909 	 -36.0671 	 -87.0975 	 
H 	 -34.1298 	 -36.6159 	 -94.9749 	 
H 	 -28.4027 	 -41.0852 	 -91.7122 	 
*
