! wB97X-D3 SP def2-SVP
%pal
nprocs 24
end

* xyz 0 1
S 	 -142.259 	 9.83452 	 -11.6034 	 
C 	 -140.526 	 9.58175 	 -11.9489 	 
C 	 -139.811 	 9.15932 	 -10.8531 	 
C 	 -140.631 	 9.1236 	 -9.71529 	 
C 	 -141.939 	 9.38069 	 -9.9764 	 
H 	 -140.36 	 8.88049 	 -8.71832 	 
C 	 -138.342 	 8.71672 	 -10.8028 	 
H 	 -138.121 	 7.90219 	 -11.4553 	 
H 	 -138.212 	 8.34266 	 -9.79872 	 
C 	 -137.309 	 9.90802 	 -11.0983 	 
H 	 -137.487 	 10.4726 	 -11.967 	 
H 	 -137.36 	 10.5568 	 -10.2142 	 
C 	 -135.864 	 9.31919 	 -11.3499 	 
H 	 -135.495 	 9.00782 	 -10.363 	 
H 	 -135.867 	 8.45032 	 -12.0446 	 
H 	 -135.341 	 10.2447 	 -11.5834 	 
S 	 -143.681 	 7.58338 	 -8.95968 	 
C 	 -144.822 	 8.0737 	 -7.80574 	 
C 	 -144.647 	 9.33629 	 -7.43241 	 
C 	 -143.649 	 9.98786 	 -8.18356 	 
C 	 -143.045 	 9.1639 	 -9.07646 	 
H 	 -145.202 	 9.77953 	 -6.59601 	 
C 	 -143.258 	 11.4857 	 -7.94504 	 
H 	 -143.455 	 12.0246 	 -8.90832 	 
H 	 -142.165 	 11.586 	 -7.71998 	 
C 	 -144.059 	 12.2976 	 -6.87656 	 
H 	 -143.787 	 11.9495 	 -5.86052 	 
H 	 -145.122 	 12.1667 	 -6.85186 	 
C 	 -143.735 	 13.7903 	 -7.04102 	 
H 	 -144.261 	 14.3213 	 -6.2404 	 
H 	 -144.013 	 14.1961 	 -8.02501 	 
H 	 -142.665 	 13.8912 	 -6.95572 	 
H 	 -140.149 	 9.68893 	 -12.9751 	 
H 	 -145.571 	 7.48938 	 -7.30837 	 
*
