! wB97X-D3 SP def2-SVP
%pal
nprocs 24
end

* xyz 0 1
S 	 -84.0897 	 2.2154 	 -113.944 	 
C 	 -83.059 	 2.33584 	 -115.371 	 
C 	 -83.5778 	 1.59512 	 -116.416 	 
C 	 -84.8538 	 1.02099 	 -116.083 	 
C 	 -85.2977 	 1.274 	 -114.818 	 
H 	 -85.4938 	 0.365962 	 -116.664 	 
C 	 -82.7984 	 1.23934 	 -117.663 	 
H 	 -82.2597 	 0.333029 	 -117.575 	 
H 	 -82.001 	 1.88398 	 -117.84 	 
C 	 -83.5812 	 1.22978 	 -118.974 	 
H 	 -82.8194 	 0.786869 	 -119.678 	 
H 	 -84.3723 	 0.508755 	 -118.924 	 
C 	 -84.2288 	 2.51612 	 -119.439 	 
H 	 -85.0522 	 2.78127 	 -118.82 	 
H 	 -83.4614 	 3.34577 	 -119.362 	 
H 	 -84.5329 	 2.61319 	 -120.434 	 
S 	 -86.6258 	 -1.06641 	 -114.185 	 
C 	 -87.7845 	 -1.07263 	 -112.929 	 
C 	 -88.004 	 0.202311 	 -112.431 	 
C 	 -87.2231 	 1.22273 	 -113.024 	 
C 	 -86.4067 	 0.673531 	 -114.053 	 
H 	 -88.7233 	 0.393093 	 -111.725 	 
C 	 -87.337 	 2.72993 	 -112.679 	 
H 	 -86.4678 	 3.43935 	 -112.902 	 
H 	 -87.5928 	 2.93932 	 -111.597 	 
C 	 -88.3948 	 3.37201 	 -113.491 	 
H 	 -88.1605 	 3.23388 	 -114.534 	 
H 	 -88.2781 	 4.42289 	 -113.231 	 
C 	 -89.9214 	 3.17517 	 -113.102 	 
H 	 -90.2307 	 2.14238 	 -113.229 	 
H 	 -90.6845 	 3.8997 	 -113.55 	 
H 	 -89.9745 	 3.29002 	 -112.035 	 
H 	 -82.0752 	 2.67004 	 -115.42 	 
H 	 -88.2456 	 -1.97891 	 -112.538 	 
*
