! wB97X-D3 SP def2-SVP
%pal
nprocs 24
end

* xyz 0 1
S 	 -135.215 	 30.5693 	 -20.2156 	 
C 	 -133.536 	 30.2206 	 -20.569 	 
C 	 -133.004 	 29.3121 	 -19.6467 	 
C 	 -133.809 	 29.3027 	 -18.45 	 
C 	 -134.971 	 30.0973 	 -18.5454 	 
H 	 -133.675 	 28.782 	 -17.5396 	 
C 	 -131.615 	 28.6525 	 -19.6262 	 
H 	 -131.765 	 27.5588 	 -19.7053 	 
H 	 -131.152 	 28.9776 	 -18.7131 	 
C 	 -130.735 	 28.8737 	 -20.7888 	 
H 	 -131.158 	 28.4293 	 -21.6271 	 
H 	 -130.691 	 30.0029 	 -20.848 	 
C 	 -129.326 	 28.178 	 -20.6197 	 
H 	 -128.725 	 28.5429 	 -19.7615 	 
H 	 -129.468 	 27.0753 	 -20.4434 	 
H 	 -128.765 	 28.3605 	 -21.5675 	 
S 	 -137.792 	 30.2597 	 -18.0669 	 
C 	 -138.395 	 30.0271 	 -16.4193 	 
C 	 -137.335 	 30.0295 	 -15.5133 	 
C 	 -136.044 	 30.0676 	 -16.1327 	 
C 	 -136.049 	 30.1047 	 -17.5474 	 
H 	 -137.566 	 30.0877 	 -14.4288 	 
C 	 -134.757 	 30.322 	 -15.399 	 
H 	 -135.008 	 30.8895 	 -14.5536 	 
H 	 -134.03 	 30.9089 	 -15.9643 	 
C 	 -134.086 	 29.1022 	 -14.7205 	 
H 	 -133.681 	 28.4429 	 -15.4922 	 
H 	 -134.889 	 28.4972 	 -14.2057 	 
C 	 -132.919 	 29.4408 	 -13.8094 	 
H 	 -133.038 	 30.4152 	 -13.3293 	 
H 	 -132.064 	 29.54 	 -14.4065 	 
H 	 -132.76 	 28.6551 	 -13.0246 	 
H 	 -133.074 	 30.398 	 -21.5323 	 
H 	 -139.38 	 30.2363 	 -16.0623 	 
*
