! wB97X-D3 SP def2-SVP
%pal
nprocs 24
end

* xyz 0 1
S 	 -33.2044 	 -5.89518 	 7.70317 	 
C 	 -32.2862 	 -4.73969 	 8.62282 	 
C 	 -32.9247 	 -4.56177 	 9.85971 	 
C 	 -34.083 	 -5.34014 	 10.0132 	 
C 	 -34.3329 	 -6.11973 	 8.8957 	 
H 	 -34.7434 	 -5.39372 	 10.9089 	 
C 	 -32.3053 	 -3.73043 	 10.9703 	 
H 	 -31.2111 	 -3.84728 	 10.6848 	 
H 	 -32.5257 	 -4.23257 	 11.9424 	 
C 	 -32.7218 	 -2.22461 	 11.0322 	 
H 	 -32.2074 	 -1.72745 	 10.1519 	 
H 	 -33.7666 	 -2.11312 	 10.8973 	 
C 	 -32.2663 	 -1.47903 	 12.3422 	 
H 	 -31.2592 	 -1.83744 	 12.563 	 
H 	 -32.2761 	 -0.434375 	 12.3539 	 
H 	 -32.9495 	 -1.71039 	 13.1575 	 
S 	 -34.6982 	 -8.82147 	 8.27609 	 
C 	 -36.3644 	 -9.45613 	 8.21846 	 
C 	 -37.2319 	 -8.48214 	 8.68912 	 
C 	 -36.5903 	 -7.25267 	 8.93695 	 
C 	 -35.2489 	 -7.26181 	 8.80998 	 
H 	 -38.2753 	 -8.62443 	 8.88667 	 
C 	 -37.4048 	 -6.00571 	 8.97637 	 
H 	 -37.8842 	 -5.73916 	 8.02717 	 
H 	 -36.7464 	 -5.12591 	 9.0988 	 
C 	 -38.3893 	 -5.8741 	 10.1808 	 
H 	 -37.803 	 -6.04676 	 11.1124 	 
H 	 -39.1767 	 -6.71909 	 10.1358 	 
C 	 -39.028 	 -4.51982 	 10.3327 	 
H 	 -39.5949 	 -4.07837 	 9.48406 	 
H 	 -38.3305 	 -3.66613 	 10.4706 	 
H 	 -39.6918 	 -4.37412 	 11.1781 	 
H 	 -31.5356 	 -4.12576 	 8.32046 	 
H 	 -36.5968 	 -10.4475 	 7.89179 	 
*
