! wB97X-D3 SP def2-SVP
%pal
nprocs 24
end

* xyz 0 1
S 	 -117.036 	 30.7045 	 -20.6684 	 
C 	 -116.894 	 29.966 	 -22.2809 	 
C 	 -116.478 	 28.6758 	 -22.1206 	 
C 	 -116.119 	 28.3555 	 -20.7791 	 
C 	 -116.23 	 29.3765 	 -19.908 	 
H 	 -115.738 	 27.359 	 -20.4724 	 
C 	 -116.246 	 27.7475 	 -23.2608 	 
H 	 -115.423 	 27.0681 	 -22.9802 	 
H 	 -115.763 	 28.3158 	 -24.0709 	 
C 	 -117.402 	 26.9154 	 -23.8001 	 
H 	 -117.809 	 26.2549 	 -23.0154 	 
H 	 -118.187 	 27.5611 	 -24.114 	 
C 	 -117.006 	 26.1118 	 -25.0473 	 
H 	 -116.425 	 26.6475 	 -25.7884 	 
H 	 -116.444 	 25.1543 	 -24.7726 	 
H 	 -117.841 	 25.8257 	 -25.674 	 
S 	 -116.729 	 30.4268 	 -17.4591 	 
C 	 -115.802 	 29.9134 	 -16.1072 	 
C 	 -114.855 	 28.9809 	 -16.4839 	 
C 	 -114.739 	 28.7779 	 -17.8718 	 
C 	 -115.787 	 29.4487 	 -18.5465 	 
H 	 -114.307 	 28.3549 	 -15.6974 	 
C 	 -113.713 	 27.7463 	 -18.5607 	 
H 	 -113.879 	 27.7337 	 -19.608 	 
H 	 -114.037 	 26.8206 	 -18.1648 	 
C 	 -112.237 	 27.8777 	 -18.3194 	 
H 	 -112.154 	 27.858 	 -17.1815 	 
H 	 -111.798 	 28.8081 	 -18.5771 	 
C 	 -111.434 	 26.7839 	 -19.0852 	 
H 	 -111.796 	 25.7573 	 -18.762 	 
H 	 -110.361 	 26.6984 	 -18.8775 	 
H 	 -111.452 	 26.8578 	 -20.1585 	 
H 	 -117.13 	 30.4288 	 -23.1755 	 
H 	 -115.915 	 30.2046 	 -15.103 	 
*
