! wB97X-D3 SP def2-SVP
%pal
nprocs 24
end

* xyz 0 1
S 	 -80.0892 	 -16.4449 	 -51.2703 	 
C 	 -81.8557 	 -16.6789 	 -51.1198 	 
C 	 -82.5303 	 -15.6207 	 -51.7007 	 
C 	 -81.5948 	 -14.7222 	 -52.3301 	 
C 	 -80.2638 	 -15.0243 	 -52.1918 	 
H 	 -81.8748 	 -13.8183 	 -52.9371 	 
C 	 -84.0472 	 -15.3363 	 -51.7671 	 
H 	 -84.2718 	 -14.2083 	 -51.8486 	 
H 	 -84.467 	 -15.6923 	 -50.7445 	 
C 	 -84.7952 	 -16.0528 	 -52.8139 	 
H 	 -85.8611 	 -15.7464 	 -52.8125 	 
H 	 -84.4201 	 -15.6588 	 -53.8028 	 
C 	 -84.5443 	 -17.5267 	 -52.9241 	 
H 	 -84.7404 	 -17.9422 	 -51.9464 	 
H 	 -85.3014 	 -18.1102 	 -53.4844 	 
H 	 -83.5353 	 -17.7411 	 -53.3439 	 
S 	 -78.7909 	 -14.5632 	 -54.5302 	 
C 	 -77.2542 	 -13.7358 	 -54.3694 	 
C 	 -77.089 	 -13.1611 	 -53.0935 	 
C 	 -78.1637 	 -13.5726 	 -52.1816 	 
C 	 -79.137 	 -14.3418 	 -52.8042 	 
H 	 -76.257 	 -12.5597 	 -52.7802 	 
C 	 -78.2389 	 -13.2017 	 -50.7071 	 
H 	 -78.0271 	 -14.0058 	 -50.0063 	 
H 	 -79.2858 	 -12.9879 	 -50.5812 	 
C 	 -77.5896 	 -11.8506 	 -50.326 	 
H 	 -78.0429 	 -11.0075 	 -50.9091 	 
H 	 -76.5456 	 -11.9478 	 -50.5706 	 
C 	 -77.7819 	 -11.5713 	 -48.7989 	 
H 	 -78.8526 	 -11.3587 	 -48.6971 	 
H 	 -77.2541 	 -10.7931 	 -48.3857 	 
H 	 -77.4347 	 -12.384 	 -48.1519 	 
H 	 -82.24 	 -17.6237 	 -50.7767 	 
H 	 -76.6267 	 -13.6004 	 -55.1569 	 
*
