! wB97X-D3 SP def2-SVP
%pal
nprocs 24
end

* xyz 0 1
S 	 -139.077 	 15.4693 	 -5.09165 	 
C 	 -139.971 	 14.3041 	 -4.17184 	 
C 	 -139.321 	 13.9065 	 -3.00867 	 
C 	 -138.116 	 14.6022 	 -2.88655 	 
C 	 -137.834 	 15.402 	 -3.97227 	 
H 	 -137.545 	 14.3851 	 -2.00774 	 
C 	 -139.763 	 12.9058 	 -1.9223 	 
H 	 -140.577 	 13.4333 	 -1.40742 	 
H 	 -138.98 	 12.8173 	 -1.10221 	 
C 	 -140.2 	 11.5167 	 -2.35833 	 
H 	 -141.219 	 11.5038 	 -2.7538 	 
H 	 -139.544 	 11.0386 	 -3.1014 	 
C 	 -140.396 	 10.6207 	 -1.17122 	 
H 	 -140.773 	 11.2142 	 -0.447077 	 
H 	 -141.159 	 9.89455 	 -1.39427 	 
H 	 -139.429 	 10.1523 	 -0.885233 	 
S 	 -136.796 	 17.9865 	 -3.48411 	 
C 	 -135.254 	 18.4848 	 -4.01897 	 
C 	 -134.541 	 17.4031 	 -4.53204 	 
C 	 -135.353 	 16.2059 	 -4.62416 	 
C 	 -136.704 	 16.3649 	 -4.13463 	 
H 	 -133.48 	 17.4748 	 -4.79677 	 
C 	 -134.841 	 14.8633 	 -5.11502 	 
H 	 -134.637 	 15.1119 	 -6.15421 	 
H 	 -135.639 	 14.2159 	 -5.19942 	 
C 	 -133.573 	 14.3333 	 -4.39576 	 
H 	 -133.622 	 14.3195 	 -3.29161 	 
H 	 -132.748 	 14.9542 	 -4.80338 	 
C 	 -133.244 	 12.857 	 -4.81759 	 
H 	 -133.067 	 12.7758 	 -5.88188 	 
H 	 -134.186 	 12.3241 	 -4.68039 	 
H 	 -132.527 	 12.288 	 -4.33844 	 
H 	 -140.841 	 13.7865 	 -4.46331 	 
H 	 -134.805 	 19.4623 	 -3.86277 	 
*
