! wB97X-D3 SP def2-SVP
%pal
nprocs 24
end

* xyz 0 1
S 	 -97.5631 	 14.4536 	 -120.444 	 
C 	 -95.938 	 15.0099 	 -120.361 	 
C 	 -95.3772 	 14.5698 	 -119.2 	 
C 	 -96.0795 	 13.5918 	 -118.437 	 
C 	 -97.3192 	 13.3722 	 -118.975 	 
H 	 -95.7225 	 13.1071 	 -117.514 	 
C 	 -94.0169 	 15.0964 	 -118.62 	 
H 	 -94.2365 	 15.4328 	 -117.607 	 
H 	 -93.6512 	 15.9026 	 -119.2 	 
C 	 -92.778 	 14.0996 	 -118.464 	 
H 	 -92.1786 	 14.6314 	 -117.651 	 
H 	 -92.9939 	 13.154 	 -118.03 	 
C 	 -91.9524 	 13.7489 	 -119.781 	 
H 	 -92.3214 	 12.7934 	 -120.12 	 
H 	 -92.0628 	 14.6023 	 -120.454 	 
H 	 -90.9528 	 13.6474 	 -119.533 	 
S 	 -99.439 	 12.8101 	 -117.311 	 
C 	 -99.9692 	 11.1499 	 -117.192 	 
C 	 -99.4647 	 10.344 	 -118.171 	 
C 	 -98.4262 	 11.0407 	 -118.945 	 
C 	 -98.2638 	 12.3542 	 -118.529 	 
H 	 -99.7173 	 9.26804 	 -118.315 	 
C 	 -97.6033 	 10.4454 	 -120.013 	 
H 	 -97.6615 	 9.3572 	 -120.039 	 
H 	 -96.5938 	 10.7734 	 -119.75 	 
C 	 -97.8853 	 11.0442 	 -121.398 	 
H 	 -96.9422 	 11.1386 	 -121.998 	 
H 	 -98.2714 	 12.0121 	 -121.363 	 
C 	 -98.7929 	 9.99754 	 -122.095 	 
H 	 -98.3621 	 8.99482 	 -122.01 	 
H 	 -98.8365 	 10.3549 	 -123.134 	 
H 	 -99.9007 	 9.89719 	 -121.805 	 
H 	 -95.5706 	 15.727 	 -121.072 	 
H 	 -100.607 	 10.7168 	 -116.45 	 
*
