! wB97X-D3 SP def2-SVP
%pal
nprocs 24
end

* xyz 0 1
S 	 -63.1372 	 13.0897 	 -100.908 	 
C 	 -62.255 	 14.51 	 -100.504 	 
C 	 -60.9066 	 14.2525 	 -100.339 	 
C 	 -60.6583 	 12.8334 	 -100.378 	 
C 	 -61.7191 	 12.0889 	 -100.927 	 
H 	 -59.6618 	 12.3514 	 -100.216 	 
C 	 -59.7798 	 15.2641 	 -99.9966 	 
H 	 -59.0739 	 14.8161 	 -99.2597 	 
H 	 -60.1869 	 16.033 	 -99.479 	 
C 	 -59.0857 	 15.8933 	 -101.197 	 
H 	 -59.8328 	 16.3033 	 -101.83 	 
H 	 -58.358 	 16.727 	 -100.972 	 
C 	 -58.0846 	 15.0443 	 -102.069 	 
H 	 -57.192 	 15.0927 	 -101.52 	 
H 	 -58.4958 	 14.0238 	 -102.345 	 
H 	 -57.7818 	 15.5866 	 -102.98 	 
S 	 -60.974 	 9.61299 	 -100.184 	 
C 	 -61.7328 	 8.25974 	 -100.95 	 
C 	 -62.4274 	 8.66419 	 -102.036 	 
C 	 -62.4289 	 10.0368 	 -102.305 	 
C 	 -61.7019 	 10.6953 	 -101.345 	 
H 	 -62.8331 	 7.92232 	 -102.726 	 
C 	 -63.0642 	 10.6648 	 -103.525 	 
H 	 -62.7085 	 11.6449 	 -103.668 	 
H 	 -64.108 	 10.8318 	 -103.418 	 
C 	 -62.9199 	 9.90422 	 -104.814 	 
H 	 -63.5209 	 10.3812 	 -105.594 	 
H 	 -63.283 	 8.86441 	 -104.866 	 
C 	 -61.4924 	 9.92843 	 -105.37 	 
H 	 -61.2228 	 10.9589 	 -105.503 	 
H 	 -61.4989 	 9.33397 	 -106.254 	 
H 	 -60.7145 	 9.57209 	 -104.661 	 
H 	 -62.6854 	 15.5209 	 -100.451 	 
H 	 -61.5476 	 7.18925 	 -100.774 	 
*
