! wB97X-D3 SP def2-SVP
%pal
nprocs 24
end

* xyz 0 1
S 	 -51.7461 	 13.5959 	 -99.4413 	 
C 	 -52.9858 	 12.4076 	 -99.2475 	 
C 	 -52.5079 	 11.196 	 -98.894 	 
C 	 -51.0987 	 11.199 	 -98.8684 	 
C 	 -50.5824 	 12.3705 	 -99.4377 	 
H 	 -50.517 	 10.2853 	 -98.747 	 
C 	 -53.3314 	 9.93383 	 -98.874 	 
H 	 -54.323 	 10.3078 	 -98.5308 	 
H 	 -52.9861 	 9.18921 	 -98.1142 	 
C 	 -53.4782 	 9.33515 	 -100.251 	 
H 	 -52.4544 	 9.09887 	 -100.586 	 
H 	 -54.0132 	 8.36532 	 -100.147 	 
C 	 -54.3054 	 10.0735 	 -101.276 	 
H 	 -55.2641 	 10.3935 	 -100.806 	 
H 	 -53.6868 	 10.9023 	 -101.712 	 
H 	 -54.53 	 9.3932 	 -102.037 	 
S 	 -48.9661 	 13.1972 	 -101.549 	 
C 	 -47.3199 	 13.621 	 -101.234 	 
C 	 -46.9346 	 13.2298 	 -99.9845 	 
C 	 -47.9712 	 12.7732 	 -99.1599 	 
C 	 -49.1641 	 12.7016 	 -99.8599 	 
H 	 -45.9168 	 13.3935 	 -99.7385 	 
C 	 -47.7474 	 12.3909 	 -97.6473 	 
H 	 -46.761 	 12.6047 	 -97.4987 	 
H 	 -47.6281 	 11.3446 	 -97.6481 	 
C 	 -48.6002 	 12.9631 	 -96.5516 	 
H 	 -49.6253 	 12.6388 	 -96.6618 	 
H 	 -48.7117 	 14.0035 	 -96.7923 	 
C 	 -48.0297 	 12.7721 	 -95.1194 	 
H 	 -48.2806 	 11.7869 	 -94.6949 	 
H 	 -48.5737 	 13.5101 	 -94.5017 	 
H 	 -46.9818 	 12.968 	 -94.9247 	 
H 	 -54.0474 	 12.507 	 -99.4429 	 
H 	 -46.6712 	 14.0117 	 -102.002 	 
*
