! wB97X-D3 SP def2-SVP
%pal
nprocs 24
end

* xyz 0 1
S 	 -68.3904 	 5.14637 	 -72.3677 	 
C 	 -67.5397 	 5.65889 	 -73.8075 	 
C 	 -66.6438 	 4.63169 	 -74.2731 	 
C 	 -66.6855 	 3.45801 	 -73.451 	 
C 	 -67.6173 	 3.56471 	 -72.4189 	 
H 	 -66.1581 	 2.58093 	 -73.5652 	 
C 	 -65.9404 	 4.70205 	 -75.6347 	 
H 	 -65.234 	 3.90706 	 -75.65 	 
H 	 -65.2951 	 5.59886 	 -75.7236 	 
C 	 -66.8818 	 4.75088 	 -76.8895 	 
H 	 -67.4235 	 5.68257 	 -76.8503 	 
H 	 -66.3243 	 4.82784 	 -77.8711 	 
C 	 -67.7935 	 3.5848 	 -77.0068 	 
H 	 -68.2736 	 3.32537 	 -76.046 	 
H 	 -68.5026 	 3.68405 	 -77.786 	 
H 	 -67.201 	 2.65032 	 -77.2892 	 
S 	 -67.2671 	 2.81724 	 -69.7385 	 
C 	 -67.8795 	 1.28465 	 -69.1351 	 
C 	 -68.5129 	 0.593359 	 -70.1533 	 
C 	 -68.4834 	 1.30418 	 -71.4343 	 
C 	 -67.9068 	 2.5595 	 -71.3952 	 
H 	 -69.0513 	 -0.306441 	 -69.8968 	 
C 	 -69.3304 	 0.693705 	 -72.5892 	 
H 	 -69.3985 	 1.37708 	 -73.3733 	 
H 	 -70.3296 	 0.47604 	 -72.2791 	 
C 	 -68.6751 	 -0.556668 	 -73.1358 	 
H 	 -69.3252 	 -0.958655 	 -73.8819 	 
H 	 -68.4943 	 -1.20856 	 -72.3239 	 
C 	 -67.4402 	 -0.313444 	 -74.0247 	 
H 	 -67.0844 	 -1.23766 	 -74.5049 	 
H 	 -66.5955 	 -0.0249542 	 -73.3438 	 
H 	 -67.5271 	 0.440542 	 -74.808 	 
H 	 -67.7189 	 6.59798 	 -74.3072 	 
H 	 -67.8745 	 0.904662 	 -68.1096 	 
*
