! wB97X-D3 SP def2-SVP
%pal
nprocs 24
end

* xyz 0 1
S 	 -109.82 	 63.0752 	 -74.3409 	 
C 	 -108.551 	 62.0207 	 -74.6472 	 
C 	 -109.011 	 60.7742 	 -75.1239 	 
C 	 -110.438 	 60.6837 	 -75.2242 	 
C 	 -111.052 	 61.7962 	 -74.7443 	 
H 	 -111.084 	 59.8271 	 -75.4558 	 
C 	 -108.03 	 59.6465 	 -75.4033 	 
H 	 -107.193 	 60.0424 	 -75.9442 	 
H 	 -108.513 	 58.9772 	 -76.1253 	 
C 	 -107.596 	 58.8788 	 -74.1698 	 
H 	 -106.693 	 58.2463 	 -74.3913 	 
H 	 -107.392 	 59.502 	 -73.322 	 
C 	 -108.741 	 57.9183 	 -73.7661 	 
H 	 -109.379 	 58.3591 	 -73.0763 	 
H 	 -109.387 	 57.4804 	 -74.4613 	 
H 	 -108.299 	 57.0958 	 -73.2835 	 
S 	 -112.699 	 62.3616 	 -72.5941 	 
C 	 -114.428 	 62.3437 	 -72.7911 	 
C 	 -114.756 	 61.7976 	 -73.9761 	 
C 	 -113.646 	 61.595 	 -74.8437 	 
C 	 -112.449 	 61.8834 	 -74.2777 	 
H 	 -115.812 	 61.6101 	 -74.3279 	 
C 	 -113.84 	 60.8663 	 -76.1737 	 
H 	 -113.958 	 59.8168 	 -75.7825 	 
H 	 -112.903 	 60.9384 	 -76.7308 	 
C 	 -115.049 	 61.2828 	 -77.0842 	 
H 	 -115.964 	 61.3467 	 -76.5016 	 
H 	 -115.198 	 60.3408 	 -77.7565 	 
C 	 -114.671 	 62.5373 	 -77.8899 	 
H 	 -114.103 	 63.1687 	 -77.2542 	 
H 	 -115.531 	 63.2142 	 -78.2155 	 
H 	 -114.028 	 62.2712 	 -78.7555 	 
H 	 -107.544 	 62.2761 	 -74.6358 	 
H 	 -115.154 	 62.4903 	 -72.0562 	 
*
