! wB97X-D3 SP def2-SVP
%pal
nprocs 24
end

* xyz 0 1
S 	 39.3881 	 -23.5249 	 -127.536 	 
C 	 38.8814 	 -21.8719 	 -127.551 	 
C 	 39.5744 	 -21.1878 	 -126.596 	 
C 	 40.5817 	 -21.9009 	 -125.899 	 
C 	 40.6608 	 -23.2134 	 -126.337 	 
H 	 41.2574 	 -21.5515 	 -125.213 	 
C 	 39.2122 	 -19.7409 	 -126.37 	 
H 	 38.2136 	 -19.5814 	 -126.682 	 
H 	 39.8049 	 -19.1837 	 -127.109 	 
C 	 39.3379 	 -19.2341 	 -124.881 	 
H 	 40.3453 	 -19.3659 	 -124.6 	 
H 	 39.0053 	 -18.1567 	 -124.858 	 
C 	 38.4725 	 -20.0218 	 -123.858 	 
H 	 37.479 	 -20.0998 	 -124.253 	 
H 	 38.9105 	 -21.0056 	 -123.823 	 
H 	 38.5482 	 -19.6463 	 -122.85 	 
S 	 42.7776 	 -24.8144 	 -127.007 	 
C 	 43.7354 	 -25.489 	 -125.675 	 
C 	 43.3356 	 -24.8969 	 -124.443 	 
C 	 42.0932 	 -24.1708 	 -124.526 	 
C 	 41.6796 	 -24.0777 	 -125.843 	 
H 	 43.9113 	 -25.1756 	 -123.579 	 
C 	 41.4259 	 -23.7764 	 -123.253 	 
H 	 40.9812 	 -22.7613 	 -123.221 	 
H 	 42.2726 	 -23.6061 	 -122.48 	 
C 	 40.338 	 -24.7952 	 -122.751 	 
H 	 40.6219 	 -25.8881 	 -122.691 	 
H 	 39.422 	 -24.8029 	 -123.404 	 
C 	 39.8139 	 -24.3358 	 -121.461 	 
H 	 39.8386 	 -23.2678 	 -121.552 	 
H 	 40.5256 	 -24.5 	 -120.613 	 
H 	 38.7892 	 -24.7182 	 -121.133 	 
H 	 38.1344 	 -21.4813 	 -128.205 	 
H 	 44.5543 	 -26.1951 	 -125.603 	 
*
