! wB97X-D3 SP def2-SVP
%pal
nprocs 24
end

* xyz 0 1
S 	 -108.284 	 15.0439 	 -120.71 	 
C 	 -109.953 	 14.4241 	 -120.798 	 
C 	 -110.708 	 15.18 	 -121.66 	 
C 	 -109.943 	 16.1694 	 -122.325 	 
C 	 -108.661 	 16.3117 	 -121.865 	 
H 	 -110.239 	 16.6824 	 -123.225 	 
C 	 -112.159 	 15.0538 	 -121.84 	 
H 	 -112.51 	 16.0543 	 -121.997 	 
H 	 -112.597 	 14.7003 	 -120.866 	 
C 	 -112.53 	 14.1822 	 -123.034 	 
H 	 -112.104 	 13.2413 	 -122.808 	 
H 	 -113.613 	 14.0554 	 -123.151 	 
C 	 -112.016 	 14.5416 	 -124.426 	 
H 	 -111.567 	 15.5399 	 -124.427 	 
H 	 -111.16 	 13.8747 	 -124.646 	 
H 	 -112.84 	 14.5099 	 -125.19 	 
S 	 -105.972 	 16.6098 	 -122.411 	 
C 	 -105.335 	 18.0408 	 -123.202 	 
C 	 -106.351 	 18.9456 	 -123.427 	 
C 	 -107.653 	 18.5046 	 -123.015 	 
C 	 -107.635 	 17.2158 	 -122.435 	 
H 	 -105.98 	 19.8254 	 -123.779 	 
C 	 -108.841 	 19.4395 	 -123.098 	 
H 	 -108.985 	 19.8894 	 -122.071 	 
H 	 -109.739 	 18.9006 	 -123.319 	 
C 	 -108.687 	 20.4944 	 -124.276 	 
H 	 -108.168 	 20.0501 	 -125.216 	 
H 	 -108.043 	 21.3102 	 -123.908 	 
C 	 -110.043 	 21.2078 	 -124.589 	 
H 	 -110.469 	 21.8089 	 -123.869 	 
H 	 -110.803 	 20.608 	 -125.01 	 
H 	 -109.736 	 22.0258 	 -125.34 	 
H 	 -110.431 	 13.7002 	 -120.195 	 
H 	 -104.35 	 18.1867 	 -123.451 	 
*
