! wB97X-D3 SP def2-SVP
%pal
nprocs 24
end

* xyz 0 1
S 	 -127.839 	 71.5558 	 -61.6074 	 
C 	 -127.157 	 73.0785 	 -61.1045 	 
C 	 -127.311 	 73.9955 	 -62.1409 	 
C 	 -127.879 	 73.5036 	 -63.3458 	 
C 	 -128.069 	 72.1417 	 -63.3173 	 
H 	 -127.914 	 74.0478 	 -64.26 	 
C 	 -126.911 	 75.4718 	 -62.1322 	 
H 	 -126.271 	 75.6008 	 -61.2806 	 
H 	 -127.81 	 76.0942 	 -62.017 	 
C 	 -126.202 	 76.037 	 -63.457 	 
H 	 -126.891 	 76.2372 	 -64.2641 	 
H 	 -125.918 	 77.0625 	 -63.1605 	 
C 	 -124.987 	 75.2056 	 -64.0082 	 
H 	 -124.694 	 75.6489 	 -64.9541 	 
H 	 -124.118 	 75.1561 	 -63.2602 	 
H 	 -125.252 	 74.0932 	 -64.0949 	 
S 	 -130.376 	 70.7096 	 -63.9588 	 
C 	 -130.498 	 70.0529 	 -65.5401 	 
C 	 -129.372 	 70.3057 	 -66.3277 	 
C 	 -128.465 	 71.1738 	 -65.6642 	 
C 	 -128.776 	 71.3779 	 -64.3362 	 
H 	 -129.387 	 70.0453 	 -67.3411 	 
C 	 -127.158 	 71.5891 	 -66.3042 	 
H 	 -126.904 	 72.6615 	 -66.015 	 
H 	 -127.302 	 71.6374 	 -67.371 	 
C 	 -125.893 	 70.6381 	 -66.1276 	 
H 	 -125.213 	 70.8479 	 -66.9825 	 
H 	 -126.273 	 69.6625 	 -66.2212 	 
C 	 -125.227 	 70.7747 	 -64.7852 	 
H 	 -124.666 	 71.7075 	 -64.6055 	 
H 	 -124.536 	 69.8789 	 -64.6383 	 
H 	 -125.933 	 70.6889 	 -63.955 	 
H 	 -126.672 	 73.2564 	 -60.1923 	 
H 	 -131.277 	 69.4497 	 -65.8567 	 
*
