! wB97X-D3 SP def2-SVP
%pal
nprocs 24
end

* xyz 0 1
S 	 -119.396 	 50.1226 	 -35.3783 	 
C 	 -118.481 	 48.8704 	 -36.1844 	 
C 	 -118.57 	 47.7071 	 -35.4163 	 
C 	 -119.609 	 47.7785 	 -34.4519 	 
C 	 -120.211 	 48.9942 	 -34.3276 	 
H 	 -119.926 	 46.9206 	 -33.8242 	 
C 	 -117.709 	 46.4594 	 -35.5748 	 
H 	 -117.742 	 46.2294 	 -36.6308 	 
H 	 -118.008 	 45.6937 	 -34.917 	 
C 	 -116.247 	 46.6647 	 -34.9904 	 
H 	 -116.344 	 47.0894 	 -33.9703 	 
H 	 -115.853 	 45.6769 	 -34.8098 	 
C 	 -115.282 	 47.54 	 -35.8555 	 
H 	 -115.427 	 48.6183 	 -35.6838 	 
H 	 -114.193 	 47.1587 	 -35.8339 	 
H 	 -115.538 	 47.4106 	 -36.8903 	 
S 	 -122.559 	 50.2775 	 -34.1242 	 
C 	 -123.647 	 49.9339 	 -32.7882 	 
C 	 -122.977 	 49.2722 	 -31.7692 	 
C 	 -121.639 	 48.8925 	 -32.1614 	 
C 	 -121.355 	 49.2779 	 -33.4528 	 
H 	 -123.458 	 49.0807 	 -30.8252 	 
C 	 -120.805 	 48.0188 	 -31.2387 	 
H 	 -120.807 	 48.4989 	 -30.278 	 
H 	 -119.734 	 47.9886 	 -31.5495 	 
C 	 -121.278 	 46.5127 	 -31.0055 	 
H 	 -120.432 	 46.1039 	 -30.3936 	 
H 	 -121.358 	 46.034 	 -31.9909 	 
C 	 -122.715 	 46.3986 	 -30.3552 	 
H 	 -123.509 	 46.5422 	 -31.0453 	 
H 	 -122.815 	 47.0841 	 -29.4629 	 
H 	 -122.889 	 45.3139 	 -30.0565 	 
H 	 -117.77 	 48.8855 	 -37.0021 	 
H 	 -124.617 	 50.3198 	 -32.7549 	 
*
