! wB97X-D3 SP def2-SVP
%pal
nprocs 24
end

* xyz 0 1
S 	 32.7414 	 -30.8211 	 -130.925 	 
C 	 32.832 	 -29.4012 	 -131.972 	 
C 	 34.1597 	 -29.1831 	 -132.334 	 
C 	 35.1081 	 -30.1504 	 -131.772 	 
C 	 34.51 	 -31.027 	 -130.892 	 
H 	 36.1977 	 -30.2229 	 -132.072 	 
C 	 34.6154 	 -28.0999 	 -133.249 	 
H 	 35.5284 	 -27.7248 	 -132.725 	 
H 	 34.0948 	 -27.1466 	 -133.188 	 
C 	 34.8463 	 -28.5258 	 -134.722 	 
H 	 35.6528 	 -29.3198 	 -134.661 	 
H 	 34.0286 	 -29.0709 	 -135.287 	 
C 	 35.2937 	 -27.4196 	 -135.668 	 
H 	 34.6026 	 -26.6477 	 -135.859 	 
H 	 36.1715 	 -26.9437 	 -135.27 	 
H 	 35.6955 	 -27.8968 	 -136.569 	 
S 	 34.3104 	 -33.7061 	 -130.523 	 
C 	 35.4195 	 -34.5849 	 -129.509 	 
C 	 36.3481 	 -33.7156 	 -128.991 	 
C 	 36.2982 	 -32.4202 	 -129.585 	 
C 	 35.1596 	 -32.2065 	 -130.313 	 
H 	 37.0928 	 -34.0746 	 -128.279 	 
C 	 37.3117 	 -31.3619 	 -129.187 	 
H 	 37.3779 	 -31.3523 	 -128.101 	 
H 	 36.9564 	 -30.3497 	 -129.464 	 
C 	 38.7144 	 -31.7701 	 -129.919 	 
H 	 38.5549 	 -31.6235 	 -130.987 	 
H 	 39.0209 	 -32.7909 	 -129.618 	 
C 	 39.7759 	 -30.8055 	 -129.567 	 
H 	 40.708 	 -31.1158 	 -130.001 	 
H 	 39.9317 	 -30.6847 	 -128.539 	 
H 	 39.477 	 -29.8397 	 -130.017 	 
H 	 32.0552 	 -28.795 	 -132.345 	 
H 	 35.3061 	 -35.6647 	 -129.286 	 
*
