! wB97X-D3 SP def2-SVP
%pal
nprocs 24
end

* xyz 0 1
S 	 -65.1779 	 5.74785 	 19.9394 	 
C 	 -63.6723 	 6.44352 	 20.4263 	 
C 	 -62.6984 	 5.48687 	 20.5542 	 
C 	 -63.1448 	 4.18056 	 20.4186 	 
C 	 -64.5137 	 4.13397 	 20.1455 	 
H 	 -62.7136 	 3.24283 	 20.658 	 
C 	 -61.1947 	 5.69428 	 20.837 	 
H 	 -60.7542 	 4.80018 	 21.2974 	 
H 	 -61.0619 	 6.53572 	 21.4926 	 
C 	 -60.4323 	 6.18867 	 19.5619 	 
H 	 -60.6498 	 5.50345 	 18.7685 	 
H 	 -60.767 	 7.0882 	 19.232 	 
C 	 -58.9086 	 6.18418 	 19.8219 	 
H 	 -58.3312 	 6.52571 	 18.9495 	 
H 	 -58.636 	 6.92773 	 20.6291 	 
H 	 -58.5986 	 5.20602 	 20.1168 	 
S 	 -67.0642 	 3.13195 	 20.7752 	 
C 	 -67.4405 	 1.44033 	 20.5958 	 
C 	 -66.352 	 0.787549 	 20.0984 	 
C 	 -65.2358 	 1.67494 	 19.8559 	 
C 	 -65.4424 	 2.99333 	 20.1415 	 
H 	 -66.4077 	 -0.28645 	 20.1671 	 
C 	 -63.9115 	 1.10532 	 19.5067 	 
H 	 -63.3833 	 1.84359 	 18.9003 	 
H 	 -64.0698 	 0.189297 	 18.8706 	 
C 	 -63.002 	 0.498497 	 20.5675 	 
H 	 -63.3831 	 -0.362789 	 21.0841 	 
H 	 -62.8163 	 1.25649 	 21.3597 	 
C 	 -61.5673 	 0.302049 	 20.0421 	 
H 	 -61.4796 	 -0.608989 	 19.369 	 
H 	 -60.8511 	 0.0902164 	 20.762 	 
H 	 -61.2638 	 1.27723 	 19.7123 	 
H 	 -63.5189 	 7.48516 	 20.6032 	 
H 	 -68.3678 	 0.946726 	 20.9189 	 
*
