! wB97X-D3 SP def2-SVP
%pal
nprocs 24
end

* xyz 0 1
S 	 -138.964 	 24.3701 	 -17.7805 	 
C 	 -140.182 	 23.1431 	 -17.8888 	 
C 	 -139.751 	 21.9847 	 -18.5603 	 
C 	 -138.458 	 22.1994 	 -19.131 	 
C 	 -137.97 	 23.4806 	 -18.9185 	 
H 	 -137.946 	 21.527 	 -19.7819 	 
C 	 -140.561 	 20.7315 	 -18.6249 	 
H 	 -140.568 	 20.5437 	 -19.6697 	 
H 	 -141.664 	 20.8955 	 -18.3214 	 
C 	 -139.953 	 19.4514 	 -18.0248 	 
H 	 -140.633 	 18.646 	 -18.141 	 
H 	 -139.086 	 19.0755 	 -18.6216 	 
C 	 -139.654 	 19.6502 	 -16.4808 	 
H 	 -140.605 	 19.81 	 -15.9339 	 
H 	 -139.197 	 18.8015 	 -15.9964 	 
H 	 -138.848 	 20.402 	 -16.3929 	 
S 	 -135.576 	 24.6711 	 -18.0132 	 
C 	 -134.313 	 24.9752 	 -19.1827 	 
C 	 -134.666 	 24.5974 	 -20.4858 	 
C 	 -136.003 	 24.0117 	 -20.4879 	 
C 	 -136.631 	 23.9897 	 -19.2368 	 
H 	 -134.016 	 24.6316 	 -21.4225 	 
C 	 -136.595 	 23.5779 	 -21.8142 	 
H 	 -136.88 	 24.4094 	 -22.4041 	 
H 	 -137.447 	 23.0175 	 -21.5641 	 
C 	 -135.7 	 22.461 	 -22.4084 	 
H 	 -135.353 	 21.7473 	 -21.6887 	 
H 	 -134.769 	 22.8755 	 -22.7624 	 
C 	 -136.349 	 21.8258 	 -23.6684 	 
H 	 -135.993 	 20.8921 	 -23.8131 	 
H 	 -136.014 	 22.5089 	 -24.4725 	 
H 	 -137.377 	 21.7363 	 -23.6606 	 
H 	 -141.083 	 23.1465 	 -17.3258 	 
H 	 -133.233 	 25.2354 	 -18.8678 	 
*
