! wB97X-D3 SP def2-SVP
%pal
nprocs 24
end

* xyz 0 1
S 	 -121.591 	 65.4638 	 -42.9161 	 
C 	 -121.949 	 66.767 	 -41.7648 	 
C 	 -120.907 	 67.7603 	 -41.9279 	 
C 	 -119.959 	 67.4386 	 -42.9351 	 
C 	 -120.28 	 66.3294 	 -43.666 	 
H 	 -119.063 	 67.9518 	 -43.3242 	 
C 	 -120.816 	 69.0547 	 -41.1217 	 
H 	 -119.872 	 69.5254 	 -41.4097 	 
H 	 -120.69 	 68.8099 	 -40.0975 	 
C 	 -121.833 	 70.0646 	 -41.4456 	 
H 	 -121.916 	 70.1474 	 -42.5759 	 
H 	 -122.773 	 69.714 	 -41.0171 	 
C 	 -121.481 	 71.4118 	 -40.8816 	 
H 	 -122.216 	 72.1806 	 -41.2049 	 
H 	 -121.591 	 71.47 	 -39.8374 	 
H 	 -120.515 	 71.8232 	 -41.3008 	 
S 	 -119.116 	 63.952 	 -44.1353 	 
C 	 -118.211 	 63.664 	 -45.5692 	 
C 	 -118.195 	 64.7544 	 -46.3873 	 
C 	 -118.746 	 65.8937 	 -45.7109 	 
C 	 -119.439 	 65.5648 	 -44.5671 	 
H 	 -117.792 	 64.7737 	 -47.3319 	 
C 	 -118.592 	 67.2512 	 -46.3473 	 
H 	 -118.906 	 68 	 -45.6192 	 
H 	 -119.309 	 67.3651 	 -47.2401 	 
C 	 -117.201 	 67.6596 	 -46.8777 	 
H 	 -117.321 	 68.56 	 -47.4304 	 
H 	 -116.69 	 67.0139 	 -47.5787 	 
C 	 -116.134 	 67.9694 	 -45.8478 	 
H 	 -115.995 	 67.1232 	 -45.2201 	 
H 	 -116.365 	 68.8745 	 -45.2735 	 
H 	 -115.233 	 68.1677 	 -46.2892 	 
H 	 -122.769 	 66.7235 	 -41.0449 	 
H 	 -117.785 	 62.7601 	 -45.897 	 
*
