! wB97X-D3 SP def2-SVP
%pal
nprocs 24
end

* xyz 0 1
S 	 -39.9093 	 18.4378 	 12.7489 	 
C 	 -39.9975 	 17.1 	 13.885 	 
C 	 -39.1665 	 17.3926 	 14.9222 	 
C 	 -38.2224 	 18.4722 	 14.7361 	 
C 	 -38.3749 	 19.0178 	 13.4802 	 
H 	 -37.489 	 18.8342 	 15.3989 	 
C 	 -39.1866 	 16.5702 	 16.1643 	 
H 	 -40.1487 	 16.8785 	 16.5714 	 
H 	 -38.3014 	 16.8553 	 16.77 	 
C 	 -39.1593 	 15.0169 	 15.9913 	 
H 	 -40.0632 	 14.7064 	 15.4376 	 
H 	 -38.182 	 14.806 	 15.5339 	 
C 	 -39.2322 	 14.367 	 17.4331 	 
H 	 -39.3663 	 13.2501 	 17.3286 	 
H 	 -38.3218 	 14.5991 	 17.9996 	 
H 	 -40.1052 	 14.7592 	 17.9468 	 
S 	 -38.5416 	 21.7201 	 12.778 	 
C 	 -37.1536 	 22.5846 	 12.3552 	 
C 	 -35.9785 	 21.8224 	 12.3861 	 
C 	 -36.2826 	 20.4788 	 12.6973 	 
C 	 -37.625 	 20.2122 	 13.0007 	 
H 	 -35.0188 	 22.3794 	 12.2338 	 
C 	 -35.1829 	 19.4595 	 12.5745 	 
H 	 -34.9226 	 19.382 	 11.5631 	 
H 	 -35.6076 	 18.4587 	 12.7363 	 
C 	 -33.9324 	 19.4442 	 13.565 	 
H 	 -33.3766 	 20.3563 	 13.4054 	 
H 	 -33.2549 	 18.632 	 13.2277 	 
C 	 -34.2893 	 19.3413 	 15.0122 	 
H 	 -34.8499 	 20.1889 	 15.3328 	 
H 	 -33.4133 	 19.3205 	 15.676 	 
H 	 -34.8353 	 18.3795 	 15.1727 	 
H 	 -40.714 	 16.2566 	 13.8139 	 
H 	 -37.2707 	 23.5998 	 12.0756 	 
*
