! wB97X-D3 SP def2-SVP
%pal
nprocs 24
end

* xyz 0 1
S 	 -40.9268 	 -9.30317 	 5.34595 	 
C 	 -41.5358 	 -10.6233 	 6.32031 	 
C 	 -42.3577 	 -10.1867 	 7.35553 	 
C 	 -42.4601 	 -8.73604 	 7.3134 	 
C 	 -41.65 	 -8.10034 	 6.37839 	 
H 	 -43.1415 	 -8.27899 	 8.01262 	 
C 	 -43.0336 	 -11.0411 	 8.47256 	 
H 	 -43.1528 	 -11.9736 	 8.01931 	 
H 	 -44.0481 	 -10.6471 	 8.70674 	 
C 	 -42.231 	 -11.1496 	 9.76964 	 
H 	 -42.8368 	 -11.7024 	 10.4568 	 
H 	 -41.3347 	 -11.6945 	 9.54607 	 
C 	 -41.887 	 -9.75503 	 10.3621 	 
H 	 -42.7055 	 -9.28333 	 10.8973 	 
H 	 -41.0874 	 -9.99236 	 11.1074 	 
H 	 -41.3759 	 -9.1023 	 9.65056 	 
S 	 -42.3579 	 -6.11758 	 4.55511 	 
C 	 -41.9108 	 -4.43979 	 4.8581 	 
C 	 -41.543 	 -4.3488 	 6.20256 	 
C 	 -41.3307 	 -5.59069 	 6.88286 	 
C 	 -41.6074 	 -6.67885 	 6.101 	 
H 	 -41.4584 	 -3.40912 	 6.70567 	 
C 	 -40.7804 	 -5.56457 	 8.31025 	 
H 	 -39.9257 	 -4.96844 	 8.387 	 
H 	 -40.5838 	 -6.57442 	 8.61234 	 
C 	 -41.7828 	 -5.20126 	 9.36434 	 
H 	 -42.7128 	 -5.84478 	 9.23056 	 
H 	 -42.2281 	 -4.26493 	 9.08542 	 
C 	 -41.2439 	 -5.18433 	 10.7687 	 
H 	 -40.2933 	 -4.66041 	 10.83 	 
H 	 -41.1318 	 -6.11593 	 11.1996 	 
H 	 -41.956 	 -4.72566 	 11.4134 	 
H 	 -41.2886 	 -11.7191 	 6.08114 	 
H 	 -41.923 	 -3.61467 	 4.2452 	 
*
