! wB97X-D3 SP def2-SVP
%pal
nprocs 24
end

* xyz 0 1
S 	 -128.696 	 57.7751 	 -59.8494 	 
C 	 -129.794 	 59.1365 	 -59.5703 	 
C 	 -129.31 	 59.9681 	 -58.5961 	 
C 	 -127.966 	 59.5565 	 -58.2187 	 
C 	 -127.445 	 58.5514 	 -58.9674 	 
H 	 -127.3 	 59.9409 	 -57.4935 	 
C 	 -129.913 	 61.2205 	 -57.9724 	 
H 	 -129.249 	 61.5274 	 -57.1399 	 
H 	 -130.776 	 60.8971 	 -57.3439 	 
C 	 -130.36 	 62.2814 	 -58.937 	 
H 	 -129.48 	 62.7767 	 -59.4116 	 
H 	 -130.889 	 61.7248 	 -59.6807 	 
C 	 -131.286 	 63.304 	 -58.2921 	 
H 	 -131.955 	 62.892 	 -57.4876 	 
H 	 -130.764 	 64.14 	 -57.7657 	 
H 	 -131.994 	 63.758 	 -59.0446 	 
S 	 -126.094 	 56.1457 	 -58.5409 	 
C 	 -124.469 	 56.1664 	 -58.0697 	 
C 	 -123.901 	 57.4088 	 -58.0935 	 
C 	 -124.852 	 58.4476 	 -58.4989 	 
C 	 -126.12 	 57.9056 	 -58.8105 	 
H 	 -122.811 	 57.5385 	 -57.8089 	 
C 	 -124.435 	 59.9173 	 -58.5405 	 
H 	 -125.043 	 60.3073 	 -59.3448 	 
H 	 -123.402 	 60.0134 	 -58.8551 	 
C 	 -124.383 	 60.5716 	 -57.2019 	 
H 	 -123.701 	 60.034 	 -56.6036 	 
H 	 -125.332 	 60.5398 	 -56.6183 	 
C 	 -124.15 	 62.1279 	 -57.1719 	 
H 	 -123.439 	 62.405 	 -56.4357 	 
H 	 -124.999 	 62.6622 	 -56.9061 	 
H 	 -123.774 	 62.5086 	 -58.2167 	 
H 	 -130.791 	 59.2411 	 -60.0375 	 
H 	 -123.918 	 55.3454 	 -57.6464 	 
*
