! wB97X-D3 SP def2-SVP
%pal
nprocs 24
end

* xyz 0 1
S 	 -33.9793 	 -28.1077 	 -95.3248 	 
C 	 -34.278 	 -26.8171 	 -96.4378 	 
C 	 -35.0037 	 -27.1949 	 -97.5654 	 
C 	 -35.3233 	 -28.5766 	 -97.5713 	 
C 	 -34.8209 	 -29.2448 	 -96.4052 	 
H 	 -35.8622 	 -29.1971 	 -98.271 	 
C 	 -35.7258 	 -26.3139 	 -98.5496 	 
H 	 -35.1145 	 -25.447 	 -98.6976 	 
H 	 -36.6216 	 -25.9504 	 -97.9434 	 
C 	 -36.0734 	 -26.8335 	 -100.043 	 
H 	 -35.0807 	 -26.905 	 -100.541 	 
H 	 -36.533 	 -27.7817 	 -100.147 	 
C 	 -36.8142 	 -25.8013 	 -100.911 	 
H 	 -36.386 	 -24.8425 	 -100.971 	 
H 	 -36.9954 	 -26.1936 	 -101.919 	 
H 	 -37.7621 	 -25.7816 	 -100.42 	 
S 	 -34.7834 	 -31.8059 	 -97.4411 	 
C 	 -34.998 	 -33.2097 	 -96.3517 	 
C 	 -34.9238 	 -32.813 	 -95.0399 	 
C 	 -35.0491 	 -31.4162 	 -94.8602 	 
C 	 -34.9815 	 -30.6682 	 -96.0573 	 
H 	 -34.6259 	 -33.4222 	 -94.168 	 
C 	 -35.2504 	 -30.6872 	 -93.4787 	 
H 	 -36.1804 	 -30.0812 	 -93.5315 	 
H 	 -34.3875 	 -30.0612 	 -93.3056 	 
C 	 -35.4281 	 -31.6297 	 -92.242 	 
H 	 -34.5079 	 -32.1411 	 -92.1577 	 
H 	 -36.2095 	 -32.3335 	 -92.5789 	 
C 	 -35.7822 	 -30.8813 	 -91.0093 	 
H 	 -34.9233 	 -30.3297 	 -90.6873 	 
H 	 -36.0174 	 -31.5053 	 -90.1506 	 
H 	 -36.6053 	 -30.2444 	 -91.079 	 
H 	 -34.1637 	 -25.7636 	 -96.1524 	 
H 	 -34.8813 	 -34.2026 	 -96.7176 	 
*
