! wB97X-D3 SP def2-SVP
%pal
nprocs 24
end

* xyz 0 1
S 	 -106.806 	 28.3516 	 -115.901 	 
C 	 -107.025 	 30.0964 	 -115.959 	 
C 	 -107.03 	 30.5068 	 -117.258 	 
C 	 -107.084 	 29.4477 	 -118.169 	 
C 	 -107.013 	 28.1833 	 -117.618 	 
H 	 -107.12 	 29.6895 	 -119.165 	 
C 	 -107.197 	 31.9321 	 -117.592 	 
H 	 -107.168 	 31.9153 	 -118.707 	 
H 	 -106.236 	 32.3794 	 -117.19 	 
C 	 -108.588 	 32.5779 	 -117.053 	 
H 	 -108.802 	 32.4238 	 -116.005 	 
H 	 -108.548 	 33.6353 	 -117.348 	 
C 	 -109.807 	 31.959 	 -117.85 	 
H 	 -109.754 	 32.1335 	 -118.872 	 
H 	 -109.999 	 30.9208 	 -117.594 	 
H 	 -110.605 	 32.5891 	 -117.557 	 
S 	 -105.693 	 26.0105 	 -118.736 	 
C 	 -106.69 	 24.6641 	 -119.373 	 
C 	 -107.989 	 24.9172 	 -119.116 	 
C 	 -108.306 	 26.1096 	 -118.455 	 
C 	 -107.177 	 26.9146 	 -118.302 	 
H 	 -108.596 	 24.1173 	 -119.438 	 
C 	 -109.788 	 26.4253 	 -118.11 	 
H 	 -110.331 	 26.0687 	 -119.012 	 
H 	 -110.005 	 27.5312 	 -118.117 	 
C 	 -110.613 	 25.7777 	 -116.969 	 
H 	 -110.81 	 24.7054 	 -117.17 	 
H 	 -111.648 	 26.257 	 -117.113 	 
C 	 -110.067 	 25.9752 	 -115.582 	 
H 	 -109.577 	 27.0086 	 -115.572 	 
H 	 -109.409 	 25.143 	 -115.275 	 
H 	 -110.841 	 25.8583 	 -114.877 	 
H 	 -107.016 	 30.723 	 -115.022 	 
H 	 -106.18 	 23.7972 	 -119.72 	 
*
