! wB97X-D3 SP def2-SVP
%pal
nprocs 24
end

* xyz 0 1
S 	 -79.4916 	 -4.6958 	 -59.9649 	 
C 	 -78.3732 	 -4.85492 	 -58.6438 	 
C 	 -78.689 	 -5.96041 	 -57.9046 	 
C 	 -79.7793 	 -6.74821 	 -58.4425 	 
C 	 -80.2828 	 -6.24737 	 -59.6393 	 
H 	 -80.3153 	 -7.56678 	 -57.9929 	 
C 	 -77.9857 	 -6.431 	 -56.6237 	 
H 	 -77.1135 	 -6.97008 	 -57.0738 	 
H 	 -78.5927 	 -7.19211 	 -56.0756 	 
C 	 -77.6712 	 -5.28781 	 -55.6154 	 
H 	 -77.0683 	 -4.47756 	 -56.0603 	 
H 	 -78.6289 	 -4.9413 	 -55.2157 	 
C 	 -76.8472 	 -5.81339 	 -54.4201 	 
H 	 -76.0124 	 -6.52625 	 -54.6146 	 
H 	 -76.4653 	 -4.971 	 -53.8459 	 
H 	 -77.4774 	 -6.24044 	 -53.5975 	 
S 	 -82.8283 	 -5.4174 	 -60.3101 	 
C 	 -83.9324 	 -6.63957 	 -61.067 	 
C 	 -83.2895 	 -7.83548 	 -61.2122 	 
C 	 -81.9189 	 -7.87128 	 -60.7099 	 
C 	 -81.5322 	 -6.59623 	 -60.285 	 
H 	 -83.8238 	 -8.68365 	 -61.5699 	 
C 	 -81.0178 	 -9.09559 	 -60.9178 	 
H 	 -81.5807 	 -10.0336 	 -60.6456 	 
H 	 -80.1613 	 -8.96173 	 -60.2901 	 
C 	 -80.639 	 -9.29595 	 -62.4064 	 
H 	 -80.1058 	 -8.4212 	 -62.8356 	 
H 	 -81.5842 	 -9.33054 	 -63.0057 	 
C 	 -79.6551 	 -10.3711 	 -62.5881 	 
H 	 -79.5348 	 -10.6458 	 -63.6569 	 
H 	 -79.8731 	 -11.3778 	 -62.1576 	 
H 	 -78.7345 	 -9.91008 	 -62.281 	 
H 	 -77.7026 	 -4.0701 	 -58.2935 	 
H 	 -84.9457 	 -6.38358 	 -61.1544 	 
*
