! wB97X-D3 SP def2-SVP
%pal
nprocs 24
end

* xyz 0 1
S 	 49.2062 	 -33.5214 	 -121.052 	 
C 	 49.2944 	 -32.3475 	 -122.417 	 
C 	 48.0509 	 -31.8012 	 -122.629 	 
C 	 47.0342 	 -32.3857 	 -121.815 	 
C 	 47.49 	 -33.4143 	 -120.991 	 
H 	 46.0123 	 -32.0577 	 -121.806 	 
C 	 47.6928 	 -30.8048 	 -123.648 	 
H 	 48.4017 	 -30.0311 	 -123.641 	 
H 	 46.7195 	 -30.3513 	 -123.466 	 
C 	 47.6415 	 -31.4191 	 -125.067 	 
H 	 47.5058 	 -30.6561 	 -125.851 	 
H 	 48.4939 	 -31.9825 	 -125.158 	 
C 	 46.4288 	 -32.3044 	 -125.312 	 
H 	 46.617 	 -32.8273 	 -126.241 	 
H 	 46.2899 	 -33.0761 	 -124.552 	 
H 	 45.4627 	 -31.7856 	 -125.394 	 
S 	 47.2614 	 -34.1926 	 -118.282 	 
C 	 45.7321 	 -34.8889 	 -117.745 	 
C 	 44.9141 	 -35.079 	 -118.807 	 
C 	 45.3853 	 -34.5239 	 -120.049 	 
C 	 46.6535 	 -34.0417 	 -119.971 	 
H 	 43.8798 	 -35.3951 	 -118.634 	 
C 	 44.4328 	 -34.5535 	 -121.336 	 
H 	 44.3381 	 -35.6137 	 -121.566 	 
H 	 44.873 	 -34.1624 	 -122.203 	 
C 	 42.9599 	 -34.0553 	 -121.141 	 
H 	 42.6291 	 -34.5805 	 -120.288 	 
H 	 42.3222 	 -34.3374 	 -122.003 	 
C 	 42.6498 	 -32.6005 	 -120.718 	 
H 	 43.0171 	 -31.8791 	 -121.456 	 
H 	 43.1887 	 -32.4735 	 -119.783 	 
H 	 41.6035 	 -32.4316 	 -120.461 	 
H 	 50.2391 	 -32.17 	 -122.935 	 
H 	 45.4701 	 -35.1971 	 -116.711 	 
*
