! wB97X-D3 SP def2-SVP
%pal
nprocs 24
end

* xyz 0 1
S 	 27.1526 	 -0.940005 	 -109.979 	 
C 	 28.1638 	 -0.865613 	 -111.397 	 
C 	 27.7062 	 0.0811367 	 -112.314 	 
C 	 26.5681 	 0.794232 	 -111.81 	 
C 	 26.2162 	 0.487057 	 -110.529 	 
H 	 26.1017 	 1.62428 	 -112.185 	 
C 	 28.2668 	 0.333606 	 -113.634 	 
H 	 29.3751 	 0.47731 	 -113.61 	 
H 	 27.861 	 1.3175 	 -113.985 	 
C 	 27.9134 	 -0.704303 	 -114.651 	 
H 	 27.5912 	 -1.66386 	 -114.345 	 
H 	 26.9481 	 -0.386153 	 -115.148 	 
C 	 28.8965 	 -0.664206 	 -115.774 	 
H 	 28.4944 	 -1.01491 	 -116.649 	 
H 	 29.1417 	 0.366949 	 -116.022 	 
H 	 29.8717 	 -1.23924 	 -115.619 	 
S 	 25.1108 	 0.738047 	 -108.042 	 
C 	 23.5347 	 1.33612 	 -107.858 	 
C 	 23.0276 	 1.88542 	 -109.057 	 
C 	 23.9141 	 1.65724 	 -110.146 	 
C 	 25.0857 	 1.02963 	 -109.767 	 
H 	 22.0009 	 2.34418 	 -109.058 	 
C 	 23.544 	 1.951 	 -111.585 	 
H 	 22.4751 	 1.93232 	 -111.565 	 
H 	 24.0241 	 1.12249 	 -112.143 	 
C 	 23.993 	 3.40128 	 -111.849 	 
H 	 24.9441 	 3.6071 	 -111.402 	 
H 	 23.4007 	 4.06059 	 -111.265 	 
C 	 24.0349 	 3.73082 	 -113.358 	 
H 	 24.9911 	 3.46582 	 -113.839 	 
H 	 23.8815 	 4.81205 	 -113.48 	 
H 	 23.1302 	 3.31809 	 -113.8 	 
H 	 28.8845 	 -1.61531 	 -111.632 	 
H 	 22.863 	 1.18899 	 -107.06 	 
*
