! wB97X-D3 SP def2-SVP
%pal
nprocs 24
end

* xyz 0 1
S 	 -42.3558 	 17.2539 	 26.5403 	 
C 	 -43.4503 	 18.3184 	 25.7205 	 
C 	 -44.3959 	 18.777 	 26.6288 	 
C 	 -44.308 	 18.1558 	 27.9074 	 
C 	 -43.3216 	 17.2147 	 27.9853 	 
H 	 -44.9258 	 18.3707 	 28.7825 	 
C 	 -45.4054 	 19.9328 	 26.3847 	 
H 	 -46.1268 	 20.0999 	 27.233 	 
H 	 -45.9561 	 19.5896 	 25.4935 	 
C 	 -44.7505 	 21.3159 	 26.0643 	 
H 	 -43.6706 	 21.2386 	 25.8675 	 
H 	 -45.1738 	 21.5266 	 25.057 	 
C 	 -44.9939 	 22.2365 	 27.2365 	 
H 	 -44.4907 	 21.8604 	 28.1649 	 
H 	 -44.5899 	 23.3006 	 27.0906 	 
H 	 -45.9704 	 22.4575 	 27.4901 	 
S 	 -42.7462 	 14.6213 	 28.6342 	 
C 	 -42.7168 	 14.1209 	 30.3398 	 
C 	 -43.0109 	 15.1516 	 31.1544 	 
C 	 -43.1676 	 16.3792 	 30.465 	 
C 	 -43.0684 	 16.2588 	 29.0816 	 
H 	 -43.1412 	 14.982 	 32.1648 	 
C 	 -43.5474 	 17.689 	 31.1456 	 
H 	 -43.1343 	 18.5153 	 30.629 	 
H 	 -43.0341 	 17.6322 	 32.1348 	 
C 	 -45.0174 	 17.8955 	 31.4716 	 
H 	 -45.3653 	 17.18 	 32.217 	 
H 	 -45.6407 	 17.5856 	 30.6502 	 
C 	 -45.1718 	 19.3642 	 31.8836 	 
H 	 -44.8832 	 19.631 	 32.9435 	 
H 	 -46.2266 	 19.7217 	 31.8049 	 
H 	 -44.6476 	 19.9866 	 31.1458 	 
H 	 -43.1687 	 18.8702 	 24.8433 	 
H 	 -42.6912 	 13.0888 	 30.6855 	 
*
