! wB97X-D3 SP def2-SVP
%pal
nprocs 24
end

* xyz 0 1
S 	 -105.409 	 57.1875 	 -15.2111 	 
C 	 -105.435 	 58.3107 	 -13.8975 	 
C 	 -104.625 	 59.4119 	 -14.1302 	 
C 	 -103.701 	 59.1849 	 -15.2038 	 
C 	 -103.986 	 58.0352 	 -15.9296 	 
H 	 -102.803 	 59.6392 	 -15.6311 	 
C 	 -104.726 	 60.7108 	 -13.3652 	 
H 	 -103.815 	 61.3032 	 -13.5038 	 
H 	 -104.806 	 60.4172 	 -12.2824 	 
C 	 -105.844 	 61.5858 	 -13.8022 	 
H 	 -106.708 	 61.0591 	 -13.5274 	 
H 	 -105.927 	 62.4953 	 -13.2068 	 
C 	 -105.784 	 61.9787 	 -15.2927 	 
H 	 -106.673 	 62.5968 	 -15.5018 	 
H 	 -104.839 	 62.5083 	 -15.5298 	 
H 	 -105.949 	 61.0986 	 -15.8676 	 
S 	 -104.46 	 57.9237 	 -18.6189 	 
C 	 -103.078 	 57.6182 	 -19.6675 	 
C 	 -101.913 	 57.377 	 -18.9981 	 
C 	 -102.18 	 57.1888 	 -17.5881 	 
C 	 -103.473 	 57.5815 	 -17.1844 	 
H 	 -101.01 	 57.151 	 -19.4845 	 
C 	 -101.011 	 56.8767 	 -16.6165 	 
H 	 -101.383 	 56.2506 	 -15.8677 	 
H 	 -100.693 	 57.8947 	 -16.2061 	 
C 	 -99.8067 	 56.1768 	 -17.1682 	 
H 	 -99.2451 	 56.7966 	 -17.8452 	 
H 	 -99.9886 	 55.3295 	 -17.8091 	 
C 	 -98.7748 	 55.7334 	 -16.1091 	 
H 	 -98.9527 	 56.3976 	 -15.2006 	 
H 	 -97.7267 	 55.8929 	 -16.4211 	 
H 	 -98.9467 	 54.6926 	 -15.9498 	 
H 	 -106.184 	 58.3061 	 -13.1106 	 
H 	 -103.185 	 57.353 	 -20.746 	 
*
