! wB97X-D3 SP def2-SVP
%pal
nprocs 24
end

* xyz 0 1
S 	 -104.749 	 9.16745 	 -123.042 	 
C 	 -106.353 	 8.68378 	 -122.828 	 
C 	 -106.596 	 8.37665 	 -121.509 	 
C 	 -105.459 	 8.50132 	 -120.674 	 
C 	 -104.325 	 8.83142 	 -121.347 	 
H 	 -105.55 	 8.47844 	 -119.623 	 
C 	 -107.958 	 7.91887 	 -120.968 	 
H 	 -108.679 	 8.03506 	 -121.831 	 
H 	 -108.287 	 8.54611 	 -120.165 	 
C 	 -108.065 	 6.4726 	 -120.574 	 
H 	 -107.665 	 5.72593 	 -121.276 	 
H 	 -107.417 	 6.2974 	 -119.717 	 
C 	 -109.467 	 6.15964 	 -120.214 	 
H 	 -109.504 	 5.12763 	 -119.823 	 
H 	 -109.816 	 6.66078 	 -119.341 	 
H 	 -110.133 	 6.17079 	 -121.03 	 
S 	 -102.274 	 10.5742 	 -121.565 	 
C 	 -100.99 	 10.5273 	 -120.437 	 
C 	 -101.177 	 9.55245 	 -119.508 	 
C 	 -102.255 	 8.74732 	 -119.747 	 
C 	 -103.036 	 9.25399 	 -120.781 	 
H 	 -100.405 	 9.36654 	 -118.774 	 
C 	 -102.545 	 7.5427 	 -118.845 	 
H 	 -101.592 	 7.01593 	 -118.632 	 
H 	 -103.152 	 6.81437 	 -119.476 	 
C 	 -103.397 	 7.85711 	 -117.585 	 
H 	 -104.332 	 8.33436 	 -117.868 	 
H 	 -102.944 	 8.45361 	 -116.805 	 
C 	 -103.656 	 6.65957 	 -116.81 	 
H 	 -102.784 	 6.17181 	 -116.383 	 
H 	 -104.214 	 5.95296 	 -117.386 	 
H 	 -104.281 	 7.04752 	 -116.033 	 
H 	 -107.13 	 8.64463 	 -123.55 	 
H 	 -100.253 	 11.2945 	 -120.379 	 
*
