! wB97X-D3 SP def2-SVP
%pal
nprocs 24
end

* xyz 0 1
S 	 -111.438 	 17.9057 	 -120.944 	 
C 	 -112.334 	 18.8763 	 -119.792 	 
C 	 -111.512 	 19.3382 	 -118.79 	 
C 	 -110.216 	 18.712 	 -118.84 	 
C 	 -109.974 	 17.8337 	 -119.912 	 
H 	 -109.407 	 18.8695 	 -118.201 	 
C 	 -111.811 	 20.5468 	 -117.906 	 
H 	 -112.824 	 20.9369 	 -118.141 	 
H 	 -110.998 	 21.2917 	 -118.056 	 
C 	 -111.816 	 20.1759 	 -116.445 	 
H 	 -110.899 	 19.8027 	 -116.121 	 
H 	 -111.884 	 21.1168 	 -115.928 	 
C 	 -113.028 	 19.2241 	 -115.992 	 
H 	 -112.871 	 18.1493 	 -116.129 	 
H 	 -113.238 	 19.3355 	 -114.929 	 
H 	 -113.902 	 19.4353 	 -116.636 	 
S 	 -108.837 	 16.1264 	 -121.858 	 
C 	 -107.179 	 15.648 	 -121.733 	 
C 	 -106.575 	 16.2636 	 -120.578 	 
C 	 -107.488 	 17.0393 	 -119.833 	 
C 	 -108.739 	 17.1355 	 -120.385 	 
H 	 -105.565 	 16.0949 	 -120.378 	 
C 	 -107.029 	 17.5862 	 -118.457 	 
H 	 -107.417 	 18.5657 	 -118.162 	 
H 	 -105.94 	 17.7264 	 -118.536 	 
C 	 -107.273 	 16.6248 	 -117.252 	 
H 	 -106.699 	 15.6645 	 -117.394 	 
H 	 -108.305 	 16.2762 	 -117.146 	 
C 	 -106.746 	 17.1518 	 -115.918 	 
H 	 -105.694 	 16.9697 	 -115.78 	 
H 	 -107.178 	 16.7131 	 -115.015 	 
H 	 -106.719 	 18.2426 	 -115.736 	 
H 	 -113.367 	 19.0761 	 -119.935 	 
H 	 -106.727 	 15.0842 	 -122.456 	 
*
