! wB97X-D3 SP def2-SVP
%pal
nprocs 24
end

* xyz 0 1
S 	 -126.439 	 68.74 	 -50.5514 	 
C 	 -125.521 	 67.8265 	 -51.813 	 
C 	 -124.674 	 68.7417 	 -52.509 	 
C 	 -124.471 	 69.9063 	 -51.7148 	 
C 	 -125.268 	 69.9614 	 -50.5207 	 
H 	 -123.839 	 70.7502 	 -51.8213 	 
C 	 -124.168 	 68.4677 	 -53.9403 	 
H 	 -124.559 	 67.4955 	 -54.2809 	 
H 	 -123.07 	 68.4589 	 -53.9757 	 
C 	 -124.439 	 69.6224 	 -54.8675 	 
H 	 -123.911 	 70.5303 	 -54.4718 	 
H 	 -124.166 	 69.3968 	 -55.9133 	 
C 	 -125.984 	 69.9181 	 -54.964 	 
H 	 -126.516 	 68.9629 	 -55.2687 	 
H 	 -126.242 	 70.3732 	 -54.0282 	 
H 	 -126.257 	 70.6887 	 -55.643 	 
S 	 -126.823 	 71.935 	 -49.5413 	 
C 	 -126.136 	 73.282 	 -48.6496 	 
C 	 -124.815 	 73.0932 	 -48.3861 	 
C 	 -124.357 	 71.7576 	 -48.8163 	 
C 	 -125.341 	 71.0354 	 -49.5481 	 
H 	 -124.297 	 73.8292 	 -47.8077 	 
C 	 -122.839 	 71.4791 	 -48.7491 	 
H 	 -122.326 	 72.4635 	 -48.7181 	 
H 	 -122.454 	 71.0244 	 -49.7159 	 
C 	 -122.33 	 70.7069 	 -47.5326 	 
H 	 -122.766 	 69.7365 	 -47.5906 	 
H 	 -122.714 	 71.2607 	 -46.7344 	 
C 	 -120.885 	 70.6892 	 -47.3758 	 
H 	 -120.631 	 71.6966 	 -46.8862 	 
H 	 -120.35 	 70.6347 	 -48.3554 	 
H 	 -120.534 	 69.8504 	 -46.7459 	 
H 	 -125.877 	 66.9958 	 -52.3729 	 
H 	 -126.611 	 74.2394 	 -48.5229 	 
*
