! wB97X-D3 SP def2-SVP
%pal
nprocs 24
end

* xyz 0 1
S 	 -114.846 	 48.6932 	 -117.44 	 
C 	 -114.317 	 46.9941 	 -117.539 	 
C 	 -114.899 	 46.2213 	 -116.6 	 
C 	 -115.806 	 46.921 	 -115.726 	 
C 	 -115.833 	 48.2788 	 -115.981 	 
H 	 -116.467 	 46.5974 	 -114.875 	 
C 	 -114.667 	 44.7567 	 -116.376 	 
H 	 -114.051 	 44.299 	 -117.177 	 
H 	 -115.613 	 44.3128 	 -116.577 	 
C 	 -113.961 	 44.3964 	 -115.009 	 
H 	 -114.495 	 44.8001 	 -114.236 	 
H 	 -114.039 	 43.35 	 -114.863 	 
C 	 -112.553 	 44.914 	 -114.851 	 
H 	 -112.515 	 45.9842 	 -114.96 	 
H 	 -112.149 	 44.7499 	 -113.904 	 
H 	 -111.982 	 44.4742 	 -115.654 	 
S 	 -115.486 	 50.6472 	 -114.616 	 
C 	 -116.9 	 51.5948 	 -114.17 	 
C 	 -118.088 	 50.8596 	 -114.309 	 
C 	 -117.819 	 49.5413 	 -114.814 	 
C 	 -116.505 	 49.2781 	 -115.158 	 
H 	 -119.063 	 51.3036 	 -113.94 	 
C 	 -118.97 	 48.5101 	 -115.048 	 
H 	 -118.73 	 47.7448 	 -115.787 	 
H 	 -119.701 	 49.2196 	 -115.383 	 
C 	 -119.584 	 47.8682 	 -113.824 	 
H 	 -120.443 	 47.247 	 -114.002 	 
H 	 -119.861 	 48.6919 	 -113.131 	 
C 	 -118.57 	 47.0547 	 -112.982 	 
H 	 -117.671 	 47.6481 	 -112.738 	 
H 	 -118.199 	 46.2053 	 -113.549 	 
H 	 -119.03 	 46.6662 	 -112.041 	 
H 	 -113.527 	 46.7168 	 -118.19 	 
H 	 -116.756 	 52.6145 	 -113.835 	 
*
