! wB97X-D3 SP def2-SVP
%pal
nprocs 24
end

* xyz 0 1
S 	 15.9159 	 -14.4192 	 -123.897 	 
C 	 14.9427 	 -13.0167 	 -124.191 	 
C 	 14.4643 	 -12.438 	 -122.996 	 
C 	 15.1973 	 -12.8698 	 -121.862 	 
C 	 16.0654 	 -13.8879 	 -122.19 	 
H 	 15.1812 	 -12.5659 	 -120.86 	 
C 	 13.5327 	 -11.2128 	 -122.967 	 
H 	 13.3926 	 -11.0146 	 -121.951 	 
H 	 12.5458 	 -11.5446 	 -123.35 	 
C 	 14.1865 	 -9.87704 	 -123.387 	 
H 	 15.1863 	 -9.96613 	 -123.619 	 
H 	 13.7258 	 -9.7291 	 -124.379 	 
C 	 13.9453 	 -8.67501 	 -122.427 	 
H 	 14.6436 	 -8.69743 	 -121.575 	 
H 	 14.0343 	 -7.63389 	 -122.881 	 
H 	 12.9217 	 -8.82037 	 -121.938 	 
S 	 16.3481 	 -16.2577 	 -120.933 	 
C 	 17.6362 	 -16.5351 	 -119.818 	 
C 	 18.3714 	 -15.3766 	 -119.575 	 
C 	 17.8402 	 -14.1942 	 -120.258 	 
C 	 16.8537 	 -14.5979 	 -121.224 	 
H 	 19.191 	 -15.396 	 -118.895 	 
C 	 18.4947 	 -12.8661 	 -119.974 	 
H 	 18.7103 	 -12.821 	 -118.935 	 
H 	 17.7585 	 -12.1331 	 -120.046 	 
C 	 19.5481 	 -12.4783 	 -120.93 	 
H 	 19.6769 	 -11.4147 	 -120.723 	 
H 	 19.2608 	 -12.5097 	 -121.97 	 
C 	 20.8518 	 -13.3537 	 -120.873 	 
H 	 21.4226 	 -13.3413 	 -120.003 	 
H 	 21.562 	 -13.129 	 -121.652 	 
H 	 20.659 	 -14.361 	 -121.131 	 
H 	 14.6281 	 -12.7627 	 -125.177 	 
H 	 17.9515 	 -17.4651 	 -119.376 	 
*
