! wB97X-D3 SP def2-SVP
%pal
nprocs 24
end

* xyz 0 1
S 	 -31.627 	 -8.72189 	 14.8024 	 
C 	 -32.6909 	 -8.23812 	 16.0865 	 
C 	 -34.0158 	 -8.61942 	 15.8814 	 
C 	 -34.1558 	 -9.2082 	 14.584 	 
C 	 -33.0454 	 -9.11603 	 13.8203 	 
H 	 -35.0171 	 -9.71643 	 14.2601 	 
C 	 -35.24 	 -8.44083 	 16.8476 	 
H 	 -35.2876 	 -9.25213 	 17.5408 	 
H 	 -36.2191 	 -8.3811 	 16.3785 	 
C 	 -35.1687 	 -7.12108 	 17.7733 	 
H 	 -36.0111 	 -7.08636 	 18.4673 	 
H 	 -34.192 	 -7.18071 	 18.2942 	 
C 	 -35.2871 	 -5.78132 	 17.0445 	 
H 	 -34.6761 	 -5.69573 	 16.2082 	 
H 	 -36.2895 	 -5.84773 	 16.6083 	 
H 	 -35.2236 	 -4.89566 	 17.6002 	 
S 	 -31.6472 	 -10.7705 	 12.109 	 
C 	 -31.9597 	 -10.6872 	 10.3728 	 
C 	 -32.912 	 -9.72897 	 10.1251 	 
C 	 -33.4022 	 -9.07253 	 11.2626 	 
C 	 -32.8714 	 -9.5048 	 12.4777 	 
H 	 -33.3486 	 -9.49472 	 9.09403 	 
C 	 -34.3935 	 -7.96349 	 10.9935 	 
H 	 -35.0441 	 -7.98037 	 11.8471 	 
H 	 -35.1074 	 -8.23624 	 10.15 	 
C 	 -33.8963 	 -6.47258 	 10.852 	 
H 	 -33.237 	 -6.31554 	 9.99066 	 
H 	 -33.4744 	 -6.1673 	 11.8426 	 
C 	 -35.1064 	 -5.58482 	 10.6799 	 
H 	 -35.2108 	 -4.8912 	 11.5083 	 
H 	 -35.9561 	 -6.20763 	 10.6987 	 
H 	 -35.1764 	 -5.1832 	 9.66565 	 
H 	 -32.3774 	 -7.80017 	 17.0937 	 
H 	 -31.479 	 -11.3359 	 9.62501 	 
*
