! wB97X-D3 SP def2-SVP
%pal
nprocs 24
end

* xyz 0 1
S 	 17.1794 	 -10.2863 	 -125.754 	 
C 	 16.0913 	 -9.14512 	 -126.398 	 
C 	 15.0908 	 -9.76525 	 -127.068 	 
C 	 15.1616 	 -11.2163 	 -126.971 	 
C 	 16.3516 	 -11.6775 	 -126.374 	 
H 	 14.5388 	 -11.8842 	 -127.452 	 
C 	 14.0461 	 -9.02225 	 -127.919 	 
H 	 13.0638 	 -8.83383 	 -127.428 	 
H 	 13.9693 	 -9.68133 	 -128.788 	 
C 	 14.4308 	 -7.67833 	 -128.511 	 
H 	 14.3325 	 -6.92648 	 -127.679 	 
H 	 15.5233 	 -7.63079 	 -128.697 	 
C 	 13.677 	 -7.1213 	 -129.777 	 
H 	 12.6564 	 -7.12212 	 -129.473 	 
H 	 13.9295 	 -6.16476 	 -130.183 	 
H 	 13.7232 	 -7.8868 	 -130.514 	 
S 	 18.4946 	 -13.4493 	 -126.342 	 
C 	 18.3724 	 -15.0758 	 -125.916 	 
C 	 17.0581 	 -15.3476 	 -125.524 	 
C 	 16.1879 	 -14.1647 	 -125.599 	 
C 	 16.8469 	 -13.0421 	 -126.152 	 
H 	 16.8143 	 -16.3125 	 -125.175 	 
C 	 14.836 	 -14.1387 	 -124.896 	 
H 	 14.4634 	 -13.106 	 -125.168 	 
H 	 15.1544 	 -14.1656 	 -123.835 	 
C 	 13.819 	 -15.2462 	 -125.318 	 
H 	 13.0317 	 -15.3664 	 -124.5 	 
H 	 14.2475 	 -16.23 	 -125.414 	 
C 	 13.1085 	 -14.9985 	 -126.605 	 
H 	 13.7948 	 -14.8901 	 -127.334 	 
H 	 12.5422 	 -14.0841 	 -126.477 	 
H 	 12.3871 	 -15.796 	 -126.793 	 
H 	 16.1968 	 -8.08357 	 -126.353 	 
H 	 19.2635 	 -15.5971 	 -125.825 	 
*
