! wB97X-D3 SP def2-SVP
%pal
nprocs 24
end

* xyz 0 1
S 	 -69.2104 	 -39.6614 	 -92.8376 	 
C 	 -67.8248 	 -39.2039 	 -93.86 	 
C 	 -67.3752 	 -40.2714 	 -94.5674 	 
C 	 -68.2016 	 -41.4033 	 -94.4046 	 
C 	 -69.3147 	 -41.2539 	 -93.5689 	 
H 	 -68.0656 	 -42.2731 	 -95.0337 	 
C 	 -66.1237 	 -40.2365 	 -95.3367 	 
H 	 -66.1907 	 -39.3881 	 -96.0489 	 
H 	 -66.1554 	 -41.1097 	 -96.0096 	 
C 	 -64.7762 	 -40.0068 	 -94.5025 	 
H 	 -63.962 	 -40.4891 	 -95.1153 	 
H 	 -64.4719 	 -38.9552 	 -94.3896 	 
C 	 -64.6323 	 -40.602 	 -93.0721 	 
H 	 -64.5764 	 -41.7072 	 -93.2022 	 
H 	 -63.71 	 -40.2458 	 -92.5613 	 
H 	 -65.4487 	 -40.3337 	 -92.3607 	 
S 	 -71.1141 	 -42.2942 	 -91.6938 	 
C 	 -72.4652 	 -43.2932 	 -92.2373 	 
C 	 -72.5053 	 -43.3531 	 -93.6342 	 
C 	 -71.4434 	 -42.5809 	 -94.3011 	 
C 	 -70.5514 	 -42.0258 	 -93.3342 	 
H 	 -73.4898 	 -43.7381 	 -94.0417 	 
C 	 -71.3508 	 -42.3606 	 -95.7771 	 
H 	 -70.9671 	 -41.3904 	 -96.0248 	 
H 	 -72.4265 	 -42.4053 	 -95.9931 	 
C 	 -70.5847 	 -43.4876 	 -96.4739 	 
H 	 -70.5966 	 -44.427 	 -95.9046 	 
H 	 -69.5135 	 -43.2483 	 -96.4256 	 
C 	 -71.1362 	 -43.7899 	 -97.9137 	 
H 	 -72.1849 	 -44.0358 	 -97.9699 	 
H 	 -70.5505 	 -44.5844 	 -98.3589 	 
H 	 -71.0574 	 -42.9684 	 -98.5996 	 
H 	 -67.3051 	 -38.1771 	 -93.8593 	 
H 	 -73.1781 	 -43.8163 	 -91.6125 	 
*
