! wB97X-D3 SP def2-SVP
%pal
nprocs 24
end

* xyz 0 1
S 	 -140.276 	 27.8188 	 -19.7885 	 
C 	 -139.851 	 26.8008 	 -18.4714 	 
C 	 -139.843 	 25.5137 	 -18.8873 	 
C 	 -140.173 	 25.2899 	 -20.2612 	 
C 	 -140.317 	 26.5077 	 -20.9096 	 
H 	 -140.15 	 24.322 	 -20.7884 	 
C 	 -139.425 	 24.3914 	 -17.9046 	 
H 	 -138.571 	 24.6666 	 -17.3753 	 
H 	 -139.188 	 23.4699 	 -18.5819 	 
C 	 -140.523 	 23.9975 	 -16.9238 	 
H 	 -140.087 	 23.2869 	 -16.2044 	 
H 	 -140.848 	 24.8131 	 -16.3621 	 
C 	 -141.785 	 23.3333 	 -17.5156 	 
H 	 -141.585 	 22.5244 	 -18.1414 	 
H 	 -142.393 	 23.0394 	 -16.7262 	 
H 	 -142.261 	 24.1307 	 -18.0322 	 
S 	 -139.223 	 27.6091 	 -23.258 	 
C 	 -140.23 	 27.6379 	 -24.7113 	 
C 	 -141.314 	 26.8108 	 -24.4962 	 
C 	 -141.407 	 26.2439 	 -23.221 	 
C 	 -140.434 	 26.6934 	 -22.3483 	 
H 	 -142.08 	 26.6638 	 -25.2841 	 
C 	 -142.652 	 25.4279 	 -22.7806 	 
H 	 -143.579 	 25.6143 	 -23.4398 	 
H 	 -142.854 	 25.7351 	 -21.7563 	 
C 	 -142.316 	 23.8804 	 -22.7432 	 
H 	 -141.331 	 23.7757 	 -22.4456 	 
H 	 -142.434 	 23.3856 	 -23.759 	 
C 	 -143.257 	 23.0375 	 -21.8905 	 
H 	 -143.309 	 23.2228 	 -20.827 	 
H 	 -142.961 	 22.0378 	 -22.1425 	 
H 	 -144.225 	 23.305 	 -22.3344 	 
H 	 -139.633 	 27.0336 	 -17.4017 	 
H 	 -140.133 	 28.0925 	 -25.6249 	 
*
