! wB97X-D3 SP def2-SVP
%pal
nprocs 24
end

* xyz 0 1
S 	 -42.7387 	 -9.12271 	 5.12981 	 
C 	 -41.3721 	 -9.48066 	 4.13121 	 
C 	 -40.3057 	 -9.72317 	 4.9237 	 
C 	 -40.5544 	 -9.54955 	 6.31157 	 
C 	 -41.8303 	 -9.11624 	 6.57117 	 
H 	 -39.9324 	 -9.66579 	 7.12787 	 
C 	 -38.9917 	 -10.2342 	 4.39879 	 
H 	 -39.2588 	 -11.2198 	 3.98952 	 
H 	 -38.3481 	 -10.29 	 5.28478 	 
C 	 -38.285 	 -9.37364 	 3.24895 	 
H 	 -37.4848 	 -10.0114 	 2.81229 	 
H 	 -38.9787 	 -9.11593 	 2.45796 	 
C 	 -37.591 	 -8.19257 	 3.83412 	 
H 	 -37.0392 	 -7.65513 	 3.10432 	 
H 	 -38.2875 	 -7.40185 	 4.2323 	 
H 	 -37.0057 	 -8.56335 	 4.66032 	 
S 	 -43.4745 	 -9.57619 	 8.80644 	 
C 	 -43.4394 	 -8.53549 	 10.2187 	 
C 	 -42.6333 	 -7.508 	 9.90408 	 
C 	 -42.0305 	 -7.50438 	 8.59275 	 
C 	 -42.3294 	 -8.64896 	 7.89109 	 
H 	 -42.5289 	 -6.73069 	 10.622 	 
C 	 -41.0947 	 -6.39703 	 8.11921 	 
H 	 -40.7279 	 -6.60755 	 7.11269 	 
H 	 -40.2493 	 -6.27926 	 8.90159 	 
C 	 -41.8273 	 -5.00653 	 8.05214 	 
H 	 -42.2816 	 -4.81397 	 9.03977 	 
H 	 -42.6136 	 -5.08282 	 7.36879 	 
C 	 -40.9098 	 -3.70413 	 7.84665 	 
H 	 -40.6146 	 -3.69182 	 6.81433 	 
H 	 -40.0686 	 -3.59236 	 8.50652 	 
H 	 -41.4892 	 -2.75817 	 7.87056 	 
H 	 -41.53 	 -9.68815 	 3.08681 	 
H 	 -44.1175 	 -8.64156 	 11.075 	 
*
