! wB97X-D3 SP def2-SVP
%pal
nprocs 24
end

* xyz 0 1
S 	 -66.8024 	 -54.121 	 -83.2547 	 
C 	 -67.9101 	 -54.6398 	 -84.4913 	 
C 	 -69.0435 	 -55.2255 	 -83.9367 	 
C 	 -68.9934 	 -55.2683 	 -82.4591 	 
C 	 -67.8702 	 -54.7014 	 -81.9447 	 
H 	 -69.697 	 -55.8352 	 -81.8674 	 
C 	 -70.0636 	 -56.0266 	 -84.6304 	 
H 	 -70.6552 	 -55.4027 	 -85.3353 	 
H 	 -70.7256 	 -56.4383 	 -83.886 	 
C 	 -69.4205 	 -57.24 	 -85.3094 	 
H 	 -68.6674 	 -56.9469 	 -86.0472 	 
H 	 -68.7787 	 -57.7681 	 -84.5206 	 
C 	 -70.3614 	 -57.9652 	 -86.1799 	 
H 	 -70.5212 	 -57.3351 	 -87.0882 	 
H 	 -70.0115 	 -58.9339 	 -86.4524 	 
H 	 -71.2986 	 -58.2216 	 -85.6303 	 
S 	 -67.4916 	 -52.7977 	 -80.0052 	 
C 	 -67.4667 	 -53.2825 	 -78.294 	 
C 	 -67.707 	 -54.6392 	 -78.1024 	 
C 	 -67.8158 	 -55.3367 	 -79.3568 	 
C 	 -67.5855 	 -54.4946 	 -80.5043 	 
H 	 -67.886 	 -55.0288 	 -77.0746 	 
C 	 -67.9213 	 -56.8398 	 -79.376 	 
H 	 -67.988 	 -57.2176 	 -80.3782 	 
H 	 -68.8613 	 -57.2433 	 -78.9475 	 
C 	 -66.7126 	 -57.5485 	 -78.8297 	 
H 	 -66.44 	 -57.1079 	 -77.8539 	 
H 	 -65.8281 	 -57.432 	 -79.4684 	 
C 	 -66.8659 	 -59.066 	 -78.7503 	 
H 	 -67.6591 	 -59.3173 	 -78.1077 	 
H 	 -65.9613 	 -59.499 	 -78.2951 	 
H 	 -66.9214 	 -59.6298 	 -79.7025 	 
H 	 -67.6684 	 -54.6492 	 -85.6069 	 
H 	 -67.5727 	 -52.5235 	 -77.4873 	 
*
