! wB97X-D3 SP def2-SVP
%pal
nprocs 24
end

* xyz 0 1
S 	 -41.5426 	 5.97193 	 0.955611 	 
C 	 -41.551 	 4.77601 	 -0.329103 	 
C 	 -40.3354 	 4.11962 	 -0.340736 	 
C 	 -39.3872 	 4.66491 	 0.572305 	 
C 	 -39.8431 	 5.65307 	 1.32481 	 
H 	 -38.3665 	 4.34545 	 0.675246 	 
C 	 -39.9442 	 2.96672 	 -1.28693 	 
H 	 -39.0501 	 3.29596 	 -1.73841 	 
H 	 -40.8778 	 2.78884 	 -1.97962 	 
C 	 -39.6339 	 1.61626 	 -0.649889 	 
H 	 -38.8869 	 1.78944 	 0.0323934 	 
H 	 -40.4832 	 1.35712 	 0.0106912 	 
C 	 -39.3669 	 0.398919 	 -1.51755 	 
H 	 -38.5821 	 0.56788 	 -2.23284 	 
H 	 -39.1176 	 -0.424653 	 -0.869444 	 
H 	 -40.3888 	 0.194713 	 -1.97715 	 
S 	 -37.4134 	 6.77208 	 2.10369 	 
C 	 -37.2021 	 7.33367 	 3.71557 	 
C 	 -38.3903 	 7.24232 	 4.45917 	 
C 	 -39.4778 	 6.64324 	 3.73347 	 
C 	 -39.0802 	 6.27958 	 2.43769 	 
H 	 -38.4265 	 7.64319 	 5.48422 	 
C 	 -40.7681 	 6.1908 	 4.36252 	 
H 	 -41.5381 	 6.02388 	 3.6174 	 
H 	 -41.1483 	 6.9919 	 5.0703 	 
C 	 -40.7114 	 4.7881 	 5.0297 	 
H 	 -41.6899 	 4.51521 	 5.50264 	 
H 	 -39.9792 	 4.77289 	 5.85981 	 
C 	 -40.2888 	 3.58112 	 4.13829 	 
H 	 -40.7209 	 3.71323 	 3.13663 	 
H 	 -40.7143 	 2.64503 	 4.51446 	 
H 	 -39.1926 	 3.53333 	 3.95981 	 
H 	 -42.4338 	 4.64901 	 -1.06481 	 
H 	 -36.2767 	 7.74062 	 4.12834 	 
*
