! wB97X-D3 SP def2-SVP
%pal
nprocs 24
end

* xyz 0 1
S 	 -54.2079 	 -0.992855 	 -21.3526 	 
C 	 -52.8637 	 -0.192803 	 -22.1134 	 
C 	 -53.1776 	 1.12668 	 -22.3006 	 
C 	 -54.4806 	 1.43974 	 -21.8749 	 
C 	 -55.1736 	 0.456536 	 -21.2877 	 
H 	 -54.9658 	 2.40592 	 -21.7656 	 
C 	 -52.2009 	 2.13898 	 -22.8846 	 
H 	 -51.2338 	 1.89218 	 -22.4035 	 
H 	 -52.3829 	 3.1246 	 -22.4215 	 
C 	 -52.1121 	 2.20736 	 -24.408 	 
H 	 -51.9509 	 1.25887 	 -24.8343 	 
H 	 -53.0735 	 2.46742 	 -24.8143 	 
C 	 -50.9694 	 3.11611 	 -24.9716 	 
H 	 -50.0162 	 2.75091 	 -24.6881 	 
H 	 -51.0192 	 3.22456 	 -26.0405 	 
H 	 -50.9663 	 4.17314 	 -24.5649 	 
S 	 -57.859 	 1.20919 	 -21.4509 	 
C 	 -58.7215 	 1.27243 	 -19.9927 	 
C 	 -58.2522 	 0.399348 	 -19.0472 	 
C 	 -56.9115 	 0.0750486 	 -19.309 	 
C 	 -56.4831 	 0.504042 	 -20.5765 	 
H 	 -58.823 	 0.192813 	 -18.1898 	 
C 	 -56.0897 	 -0.683021 	 -18.3266 	 
H 	 -55.2315 	 -1.16887 	 -18.8524 	 
H 	 -56.7056 	 -1.51534 	 -18.0391 	 
C 	 -55.8419 	 0.161585 	 -17.0646 	 
H 	 -56.8623 	 0.401467 	 -16.597 	 
H 	 -55.3583 	 1.11539 	 -17.4337 	 
C 	 -54.8831 	 -0.57685 	 -16.076 	 
H 	 -54.8775 	 0.0924676 	 -15.2368 	 
H 	 -53.8665 	 -0.659685 	 -16.4816 	 
H 	 -55.2096 	 -1.48917 	 -15.7337 	 
H 	 -51.9005 	 -0.671129 	 -22.4185 	 
H 	 -59.7376 	 1.69934 	 -19.8336 	 
*
