! wB97X-D3 SP def2-SVP
%pal
nprocs 24
end

* xyz 0 1
S 	 -106.269 	 54.237 	 -12.7931 	 
C 	 -105.556 	 55.5491 	 -13.6503 	 
C 	 -104.916 	 55.0021 	 -14.7287 	 
C 	 -104.659 	 53.5773 	 -14.6058 	 
C 	 -105.349 	 52.9616 	 -13.5795 	 
H 	 -103.988 	 53.1168 	 -15.2764 	 
C 	 -104.326 	 55.7545 	 -15.8892 	 
H 	 -103.245 	 55.9444 	 -15.6888 	 
H 	 -104.645 	 56.7578 	 -15.9823 	 
C 	 -104.336 	 55.109 	 -17.2984 	 
H 	 -103.774 	 54.2409 	 -17.234 	 
H 	 -105.297 	 54.8288 	 -17.6539 	 
C 	 -103.8 	 56.0438 	 -18.3914 	 
H 	 -102.729 	 56.1661 	 -18.3729 	 
H 	 -104.118 	 55.6631 	 -19.381 	 
H 	 -104.163 	 57.0503 	 -18.2906 	 
S 	 -106.699 	 50.5692 	 -13.4318 	 
C 	 -106.065 	 49.1179 	 -12.6808 	 
C 	 -104.774 	 49.41 	 -12.1564 	 
C 	 -104.384 	 50.8079 	 -12.3468 	 
C 	 -105.334 	 51.563 	 -13.0844 	 
H 	 -104.212 	 48.6127 	 -11.6947 	 
C 	 -102.995 	 51.2813 	 -11.967 	 
H 	 -102.675 	 52.1021 	 -12.6517 	 
H 	 -102.251 	 50.5095 	 -12.095 	 
C 	 -102.892 	 51.7225 	 -10.5453 	 
H 	 -101.829 	 51.9288 	 -10.3007 	 
H 	 -103.207 	 50.8331 	 -9.98846 	 
C 	 -103.916 	 52.8232 	 -10.1958 	 
H 	 -103.647 	 53.0601 	 -9.12734 	 
H 	 -104.96 	 52.5827 	 -10.3519 	 
H 	 -103.775 	 53.7865 	 -10.7974 	 
H 	 -105.887 	 56.5945 	 -13.6105 	 
H 	 -106.646 	 48.1542 	 -12.5389 	 
*
