! wB97X-D3 SP def2-SVP
%pal
nprocs 24
end

* xyz 0 1
S 	 -123.027 	 46.2154 	 -28.3421 	 
C 	 -122.166 	 44.761 	 -27.7174 	 
C 	 -121.264 	 44.3028 	 -28.6894 	 
C 	 -121.512 	 44.8683 	 -29.9578 	 
C 	 -122.438 	 45.9094 	 -29.9906 	 
H 	 -121.027 	 44.5415 	 -30.8588 	 
C 	 -120.14 	 43.2524 	 -28.4703 	 
H 	 -120.37 	 42.8036 	 -27.4794 	 
H 	 -119.248 	 43.7668 	 -28.3584 	 
C 	 -120.037 	 42.087 	 -29.4082 	 
H 	 -121.086 	 41.6628 	 -29.3787 	 
H 	 -119.853 	 42.5925 	 -30.3884 	 
C 	 -119.019 	 41.0457 	 -28.9222 	 
H 	 -119.017 	 40.1518 	 -29.4934 	 
H 	 -118.004 	 41.3978 	 -28.8672 	 
H 	 -119.253 	 40.6442 	 -27.9904 	 
S 	 -123.918 	 45.9649 	 -32.2039 	 
C 	 -123.591 	 47.1051 	 -33.5114 	 
C 	 -122.588 	 47.9744 	 -33.1432 	 
C 	 -122.022 	 47.6939 	 -31.8636 	 
C 	 -122.694 	 46.6247 	 -31.2332 	 
H 	 -122.261 	 48.653 	 -33.8972 	 
C 	 -120.747 	 48.4187 	 -31.4123 	 
H 	 -120.342 	 47.9662 	 -30.497 	 
H 	 -121.004 	 49.4375 	 -31.1755 	 
C 	 -119.619 	 48.225 	 -32.4178 	 
H 	 -119.888 	 48.754 	 -33.3776 	 
H 	 -119.573 	 47.1548 	 -32.7489 	 
C 	 -118.216 	 48.7918 	 -31.9428 	 
H 	 -118.22 	 49.8369 	 -31.7128 	 
H 	 -117.429 	 48.5583 	 -32.7193 	 
H 	 -117.991 	 48.2004 	 -31.0192 	 
H 	 -122.148 	 44.3135 	 -26.722 	 
H 	 -124.083 	 47.1693 	 -34.5087 	 
*
