! wB97X-D3 SP def2-SVP
%pal
nprocs 24
end

* xyz 0 1
S 	 -38.112 	 19.8757 	 14.1165 	 
C 	 -39.6339 	 19.2733 	 14.7376 	 
C 	 -40.0211 	 20.0788 	 15.791 	 
C 	 -39.0439 	 20.9953 	 16.3101 	 
C 	 -37.8779 	 20.9236 	 15.5376 	 
H 	 -38.9942 	 21.5941 	 17.2099 	 
C 	 -41.3246 	 19.8459 	 16.5442 	 
H 	 -42.043 	 19.598 	 15.8212 	 
H 	 -41.6849 	 20.8209 	 16.8978 	 
C 	 -41.2507 	 18.8841 	 17.747 	 
H 	 -41.0356 	 17.8336 	 17.4766 	 
H 	 -40.4954 	 19.1124 	 18.4613 	 
C 	 -42.5803 	 18.8684 	 18.5313 	 
H 	 -43.4657 	 18.5728 	 17.929 	 
H 	 -42.5108 	 18.1972 	 19.4389 	 
H 	 -42.7923 	 19.8365 	 18.8232 	 
S 	 -35.1814 	 20.7191 	 15.9164 	 
C 	 -34.2424 	 22.1241 	 16.4789 	 
C 	 -35.0267 	 23.2892 	 16.4534 	 
C 	 -36.3937 	 23.0026 	 16.0171 	 
C 	 -36.6522 	 21.6519 	 15.7468 	 
H 	 -34.7024 	 24.2619 	 16.8845 	 
C 	 -37.4238 	 24.0788 	 16.0585 	 
H 	 -37.4684 	 24.5595 	 17.0317 	 
H 	 -38.3539 	 23.4728 	 15.9292 	 
C 	 -37.3861 	 25.0874 	 14.9534 	 
H 	 -36.5509 	 25.7285 	 15.1499 	 
H 	 -38.2502 	 25.6688 	 15.0945 	 
C 	 -37.4374 	 24.6594 	 13.4768 	 
H 	 -38.0517 	 23.7689 	 13.3254 	 
H 	 -36.4187 	 24.4035 	 13.1325 	 
H 	 -37.8293 	 25.5616 	 12.8856 	 
H 	 -40.2987 	 18.6066 	 14.3062 	 
H 	 -33.2122 	 22.0915 	 16.8374 	 
*
