! wB97X-D3 SP def2-SVP
%pal
nprocs 24
end

* xyz 0 1
S 	 -56.0919 	 11.504 	 -95.7707 	 
C 	 -54.8271 	 12.6694 	 -96.2127 	 
C 	 -55.2007 	 13.9506 	 -95.8956 	 
C 	 -56.4451 	 13.9909 	 -95.2337 	 
C 	 -57.0691 	 12.7991 	 -95.1196 	 
H 	 -56.8704 	 14.832 	 -94.7723 	 
C 	 -54.3651 	 15.0913 	 -96.0202 	 
H 	 -53.3615 	 14.6936 	 -95.8516 	 
H 	 -54.6306 	 15.6072 	 -95.0895 	 
C 	 -54.5563 	 15.9892 	 -97.3244 	 
H 	 -54.3149 	 15.4126 	 -98.1348 	 
H 	 -55.6077 	 16.1494 	 -97.3926 	 
C 	 -53.9035 	 17.4136 	 -97.1467 	 
H 	 -54.4245 	 18.064 	 -96.3905 	 
H 	 -52.8576 	 17.4101 	 -96.7947 	 
H 	 -54.0138 	 17.8026 	 -98.1801 	 
S 	 -59.6859 	 12.0114 	 -95.581 	 
C 	 -60.8417 	 12.2236 	 -94.3037 	 
C 	 -60.2738 	 12.7383 	 -93.1597 	 
C 	 -58.8362 	 12.854 	 -93.249 	 
C 	 -58.3871 	 12.6221 	 -94.5613 	 
H 	 -60.9625 	 13.0013 	 -92.3571 	 
C 	 -57.9527 	 13.4508 	 -92.1535 	 
H 	 -56.9008 	 13.5313 	 -92.459 	 
H 	 -57.9752 	 12.64 	 -91.425 	 
C 	 -58.5169 	 14.6764 	 -91.2906 	 
H 	 -59.3608 	 14.3585 	 -90.6933 	 
H 	 -58.8671 	 15.4446 	 -91.9177 	 
C 	 -57.6693 	 15.4231 	 -90.249 	 
H 	 -56.7606 	 15.9298 	 -90.5458 	 
H 	 -57.3232 	 14.6967 	 -89.5601 	 
H 	 -58.2838 	 16.1201 	 -89.6612 	 
H 	 -53.9002 	 12.3378 	 -96.7166 	 
H 	 -61.965 	 12.0748 	 -94.4325 	 
*
