! wB97X-D3 SP def2-SVP
%pal
nprocs 24
end

* xyz 0 1
S 	 -110.858 	 55.7419 	 -94.1185 	 
C 	 -109.783 	 56.0924 	 -92.7721 	 
C 	 -109.176 	 57.2741 	 -93.0012 	 
C 	 -109.444 	 57.8153 	 -94.3149 	 
C 	 -110.431 	 57.1835 	 -94.9978 	 
H 	 -108.885 	 58.619 	 -94.737 	 
C 	 -108.047 	 57.7629 	 -92.1216 	 
H 	 -107.162 	 57.6781 	 -92.7054 	 
H 	 -107.996 	 56.981 	 -91.2846 	 
C 	 -108.169 	 59.1849 	 -91.5201 	 
H 	 -107.266 	 59.4192 	 -90.8306 	 
H 	 -108.185 	 59.9003 	 -92.3516 	 
C 	 -109.547 	 59.3452 	 -90.8242 	 
H 	 -109.662 	 58.6025 	 -90.0681 	 
H 	 -109.667 	 60.2896 	 -90.3876 	 
H 	 -110.396 	 59.1563 	 -91.4232 	 
S 	 -111.977 	 58.5316 	 -96.9218 	 
C 	 -111.891 	 58.0835 	 -98.5697 	 
C 	 -111.064 	 56.9359 	 -98.6767 	 
C 	 -110.531 	 56.4852 	 -97.4295 	 
C 	 -110.814 	 57.3521 	 -96.363 	 
H 	 -110.873 	 56.379 	 -99.6437 	 
C 	 -109.656 	 55.2373 	 -97.3694 	 
H 	 -110.183 	 54.4685 	 -97.9131 	 
H 	 -109.498 	 54.9142 	 -96.3074 	 
C 	 -108.187 	 55.3803 	 -97.8721 	 
H 	 -107.682 	 56.2067 	 -97.425 	 
H 	 -108.193 	 55.5483 	 -98.9892 	 
C 	 -107.356 	 54.1932 	 -97.6378 	 
H 	 -106.376 	 54.3439 	 -98.192 	 
H 	 -107.803 	 53.3585 	 -97.9914 	 
H 	 -107.021 	 54.0679 	 -96.5544 	 
H 	 -109.651 	 55.432 	 -91.9606 	 
H 	 -112.37 	 58.6004 	 -99.3732 	 
*
