! wB97X-D3 SP def2-SVP
%pal
nprocs 24
end

* xyz 0 1
S 	 -59.0437 	 4.05656 	 -22.2033 	 
C 	 -60.7653 	 4.09287 	 -22.4766 	 
C 	 -61.4536 	 3.55214 	 -21.4038 	 
C 	 -60.6156 	 3.10909 	 -20.3654 	 
C 	 -59.2646 	 3.16291 	 -20.6447 	 
H 	 -60.958 	 2.56883 	 -19.5367 	 
C 	 -62.9394 	 3.50061 	 -21.2908 	 
H 	 -63.4837 	 4.42213 	 -21.4455 	 
H 	 -63.2506 	 3.06752 	 -20.3785 	 
C 	 -63.5978 	 2.69654 	 -22.488 	 
H 	 -63.4594 	 3.28711 	 -23.4642 	 
H 	 -63.0374 	 1.81738 	 -22.8324 	 
C 	 -65.0614 	 2.30047 	 -22.2109 	 
H 	 -64.9654 	 1.31279 	 -21.7017 	 
H 	 -65.6198 	 2.9869 	 -21.587 	 
H 	 -65.4946 	 1.96941 	 -23.1912 	 
S 	 -57.3282 	 1.21726 	 -20.4461 	 
C 	 -56.2812 	 1.09853 	 -19.0006 	 
C 	 -56.6533 	 2.0611 	 -18.1007 	 
C 	 -57.8267 	 2.84308 	 -18.4517 	 
C 	 -58.2253 	 2.52745 	 -19.7794 	 
H 	 -56.2127 	 2.1505 	 -17.1146 	 
C 	 -58.5316 	 3.90355 	 -17.6383 	 
H 	 -58.3413 	 3.65726 	 -16.5825 	 
H 	 -59.6332 	 3.80321 	 -17.743 	 
C 	 -58.1497 	 5.31855 	 -18.0759 	 
H 	 -58.452 	 5.64052 	 -19.0336 	 
H 	 -57.0597 	 5.34342 	 -18.0692 	 
C 	 -58.6939 	 6.34098 	 -17.225 	 
H 	 -59.7584 	 6.19271 	 -17.1046 	 
H 	 -58.6601 	 7.32633 	 -17.5858 	 
H 	 -58.1528 	 6.5129 	 -16.2591 	 
H 	 -61.2453 	 4.25795 	 -23.4417 	 
H 	 -55.4658 	 0.478785 	 -18.8354 	 
*
