! wB97X-D3 SP def2-SVP
%pal
nprocs 24
end

* xyz 0 1
S 	 -62.7995 	 12.6306 	 -73.412 	 
C 	 -64.4806 	 12.2256 	 -73.1165 	 
C 	 -65.1627 	 12.3372 	 -74.2952 	 
C 	 -64.3666 	 12.7791 	 -75.3861 	 
C 	 -63.0535 	 12.9108 	 -75.1264 	 
H 	 -64.8243 	 12.895 	 -76.3235 	 
C 	 -66.6157 	 11.852 	 -74.4642 	 
H 	 -66.495 	 10.7221 	 -74.354 	 
H 	 -66.9092 	 11.9535 	 -75.5111 	 
C 	 -67.7662 	 12.4312 	 -73.5884 	 
H 	 -68.6487 	 12.1006 	 -74.044 	 
H 	 -67.8675 	 11.931 	 -72.6801 	 
C 	 -67.7252 	 13.9499 	 -73.6429 	 
H 	 -66.7079 	 14.254 	 -73.4351 	 
H 	 -67.8774 	 14.3572 	 -74.6913 	 
H 	 -68.4792 	 14.4197 	 -72.97 	 
S 	 -60.4069 	 12.4859 	 -75.6578 	 
C 	 -59.7533 	 12.5702 	 -77.2702 	 
C 	 -60.6883 	 13.0757 	 -78.1487 	 
C 	 -61.963 	 13.4094 	 -77.454 	 
C 	 -61.9473 	 13.0662 	 -76.114 	 
H 	 -60.393 	 13.1893 	 -79.1648 	 
C 	 -63.1069 	 13.8445 	 -78.3598 	 
H 	 -62.7679 	 14.5683 	 -79.1163 	 
H 	 -63.8533 	 14.3064 	 -77.6755 	 
C 	 -63.776 	 12.6798 	 -79.0935 	 
H 	 -63.9547 	 11.933 	 -78.3081 	 
H 	 -63.2087 	 12.1675 	 -79.8904 	 
C 	 -65.1653 	 12.9697 	 -79.6073 	 
H 	 -65.7848 	 13.2494 	 -78.8233 	 
H 	 -65.6878 	 12.1061 	 -80.0136 	 
H 	 -64.9546 	 13.7542 	 -80.3762 	 
H 	 -64.9516 	 11.8092 	 -72.2412 	 
H 	 -58.7394 	 12.3357 	 -77.5695 	 
*
