! wB97X-D3 SP def2-SVP
%pal
nprocs 24
end

* xyz 0 1
S 	 -110.255 	 35.5171 	 -13.5693 	 
C 	 -108.6 	 36.0414 	 -13.257 	 
C 	 -107.724 	 35.7422 	 -14.2321 	 
C 	 -108.402 	 35.1845 	 -15.3841 	 
C 	 -109.748 	 35.1134 	 -15.2142 	 
H 	 -107.965 	 34.8299 	 -16.3002 	 
C 	 -106.236 	 35.953 	 -14.2129 	 
H 	 -105.968 	 36.8577 	 -13.6943 	 
H 	 -105.814 	 35.8572 	 -15.2317 	 
C 	 -105.538 	 34.8623 	 -13.4068 	 
H 	 -106.06 	 34.561 	 -12.4935 	 
H 	 -105.355 	 33.9142 	 -13.9141 	 
C 	 -104.146 	 35.3434 	 -12.9681 	 
H 	 -103.456 	 34.6529 	 -12.509 	 
H 	 -103.524 	 35.802 	 -13.7615 	 
H 	 -104.248 	 36.1722 	 -12.2096 	 
S 	 -111.218 	 35.6166 	 -17.5593 	 
C 	 -111.894 	 34.214 	 -18.2911 	 
C 	 -111.78 	 33.0351 	 -17.5276 	 
C 	 -110.985 	 33.2154 	 -16.3856 	 
C 	 -110.641 	 34.5427 	 -16.2555 	 
H 	 -112.247 	 32.0683 	 -17.849 	 
C 	 -110.595 	 32.018 	 -15.5063 	 
H 	 -110.125 	 32.3621 	 -14.5488 	 
H 	 -109.845 	 31.4841 	 -16.0729 	 
C 	 -111.688 	 31.0298 	 -15.2554 	 
H 	 -111.797 	 30.51 	 -16.1855 	 
H 	 -112.602 	 31.3745 	 -14.9927 	 
C 	 -111.288 	 30.0266 	 -14.1481 	 
H 	 -110.359 	 29.5485 	 -14.4372 	 
H 	 -111.957 	 29.1841 	 -14.1701 	 
H 	 -111.276 	 30.4439 	 -13.1661 	 
H 	 -108.187 	 36.2695 	 -12.3611 	 
H 	 -112.371 	 34.1013 	 -19.2767 	 
*
