! wB97X-D3 SP def2-SVP
%pal
nprocs 24
end

* xyz 0 1
S 	 -108.693 	 64.7021 	 -13.5523 	 
C 	 -109.21 	 64.9972 	 -11.8862 	 
C 	 -108.258 	 64.6918 	 -10.9248 	 
C 	 -107.062 	 64.2764 	 -11.6238 	 
C 	 -107.031 	 64.4926 	 -12.9869 	 
H 	 -106.233 	 63.9493 	 -11.1239 	 
C 	 -108.485 	 64.6303 	 -9.4103 	 
H 	 -107.585 	 64.2625 	 -8.85047 	 
H 	 -109.328 	 63.9398 	 -9.15901 	 
C 	 -108.924 	 65.9834 	 -8.82715 	 
H 	 -108.284 	 66.7793 	 -8.94562 	 
H 	 -109.886 	 66.2767 	 -9.30751 	 
C 	 -109.256 	 65.8408 	 -7.39702 	 
H 	 -110.076 	 65.0923 	 -7.14073 	 
H 	 -108.284 	 65.6542 	 -6.84131 	 
H 	 -109.571 	 66.7943 	 -6.97274 	 
S 	 -104.382 	 64.9712 	 -13.437 	 
C 	 -103.585 	 64.2988 	 -14.7557 	 
C 	 -104.42 	 63.6154 	 -15.5823 	 
C 	 -105.766 	 63.6014 	 -15.0925 	 
C 	 -105.896 	 64.2504 	 -13.9322 	 
H 	 -103.925 	 63.2578 	 -16.5045 	 
C 	 -106.81 	 62.7513 	 -15.7133 	 
H 	 -106.499 	 62.3921 	 -16.6744 	 
H 	 -107.659 	 63.3418 	 -15.9006 	 
C 	 -107.114 	 61.4663 	 -14.9096 	 
H 	 -107.925 	 61.0395 	 -15.3526 	 
H 	 -107.385 	 61.7157 	 -13.8769 	 
C 	 -105.874 	 60.5288 	 -14.702 	 
H 	 -106.14 	 59.644 	 -14.117 	 
H 	 -105.211 	 61.0843 	 -14.008 	 
H 	 -105.294 	 60.2337 	 -15.6476 	 
H 	 -110.075 	 65.5963 	 -11.6411 	 
H 	 -102.53 	 64.427 	 -14.8758 	 
*
