! wB97X-D3 SP def2-SVP
%pal
nprocs 24
end

* xyz 0 1
S 	 -41.1524 	 17.1659 	 25.7016 	 
C 	 -41.5659 	 16.426 	 27.1795 	 
C 	 -41.9422 	 15.1038 	 26.9875 	 
C 	 -41.7204 	 14.5922 	 25.6546 	 
C 	 -41.2599 	 15.5993 	 24.7884 	 
H 	 -41.9614 	 13.5782 	 25.2543 	 
C 	 -42.6549 	 14.29 	 28.0805 	 
H 	 -41.8585 	 13.9693 	 28.8221 	 
H 	 -42.9665 	 13.395 	 27.5748 	 
C 	 -43.8402 	 15.0115 	 28.8201 	 
H 	 -43.5676 	 16.0796 	 28.9733 	 
H 	 -44.7406 	 14.9954 	 28.1301 	 
C 	 -44.3025 	 14.3429 	 30.1298 	 
H 	 -45.0155 	 14.87 	 30.6964 	 
H 	 -44.6738 	 13.3093 	 29.9426 	 
H 	 -43.3903 	 14.1615 	 30.7659 	 
S 	 -41.8038 	 15.7721 	 22.0853 	 
C 	 -40.4508 	 15.6592 	 20.9556 	 
C 	 -39.2885 	 15.4222 	 21.5706 	 
C 	 -39.3975 	 15.1861 	 22.9875 	 
C 	 -40.7077 	 15.399 	 23.4461 	 
H 	 -38.4271 	 15.4968 	 20.9127 	 
C 	 -38.1518 	 15.0074 	 23.8985 	 
H 	 -37.6193 	 14.1697 	 23.5508 	 
H 	 -38.3678 	 14.9524 	 24.9462 	 
C 	 -37.1364 	 16.1372 	 23.7174 	 
H 	 -36.8129 	 16.2602 	 22.7167 	 
H 	 -36.2122 	 15.8265 	 24.1331 	 
C 	 -37.5589 	 17.448 	 24.3242 	 
H 	 -38.3108 	 17.8939 	 23.7153 	 
H 	 -36.7199 	 18.1844 	 24.3979 	 
H 	 -37.7334 	 17.2307 	 25.388 	 
H 	 -41.6281 	 17.0301 	 28.0431 	 
H 	 -40.4918 	 15.6242 	 19.8443 	 
*
