! wB97X-D3 SP def2-SVP
%pal
nprocs 24
end

* xyz 0 1
S 	 -56.8572 	 9.80766 	 -95.5078 	 
C 	 -55.3411 	 9.11876 	 -95.8657 	 
C 	 -54.4988 	 9.0111 	 -94.774 	 
C 	 -55.0284 	 9.78888 	 -93.6697 	 
C 	 -56.2653 	 10.4496 	 -93.9477 	 
H 	 -54.4518 	 9.88387 	 -92.7268 	 
C 	 -53.1347 	 8.33792 	 -94.7434 	 
H 	 -53.1364 	 7.39964 	 -95.3854 	 
H 	 -52.8244 	 8.03866 	 -93.7232 	 
C 	 -51.9835 	 9.17936 	 -95.2982 	 
H 	 -52.301 	 9.4554 	 -96.263 	 
H 	 -51.8877 	 10.0653 	 -94.7125 	 
C 	 -50.6637 	 8.49927 	 -95.5041 	 
H 	 -50.786 	 7.85357 	 -96.3693 	 
H 	 -49.9376 	 9.22816 	 -95.7238 	 
H 	 -50.2554 	 7.8772 	 -94.7528 	 
S 	 -57.8446 	 10.4241 	 -91.7122 	 
C 	 -57.9633 	 11.9613 	 -90.8814 	 
C 	 -57.3278 	 13.0248 	 -91.5536 	 
C 	 -56.789 	 12.5927 	 -92.7837 	 
C 	 -56.9671 	 11.2368 	 -92.9558 	 
H 	 -57.3568 	 14.123 	 -91.2408 	 
C 	 -56.0241 	 13.5431 	 -93.659 	 
H 	 -56.4964 	 14.4778 	 -93.741 	 
H 	 -55.8843 	 13.2128 	 -94.6827 	 
C 	 -54.5641 	 13.8794 	 -93.2063 	 
H 	 -53.9203 	 12.9462 	 -93.1174 	 
H 	 -54.5801 	 14.3527 	 -92.2303 	 
C 	 -53.8044 	 14.7093 	 -94.2994 	 
H 	 -54.2251 	 15.6969 	 -94.5837 	 
H 	 -53.6691 	 14.011 	 -95.1318 	 
H 	 -52.7247 	 14.7871 	 -93.9823 	 
H 	 -55.0934 	 8.5531 	 -96.7368 	 
H 	 -58.5483 	 11.9372 	 -89.9758 	 
*
