! wB97X-D3 SP def2-SVP
%pal
nprocs 24
end

* xyz 0 1
S 	 -35.0958 	 -47.9555 	 -76.6691 	 
C 	 -33.515 	 -48.6544 	 -76.6605 	 
C 	 -32.7708 	 -48.1618 	 -75.6241 	 
C 	 -33.3688 	 -47.0203 	 -75.0173 	 
C 	 -34.5983 	 -46.6691 	 -75.5235 	 
H 	 -32.9647 	 -46.3773 	 -74.2067 	 
C 	 -31.2865 	 -48.4901 	 -75.4069 	 
H 	 -31.1138 	 -49.5481 	 -75.5421 	 
H 	 -30.928 	 -48.3039 	 -74.4124 	 
C 	 -30.2369 	 -47.9709 	 -76.4969 	 
H 	 -29.3656 	 -48.6143 	 -76.5742 	 
H 	 -30.6444 	 -48.1069 	 -77.4728 	 
C 	 -29.763 	 -46.4751 	 -76.3043 	 
H 	 -30.5035 	 -45.7385 	 -76.6632 	 
H 	 -29.5655 	 -46.3226 	 -75.246 	 
H 	 -28.8384 	 -46.3737 	 -76.8012 	 
S 	 -37.1074 	 -46.3475 	 -74.4342 	 
C 	 -37.5324 	 -44.7464 	 -73.8448 	 
C 	 -36.6123 	 -43.7837 	 -74.1734 	 
C 	 -35.4084 	 -44.355 	 -74.6852 	 
C 	 -35.5445 	 -45.6965 	 -75.0294 	 
H 	 -36.9156 	 -42.7734 	 -73.9326 	 
C 	 -34.1748 	 -43.5417 	 -74.9647 	 
H 	 -33.4128 	 -43.9615 	 -74.3307 	 
H 	 -34.1303 	 -42.5742 	 -74.3883 	 
C 	 -33.7427 	 -43.4553 	 -76.4317 	 
H 	 -34.5719 	 -42.8488 	 -76.8438 	 
H 	 -33.7406 	 -44.4632 	 -76.9269 	 
C 	 -32.402 	 -42.7142 	 -76.7397 	 
H 	 -32.3525 	 -41.6711 	 -76.2775 	 
H 	 -32.1709 	 -42.7008 	 -77.8008 	 
H 	 -31.5577 	 -43.319 	 -76.3638 	 
H 	 -33.2081 	 -49.4415 	 -77.2971 	 
H 	 -38.4459 	 -44.5418 	 -73.4164 	 
*
