! wB97X-D3 SP def2-SVP
%pal
nprocs 24
end

* xyz 0 1
S 	 -51.6118 	 14.48 	 24.0661 	 
C 	 -52.2776 	 12.8951 	 24.293 	 
C 	 -53.2114 	 12.8741 	 25.291 	 
C 	 -53.1756 	 14.0583 	 26.0855 	 
C 	 -52.3176 	 15.0116 	 25.5929 	 
H 	 -53.8449 	 14.3007 	 26.9386 	 
C 	 -54.1083 	 11.6388 	 25.5069 	 
H 	 -53.7854 	 11.1015 	 26.4292 	 
H 	 -54.0356 	 11.0201 	 24.5627 	 
C 	 -55.5548 	 11.8928 	 25.2691 	 
H 	 -55.9526 	 12.6176 	 25.9682 	 
H 	 -55.7403 	 12.4006 	 24.3238 	 
C 	 -56.4576 	 10.6549 	 25.218 	 
H 	 -56.1382 	 9.8787 	 24.5453 	 
H 	 -56.2617 	 10.1957 	 26.2049 	 
H 	 -57.5142 	 10.9473 	 25.0562 	 
S 	 -52.3588 	 17.7115 	 25.3572 	 
C 	 -51.661 	 18.6452 	 26.6556 	 
C 	 -51.3548 	 17.8732 	 27.738 	 
C 	 -51.5055 	 16.4667 	 27.5326 	 
C 	 -51.997 	 16.239 	 26.2471 	 
H 	 -51.0104 	 18.287 	 28.6459 	 
C 	 -51.1079 	 15.477 	 28.6401 	 
H 	 -51.0686 	 14.4724 	 28.1831 	 
H 	 -51.9444 	 15.3983 	 29.2945 	 
C 	 -49.7817 	 15.6786 	 29.5052 	 
H 	 -49.5016 	 14.8545 	 30.2715 	 
H 	 -50.0259 	 16.6073 	 30.0685 	 
C 	 -48.5637 	 15.9498 	 28.6378 	 
H 	 -48.2944 	 15.1628 	 27.9729 	 
H 	 -47.6693 	 16.1042 	 29.3022 	 
H 	 -48.6775 	 16.8412 	 28.0385 	 
H 	 -52.3225 	 12.0995 	 23.6557 	 
H 	 -51.4849 	 19.6977 	 26.781 	 
*
