! wB97X-D3 SP def2-SVP
%pal
nprocs 24
end

* xyz 0 1
S 	 -107.266 	 23.1612 	 -117.064 	 
C 	 -107.1 	 23.4465 	 -115.381 	 
C 	 -107.104 	 22.2247 	 -114.658 	 
C 	 -107.082 	 21.0988 	 -115.513 	 
C 	 -107.108 	 21.4458 	 -116.885 	 
H 	 -107.158 	 20.0382 	 -115.192 	 
C 	 -107.152 	 22.0953 	 -113.175 	 
H 	 -106.629 	 21.1731 	 -112.98 	 
H 	 -108.166 	 21.8443 	 -112.814 	 
C 	 -106.368 	 23.1898 	 -112.409 	 
H 	 -106.687 	 24.2262 	 -112.37 	 
H 	 -106.411 	 22.7952 	 -111.356 	 
C 	 -104.885 	 23.0943 	 -112.694 	 
H 	 -104.585 	 23.4038 	 -113.673 	 
H 	 -104.263 	 23.5254 	 -111.888 	 
H 	 -104.609 	 22.115 	 -112.812 	 
S 	 -108.554 	 21.0612 	 -119.169 	 
C 	 -108.641 	 19.4465 	 -119.884 	 
C 	 -107.632 	 18.6223 	 -119.411 	 
C 	 -106.956 	 19.1909 	 -118.296 	 
C 	 -107.302 	 20.5238 	 -118.026 	 
H 	 -107.561 	 17.609 	 -119.733 	 
C 	 -105.966 	 18.4291 	 -117.457 	 
H 	 -106.389 	 17.8625 	 -116.689 	 
H 	 -105.369 	 19.1404 	 -116.862 	 
C 	 -105.055 	 17.5426 	 -118.205 	 
H 	 -105.711 	 16.8607 	 -118.667 	 
H 	 -104.392 	 16.9182 	 -117.522 	 
C 	 -104.059 	 18.109 	 -119.259 	 
H 	 -103.476 	 18.9939 	 -118.948 	 
H 	 -104.604 	 18.3699 	 -120.132 	 
H 	 -103.432 	 17.3269 	 -119.682 	 
H 	 -107.12 	 24.2958 	 -114.799 	 
H 	 -109.285 	 19.1468 	 -120.694 	 
*
