! wB97X-D3 SP def2-SVP
%pal
nprocs 24
end

* xyz 0 1
S 	 -56.801 	 8.43019 	 23.8713 	 
C 	 -56.2072 	 8.96471 	 22.3982 	 
C 	 -56.8927 	 8.27873 	 21.3522 	 
C 	 -57.8894 	 7.39481 	 21.8116 	 
C 	 -57.9036 	 7.1935 	 23.1579 	 
H 	 -58.6753 	 6.87408 	 21.186 	 
C 	 -56.7451 	 8.44355 	 19.8486 	 
H 	 -56.4319 	 7.48569 	 19.4289 	 
H 	 -55.9144 	 9.09983 	 19.6475 	 
C 	 -57.9328 	 9.02973 	 19.0841 	 
H 	 -58.7637 	 8.31571 	 19.1481 	 
H 	 -58.1002 	 10.0868 	 19.3407 	 
C 	 -57.591 	 8.86499 	 17.557 	 
H 	 -56.6115 	 9.09144 	 17.1756 	 
H 	 -57.6138 	 7.7898 	 17.4668 	 
H 	 -58.2823 	 9.29882 	 16.868 	 
S 	 -60.078 	 7.29771 	 24.7846 	 
C 	 -60.7168 	 5.86019 	 25.4911 	 
C 	 -60.017 	 4.74518 	 25.1686 	 
C 	 -58.9503 	 5.07096 	 24.2789 	 
C 	 -58.8639 	 6.42977 	 23.9525 	 
H 	 -60.1465 	 3.87728 	 25.7733 	 
C 	 -57.982 	 3.99093 	 23.8388 	 
H 	 -57.1141 	 3.81449 	 24.5543 	 
H 	 -57.506 	 4.36991 	 22.9781 	 
C 	 -58.5151 	 2.64132 	 23.263 	 
H 	 -57.9266 	 2.12412 	 22.5197 	 
H 	 -59.4619 	 2.91529 	 22.769 	 
C 	 -58.8034 	 1.51878 	 24.268 	 
H 	 -57.9951 	 1.45185 	 25.0233 	 
H 	 -59.1187 	 0.590917 	 23.7018 	 
H 	 -59.6786 	 1.71294 	 24.8613 	 
H 	 -55.5358 	 9.73787 	 22.2138 	 
H 	 -61.462 	 5.8425 	 26.3067 	 
*
