! wB97X-D3 SP def2-SVP
%pal
nprocs 24
end

* xyz 0 1
S 	 -33.4783 	 10.7716 	 6.41933 	 
C 	 -34.4979 	 12.0371 	 5.74686 	 
C 	 -33.8142 	 13.2159 	 5.82669 	 
C 	 -32.4803 	 13.1154 	 6.2736 	 
C 	 -32.1282 	 11.8046 	 6.6255 	 
H 	 -31.7256 	 13.8064 	 6.61588 	 
C 	 -34.414 	 14.6203 	 5.53354 	 
H 	 -35.2482 	 14.8132 	 6.24928 	 
H 	 -34.8761 	 14.6615 	 4.51965 	 
C 	 -33.5022 	 15.7824 	 5.78018 	 
H 	 -33.1234 	 15.8587 	 6.78907 	 
H 	 -32.6637 	 15.5254 	 5.15264 	 
C 	 -34.1303 	 17.1374 	 5.55742 	 
H 	 -34.5137 	 17.4814 	 6.55053 	 
H 	 -33.367 	 17.7666 	 5.17066 	 
H 	 -34.9102 	 17.1904 	 4.80013 	 
S 	 -31.1209 	 11.093 	 9.10544 	 
C 	 -29.3803 	 10.9235 	 9.36483 	 
C 	 -28.725 	 11.0791 	 8.11614 	 
C 	 -29.6105 	 11.4376 	 7.02478 	 
C 	 -30.9697 	 11.3762 	 7.36948 	 
H 	 -27.6318 	 11.1256 	 7.97738 	 
C 	 -29.028 	 11.8358 	 5.73927 	 
H 	 -28.0061 	 12.198 	 5.82705 	 
H 	 -29.3845 	 12.8357 	 5.5253 	 
C 	 -29.1454 	 10.7788 	 4.66454 	 
H 	 -28.6352 	 11.0741 	 3.72867 	 
H 	 -30.1721 	 10.5678 	 4.39569 	 
C 	 -28.4571 	 9.45592 	 4.99003 	 
H 	 -28.643 	 8.7555 	 4.17177 	 
H 	 -28.8169 	 8.88506 	 5.89042 	 
H 	 -27.318 	 9.60432 	 5.11924 	 
H 	 -35.5966 	 11.938 	 5.64878 	 
H 	 -28.9841 	 10.9479 	 10.3525 	 
*
