! wB97X-D3 SP def2-SVP
%pal
nprocs 24
end

* xyz 0 1
S 	 -56.6099 	 16.4072 	 -91.0819 	 
C 	 -54.8813 	 16.6878 	 -90.9621 	 
C 	 -54.0935 	 15.7774 	 -91.5889 	 
C 	 -54.9048 	 14.812 	 -92.2234 	 
C 	 -56.2632 	 14.944 	 -92.0036 	 
H 	 -54.6516 	 14.1573 	 -92.9482 	 
C 	 -52.5754 	 15.6579 	 -91.6368 	 
H 	 -52.3515 	 14.6147 	 -91.7562 	 
H 	 -52.2576 	 15.9117 	 -90.6659 	 
C 	 -51.8515 	 16.511 	 -92.6861 	 
H 	 -52.1801 	 17.5147 	 -92.7155 	 
H 	 -50.7388 	 16.5375 	 -92.3927 	 
C 	 -51.8465 	 15.8748 	 -94.1032 	 
H 	 -51.3528 	 16.4313 	 -94.8453 	 
H 	 -51.418 	 14.871 	 -94.0817 	 
H 	 -52.837 	 15.6802 	 -94.5244 	 
S 	 -58.3527 	 15.0981 	 -93.7411 	 
C 	 -59.2894 	 13.7186 	 -94.1798 	 
C 	 -58.9529 	 12.6305 	 -93.3721 	 
C 	 -57.901 	 12.8649 	 -92.4493 	 
C 	 -57.3983 	 14.1939 	 -92.5876 	 
H 	 -59.3041 	 11.6548 	 -93.579 	 
C 	 -57.2521 	 11.7054 	 -91.6768 	 
H 	 -58.0203 	 11.1163 	 -91.1694 	 
H 	 -56.5011 	 12.14 	 -91.0067 	 
C 	 -56.6124 	 10.7789 	 -92.7352 	 
H 	 -55.8044 	 11.2609 	 -93.3043 	 
H 	 -57.3132 	 10.4907 	 -93.4523 	 
C 	 -56.0578 	 9.50734 	 -92.0864 	 
H 	 -55.2008 	 9.61074 	 -91.4414 	 
H 	 -55.7245 	 8.89702 	 -92.8673 	 
H 	 -56.8657 	 8.93325 	 -91.4727 	 
H 	 -54.4716 	 17.461 	 -90.3188 	 
H 	 -60.0034 	 13.783 	 -95.0454 	 
*
