! wB97X-D3 SP def2-SVP
%pal
nprocs 24
end

* xyz 0 1
S 	 -122.575 	 66.0509 	 -62.2753 	 
C 	 -124.216 	 65.6573 	 -62.8121 	 
C 	 -124.996 	 64.9361 	 -61.8322 	 
C 	 -124.202 	 64.707 	 -60.6896 	 
C 	 -122.879 	 64.9929 	 -60.8791 	 
H 	 -124.575 	 64.2076 	 -59.8299 	 
C 	 -126.436 	 64.5472 	 -61.9477 	 
H 	 -126.82 	 65.0905 	 -62.8056 	 
H 	 -126.893 	 64.8908 	 -60.9854 	 
C 	 -126.744 	 63.0719 	 -62.0984 	 
H 	 -127.739 	 62.8969 	 -62.5059 	 
H 	 -125.959 	 62.8145 	 -62.8366 	 
C 	 -126.502 	 62.1252 	 -60.898 	 
H 	 -127.034 	 62.6186 	 -60.1013 	 
H 	 -126.864 	 61.0688 	 -61.1068 	 
H 	 -125.454 	 62.0434 	 -60.6922 	 
S 	 -120.607 	 65.6834 	 -59.4252 	 
C 	 -119.836 	 64.5062 	 -58.3597 	 
C 	 -120.511 	 63.2886 	 -58.4814 	 
C 	 -121.626 	 63.3139 	 -59.3785 	 
C 	 -121.82 	 64.5498 	 -59.9787 	 
H 	 -120.156 	 62.4444 	 -57.9565 	 
C 	 -122.389 	 62.0613 	 -59.6842 	 
H 	 -123.458 	 62.2127 	 -59.7308 	 
H 	 -122.228 	 61.5002 	 -58.7468 	 
C 	 -121.915 	 61.2073 	 -60.8821 	 
H 	 -122.129 	 61.7149 	 -61.8639 	 
H 	 -122.498 	 60.3202 	 -60.852 	 
C 	 -120.53 	 60.6402 	 -60.7741 	 
H 	 -120.503 	 59.6641 	 -60.9623 	 
H 	 -120.039 	 60.8182 	 -59.7668 	 
H 	 -119.96 	 61.2701 	 -61.4423 	 
H 	 -124.436 	 65.9238 	 -63.857 	 
H 	 -119.024 	 64.8053 	 -57.6491 	 
*
