! wB97X-D3 SP def2-SVP
%pal
nprocs 24
end

* xyz 0 1
S 	 -107.344 	 51.0698 	 -8.21764 	 
C 	 -106.937 	 52.583 	 -8.93554 	 
C 	 -105.894 	 52.4324 	 -9.84227 	 
C 	 -105.39 	 51.1041 	 -9.89782 	 
C 	 -106.134 	 50.2211 	 -9.1384 	 
H 	 -104.623 	 50.7416 	 -10.5543 	 
C 	 -105.477 	 53.5464 	 -10.7204 	 
H 	 -104.384 	 53.6625 	 -10.4203 	 
H 	 -105.993 	 54.5324 	 -10.494 	 
C 	 -105.494 	 53.3527 	 -12.2418 	 
H 	 -104.833 	 54.0265 	 -12.7534 	 
H 	 -105.02 	 52.4527 	 -12.516 	 
C 	 -106.909 	 53.4874 	 -12.8347 	 
H 	 -107.359 	 54.4343 	 -12.515 	 
H 	 -106.903 	 53.3774 	 -13.8981 	 
H 	 -107.505 	 52.6636 	 -12.3636 	 
S 	 -106.573 	 48.0805 	 -7.53197 	 
C 	 -106.098 	 46.4474 	 -8.05055 	 
C 	 -105.404 	 46.5778 	 -9.2582 	 
C 	 -105.41 	 47.8823 	 -9.85861 	 
C 	 -105.963 	 48.8466 	 -9.01004 	 
H 	 -104.984 	 45.7789 	 -9.70215 	 
C 	 -104.828 	 48.2324 	 -11.2746 	 
H 	 -103.837 	 48.668 	 -11.2451 	 
H 	 -105.469 	 49.1082 	 -11.6641 	 
C 	 -104.954 	 47.1209 	 -12.3848 	 
H 	 -104.34 	 46.2401 	 -12.101 	 
H 	 -104.454 	 47.3856 	 -13.2551 	 
C 	 -106.366 	 46.6719 	 -12.7452 	 
H 	 -106.377 	 45.7909 	 -13.3622 	 
H 	 -107.031 	 47.4514 	 -13.1232 	 
H 	 -106.882 	 46.2766 	 -11.8592 	 
H 	 -107.498 	 53.5164 	 -8.79644 	 
H 	 -106.258 	 45.4873 	 -7.54589 	 
*
