! wB97X-D3 SP def2-SVP
%pal
nprocs 24
end

* xyz 0 1
S 	 -117.114 	 15.1257 	 -6.09957 	 
C 	 -116.298 	 14.2426 	 -4.85789 	 
C 	 -115.777 	 13.0275 	 -5.26958 	 
C 	 -115.842 	 12.9258 	 -6.76113 	 
C 	 -116.7 	 13.9042 	 -7.26735 	 
H 	 -115.554 	 12.0858 	 -7.43328 	 
C 	 -114.847 	 12.1667 	 -4.45251 	 
H 	 -114.015 	 12.8851 	 -4.01234 	 
H 	 -114.281 	 11.4986 	 -5.15065 	 
C 	 -115.557 	 11.3679 	 -3.35787 	 
H 	 -116.153 	 12.0614 	 -2.71384 	 
H 	 -116.158 	 10.6987 	 -3.92469 	 
C 	 -114.673 	 10.5485 	 -2.48177 	 
H 	 -114.936 	 10.32 	 -1.51254 	 
H 	 -114.352 	 9.67148 	 -2.98376 	 
H 	 -113.666 	 11.0187 	 -2.42098 	 
S 	 -116.278 	 15.4779 	 -9.53311 	 
C 	 -116.875 	 14.9713 	 -11.0855 	 
C 	 -117.431 	 13.7086 	 -11.0029 	 
C 	 -117.608 	 13.2768 	 -9.63861 	 
C 	 -116.947 	 14.0758 	 -8.72512 	 
H 	 -117.832 	 13.1845 	 -11.8529 	 
C 	 -118.2 	 11.9055 	 -9.39145 	 
H 	 -117.73 	 11.4676 	 -8.48131 	 
H 	 -117.897 	 11.27 	 -10.2142 	 
C 	 -119.723 	 11.9847 	 -9.287 	 
H 	 -120.238 	 11.0304 	 -9.23221 	 
H 	 -120.081 	 12.516 	 -10.1353 	 
C 	 -120.075 	 12.7335 	 -7.97453 	 
H 	 -119.528 	 12.2551 	 -7.16895 	 
H 	 -121.127 	 12.6804 	 -7.72026 	 
H 	 -119.886 	 13.8252 	 -8.00739 	 
H 	 -116.126 	 14.56 	 -3.83193 	 
H 	 -116.642 	 15.4671 	 -12.0555 	 
*
