! wB97X-D3 SP def2-SVP
%pal
nprocs 24
end

* xyz 0 1
S 	 -122.495 	 52.7943 	 -33.9199 	 
C 	 -121.498 	 52.2924 	 -35.1802 	 
C 	 -121.351 	 50.8957 	 -35.331 	 
C 	 -122.064 	 50.2778 	 -34.2238 	 
C 	 -122.76 	 51.1807 	 -33.3944 	 
H 	 -122.044 	 49.2144 	 -33.8564 	 
C 	 -120.463 	 50.0913 	 -36.32 	 
H 	 -119.452 	 49.9485 	 -35.8598 	 
H 	 -120.319 	 50.8666 	 -37.1907 	 
C 	 -120.92 	 48.763 	 -36.9188 	 
H 	 -120.046 	 48.2041 	 -37.35 	 
H 	 -121.359 	 48.1118 	 -36.1655 	 
C 	 -122.039 	 48.9406 	 -38.038 	 
H 	 -122.77 	 49.6733 	 -37.7715 	 
H 	 -121.541 	 49.4082 	 -38.9222 	 
H 	 -122.548 	 48.0755 	 -38.2834 	 
S 	 -123.1 	 51.4339 	 -30.7219 	 
C 	 -124.433 	 50.6762 	 -29.8939 	 
C 	 -125.054 	 49.7792 	 -30.7305 	 
C 	 -124.701 	 49.91 	 -32.0921 	 
C 	 -123.659 	 50.8512 	 -32.2802 	 
H 	 -125.733 	 49.0976 	 -30.4218 	 
C 	 -125.529 	 49.1618 	 -33.1534 	 
H 	 -125.811 	 48.1601 	 -32.8437 	 
H 	 -124.886 	 49.1705 	 -34.0905 	 
C 	 -126.78 	 49.856 	 -33.6781 	 
H 	 -127.174 	 49.1997 	 -34.4921 	 
H 	 -126.495 	 50.8133 	 -34.0603 	 
C 	 -128.046 	 49.9969 	 -32.7829 	 
H 	 -128.738 	 50.5846 	 -33.2813 	 
H 	 -127.749 	 50.4834 	 -31.8745 	 
H 	 -128.398 	 48.9427 	 -32.6182 	 
H 	 -120.804 	 53.0696 	 -35.6931 	 
H 	 -124.562 	 50.742 	 -28.8335 	 
*
