! wB97X-D3 SP def2-SVP
%pal
nprocs 24
end

* xyz 0 1
S 	 -35.2106 	 3.24823 	 0.819957 	 
C 	 -35.9125 	 1.81222 	 0.168692 	 
C 	 -36.2356 	 0.882597 	 1.18594 	 
C 	 -35.9815 	 1.40226 	 2.50426 	 
C 	 -35.3986 	 2.67094 	 2.45715 	 
H 	 -36.143 	 0.879282 	 3.47998 	 
C 	 -36.9055 	 -0.421358 	 0.921918 	 
H 	 -37.4654 	 -0.303568 	 -0.0135439 	 
H 	 -37.604 	 -0.742641 	 1.64629 	 
C 	 -35.8861 	 -1.61281 	 0.691535 	 
H 	 -35.1987 	 -1.50527 	 -0.124674 	 
H 	 -35.251 	 -1.76898 	 1.62215 	 
C 	 -36.7065 	 -2.86422 	 0.353832 	 
H 	 -36.0667 	 -3.64599 	 -0.0536326 	 
H 	 -37.2235 	 -3.23784 	 1.22125 	 
H 	 -37.4021 	 -2.68384 	 -0.481618 	 
S 	 -35.9712 	 5.00108 	 3.67338 	 
C 	 -35.5246 	 5.19923 	 5.46919 	 
C 	 -34.8451 	 4.04394 	 5.92168 	 
C 	 -34.6333 	 3.03906 	 4.8735 	 
C 	 -35.0653 	 3.46437 	 3.59596 	 
H 	 -34.5918 	 3.85865 	 6.95207 	 
C 	 -33.9337 	 1.73548 	 5.18688 	 
H 	 -33.7445 	 1.11442 	 4.35651 	 
H 	 -34.5756 	 1.11287 	 5.81047 	 
C 	 -32.5733 	 1.88839 	 5.86328 	 
H 	 -32.1577 	 0.88394 	 6.13456 	 
H 	 -32.5871 	 2.57202 	 6.71038 	 
C 	 -31.5473 	 2.64312 	 4.98158 	 
H 	 -31.1578 	 2.08866 	 4.12213 	 
H 	 -30.712 	 3.00902 	 5.52567 	 
H 	 -31.9925 	 3.51949 	 4.45088 	 
H 	 -36.0445 	 1.57784 	 -0.904807 	 
H 	 -35.5617 	 5.99794 	 6.07589 	 
*
