! wB97X-D3 SP def2-SVP
%pal
nprocs 24
end

* xyz 0 1
S 	 -127.55 	 70.4388 	 -61.4166 	 
C 	 -126.49 	 71.853 	 -61.4615 	 
C 	 -126.666 	 72.5732 	 -62.6451 	 
C 	 -127.436 	 71.7915 	 -63.5845 	 
C 	 -128.016 	 70.6619 	 -63.0351 	 
H 	 -127.689 	 72.1765 	 -64.6022 	 
C 	 -126.168 	 73.9311 	 -63.0397 	 
H 	 -125.364 	 74.2412 	 -62.3339 	 
H 	 -127.154 	 74.4832 	 -62.9099 	 
C 	 -125.794 	 74.197 	 -64.4869 	 
H 	 -126.624 	 73.9804 	 -65.1993 	 
H 	 -125.572 	 75.2605 	 -64.5562 	 
C 	 -124.574 	 73.34 	 -64.9681 	 
H 	 -123.79 	 73.4234 	 -64.2762 	 
H 	 -124.954 	 72.3011 	 -65.057 	 
H 	 -124.257 	 73.6048 	 -66.0264 	 
S 	 -130.136 	 68.7896 	 -62.7412 	 
C 	 -130.802 	 67.9082 	 -64.114 	 
C 	 -130.147 	 68.2761 	 -65.2818 	 
C 	 -129.056 	 69.1756 	 -65.0545 	 
C 	 -128.921 	 69.6314 	 -63.731 	 
H 	 -130.398 	 67.7574 	 -66.164 	 
C 	 -128.176 	 69.6849 	 -66.2546 	 
H 	 -127.784 	 70.6564 	 -65.9176 	 
H 	 -128.8 	 69.9407 	 -67.1675 	 
C 	 -127.19 	 68.6333 	 -66.6905 	 
H 	 -126.416 	 69.0605 	 -67.4123 	 
H 	 -127.719 	 67.8498 	 -67.2324 	 
C 	 -126.371 	 67.9906 	 -65.5909 	 
H 	 -125.55 	 67.3047 	 -65.7987 	 
H 	 -127.057 	 67.3838 	 -64.9843 	 
H 	 -125.997 	 68.809 	 -64.9387 	 
H 	 -125.999 	 72.2928 	 -60.6151 	 
H 	 -131.664 	 67.2521 	 -63.976 	 
*
