! wB97X-D3 SP def2-SVP
%pal
nprocs 24
end

* xyz 0 1
S 	 -131.613 	 8.37528 	 -8.29983 	 
C 	 -130.154 	 7.4473 	 -8.43772 	 
C 	 -129.488 	 7.80921 	 -9.62429 	 
C 	 -130.172 	 8.70456 	 -10.4946 	 
C 	 -131.308 	 9.16709 	 -9.91379 	 
H 	 -129.813 	 9.18745 	 -11.3745 	 
C 	 -128.184 	 7.22316 	 -10.0987 	 
H 	 -128.395 	 6.7167 	 -11.0057 	 
H 	 -127.986 	 6.3664 	 -9.53 	 
C 	 -126.941 	 8.22245 	 -10.0965 	 
H 	 -126.128 	 7.67619 	 -10.5165 	 
H 	 -127.147 	 9.07368 	 -10.805 	 
C 	 -126.725 	 8.75126 	 -8.7097 	 
H 	 -127.569 	 9.26638 	 -8.26385 	 
H 	 -126.396 	 8.0372 	 -7.97485 	 
H 	 -125.918 	 9.48576 	 -8.79161 	 
S 	 -132.892 	 11.3498 	 -9.32807 	 
C 	 -133.758 	 12.1736 	 -10.5975 	 
C 	 -133.445 	 11.6657 	 -11.8329 	 
C 	 -132.557 	 10.4741 	 -11.774 	 
C 	 -132.267 	 10.1693 	 -10.462 	 
H 	 -133.849 	 12.0907 	 -12.6872 	 
C 	 -132.132 	 9.6569 	 -13.0197 	 
H 	 -132.046 	 8.57949 	 -12.8697 	 
H 	 -131.082 	 10.0297 	 -13.022 	 
C 	 -132.866 	 10.0116 	 -14.2506 	 
H 	 -132.646 	 10.999 	 -14.5164 	 
H 	 -133.957 	 9.87569 	 -14.2298 	 
C 	 -132.315 	 9.20876 	 -15.3775 	 
H 	 -132.832 	 9.53898 	 -16.2996 	 
H 	 -132.403 	 8.12518 	 -15.3598 	 
H 	 -131.287 	 9.60014 	 -15.6525 	 
H 	 -129.757 	 6.71966 	 -7.75383 	 
H 	 -134.441 	 13.0158 	 -10.3951 	 
*
