! wB97X-D3 SP def2-SVP
%pal
nprocs 24
end

* xyz 0 1
S 	 -100.359 	 -1.92242 	 -107.674 	 
C 	 -99.2537 	 -2.57778 	 -108.832 	 
C 	 -99.7298 	 -3.70493 	 -109.526 	 
C 	 -101.072 	 -3.95686 	 -109.106 	 
C 	 -101.419 	 -3.25953 	 -108.022 	 
H 	 -101.754 	 -4.59042 	 -109.573 	 
C 	 -99.1244 	 -4.34932 	 -110.733 	 
H 	 -98.0765 	 -4.00443 	 -110.827 	 
H 	 -99.5934 	 -4.02988 	 -111.664 	 
C 	 -99.0639 	 -5.89748 	 -110.734 	 
H 	 -100.098 	 -6.3312 	 -110.601 	 
H 	 -98.8155 	 -6.29809 	 -111.758 	 
C 	 -98.0521 	 -6.4524 	 -109.704 	 
H 	 -97.0007 	 -6.18615 	 -109.816 	 
H 	 -98.2112 	 -6.12237 	 -108.661 	 
H 	 -98.0802 	 -7.56321 	 -109.833 	 
S 	 -103.733 	 -2.22458 	 -106.725 	 
C 	 -104.438 	 -3.17255 	 -105.503 	 
C 	 -103.982 	 -4.45421 	 -105.56 	 
C 	 -102.907 	 -4.70569 	 -106.47 	 
C 	 -102.61 	 -3.51037 	 -107.144 	 
H 	 -104.363 	 -5.24537 	 -104.882 	 
C 	 -102.124 	 -6.05199 	 -106.573 	 
H 	 -102.107 	 -6.39411 	 -107.669 	 
H 	 -102.704 	 -6.87245 	 -106.168 	 
C 	 -100.723 	 -6.0149 	 -105.847 	 
H 	 -100.748 	 -5.51447 	 -104.841 	 
H 	 -99.9793 	 -5.51205 	 -106.497 	 
C 	 -100.169 	 -7.42211 	 -105.646 	 
H 	 -100.364 	 -7.7763 	 -104.601 	 
H 	 -99.1009 	 -7.55757 	 -105.939 	 
H 	 -100.731 	 -8.02809 	 -106.331 	 
H 	 -98.2493 	 -2.07117 	 -108.995 	 
H 	 -105.187 	 -2.70348 	 -104.858 	 
*
