! wB97X-D3 SP def2-SVP
%pal
nprocs 24
end

* xyz 0 1
S 	 -42.865 	 -3.34789 	 17.0714 	 
C 	 -43.0563 	 -1.85498 	 16.1887 	 
C 	 -43.6218 	 -2.1054 	 14.9655 	 
C 	 -43.8525 	 -3.49135 	 14.6559 	 
C 	 -43.3836 	 -4.30486 	 15.6667 	 
H 	 -44.2764 	 -3.91149 	 13.771 	 
C 	 -44.0128 	 -1.01494 	 14.03 	 
H 	 -43.7578 	 -1.07462 	 12.9888 	 
H 	 -43.365 	 -0.138449 	 14.2401 	 
C 	 -45.5042 	 -0.559188 	 14.1874 	 
H 	 -46.223 	 -1.38088 	 14.1364 	 
H 	 -45.6421 	 -0.324245 	 15.2578 	 
C 	 -45.8193 	 0.569765 	 13.2236 	 
H 	 -44.8976 	 1.18541 	 13.0309 	 
H 	 -46.0846 	 0.120993 	 12.2641 	 
H 	 -46.6096 	 1.18159 	 13.6996 	 
S 	 -44.6234 	 -6.6154 	 16.5052 	 
C 	 -44.0335 	 -8.12228 	 16.1391 	 
C 	 -42.72 	 -8.10184 	 15.7264 	 
C 	 -42.3647 	 -6.73311 	 15.4809 	 
C 	 -43.3735 	 -5.7747 	 15.7096 	 
H 	 -42.057 	 -8.96398 	 15.6226 	 
C 	 -40.9247 	 -6.4083 	 15.1524 	 
H 	 -40.3314 	 -7.15935 	 15.6259 	 
H 	 -40.7816 	 -5.44258 	 15.6603 	 
C 	 -40.6538 	 -6.25756 	 13.6356 	 
H 	 -40.7424 	 -5.13933 	 13.4819 	 
H 	 -41.4667 	 -6.72972 	 13.0315 	 
C 	 -39.2407 	 -6.73426 	 13.3398 	 
H 	 -38.5936 	 -6.16865 	 14.0213 	 
H 	 -38.9893 	 -6.46418 	 12.3129 	 
H 	 -39.2072 	 -7.86139 	 13.4623 	 
H 	 -42.8578 	 -0.845413 	 16.4846 	 
H 	 -44.5245 	 -9.14861 	 16.4157 	 
*
