! wB97X-D3 SP def2-SVP
%pal
nprocs 24
end

* xyz 0 1
S 	 -105.379 	 10.9729 	 -8.65461 	 
C 	 -104.58 	 12.5052 	 -8.85979 	 
C 	 -104.667 	 13.2522 	 -7.70181 	 
C 	 -105.343 	 12.6006 	 -6.67129 	 
C 	 -105.992 	 11.4672 	 -7.1036 	 
H 	 -105.523 	 13.0118 	 -5.69874 	 
C 	 -104.097 	 14.6391 	 -7.5132 	 
H 	 -104.629 	 15.1333 	 -6.64824 	 
H 	 -104.406 	 15.2192 	 -8.38237 	 
C 	 -102.575 	 14.663 	 -7.34311 	 
H 	 -102.168 	 14.022 	 -8.08036 	 
H 	 -102.307 	 15.6756 	 -7.54101 	 
C 	 -102.164 	 14.3759 	 -5.9347 	 
H 	 -102.629 	 15.0656 	 -5.23565 	 
H 	 -102.397 	 13.3691 	 -5.67577 	 
H 	 -101.092 	 14.5926 	 -5.79048 	 
S 	 -108.288 	 9.93643 	 -7.5064 	 
C 	 -109.41 	 9.59425 	 -6.19426 	 
C 	 -108.953 	 10.0716 	 -4.98616 	 
C 	 -107.622 	 10.6464 	 -5.08545 	 
C 	 -107.096 	 10.7331 	 -6.44433 	 
H 	 -109.542 	 9.89911 	 -4.06942 	 
C 	 -106.992 	 11.1674 	 -3.8631 	 
H 	 -107.578 	 11.0963 	 -3.00565 	 
H 	 -106.977 	 12.2287 	 -3.98764 	 
C 	 -105.623 	 10.5589 	 -3.58201 	 
H 	 -105.013 	 10.624 	 -4.50314 	 
H 	 -105.742 	 9.52363 	 -3.33632 	 
C 	 -104.851 	 11.1 	 -2.36879 	 
H 	 -105.545 	 11.4616 	 -1.58025 	 
H 	 -104.177 	 11.9258 	 -2.61684 	 
H 	 -104.205 	 10.3954 	 -1.90987 	 
H 	 -103.968 	 12.8015 	 -9.69201 	 
H 	 -110.408 	 9.28431 	 -6.42841 	 
*
