! wB97X-D3 SP def2-SVP
%pal
nprocs 24
end

* xyz 0 1
S 	 -29.1232 	 -38.8691 	 -91.5654 	 
C 	 -29.1583 	 -37.1658 	 -91.9392 	 
C 	 -30.2557 	 -36.4826 	 -91.3745 	 
C 	 -31.0602 	 -37.3928 	 -90.6773 	 
C 	 -30.5906 	 -38.6761 	 -90.6011 	 
H 	 -31.9919 	 -37.0892 	 -90.1518 	 
C 	 -30.5326 	 -35.0593 	 -91.5984 	 
H 	 -31.5744 	 -35.0958 	 -91.8916 	 
H 	 -29.9317 	 -34.6488 	 -92.4099 	 
C 	 -30.3373 	 -34.1152 	 -90.3804 	 
H 	 -30.7679 	 -33.1984 	 -90.7232 	 
H 	 -30.9868 	 -34.2814 	 -89.5198 	 
C 	 -28.8274 	 -34.0927 	 -90.0133 	 
H 	 -28.7217 	 -33.2329 	 -89.3379 	 
H 	 -28.4359 	 -35.0834 	 -89.6688 	 
H 	 -28.2232 	 -33.8731 	 -90.8535 	 
S 	 -30.506 	 -40.6433 	 -88.5374 	 
C 	 -31.9852 	 -41.4185 	 -88.2257 	 
C 	 -33.0146 	 -41.1869 	 -89.1023 	 
C 	 -32.5574 	 -40.2654 	 -90.1338 	 
C 	 -31.2793 	 -39.7417 	 -89.8987 	 
H 	 -33.9531 	 -41.7399 	 -89.0278 	 
C 	 -33.4151 	 -40.0381 	 -91.3793 	 
H 	 -33.661 	 -38.969 	 -91.3078 	 
H 	 -34.4132 	 -40.4987 	 -91.2939 	 
C 	 -32.8321 	 -40.5546 	 -92.7242 	 
H 	 -32.1563 	 -39.7476 	 -93.0615 	 
H 	 -33.5675 	 -40.5182 	 -93.4695 	 
C 	 -32.1819 	 -41.9912 	 -92.7043 	 
H 	 -32.0825 	 -42.3182 	 -93.7617 	 
H 	 -32.7619 	 -42.6081 	 -92.0535 	 
H 	 -31.1272 	 -41.8882 	 -92.3062 	 
H 	 -28.4322 	 -36.7265 	 -92.5093 	 
H 	 -32.1521 	 -42.1179 	 -87.3975 	 
*
