! wB97X-D3 SP def2-SVP
%pal
nprocs 24
end

* xyz 0 1
S 	 -91.0328 	 -12.4752 	 -117.69 	 
C 	 -89.4575 	 -13.1009 	 -117.642 	 
C 	 -88.5962 	 -12.1176 	 -118.128 	 
C 	 -89.2166 	 -10.8673 	 -118.247 	 
C 	 -90.5409 	 -10.8864 	 -117.997 	 
H 	 -88.6866 	 -9.96531 	 -118.651 	 
C 	 -87.1321 	 -12.3084 	 -118.32 	 
H 	 -86.8432 	 -13.412 	 -118.315 	 
H 	 -86.7058 	 -11.8337 	 -117.415 	 
C 	 -86.491 	 -11.6869 	 -119.559 	 
H 	 -86.6563 	 -10.6099 	 -119.548 	 
H 	 -85.3907 	 -11.7968 	 -119.658 	 
C 	 -86.9706 	 -12.2797 	 -120.862 	 
H 	 -86.7798 	 -11.6379 	 -121.747 	 
H 	 -86.3975 	 -13.2197 	 -120.991 	 
H 	 -87.9968 	 -12.6795 	 -120.857 	 
S 	 -92.2599 	 -9.62778 	 -116.303 	 
C 	 -92.9695 	 -8.16302 	 -116.859 	 
C 	 -92.7551 	 -7.88803 	 -118.155 	 
C 	 -91.7771 	 -8.73828 	 -118.71 	 
C 	 -91.4551 	 -9.74675 	 -117.854 	 
H 	 -93.1189 	 -6.98102 	 -118.617 	 
C 	 -91.284 	 -8.52298 	 -120.135 	 
H 	 -92.209 	 -8.39508 	 -120.697 	 
H 	 -90.844 	 -9.42188 	 -120.595 	 
C 	 -90.2596 	 -7.367 	 -120.177 	 
H 	 -89.424 	 -7.61384 	 -119.486 	 
H 	 -90.6782 	 -6.45334 	 -119.79 	 
C 	 -89.8209 	 -7.0026 	 -121.583 	 
H 	 -89.1552 	 -7.78951 	 -121.988 	 
H 	 -89.3282 	 -6.03762 	 -121.625 	 
H 	 -90.7557 	 -6.92191 	 -122.169 	 
H 	 -89.2121 	 -14.1679 	 -117.622 	 
H 	 -93.7003 	 -7.63202 	 -116.32 	 
*
