! wB97X-D3 SP def2-SVP
%pal
nprocs 24
end

* xyz 0 1
S 	 -68.6988 	 -41.2218 	 -92.2538 	 
C 	 -68.4799 	 -39.729 	 -93.1638 	 
C 	 -68.6786 	 -39.9401 	 -94.5062 	 
C 	 -69.0563 	 -41.3133 	 -94.7994 	 
C 	 -69.1239 	 -42.1586 	 -93.6804 	 
H 	 -69.2625 	 -41.626 	 -95.8018 	 
C 	 -68.726 	 -38.899 	 -95.5435 	 
H 	 -68.9042 	 -38.0091 	 -94.8848 	 
H 	 -69.6878 	 -38.9978 	 -96.1192 	 
C 	 -67.5836 	 -38.7024 	 -96.5288 	 
H 	 -67.6985 	 -37.7012 	 -97.0259 	 
H 	 -66.6843 	 -38.5964 	 -95.9433 	 
C 	 -67.5337 	 -39.871 	 -97.4724 	 
H 	 -68.4989 	 -40.0434 	 -98.02 	 
H 	 -66.8166 	 -39.6758 	 -98.2438 	 
H 	 -67.2337 	 -40.8736 	 -97.0445 	 
S 	 -67.7904 	 -44.5211 	 -92.8009 	 
C 	 -68.5953 	 -46.0169 	 -93.0844 	 
C 	 -69.7196 	 -45.8554 	 -93.8803 	 
C 	 -70.0213 	 -44.5279 	 -94.2355 	 
C 	 -69.0802 	 -43.6084 	 -93.6485 	 
H 	 -70.3358 	 -46.7378 	 -94.1276 	 
C 	 -71.1184 	 -44.243 	 -95.213 	 
H 	 -71.1797 	 -43.1355 	 -95.2822 	 
H 	 -72.0179 	 -44.6978 	 -94.9576 	 
C 	 -70.8571 	 -44.8234 	 -96.5866 	 
H 	 -71.247 	 -45.861 	 -96.7872 	 
H 	 -69.8348 	 -44.6757 	 -96.7268 	 
C 	 -71.5581 	 -44.0161 	 -97.7253 	 
H 	 -72.6541 	 -44.0714 	 -97.7153 	 
H 	 -71.3583 	 -44.4892 	 -98.6834 	 
H 	 -71.2963 	 -42.9893 	 -97.8528 	 
H 	 -68.4079 	 -38.829 	 -92.6239 	 
H 	 -68.2264 	 -46.945 	 -92.6811 	 
*
