! wB97X-D3 SP def2-SVP
%pal
nprocs 24
end

* xyz 0 1
S 	 -48.4713 	 -2.80418 	 19.6503 	 
C 	 -50.0561 	 -2.81205 	 19.016 	 
C 	 -50.2409 	 -4.06476 	 18.3716 	 
C 	 -49.0997 	 -4.91175 	 18.4598 	 
C 	 -48.0372 	 -4.38225 	 19.1826 	 
H 	 -49.0197 	 -5.88769 	 17.8926 	 
C 	 -51.4801 	 -4.67669 	 17.6797 	 
H 	 -52.4351 	 -4.25227 	 17.9516 	 
H 	 -51.4723 	 -5.67404 	 17.9905 	 
C 	 -51.5275 	 -4.43544 	 16.1835 	 
H 	 -51.5247 	 -3.36654 	 15.9518 	 
H 	 -50.5406 	 -4.69994 	 15.7732 	 
C 	 -52.5853 	 -5.1909 	 15.4113 	 
H 	 -52.3947 	 -6.16127 	 15.5098 	 
H 	 -53.6369 	 -4.97676 	 15.6949 	 
H 	 -52.5708 	 -4.91823 	 14.346 	 
S 	 -45.6618 	 -5.57802 	 18.1714 	 
C 	 -44.5205 	 -6.03224 	 19.4295 	 
C 	 -44.8335 	 -5.66794 	 20.7195 	 
C 	 -46.1166 	 -5.13734 	 20.7695 	 
C 	 -46.7406 	 -5.00045 	 19.5197 	 
H 	 -44.1168 	 -5.9244 	 21.5566 	 
C 	 -46.7104 	 -4.84271 	 22.1099 	 
H 	 -47.7418 	 -4.55792 	 21.8441 	 
H 	 -46.2014 	 -3.93591 	 22.5236 	 
C 	 -46.5629 	 -6.00709 	 23.0902 	 
H 	 -45.4907 	 -6.27534 	 23.1913 	 
H 	 -47.0736 	 -6.90677 	 22.7463 	 
C 	 -47.1165 	 -5.71737 	 24.4873 	 
H 	 -46.8457 	 -6.53854 	 25.2419 	 
H 	 -48.2451 	 -5.81094 	 24.4693 	 
H 	 -46.6762 	 -4.75702 	 24.9419 	 
H 	 -50.8856 	 -2.08442 	 19.0763 	 
H 	 -43.547 	 -6.38266 	 19.0941 	 
*
