! wB97X-D3 SP def2-SVP
%pal
nprocs 24
end

* xyz 0 1
S 	 -42.8415 	 15.4575 	 -100.186 	 
C 	 -41.8643 	 14.4428 	 -101.164 	 
C 	 -42.5803 	 13.5653 	 -101.962 	 
C 	 -43.9556 	 13.9271 	 -101.949 	 
C 	 -44.2499 	 14.9284 	 -101.021 	 
H 	 -44.7573 	 13.4991 	 -102.536 	 
C 	 -41.9979 	 12.5636 	 -102.932 	 
H 	 -41.1699 	 12.9675 	 -103.525 	 
H 	 -42.7724 	 12.2664 	 -103.631 	 
C 	 -41.7125 	 11.1387 	 -102.295 	 
H 	 -42.5623 	 10.5378 	 -102.041 	 
H 	 -41.3058 	 10.4225 	 -103.02 	 
C 	 -40.6765 	 11.2106 	 -101.114 	 
H 	 -39.6264 	 11.0016 	 -101.538 	 
H 	 -40.6686 	 12.076 	 -100.509 	 
H 	 -40.9379 	 10.3959 	 -100.36 	 
S 	 -46.1651 	 15.7413 	 -99.2557 	 
C 	 -47.6539 	 16.3714 	 -99.8457 	 
C 	 -47.8837 	 15.9302 	 -101.13 	 
C 	 -46.7138 	 15.4398 	 -101.768 	 
C 	 -45.5982 	 15.401 	 -100.899 	 
H 	 -48.8762 	 16.1716 	 -101.622 	 
C 	 -46.6759 	 15.2071 	 -103.295 	 
H 	 -46.9325 	 14.1779 	 -103.566 	 
H 	 -45.6491 	 15.3398 	 -103.707 	 
C 	 -47.5676 	 16.1197 	 -104.218 	 
H 	 -47.3333 	 17.0992 	 -103.886 	 
H 	 -48.5558 	 15.8711 	 -103.915 	 
C 	 -47.3349 	 15.9042 	 -105.761 	 
H 	 -47.3436 	 14.8879 	 -106.086 	 
H 	 -46.3504 	 16.2768 	 -106.035 	 
H 	 -48.0383 	 16.5914 	 -106.298 	 
H 	 -40.8045 	 14.5246 	 -101.173 	 
H 	 -48.4666 	 16.8008 	 -99.3289 	 
*
