! wB97X-D3 SP def2-SVP
%pal
nprocs 24
end

* xyz 0 1
S 	 -59.8476 	 -3.0294 	 -28.7934 	 
C 	 -61.1667 	 -2.50981 	 -29.9346 	 
C 	 -62.4354 	 -2.69649 	 -29.4127 	 
C 	 -62.3232 	 -3.04947 	 -27.9934 	 
C 	 -61.0161 	 -2.98984 	 -27.4321 	 
H 	 -63.1445 	 -3.16559 	 -27.328 	 
C 	 -63.733 	 -2.51793 	 -30.1958 	 
H 	 -64.0075 	 -1.47884 	 -30.2025 	 
H 	 -64.4914 	 -2.99633 	 -29.4372 	 
C 	 -63.8949 	 -3.32419 	 -31.5176 	 
H 	 -63.213 	 -2.73021 	 -32.1497 	 
H 	 -63.605 	 -4.3354 	 -31.3179 	 
C 	 -65.3193 	 -3.33198 	 -32.1962 	 
H 	 -65.542 	 -2.30725 	 -32.6257 	 
H 	 -65.2563 	 -4.04425 	 -32.9662 	 
H 	 -66.1478 	 -3.65134 	 -31.435 	 
S 	 -59.3807 	 -4.46349 	 -25.8243 	 
C 	 -59.3838 	 -4.18879 	 -24.1205 	 
C 	 -60.3949 	 -3.34283 	 -23.7732 	 
C 	 -61.0936 	 -2.77615 	 -24.8687 	 
C 	 -60.5554 	 -3.25377 	 -26.0745 	 
H 	 -60.4963 	 -3.1074 	 -22.6986 	 
C 	 -62.0887 	 -1.66723 	 -24.6919 	 
H 	 -62.2596 	 -1.62638 	 -23.5954 	 
H 	 -63.0006 	 -1.96572 	 -25.1031 	 
C 	 -61.6443 	 -0.278674 	 -25.1873 	 
H 	 -62.3012 	 0.444144 	 -24.7902 	 
H 	 -61.6815 	 -0.283686 	 -26.3123 	 
C 	 -60.1204 	 0.0805303 	 -24.7171 	 
H 	 -60.0546 	 -0.209871 	 -23.6752 	 
H 	 -59.9371 	 1.16187 	 -24.7412 	 
H 	 -59.2822 	 -0.431178 	 -25.2688 	 
H 	 -60.8442 	 -2.27694 	 -30.9474 	 
H 	 -58.6168 	 -4.68285 	 -23.4449 	 
*
