! wB97X-D3 SP def2-SVP
%pal
nprocs 24
end

* xyz 0 1
S 	 -131.94 	 27.7675 	 -14.696 	 
C 	 -132.399 	 26.8096 	 -13.2717 	 
C 	 -132.863 	 25.5864 	 -13.7463 	 
C 	 -133.129 	 25.4972 	 -15.1714 	 
C 	 -132.737 	 26.625 	 -15.8419 	 
H 	 -133.517 	 24.7016 	 -15.7671 	 
C 	 -133.21 	 24.4019 	 -12.8673 	 
H 	 -134.286 	 24.377 	 -13.0546 	 
H 	 -133.098 	 24.6716 	 -11.8504 	 
C 	 -132.586 	 23.0021 	 -13.0912 	 
H 	 -133.299 	 22.3019 	 -12.5684 	 
H 	 -132.642 	 22.7275 	 -14.0726 	 
C 	 -131.124 	 22.8872 	 -12.5431 	 
H 	 -130.972 	 21.8723 	 -12.621 	 
H 	 -130.323 	 23.396 	 -13.1067 	 
H 	 -131.154 	 23.0883 	 -11.4638 	 
S 	 -131.783 	 28.084 	 -17.8916 	 
C 	 -132.122 	 27.7807 	 -19.5577 	 
C 	 -133.245 	 26.9955 	 -19.5895 	 
C 	 -133.624 	 26.3837 	 -18.3724 	 
C 	 -132.878 	 26.8471 	 -17.307 	 
H 	 -133.697 	 26.749 	 -20.5459 	 
C 	 -134.701 	 25.3755 	 -18.3184 	 
H 	 -135.68 	 25.804 	 -18.5151 	 
H 	 -134.864 	 25.0198 	 -17.3221 	 
C 	 -134.594 	 24.1579 	 -19.282 	 
H 	 -133.546 	 23.8961 	 -19.3929 	 
H 	 -134.824 	 24.4445 	 -20.3349 	 
C 	 -135.408 	 22.9852 	 -18.8305 	 
H 	 -134.972 	 22.1088 	 -19.4219 	 
H 	 -136.488 	 23.1125 	 -18.8653 	 
H 	 -135.286 	 22.7012 	 -17.7715 	 
H 	 -132.191 	 26.9779 	 -12.2197 	 
H 	 -131.679 	 28.3749 	 -20.4169 	 
*
