! wB97X-D3 SP def2-SVP
%pal
nprocs 24
end

* xyz 0 1
S 	 28.7926 	 -31.3966 	 -129.02 	 
C 	 30.3151 	 -31.236 	 -129.838 	 
C 	 30.3236 	 -30.1313 	 -130.645 	 
C 	 29.091 	 -29.4026 	 -130.536 	 
C 	 28.2822 	 -29.8797 	 -129.533 	 
H 	 28.8023 	 -28.5614 	 -131.152 	 
C 	 31.5405 	 -29.6752 	 -131.387 	 
H 	 31.101 	 -29.5331 	 -132.386 	 
H 	 32.3227 	 -30.4449 	 -131.543 	 
C 	 32.0914 	 -28.3484 	 -130.866 	 
H 	 31.3253 	 -27.5374 	 -130.953 	 
H 	 32.1725 	 -28.469 	 -129.777 	 
C 	 33.3528 	 -27.8093 	 -131.58 	 
H 	 34.1137 	 -28.5632 	 -131.565 	 
H 	 33.1925 	 -27.6076 	 -132.621 	 
H 	 33.7202 	 -26.8867 	 -131.127 	 
S 	 25.7906 	 -30.5615 	 -128.852 	 
C 	 24.4921 	 -29.3932 	 -128.711 	 
C 	 24.9261 	 -28.1386 	 -128.913 	 
C 	 26.3873 	 -28.0718 	 -129.047 	 
C 	 26.961 	 -29.336 	 -129.164 	 
H 	 24.2556 	 -27.3086 	 -128.886 	 
C 	 27.1213 	 -26.7264 	 -129.085 	 
H 	 26.5708 	 -26.04 	 -129.697 	 
H 	 28.0034 	 -26.7694 	 -129.696 	 
C 	 27.3908 	 -26.0305 	 -127.723 	 
H 	 27.5603 	 -26.7196 	 -126.917 	 
H 	 26.5453 	 -25.4312 	 -127.372 	 
C 	 28.5459 	 -25.0237 	 -127.846 	 
H 	 28.7274 	 -24.5042 	 -126.896 	 
H 	 28.3062 	 -24.3107 	 -128.654 	 
H 	 29.5037 	 -25.5274 	 -128.092 	 
H 	 31.1315 	 -31.8801 	 -129.829 	 
H 	 23.4894 	 -29.5652 	 -128.314 	 
*
