! wB97X-D3 SP def2-SVP
%pal
nprocs 24
end

* xyz 0 1
S 	 -132.93 	 61.205 	 -59.1257 	 
C 	 -134.135 	 59.9708 	 -59.028 	 
C 	 -133.728 	 58.7601 	 -59.535 	 
C 	 -132.35 	 58.7918 	 -59.9453 	 
C 	 -131.784 	 60.0659 	 -59.8108 	 
H 	 -131.81 	 57.9235 	 -60.3019 	 
C 	 -134.539 	 57.4563 	 -59.4725 	 
H 	 -134.54 	 57.139 	 -58.4587 	 
H 	 -134.102 	 56.7979 	 -60.15 	 
C 	 -135.932 	 57.6358 	 -59.9672 	 
H 	 -136.512 	 58.2647 	 -59.2491 	 
H 	 -135.93 	 58.2454 	 -60.8842 	 
C 	 -136.771 	 56.4367 	 -60.1543 	 
H 	 -137.523 	 56.6309 	 -60.8979 	 
H 	 -136.274 	 55.5059 	 -60.524 	 
H 	 -137.313 	 56.142 	 -59.2374 	 
S 	 -130.204 	 61.4005 	 -61.4772 	 
C 	 -128.465 	 61.2166 	 -61.2853 	 
C 	 -128.134 	 60.2959 	 -60.3027 	 
C 	 -129.273 	 59.7744 	 -59.5989 	 
C 	 -130.421 	 60.3324 	 -60.109 	 
H 	 -127.105 	 60.1416 	 -60.2192 	 
C 	 -129.099 	 58.9119 	 -58.4304 	 
H 	 -128.302 	 58.1941 	 -58.8117 	 
H 	 -129.99 	 58.3234 	 -58.2827 	 
C 	 -128.742 	 59.8048 	 -57.2046 	 
H 	 -129.634 	 60.4069 	 -56.9212 	 
H 	 -127.978 	 60.4985 	 -57.5162 	 
C 	 -128.255 	 59.0652 	 -55.9522 	 
H 	 -128.035 	 59.8054 	 -55.1456 	 
H 	 -127.264 	 58.6434 	 -56.1429 	 
H 	 -128.982 	 58.2583 	 -55.739 	 
H 	 -135.104 	 60.1906 	 -58.6003 	 
H 	 -127.734 	 61.7243 	 -61.9326 	 
*
