! wB97X-D3 SP def2-SVP
%pal
nprocs 24
end

* xyz 0 1
S 	 -45.2754 	 22.1716 	 30.913 	 
C 	 -44.9656 	 22.6377 	 29.24 	 
C 	 -44.1252 	 21.6266 	 28.679 	 
C 	 -43.632 	 20.6861 	 29.654 	 
C 	 -44.2084 	 20.7917 	 30.8707 	 
H 	 -42.9304 	 19.9258 	 29.3623 	 
C 	 -43.7471 	 21.5502 	 27.1587 	 
H 	 -42.6811 	 21.1566 	 27.0087 	 
H 	 -43.6806 	 22.5328 	 26.8331 	 
C 	 -44.7859 	 20.8992 	 26.2873 	 
H 	 -45.7398 	 21.3327 	 26.6361 	 
H 	 -44.6484 	 21.1687 	 25.2061 	 
C 	 -44.8349 	 19.3562 	 26.4875 	 
H 	 -45.0454 	 19.0256 	 27.481 	 
H 	 -45.5923 	 18.8942 	 25.7899 	 
H 	 -43.9032 	 18.9021 	 26.3573 	 
S 	 -42.3455 	 19.7859 	 32.3978 	 
C 	 -42.667 	 18.5292 	 33.56 	 
C 	 -43.9469 	 17.9702 	 33.3479 	 
C 	 -44.761 	 18.8579 	 32.5399 	 
C 	 -43.9958 	 19.8894 	 31.9696 	 
H 	 -44.3211 	 17.1999 	 33.979 	 
C 	 -46.2923 	 18.7853 	 32.4349 	 
H 	 -46.6452 	 19.6748 	 31.8608 	 
H 	 -46.7641 	 18.8462 	 33.4202 	 
C 	 -46.9113 	 17.4778 	 31.9944 	 
H 	 -47.9698 	 17.4662 	 31.9814 	 
H 	 -46.7838 	 16.6616 	 32.72 	 
C 	 -46.4536 	 16.9736 	 30.6441 	 
H 	 -45.4106 	 16.6957 	 30.6878 	 
H 	 -46.4803 	 17.7511 	 29.9034 	 
H 	 -47.0477 	 16.1506 	 30.3787 	 
H 	 -45.5764 	 23.3551 	 28.6442 	 
H 	 -41.9223 	 18.1239 	 34.2572 	 
*
