! wB97X-D3 SP def2-SVP
%pal
nprocs 24
end

* xyz 0 1
S 	 -118.362 	 60.6019 	 -36.068 	 
C 	 -119.659 	 61.658 	 -36.3635 	 
C 	 -120.751 	 61.2626 	 -35.6682 	 
C 	 -120.641 	 59.9622 	 -35.0357 	 
C 	 -119.321 	 59.4705 	 -35.1418 	 
H 	 -121.329 	 59.4541 	 -34.3659 	 
C 	 -122.014 	 62.0815 	 -35.6507 	 
H 	 -121.584 	 63.126 	 -35.7707 	 
H 	 -122.42 	 61.9657 	 -34.6614 	 
C 	 -122.983 	 61.7603 	 -36.7468 	 
H 	 -123.746 	 62.5072 	 -36.7042 	 
H 	 -122.613 	 61.8244 	 -37.7901 	 
C 	 -123.641 	 60.3719 	 -36.6586 	 
H 	 -124.034 	 60.0853 	 -35.7181 	 
H 	 -124.428 	 60.421 	 -37.4041 	 
H 	 -122.917 	 59.5553 	 -36.8867 	 
S 	 -117.633 	 58.6551 	 -33.1428 	 
C 	 -117.497 	 56.9273 	 -32.725 	 
C 	 -118.424 	 56.1839 	 -33.3997 	 
C 	 -119.149 	 57.0062 	 -34.4046 	 
C 	 -118.778 	 58.3675 	 -34.3932 	 
H 	 -118.475 	 55.092 	 -33.2548 	 
C 	 -120.191 	 56.4953 	 -35.3994 	 
H 	 -120.603 	 57.2826 	 -36.0685 	 
H 	 -121.1 	 56.4141 	 -34.8256 	 
C 	 -119.905 	 55.1802 	 -36.207 	 
H 	 -120.66 	 54.8982 	 -36.9276 	 
H 	 -119.948 	 54.3222 	 -35.6082 	 
C 	 -118.535 	 55.142 	 -36.9205 	 
H 	 -118.363 	 55.9835 	 -37.641 	 
H 	 -118.393 	 54.1056 	 -37.4068 	 
H 	 -117.731 	 55.0529 	 -36.2077 	 
H 	 -119.63 	 62.6092 	 -36.9599 	 
H 	 -116.747 	 56.5237 	 -32.0857 	 
*
