! wB97X-D3 SP def2-SVP
%pal
nprocs 24
end

* xyz 0 1
S 	 -113.428 	 61.7087 	 -71.4842 	 
C 	 -112.799 	 60.11 	 -71.727 	 
C 	 -112.491 	 59.3814 	 -70.5958 	 
C 	 -112.624 	 60.263 	 -69.4445 	 
C 	 -113.032 	 61.5261 	 -69.7776 	 
H 	 -112.325 	 60.0115 	 -68.4342 	 
C 	 -112.099 	 57.9455 	 -70.5385 	 
H 	 -112.19 	 57.5737 	 -71.5522 	 
H 	 -112.897 	 57.497 	 -69.8151 	 
C 	 -110.649 	 57.6727 	 -69.997 	 
H 	 -110.208 	 56.8245 	 -70.5157 	 
H 	 -110.12 	 58.5383 	 -70.3912 	 
C 	 -110.332 	 57.4541 	 -68.5039 	 
H 	 -110.925 	 58.1485 	 -67.8909 	 
H 	 -110.651 	 56.5013 	 -68.1437 	 
H 	 -109.248 	 57.5188 	 -68.2507 	 
S 	 -111.859 	 63.7029 	 -68.5597 	 
C 	 -112.873 	 64.8762 	 -67.8127 	 
C 	 -114.182 	 64.3842 	 -67.7366 	 
C 	 -114.319 	 63.0857 	 -68.3035 	 
C 	 -113.139 	 62.6015 	 -68.8156 	 
H 	 -114.93 	 64.9585 	 -67.2847 	 
C 	 -115.624 	 62.3639 	 -68.4568 	 
H 	 -115.513 	 61.4625 	 -67.8629 	 
H 	 -115.679 	 62.1224 	 -69.4975 	 
C 	 -116.974 	 62.8883 	 -68.0589 	 
H 	 -116.891 	 63.1563 	 -67.0653 	 
H 	 -117.738 	 62.0778 	 -68.1116 	 
C 	 -117.582 	 64.1312 	 -68.6767 	 
H 	 -116.922 	 65.0122 	 -68.8253 	 
H 	 -118.433 	 64.5576 	 -68.1196 	 
H 	 -117.979 	 63.9999 	 -69.6783 	 
H 	 -112.767 	 59.789 	 -72.7746 	 
H 	 -112.591 	 65.8529 	 -67.4898 	 
*
