! wB97X-D3 SP def2-SVP
%pal
nprocs 24
end

* xyz 0 1
S 	 -42.3981 	 -49.8256 	 -71.5371 	 
C 	 -40.6302 	 -49.6079 	 -71.3667 	 
C 	 -40.1302 	 -50.4175 	 -70.387 	 
C 	 -41.1313 	 -51.2954 	 -69.8263 	 
C 	 -42.4205 	 -51.0753 	 -70.321 	 
H 	 -41.0649 	 -51.9516 	 -68.9978 	 
C 	 -38.698 	 -50.4449 	 -69.7928 	 
H 	 -38.1123 	 -49.8252 	 -70.4646 	 
H 	 -38.1884 	 -51.4076 	 -70.03 	 
C 	 -38.7035 	 -50.2079 	 -68.2802 	 
H 	 -39.5161 	 -49.6822 	 -67.8267 	 
H 	 -38.8309 	 -51.1724 	 -67.8749 	 
C 	 -37.4447 	 -49.5825 	 -67.7056 	 
H 	 -37.4631 	 -49.5229 	 -66.6253 	 
H 	 -36.6241 	 -50.1793 	 -68.0614 	 
H 	 -37.3252 	 -48.6568 	 -68.1909 	 
S 	 -44.1436 	 -53.219 	 -70.7827 	 
C 	 -45.3912 	 -53.624 	 -69.6452 	 
C 	 -45.4525 	 -52.7042 	 -68.5734 	 
C 	 -44.383 	 -51.6949 	 -68.6632 	 
C 	 -43.6415 	 -51.7642 	 -69.8412 	 
H 	 -46.311 	 -52.8356 	 -67.9167 	 
C 	 -44.177 	 -50.6058 	 -67.6642 	 
H 	 -44.9841 	 -49.907 	 -67.8884 	 
H 	 -43.2042 	 -50.0405 	 -67.8186 	 
C 	 -44.3325 	 -51.1342 	 -66.1775 	 
H 	 -45.3942 	 -51.5885 	 -65.9634 	 
H 	 -44.2719 	 -50.2327 	 -65.5408 	 
C 	 -43.055 	 -51.9946 	 -65.8163 	 
H 	 -43.0924 	 -52.8576 	 -66.4371 	 
H 	 -43.1892 	 -52.4591 	 -64.8296 	 
H 	 -42.0116 	 -51.6096 	 -65.8536 	 
H 	 -40.1084 	 -48.837 	 -71.9604 	 
H 	 -46.2343 	 -54.2035 	 -69.9018 	 
*
