! wB97X-D3 SP def2-SVP
%pal
nprocs 24
end

* xyz 0 1
S 	 -106.24 	 55.3434 	 -111.386 	 
C 	 -106.008 	 57.0573 	 -111.027 	 
C 	 -107.125 	 57.6243 	 -110.478 	 
C 	 -108.093 	 56.6402 	 -110.288 	 
C 	 -107.814 	 55.354 	 -110.641 	 
H 	 -109.179 	 56.8235 	 -109.938 	 
C 	 -107.376 	 59.0214 	 -109.908 	 
H 	 -108.249 	 59.0338 	 -109.242 	 
H 	 -107.59 	 59.6606 	 -110.78 	 
C 	 -106.177 	 59.6606 	 -109.173 	 
H 	 -105.363 	 59.6062 	 -109.862 	 
H 	 -106.409 	 60.7373 	 -109.048 	 
C 	 -105.864 	 59.2184 	 -107.757 	 
H 	 -104.961 	 59.6972 	 -107.528 	 
H 	 -106.555 	 59.4056 	 -106.925 	 
H 	 -105.672 	 58.1143 	 -107.773 	 
S 	 -107.691 	 52.7538 	 -109.958 	 
C 	 -109.165 	 51.7929 	 -109.789 	 
C 	 -110.337 	 52.5498 	 -109.997 	 
C 	 -110.002 	 53.936 	 -110.167 	 
C 	 -108.63 	 54.1641 	 -110.368 	 
H 	 -111.264 	 51.9859 	 -109.98 	 
C 	 -111.161 	 54.8353 	 -110.42 	 
H 	 -111.233 	 55.7514 	 -109.715 	 
H 	 -112.1 	 54.3034 	 -110.255 	 
C 	 -111.191 	 55.2945 	 -111.879 	 
H 	 -111.245 	 54.3962 	 -112.494 	 
H 	 -110.282 	 55.8819 	 -112.263 	 
C 	 -112.504 	 55.994 	 -112.155 	 
H 	 -113.297 	 55.2365 	 -112.277 	 
H 	 -112.482 	 56.5165 	 -113.086 	 
H 	 -112.66 	 56.7318 	 -111.399 	 
H 	 -105.162 	 57.6778 	 -111.148 	 
H 	 -109.142 	 50.6998 	 -109.675 	 
*
