! wB97X-D3 SP def2-SVP
%pal
nprocs 24
end

* xyz 0 1
S 	 -75.8437 	 -2.03339 	 13.3552 	 
C 	 -75.835 	 -0.697784 	 12.2132 	 
C 	 -75.6717 	 0.504785 	 12.9022 	 
C 	 -75.5432 	 0.30314 	 14.3023 	 
C 	 -75.6583 	 -1.0084 	 14.7862 	 
H 	 -75.2279 	 1.08711 	 15.0096 	 
C 	 -75.6543 	 1.93026 	 12.3138 	 
H 	 -76.4197 	 2.55857 	 12.7096 	 
H 	 -75.9753 	 1.82261 	 11.2627 	 
C 	 -74.2402 	 2.49658 	 12.4034 	 
H 	 -74.0146 	 2.61499 	 13.4481 	 
H 	 -73.619 	 1.73254 	 12.0489 	 
C 	 -73.9277 	 3.73827 	 11.5815 	 
H 	 -72.8899 	 3.96678 	 11.751 	 
H 	 -73.9834 	 3.52085 	 10.482 	 
H 	 -74.5274 	 4.60167 	 11.8126 	 
S 	 -73.6286 	 -2.26705 	 16.2119 	 
C 	 -73.6941 	 -2.4317 	 17.9143 	 
C 	 -74.7373 	 -1.71338 	 18.4317 	 
C 	 -75.4063 	 -0.932463 	 17.4475 	 
C 	 -75.1755 	 -1.42723 	 16.1525 	 
H 	 -74.8541 	 -1.72664 	 19.4679 	 
C 	 -76.5866 	 -0.0426026 	 17.7638 	 
H 	 -77.4349 	 -0.68619 	 17.7951 	 
H 	 -76.7018 	 0.619406 	 16.914 	 
C 	 -76.5813 	 0.766729 	 19.0467 	 
H 	 -76.2643 	 0.0536298 	 19.8594 	 
H 	 -77.5736 	 1.07885 	 19.2064 	 
C 	 -75.5126 	 1.97598 	 19.048 	 
H 	 -75.6884 	 2.59441 	 18.1532 	 
H 	 -74.4959 	 1.70995 	 19.0792 	 
H 	 -75.6612 	 2.77883 	 19.7701 	 
H 	 -76.0487 	 -0.724717 	 11.1439 	 
H 	 -72.9674 	 -2.95638 	 18.6009 	 
*
