! wB97X-D3 SP def2-SVP
%pal
nprocs 24
end

* xyz 0 1
S 	 -87.2651 	 -3.9511 	 -62.105 	 
C 	 -88.7075 	 -4.29038 	 -63.1178 	 
C 	 -88.4221 	 -5.18737 	 -64.11 	 
C 	 -87.0922 	 -5.70471 	 -64.0186 	 
C 	 -86.3009 	 -5.1286 	 -63.0355 	 
H 	 -86.7746 	 -6.52579 	 -64.6619 	 
C 	 -89.348 	 -5.7726 	 -65.1057 	 
H 	 -88.8552 	 -5.54302 	 -66.037 	 
H 	 -90.289 	 -5.25988 	 -65.1286 	 
C 	 -89.573 	 -7.26768 	 -65.0202 	 
H 	 -90.4249 	 -7.5016 	 -65.7032 	 
H 	 -88.7453 	 -7.91667 	 -65.3404 	 
C 	 -89.9465 	 -7.83836 	 -63.6103 	 
H 	 -90.5691 	 -8.68618 	 -63.6254 	 
H 	 -88.9137 	 -8.00323 	 -63.1015 	 
H 	 -90.4817 	 -7.09216 	 -63.0712 	 
S 	 -84.4287 	 -5.07639 	 -61.1076 	 
C 	 -82.765 	 -5.11839 	 -61.5649 	 
C 	 -82.6265 	 -5.43128 	 -62.8735 	 
C 	 -83.8566 	 -5.44118 	 -63.6059 	 
C 	 -84.9245 	 -5.42866 	 -62.7532 	 
H 	 -81.6168 	 -5.35301 	 -63.303 	 
C 	 -83.7463 	 -5.23168 	 -65.0839 	 
H 	 -84.2952 	 -5.91715 	 -65.6888 	 
H 	 -82.7144 	 -5.33745 	 -65.3681 	 
C 	 -84.1187 	 -3.83985 	 -65.471 	 
H 	 -83.5183 	 -3.23775 	 -64.8028 	 
H 	 -85.0462 	 -3.57298 	 -65.0773 	 
C 	 -84.0876 	 -3.53129 	 -66.969 	 
H 	 -84.1981 	 -2.47359 	 -67.0504 	 
H 	 -84.9593 	 -3.91897 	 -67.4945 	 
H 	 -83.1218 	 -3.91686 	 -67.4558 	 
H 	 -89.7349 	 -3.85698 	 -62.9806 	 
H 	 -81.968 	 -5.01066 	 -60.8568 	 
*
