! wB97X-D3 SP def2-SVP
%pal
nprocs 24
end

* xyz 0 1
S 	 -131.931 	 14.0171 	 -15.3366 	 
C 	 -132.431 	 12.7855 	 -14.1612 	 
C 	 -132.93 	 11.6612 	 -14.7436 	 
C 	 -132.743 	 11.6914 	 -16.177 	 
C 	 -132.173 	 12.8387 	 -16.6893 	 
H 	 -133.195 	 10.9111 	 -16.8008 	 
C 	 -133.752 	 10.5014 	 -14.0909 	 
H 	 -134.785 	 10.4999 	 -14.5069 	 
H 	 -133.78 	 10.7331 	 -13.0692 	 
C 	 -133.176 	 9.08725 	 -14.2837 	 
H 	 -133.042 	 8.99773 	 -15.3916 	 
H 	 -132.178 	 8.92864 	 -13.8031 	 
C 	 -134.263 	 8.07617 	 -13.8256 	 
H 	 -134.554 	 8.25093 	 -12.8194 	 
H 	 -135.173 	 7.82692 	 -14.3987 	 
H 	 -133.808 	 7.12333 	 -13.8386 	 
S 	 -130.47 	 14.2816 	 -18.2046 	 
C 	 -130.645 	 14.3965 	 -19.8853 	 
C 	 -131.803 	 13.8318 	 -20.3317 	 
C 	 -132.427 	 13.034 	 -19.2876 	 
C 	 -131.83 	 13.2393 	 -18.0536 	 
H 	 -132.043 	 13.839 	 -21.3956 	 
C 	 -133.594 	 12.0788 	 -19.6357 	 
H 	 -134.192 	 12.4259 	 -20.4739 	 
H 	 -134.212 	 12.1174 	 -18.8252 	 
C 	 -133.28 	 10.6426 	 -20.0295 	 
H 	 -132.618 	 10.1941 	 -19.2467 	 
H 	 -132.733 	 10.5262 	 -20.9469 	 
C 	 -134.509 	 9.85205 	 -20.2056 	 
H 	 -134.138 	 8.85206 	 -20.3348 	 
H 	 -135.12 	 10.107 	 -21.0321 	 
H 	 -135.15 	 9.89854 	 -19.3492 	 
H 	 -132.511 	 13.0502 	 -13.137 	 
H 	 -130.062 	 15.0702 	 -20.417 	 
*
