! wB97X-D3 SP def2-SVP
%pal
nprocs 24
end

* xyz 0 1
S 	 31.8197 	 -32.9223 	 -113.697 	 
C 	 31.8286 	 -31.9945 	 -112.309 	 
C 	 32.6809 	 -30.92 	 -112.417 	 
C 	 33.4758 	 -30.941 	 -113.583 	 
C 	 33.239 	 -32.0582 	 -114.315 	 
H 	 34.1274 	 -30.1789 	 -113.967 	 
C 	 32.7406 	 -29.7747 	 -111.415 	 
H 	 32.0558 	 -30.2158 	 -110.627 	 
H 	 32.1846 	 -29.0003 	 -111.913 	 
C 	 34.1742 	 -29.4196 	 -111.072 	 
H 	 34.6798 	 -28.8884 	 -111.951 	 
H 	 34.0889 	 -28.6436 	 -110.222 	 
C 	 35.0043 	 -30.6158 	 -110.638 	 
H 	 34.471 	 -31.2644 	 -109.929 	 
H 	 35.4144 	 -31.2188 	 -111.455 	 
H 	 35.8594 	 -30.2638 	 -109.958 	 
S 	 33.1462 	 -32.0792 	 -117.121 	 
C 	 34.3562 	 -33.0473 	 -117.962 	 
C 	 35.3262 	 -33.4343 	 -117.093 	 
C 	 35.1407 	 -33.02 	 -115.719 	 
C 	 33.9173 	 -32.4391 	 -115.529 	 
H 	 36.1817 	 -33.9838 	 -117.429 	 
C 	 36.1323 	 -33.3912 	 -114.65 	 
H 	 35.5136 	 -33.9822 	 -113.966 	 
H 	 36.3727 	 -32.4957 	 -114.14 	 
C 	 37.4227 	 -34.0913 	 -114.948 	 
H 	 37.8833 	 -33.6336 	 -115.774 	 
H 	 37.1694 	 -35.1008 	 -115.203 	 
C 	 38.3541 	 -34.0814 	 -113.782 	 
H 	 38.6073 	 -33.0552 	 -113.362 	 
H 	 39.3285 	 -34.4833 	 -114.052 	 
H 	 37.9796 	 -34.5494 	 -112.9 	 
H 	 31.0862 	 -32.0869 	 -111.532 	 
H 	 34.3358 	 -33.4171 	 -118.957 	 
*
