! wB97X-D3 SP def2-SVP
%pal
nprocs 24
end

* xyz 0 1
S 	 -51.3186 	 -50.2274 	 -82.8214 	 
C 	 -51.2993 	 -48.5397 	 -83.4202 	 
C 	 -50.025 	 -48.0154 	 -83.361 	 
C 	 -49.0755 	 -48.9148 	 -82.6844 	 
C 	 -49.6218 	 -50.187 	 -82.4029 	 
H 	 -48.0613 	 -48.7339 	 -82.5282 	 
C 	 -49.6015 	 -46.6551 	 -83.6934 	 
H 	 -48.7066 	 -46.834 	 -84.3171 	 
H 	 -49.319 	 -46.0991 	 -82.801 	 
C 	 -50.6154 	 -45.7827 	 -84.4598 	 
H 	 -50.8872 	 -46.3339 	 -85.3285 	 
H 	 -51.4839 	 -45.5302 	 -83.8393 	 
C 	 -50.0182 	 -44.4129 	 -84.9106 	 
H 	 -49.0505 	 -44.4963 	 -85.4744 	 
H 	 -50.8078 	 -43.9452 	 -85.502 	 
H 	 -49.772 	 -43.6909 	 -84.0619 	 
S 	 -49.6599 	 -52.3851 	 -80.6407 	 
C 	 -48.1838 	 -53.3789 	 -80.5036 	 
C 	 -47.3088 	 -52.9455 	 -81.4315 	 
C 	 -47.717 	 -51.8744 	 -82.2216 	 
C 	 -48.9577 	 -51.3703 	 -81.8804 	 
H 	 -46.3046 	 -53.3633 	 -81.5155 	 
C 	 -46.5969 	 -51.2109 	 -83.119 	 
H 	 -47.1428 	 -50.6427 	 -83.8646 	 
H 	 -46.0706 	 -51.9215 	 -83.8441 	 
C 	 -45.6593 	 -50.247 	 -82.3948 	 
H 	 -46.1467 	 -49.8493 	 -81.5045 	 
H 	 -45.443 	 -49.4925 	 -83.0746 	 
C 	 -44.2368 	 -50.8776 	 -82.0963 	 
H 	 -43.6722 	 -51.1274 	 -83.0261 	 
H 	 -44.2644 	 -51.8585 	 -81.7328 	 
H 	 -43.6666 	 -50.1976 	 -81.44 	 
H 	 -52.2145 	 -47.9571 	 -83.5619 	 
H 	 -47.9964 	 -54.2534 	 -79.831 	 
*
