! wB97X-D3 SP def2-SVP
%pal
nprocs 24
end

* xyz 0 1
S 	 -54.0673 	 -55.5051 	 -82.2186 	 
C 	 -55.6733 	 -55.0016 	 -82.4946 	 
C 	 -56.0956 	 -55.4194 	 -83.7692 	 
C 	 -55.158 	 -56.2748 	 -84.3901 	 
C 	 -53.9042 	 -56.4013 	 -83.75 	 
H 	 -55.3552 	 -56.705 	 -85.332 	 
C 	 -57.3731 	 -54.9748 	 -84.5102 	 
H 	 -58.0039 	 -55.0429 	 -83.6046 	 
H 	 -57.634 	 -55.7748 	 -85.1357 	 
C 	 -57.3039 	 -53.5642 	 -85.1006 	 
H 	 -57.2994 	 -52.8672 	 -84.272 	 
H 	 -56.2984 	 -53.3924 	 -85.5198 	 
C 	 -58.5052 	 -53.3152 	 -86.0052 	 
H 	 -59.3634 	 -53.1267 	 -85.3315 	 
H 	 -58.4025 	 -52.4059 	 -86.6538 	 
H 	 -58.6105 	 -54.1648 	 -86.7125 	 
S 	 -51.6506 	 -57.8925 	 -82.9199 	 
C 	 -50.41 	 -58.1395 	 -84.1375 	 
C 	 -50.6897 	 -57.6247 	 -85.3924 	 
C 	 -51.9955 	 -57.0416 	 -85.3669 	 
C 	 -52.6363 	 -56.9853 	 -84.1307 	 
H 	 -50 	 -57.7158 	 -86.2106 	 
C 	 -52.5025 	 -56.392 	 -86.5866 	 
H 	 -53.59 	 -56.3349 	 -86.622 	 
H 	 -52.2794 	 -56.9873 	 -87.4373 	 
C 	 -51.9083 	 -54.9659 	 -87.0119 	 
H 	 -52.1959 	 -54.6876 	 -88.0079 	 
H 	 -50.8044 	 -54.9945 	 -86.9839 	 
C 	 -52.633 	 -53.893 	 -86.1409 	 
H 	 -52.3398 	 -54.0471 	 -85.0818 	 
H 	 -53.697 	 -54.1329 	 -86.1734 	 
H 	 -52.4193 	 -52.9675 	 -86.5711 	 
H 	 -56.2503 	 -54.6737 	 -81.6554 	 
H 	 -49.4594 	 -58.7128 	 -83.9694 	 
*
