! wB97X-D3 SP def2-SVP
%pal
nprocs 24
end

* xyz 0 1
S 	 -84.2029 	 -21.1182 	 -46.8167 	 
C 	 -84.6027 	 -19.3739 	 -46.6167 	 
C 	 -84.2812 	 -18.6996 	 -47.7685 	 
C 	 -83.6405 	 -19.4759 	 -48.7952 	 
C 	 -83.4994 	 -20.7915 	 -48.4646 	 
H 	 -83.1136 	 -19.2446 	 -49.7744 	 
C 	 -84.6993 	 -17.2529 	 -47.9685 	 
H 	 -84.9322 	 -16.9091 	 -47.0012 	 
H 	 -85.6604 	 -17.3697 	 -48.4172 	 
C 	 -83.7221 	 -16.4058 	 -48.7995 	 
H 	 -82.7215 	 -16.3476 	 -48.4208 	 
H 	 -83.4729 	 -16.7902 	 -49.7608 	 
C 	 -84.2813 	 -14.9793 	 -49.1125 	 
H 	 -85.1925 	 -14.9244 	 -49.7608 	 
H 	 -84.4888 	 -14.3873 	 -48.2092 	 
H 	 -83.402 	 -14.5187 	 -49.6551 	 
S 	 -81.11 	 -22.0523 	 -48.4914 	 
C 	 -80.5306 	 -22.7894 	 -49.9099 	 
C 	 -81.4766 	 -22.8715 	 -50.881 	 
C 	 -82.6932 	 -22.2166 	 -50.5032 	 
C 	 -82.6194 	 -21.6867 	 -49.2344 	 
H 	 -81.2185 	 -23.2047 	 -51.8534 	 
C 	 -83.7762 	 -22.034 	 -51.5397 	 
H 	 -83.9254 	 -20.9897 	 -51.4934 	 
H 	 -84.7123 	 -22.5265 	 -51.3008 	 
C 	 -83.5146 	 -22.2187 	 -53.0333 	 
H 	 -83.2468 	 -23.2566 	 -53.1163 	 
H 	 -82.6176 	 -21.7553 	 -53.418 	 
C 	 -84.7301 	 -21.8809 	 -53.8713 	 
H 	 -84.3322 	 -22.018 	 -54.9146 	 
H 	 -84.9434 	 -20.8429 	 -53.8529 	 
H 	 -85.6592 	 -22.3482 	 -53.6094 	 
H 	 -85.0495 	 -18.9237 	 -45.8082 	 
H 	 -79.5115 	 -22.9452 	 -50.0933 	 
*
