! wB97X-D3 SP def2-SVP
%pal
nprocs 24
end

* xyz 0 1
S 	 -4.63781 	 -28.4843 	 -111.306 	 
C 	 -5.58054 	 -27.2104 	 -112.076 	 
C 	 -6.18705 	 -27.6184 	 -113.251 	 
C 	 -5.94886 	 -28.991 	 -113.485 	 
C 	 -5.23404 	 -29.623 	 -112.467 	 
H 	 -6.28078 	 -29.4797 	 -114.425 	 
C 	 -6.91011 	 -26.7429 	 -114.187 	 
H 	 -7.3094 	 -27.4505 	 -114.961 	 
H 	 -6.20314 	 -26.0422 	 -114.693 	 
C 	 -8.0311 	 -25.8338 	 -113.522 	 
H 	 -8.77417 	 -25.6411 	 -114.317 	 
H 	 -8.53108 	 -26.331 	 -112.724 	 
C 	 -7.51953 	 -24.5122 	 -112.833 	 
H 	 -6.82764 	 -23.8686 	 -113.455 	 
H 	 -8.36127 	 -23.7764 	 -112.692 	 
H 	 -7.08119 	 -24.6866 	 -111.873 	 
S 	 -4.8311 	 -31.883 	 -113.918 	 
C 	 -4.52725 	 -33.4318 	 -113.212 	 
C 	 -4.66828 	 -33.3858 	 -111.821 	 
C 	 -4.81489 	 -32.0159 	 -111.351 	 
C 	 -4.89671 	 -31.0529 	 -112.348 	 
H 	 -4.64776 	 -34.2168 	 -111.144 	 
C 	 -5.13041 	 -31.6795 	 -109.899 	 
H 	 -4.42668 	 -30.8914 	 -109.545 	 
H 	 -4.58578 	 -32.5322 	 -109.438 	 
C 	 -6.55044 	 -31.5077 	 -109.416 	 
H 	 -6.91589 	 -30.5684 	 -109.745 	 
H 	 -6.63508 	 -31.4444 	 -108.342 	 
C 	 -7.53851 	 -32.5583 	 -109.886 	 
H 	 -7.44025 	 -33.4519 	 -109.272 	 
H 	 -7.33049 	 -32.9082 	 -110.88 	 
H 	 -8.49617 	 -32.1864 	 -109.684 	 
H 	 -5.34576 	 -26.1609 	 -111.842 	 
H 	 -4.39002 	 -34.3687 	 -113.717 	 
*
