! wB97X-D3 SP def2-SVP
%pal
nprocs 24
end

* xyz 0 1
S 	 -83.6721 	 1.33968 	 4.39401 	 
C 	 -83.2897 	 1.26327 	 2.7778 	 
C 	 -84.2329 	 0.624319 	 1.96205 	 
C 	 -85.3449 	 0.190705 	 2.72819 	 
C 	 -85.2555 	 0.579132 	 4.12146 	 
H 	 -86.1979 	 -0.315718 	 2.43111 	 
C 	 -84.1387 	 0.280975 	 0.503321 	 
H 	 -84.6592 	 -0.65193 	 0.419821 	 
H 	 -83.1057 	 0.241125 	 0.223714 	 
C 	 -84.5998 	 1.2702 	 -0.549648 	 
H 	 -84.5325 	 0.723881 	 -1.50365 	 
H 	 -85.6265 	 1.44738 	 -0.42467 	 
C 	 -83.8805 	 2.66077 	 -0.509267 	 
H 	 -82.9177 	 2.60202 	 -1.08605 	 
H 	 -84.5794 	 3.21501 	 -1.09422 	 
H 	 -83.7579 	 3.13463 	 0.429123 	 
S 	 -86.1198 	 1.37501 	 6.67429 	 
C 	 -87.2331 	 0.431658 	 7.56507 	 
C 	 -87.8106 	 -0.513422 	 6.78261 	 
C 	 -87.0873 	 -0.686829 	 5.51889 	 
C 	 -86.1631 	 0.3303 	 5.24588 	 
H 	 -88.7079 	 -1.04802 	 7.13962 	 
C 	 -87.3712 	 -1.98038 	 4.70178 	 
H 	 -86.5709 	 -2.08459 	 3.92686 	 
H 	 -88.1687 	 -1.72121 	 4.11849 	 
C 	 -87.5442 	 -3.28973 	 5.35794 	 
H 	 -88.4033 	 -3.24166 	 5.92768 	 
H 	 -86.6956 	 -3.4533 	 6.11797 	 
C 	 -87.6103 	 -4.41195 	 4.35357 	 
H 	 -88.5103 	 -4.4871 	 3.78225 	 
H 	 -87.4778 	 -5.28674 	 4.85666 	 
H 	 -86.7446 	 -4.27992 	 3.66367 	 
H 	 -82.3701 	 1.64501 	 2.4486 	 
H 	 -87.5481 	 0.686343 	 8.53655 	 
*
