! wB97X-D3 SP def2-SVP
%pal
nprocs 24
end

* xyz 0 1
S 	 -37.562 	 -41.8218 	 -78.0836 	 
C 	 -38.603 	 -40.4777 	 -77.7399 	 
C 	 -38.6336 	 -39.5198 	 -78.7462 	 
C 	 -37.7145 	 -39.8993 	 -79.8097 	 
C 	 -37.1407 	 -41.1422 	 -79.6305 	 
H 	 -37.514 	 -39.3027 	 -80.6749 	 
C 	 -39.3025 	 -38.1815 	 -78.6084 	 
H 	 -38.4679 	 -37.537 	 -78.3808 	 
H 	 -39.9447 	 -38.146 	 -77.7245 	 
C 	 -39.9914 	 -37.6572 	 -79.8808 	 
H 	 -39.2554 	 -37.441 	 -80.6049 	 
H 	 -40.5487 	 -38.5258 	 -80.3095 	 
C 	 -40.8531 	 -36.3676 	 -79.7052 	 
H 	 -40.2223 	 -35.5205 	 -79.4544 	 
H 	 -41.2764 	 -36.1388 	 -80.6515 	 
H 	 -41.6964 	 -36.3988 	 -79.0131 	 
S 	 -34.5025 	 -41.8231 	 -79.716 	 
C 	 -33.8698 	 -42.4653 	 -81.1631 	 
C 	 -34.8053 	 -42.6303 	 -82.1552 	 
C 	 -36.096 	 -42.1518 	 -81.777 	 
C 	 -36.1235 	 -41.7576 	 -80.4718 	 
H 	 -34.447 	 -43.196 	 -83.0256 	 
C 	 -37.2391 	 -42.3244 	 -82.7987 	 
H 	 -37.1148 	 -43.1533 	 -83.4473 	 
H 	 -37.1345 	 -41.4703 	 -83.4932 	 
C 	 -38.6908 	 -42.1887 	 -82.2768 	 
H 	 -38.8611 	 -41.2215 	 -81.8232 	 
H 	 -38.8588 	 -42.8667 	 -81.5043 	 
C 	 -39.6575 	 -42.4148 	 -83.4109 	 
H 	 -40.721 	 -42.3213 	 -83.1506 	 
H 	 -39.5086 	 -43.3688 	 -83.9652 	 
H 	 -39.3938 	 -41.5969 	 -84.2238 	 
H 	 -39.1005 	 -40.2409 	 -76.7562 	 
H 	 -32.884 	 -42.9243 	 -81.2974 	 
*
