! wB97X-D3 SP def2-SVP
%pal
nprocs 24
end

* xyz 0 1
S 	 -58.8484 	 4.43929 	 -20.3749 	 
C 	 -60.3059 	 5.38034 	 -20.3597 	 
C 	 -61.4366 	 4.61804 	 -20.1749 	 
C 	 -61.0712 	 3.23322 	 -20.0621 	 
C 	 -59.7285 	 2.95196 	 -20.1751 	 
H 	 -61.8063 	 2.38344 	 -19.9615 	 
C 	 -62.8551 	 5.11842 	 -20.1272 	 
H 	 -62.6912 	 6.16196 	 -20.2119 	 
H 	 -63.252 	 4.96118 	 -19.0897 	 
C 	 -63.7578 	 4.44102 	 -21.166 	 
H 	 -63.3434 	 4.75688 	 -22.1011 	 
H 	 -63.7004 	 3.31978 	 -21.0673 	 
C 	 -65.2189 	 4.95406 	 -21.1374 	 
H 	 -65.1759 	 5.99004 	 -21.4435 	 
H 	 -65.7958 	 4.40383 	 -21.9223 	 
H 	 -65.7125 	 4.89635 	 -20.2341 	 
S 	 -57.588 	 1.5807 	 -21.2625 	 
C 	 -57.2772 	 -0.0585291 	 -20.7902 	 
C 	 -58.4217 	 -0.601096 	 -20.2593 	 
C 	 -59.4297 	 0.371317 	 -20.0695 	 
C 	 -59.1149 	 1.65013 	 -20.3874 	 
H 	 -58.4122 	 -1.6637 	 -19.9545 	 
C 	 -60.6582 	 -0.0397395 	 -19.257 	 
H 	 -61.2169 	 0.873601 	 -18.9539 	 
H 	 -60.4334 	 -0.375466 	 -18.2798 	 
C 	 -61.509 	 -1.01503 	 -20.0547 	 
H 	 -62.0468 	 -1.64441 	 -19.3083 	 
H 	 -60.7943 	 -1.67908 	 -20.4951 	 
C 	 -62.5605 	 -0.409727 	 -21.0217 	 
H 	 -63.1786 	 -1.19344 	 -21.4243 	 
H 	 -62.1604 	 0.0346587 	 -21.9251 	 
H 	 -63.1578 	 0.275475 	 -20.4435 	 
H 	 -60.3769 	 6.42042 	 -20.404 	 
H 	 -56.4051 	 -0.657955 	 -21.1298 	 
*
