! wB97X-D3 SP def2-SVP
%pal
nprocs 24
end

* xyz 0 1
S 	 -45.9258 	 12.1665 	 31.7949 	 
C 	 -45.2521 	 13.3549 	 30.6207 	 
C 	 -46.2882 	 14.118 	 30.1384 	 
C 	 -47.572 	 13.7886 	 30.6583 	 
C 	 -47.5613 	 12.7205 	 31.5128 	 
H 	 -48.5666 	 14.2536 	 30.4495 	 
C 	 -45.9726 	 15.2399 	 29.191 	 
H 	 -46.7414 	 15.3107 	 28.4078 	 
H 	 -45.0202 	 15.0445 	 28.7978 	 
C 	 -45.6487 	 16.5902 	 29.8706 	 
H 	 -44.8689 	 16.4071 	 30.575 	 
H 	 -45.2116 	 17.3849 	 29.103 	 
C 	 -46.8916 	 17.1434 	 30.5491 	 
H 	 -46.6713 	 18.1809 	 30.9842 	 
H 	 -47.6335 	 17.3263 	 29.7892 	 
H 	 -47.1957 	 16.4491 	 31.3659 	 
S 	 -48.7451 	 10.4089 	 32.2618 	 
C 	 -50.1208 	 10.4281 	 33.2809 	 
C 	 -50.5309 	 11.7097 	 33.6491 	 
C 	 -49.7404 	 12.7183 	 32.9776 	 
C 	 -48.6552 	 12.1754 	 32.262 	 
H 	 -51.3635 	 11.878 	 34.3183 	 
C 	 -50.0952 	 14.1776 	 33.1805 	 
H 	 -49.1513 	 14.7226 	 32.8931 	 
H 	 -50.1759 	 14.346 	 34.2602 	 
C 	 -51.3242 	 14.7543 	 32.4257 	 
H 	 -51.6604 	 15.6978 	 32.8828 	 
H 	 -52.193 	 14.0725 	 32.6316 	 
C 	 -51.1618 	 14.9317 	 30.8786 	 
H 	 -50.448 	 15.6937 	 30.6336 	 
H 	 -52.0718 	 15.2782 	 30.4019 	 
H 	 -50.7823 	 13.9858 	 30.4617 	 
H 	 -44.18 	 13.406 	 30.3426 	 
H 	 -50.5369 	 9.55055 	 33.7458 	 
*
