! wB97X-D3 SP def2-SVP
%pal
nprocs 24
end

* xyz 0 1
S 	 -50.1811 	 26.1138 	 25.012 	 
C 	 -49.964 	 27.5091 	 23.9854 	 
C 	 -48.7161 	 28.1071 	 24.2364 	 
C 	 -47.9619 	 27.4286 	 25.2645 	 
C 	 -48.5932 	 26.3015 	 25.7542 	 
H 	 -46.9911 	 27.7048 	 25.6115 	 
C 	 -48.222 	 29.3571 	 23.5824 	 
H 	 -48.9924 	 29.7621 	 22.9134 	 
H 	 -47.4864 	 29.1465 	 22.8054 	 
C 	 -47.7788 	 30.513 	 24.5127 	 
H 	 -48.6484 	 30.7872 	 25.0692 	 
H 	 -47.065 	 30.1559 	 25.2485 	 
C 	 -47.2661 	 31.6886 	 23.7184 	 
H 	 -46.595 	 32.2804 	 24.3311 	 
H 	 -46.6697 	 31.4646 	 22.8694 	 
H 	 -48.1959 	 32.2123 	 23.3161 	 
S 	 -48.6476 	 23.6941 	 26.4057 	 
C 	 -47.7083 	 23.0668 	 27.6474 	 
C 	 -47.1839 	 24.0998 	 28.4222 	 
C 	 -47.3507 	 25.3966 	 27.8874 	 
C 	 -48.0818 	 25.3005 	 26.7033 	 
H 	 -46.5464 	 23.8223 	 29.2862 	 
C 	 -46.6285 	 26.5764 	 28.4495 	 
H 	 -46.1875 	 27.1211 	 27.5887 	 
H 	 -45.8239 	 26.2038 	 29.1536 	 
C 	 -47.4129 	 27.6101 	 29.2803 	 
H 	 -46.766 	 28.3809 	 29.6311 	 
H 	 -47.9021 	 27.0679 	 30.1015 	 
C 	 -48.6596 	 28.3276 	 28.6265 	 
H 	 -48.2152 	 28.8123 	 27.8432 	 
H 	 -49.0343 	 29.1209 	 29.2526 	 
H 	 -49.3629 	 27.5857 	 28.3375 	 
H 	 -50.7738 	 27.9237 	 23.4326 	 
H 	 -47.6278 	 22.074 	 27.9559 	 
*
