! wB97X-D3 SP def2-SVP
%pal
nprocs 24
end

* xyz 0 1
S 	 -84.8503 	 -8.39136 	 -54.3292 	 
C 	 -85.621 	 -9.83706 	 -54.886 	 
C 	 -84.9051 	 -10.5359 	 -55.8538 	 
C 	 -84.0259 	 -9.63118 	 -56.5064 	 
C 	 -83.8935 	 -8.38334 	 -55.831 	 
H 	 -83.5795 	 -9.90347 	 -57.3998 	 
C 	 -85.3137 	 -11.7777 	 -56.5624 	 
H 	 -85.7733 	 -12.4102 	 -55.8057 	 
H 	 -84.4402 	 -12.2727 	 -56.883 	 
C 	 -86.1016 	 -11.5308 	 -57.8386 	 
H 	 -86.8319 	 -10.7345 	 -57.7182 	 
H 	 -85.3812 	 -11.0947 	 -58.5101 	 
C 	 -86.6329 	 -12.865 	 -58.4463 	 
H 	 -85.9312 	 -13.7375 	 -58.6821 	 
H 	 -87.26 	 -13.367 	 -57.7208 	 
H 	 -87.1365 	 -12.7481 	 -59.4053 	 
S 	 -81.7149 	 -6.91216 	 -55.2479 	 
C 	 -81.0049 	 -5.76329 	 -56.3087 	 
C 	 -81.7466 	 -5.76688 	 -57.5182 	 
C 	 -82.8706 	 -6.67892 	 -57.4964 	 
C 	 -83.0577 	 -7.28494 	 -56.2933 	 
H 	 -81.6707 	 -5.04385 	 -58.3166 	 
C 	 -83.7961 	 -6.75085 	 -58.7051 	 
H 	 -83.9985 	 -5.75356 	 -59.0695 	 
H 	 -84.7156 	 -7.33044 	 -58.4704 	 
C 	 -83.1057 	 -7.37885 	 -59.8964 	 
H 	 -82.6657 	 -8.29487 	 -59.4557 	 
H 	 -82.3113 	 -6.65378 	 -60.2241 	 
C 	 -84.02 	 -7.64694 	 -61.0384 	 
H 	 -84.8862 	 -8.16507 	 -60.788 	 
H 	 -83.4924 	 -8.03312 	 -61.9332 	 
H 	 -84.463 	 -6.71883 	 -61.2652 	 
H 	 -86.4382 	 -10.2284 	 -54.3586 	 
H 	 -80.2291 	 -5.07736 	 -56.0057 	 
*
