! wB97X-D3 SP def2-SVP
%pal
nprocs 24
end

* xyz 0 1
S 	 -73.6834 	 2.13086 	 12.9162 	 
C 	 -72.2403 	 2.41592 	 11.9963 	 
C 	 -71.3183 	 3.25008 	 12.6151 	 
C 	 -71.9455 	 3.81477 	 13.7878 	 
C 	 -73.2661 	 3.5257 	 13.92 	 
H 	 -71.4998 	 4.55436 	 14.4979 	 
C 	 -69.887 	 3.57636 	 12.1392 	 
H 	 -69.6844 	 4.67627 	 12.3538 	 
H 	 -69.7977 	 3.39503 	 11.0884 	 
C 	 -68.7439 	 2.98662 	 12.9575 	 
H 	 -67.8079 	 3.5958 	 12.6645 	 
H 	 -68.9034 	 3.16507 	 14.0293 	 
C 	 -68.4811 	 1.47361 	 12.8059 	 
H 	 -67.7924 	 1.01593 	 13.5731 	 
H 	 -69.4457 	 0.951193 	 12.763 	 
H 	 -68.0183 	 1.25749 	 11.8292 	 
S 	 -75.5828 	 4.78415 	 13.8564 	 
C 	 -76.1711 	 5.6678 	 15.2847 	 
C 	 -75.2424 	 5.70753 	 16.3123 	 
C 	 -74.077 	 4.86795 	 15.9631 	 
C 	 -74.1928 	 4.24853 	 14.7505 	 
H 	 -75.4281 	 6.30642 	 17.1485 	 
C 	 -72.9465 	 4.63396 	 16.9708 	 
H 	 -72.3431 	 3.73023 	 16.6691 	 
H 	 -73.426 	 4.25252 	 17.8501 	 
C 	 -72.2893 	 5.9582 	 17.4077 	 
H 	 -71.4762 	 5.67165 	 18.1529 	 
H 	 -72.9642 	 6.51252 	 18.056 	 
C 	 -71.6519 	 6.7504 	 16.2607 	 
H 	 -72.3271 	 7.01779 	 15.4458 	 
H 	 -70.7731 	 6.31121 	 15.8203 	 
H 	 -71.2776 	 7.7059 	 16.7241 	 
H 	 -71.9758 	 1.70059 	 11.2809 	 
H 	 -77.0089 	 6.31518 	 15.1757 	 
*
