! wB97X-D3 SP def2-SVP
%pal
nprocs 24
end

* xyz 0 1
S 	 -140.438 	 24.5477 	 -20.3367 	 
C 	 -141.625 	 23.2375 	 -20.1874 	 
C 	 -142.819 	 23.7177 	 -19.7007 	 
C 	 -142.699 	 25.1321 	 -19.368 	 
C 	 -141.472 	 25.6959 	 -19.6065 	 
H 	 -143.488 	 25.8209 	 -19.0842 	 
C 	 -144.075 	 22.9092 	 -19.6463 	 
H 	 -144.318 	 22.6349 	 -20.6184 	 
H 	 -144.846 	 23.6224 	 -19.4724 	 
C 	 -144.177 	 21.8211 	 -18.6042 	 
H 	 -143.396 	 21.0831 	 -18.839 	 
H 	 -143.986 	 22.1758 	 -17.5807 	 
C 	 -145.509 	 21.1051 	 -18.7026 	 
H 	 -145.95 	 20.6726 	 -19.5926 	 
H 	 -145.704 	 20.3576 	 -17.9065 	 
H 	 -146.195 	 21.8877 	 -18.4685 	 
S 	 -140.435 	 28.1773 	 -20.5226 	 
C 	 -140.699 	 29.5224 	 -19.4479 	 
C 	 -141.152 	 29.1407 	 -18.2046 	 
C 	 -141.321 	 27.6806 	 -18.1114 	 
C 	 -141.06 	 27.0665 	 -19.3062 	 
H 	 -141.33 	 29.8319 	 -17.4039 	 
C 	 -141.871 	 27.139 	 -16.8156 	 
H 	 -142.963 	 27.0152 	 -16.934 	 
H 	 -141.631 	 27.9177 	 -16.0355 	 
C 	 -141.301 	 25.791 	 -16.384 	 
H 	 -140.216 	 25.912 	 -16.6008 	 
H 	 -141.828 	 25.0173 	 -16.932 	 
C 	 -141.368 	 25.5819 	 -14.8786 	 
H 	 -141.017 	 24.6158 	 -14.5326 	 
H 	 -142.306 	 25.8859 	 -14.4839 	 
H 	 -140.83 	 26.3349 	 -14.3388 	 
H 	 -141.555 	 22.2116 	 -20.486 	 
H 	 -140.411 	 30.4689 	 -19.5648 	 
*
