! wB97X-D3 SP def2-SVP
%pal
nprocs 24
end

* xyz 0 1
S 	 -46.6335 	 8.95178 	 -20.1223 	 
C 	 -46.8988 	 7.57824 	 -19.139 	 
C 	 -47.7384 	 7.84232 	 -18.037 	 
C 	 -48.0791 	 9.22962 	 -17.9808 	 
C 	 -47.6563 	 9.95379 	 -19.0599 	 
H 	 -48.5469 	 9.8104 	 -17.1803 	 
C 	 -48.2423 	 6.75091 	 -17.03 	 
H 	 -47.3597 	 6.05311 	 -16.8784 	 
H 	 -48.9629 	 6.17932 	 -17.5555 	 
C 	 -48.9965 	 7.26501 	 -15.7677 	 
H 	 -49.8931 	 7.82358 	 -16.0134 	 
H 	 -49.3559 	 6.46201 	 -15.1475 	 
C 	 -48.1013 	 8.22295 	 -14.8837 	 
H 	 -48.5617 	 8.39235 	 -13.9164 	 
H 	 -47.1454 	 7.78601 	 -14.6639 	 
H 	 -47.9967 	 9.27311 	 -15.2949 	 
S 	 -46.3764 	 12.3955 	 -19.7845 	 
C 	 -47.2529 	 13.8338 	 -19.5922 	 
C 	 -48.5091 	 13.7386 	 -19.059 	 
C 	 -48.8598 	 12.3345 	 -19.0254 	 
C 	 -47.801 	 11.4088 	 -19.33 	 
H 	 -49.0551 	 14.6103 	 -18.7544 	 
C 	 -50.2714 	 12.0305 	 -18.6043 	 
H 	 -50.5265 	 12.5737 	 -17.7292 	 
H 	 -50.1785 	 10.9708 	 -18.4123 	 
C 	 -51.415 	 12.2527 	 -19.6409 	 
H 	 -51.0705 	 11.7865 	 -20.6199 	 
H 	 -51.5052 	 13.4265 	 -19.5877 	 
C 	 -52.7929 	 11.7278 	 -19.3933 	 
H 	 -53.2495 	 12.2837 	 -18.5384 	 
H 	 -52.6996 	 10.6574 	 -19.0458 	 
H 	 -53.42 	 11.6226 	 -20.2917 	 
H 	 -46.4102 	 6.56801 	 -19.2489 	 
H 	 -46.7754 	 14.8822 	 -19.5942 	 
*
