! wB97X-D3 SP def2-SVP
%pal
nprocs 24
end

* xyz 0 1
S 	 -56.8932 	 17.4996 	 -105.065 	 
C 	 -56.9051 	 18.1955 	 -103.391 	 
C 	 -57.0633 	 17.2634 	 -102.401 	 
C 	 -57.4612 	 15.972 	 -103.016 	 
C 	 -57.468 	 15.9434 	 -104.432 	 
H 	 -57.7023 	 15.0849 	 -102.598 	 
C 	 -57.1072 	 17.5142 	 -100.807 	 
H 	 -57.8893 	 18.2228 	 -100.694 	 
H 	 -56.2522 	 17.9774 	 -100.42 	 
C 	 -57.3611 	 16.3177 	 -99.901 	 
H 	 -58.3287 	 15.9281 	 -100.151 	 
H 	 -56.5906 	 15.5433 	 -100.034 	 
C 	 -57.4126 	 16.6908 	 -98.4053 	 
H 	 -57.639 	 15.8314 	 -97.7488 	 
H 	 -56.3875 	 16.987 	 -98.174 	 
H 	 -58.0645 	 17.6094 	 -98.1128 	 
S 	 -56.138 	 14.2784 	 -105.962 	 
C 	 -56.8767 	 12.9616 	 -106.783 	 
C 	 -58.2408 	 12.9593 	 -106.577 	 
C 	 -58.6637 	 14.063 	 -105.77 	 
C 	 -57.6169 	 14.8197 	 -105.288 	 
H 	 -58.8721 	 12.1547 	 -107.024 	 
C 	 -60.1343 	 14.3318 	 -105.479 	 
H 	 -60.1019 	 15.0435 	 -104.579 	 
H 	 -60.8053 	 13.5215 	 -105.209 	 
C 	 -60.8541 	 15.1522 	 -106.596 	 
H 	 -60.2193 	 16.0006 	 -106.859 	 
H 	 -61.6908 	 15.6819 	 -106.168 	 
C 	 -61.2453 	 14.4093 	 -107.88 	 
H 	 -62.1543 	 13.776 	 -107.842 	 
H 	 -60.4308 	 13.7634 	 -108.239 	 
H 	 -61.536 	 15.0247 	 -108.743 	 
H 	 -56.6223 	 19.1873 	 -103.231 	 
H 	 -56.2927 	 12.1911 	 -107.291 	 
*
