! wB97X-D3 SP def2-SVP
%pal
nprocs 24
end

* xyz 0 1
S 	 -131.919 	 66.9276 	 -54.1558 	 
C 	 -132.177 	 67.7337 	 -55.7195 	 
C 	 -131.322 	 68.8319 	 -55.9024 	 
C 	 -130.34 	 68.8461 	 -54.802 	 
C 	 -130.473 	 67.8711 	 -53.8274 	 
H 	 -129.498 	 69.4556 	 -54.8097 	 
C 	 -131.247 	 69.7606 	 -57.1445 	 
H 	 -132.271 	 70.0725 	 -57.2639 	 
H 	 -131.125 	 69.1901 	 -58.0415 	 
C 	 -130.121 	 70.8294 	 -57.1908 	 
H 	 -129.178 	 70.3313 	 -57.2788 	 
H 	 -130.317 	 71.3321 	 -58.1436 	 
C 	 -129.924 	 71.9684 	 -56.1122 	 
H 	 -129.055 	 72.4815 	 -56.2571 	 
H 	 -130.758 	 72.6259 	 -55.9435 	 
H 	 -129.856 	 71.4983 	 -55.1373 	 
S 	 -130.419 	 67.0891 	 -51.2108 	 
C 	 -129.01 	 67.2435 	 -50.221 	 
C 	 -127.976 	 67.6264 	 -51.0322 	 
C 	 -128.321 	 68.0124 	 -52.3678 	 
C 	 -129.66 	 67.7108 	 -52.6376 	 
H 	 -126.985 	 67.7134 	 -50.646 	 
C 	 -127.319 	 68.6842 	 -53.3425 	 
H 	 -127.602 	 69.6727 	 -53.2782 	 
H 	 -127.5 	 68.3046 	 -54.3573 	 
C 	 -125.813 	 68.596 	 -52.9662 	 
H 	 -125.193 	 68.3964 	 -53.8648 	 
H 	 -125.499 	 67.648 	 -52.4509 	 
C 	 -125.351 	 69.7117 	 -52.0376 	 
H 	 -126.179 	 69.9671 	 -51.3735 	 
H 	 -125.057 	 70.6156 	 -52.6303 	 
H 	 -124.508 	 69.4672 	 -51.4405 	 
H 	 -132.933 	 67.4296 	 -56.4602 	 
H 	 -128.87 	 66.8574 	 -49.2236 	 
*
