! wB97X-D3 SP def2-SVP
%pal
nprocs 24
end

* xyz 0 1
S 	 -30.167 	 18.99 	 11.9004 	 
C 	 -30.2562 	 20.1346 	 10.5663 	 
C 	 -30.715 	 19.5652 	 9.40127 	 
C 	 -31.058 	 18.1737 	 9.61145 	 
C 	 -30.7514 	 17.6475 	 10.8549 	 
H 	 -31.2552 	 17.4523 	 8.80818 	 
C 	 -30.8419 	 20.4109 	 8.15627 	 
H 	 -31.2284 	 19.6793 	 7.38722 	 
H 	 -29.9276 	 20.7717 	 7.91079 	 
C 	 -31.9707 	 21.5521 	 8.25198 	 
H 	 -32.9276 	 21.0253 	 8.32544 	 
H 	 -31.8772 	 22.1292 	 9.16757 	 
C 	 -32.0445 	 22.5323 	 7.06527 	 
H 	 -32.5522 	 23.4762 	 7.24055 	 
H 	 -31.0455 	 22.8173 	 6.82907 	 
H 	 -32.3979 	 22.1019 	 6.09088 	 
S 	 -29.2829 	 15.349 	 11.3795 	 
C 	 -30.1508 	 13.925 	 11.7773 	 
C 	 -31.5098 	 14.1193 	 11.72 	 
C 	 -31.9233 	 15.4324 	 11.3067 	 
C 	 -30.7964 	 16.2694 	 11.2058 	 
H 	 -32.212 	 13.3397 	 12.0273 	 
C 	 -33.3714 	 16.0381 	 11.2413 	 
H 	 -33.4291 	 16.6741 	 10.3588 	 
H 	 -33.5094 	 16.7632 	 12.0594 	 
C 	 -34.5142 	 14.9676 	 11.284 	 
H 	 -34.2576 	 14.1061 	 10.6467 	 
H 	 -35.4582 	 15.3277 	 10.8943 	 
C 	 -34.7744 	 14.6367 	 12.6981 	 
H 	 -35.3633 	 15.398 	 13.2581 	 
H 	 -33.8759 	 14.433 	 13.163 	 
H 	 -35.4665 	 13.791 	 12.9488 	 
H 	 -29.8446 	 21.1702 	 10.5788 	 
H 	 -29.7125 	 13.0382 	 11.9997 	 
*
