! wB97X-D3 SP def2-SVP
%pal
nprocs 24
end

* xyz 0 1
S 	 -134.845 	 62.0926 	 -59.8089 	 
C 	 -134.51 	 63.1217 	 -61.1752 	 
C 	 -133.794 	 64.2609 	 -60.8172 	 
C 	 -133.469 	 64.2032 	 -59.4253 	 
C 	 -134.239 	 63.2496 	 -58.7469 	 
H 	 -132.919 	 64.9956 	 -58.8371 	 
C 	 -133.203 	 65.283 	 -61.77 	 
H 	 -133.908 	 66.0564 	 -62.0792 	 
H 	 -133.35 	 64.7373 	 -62.6588 	 
C 	 -131.796 	 65.8272 	 -61.3592 	 
H 	 -131.845 	 66.1139 	 -60.2653 	 
H 	 -131.133 	 64.9926 	 -61.4681 	 
C 	 -131.354 	 67.0203 	 -62.2784 	 
H 	 -130.306 	 67.2057 	 -62.242 	 
H 	 -131.586 	 66.8673 	 -63.3488 	 
H 	 -131.777 	 67.9566 	 -61.8928 	 
S 	 -135.747 	 62.9836 	 -56.4629 	 
C 	 -134.948 	 62.6684 	 -54.9601 	 
C 	 -133.641 	 62.9233 	 -55.0622 	 
C 	 -133.216 	 63.0731 	 -56.4314 	 
C 	 -134.233 	 63.0376 	 -57.3387 	 
H 	 -132.924 	 62.846 	 -54.2546 	 
C 	 -131.72 	 63.3108 	 -56.7408 	 
H 	 -131.427 	 63.2176 	 -57.7853 	 
H 	 -131.251 	 62.5404 	 -56.0616 	 
C 	 -131.061 	 64.563 	 -56.152 	 
H 	 -131.184 	 64.4847 	 -55.0454 	 
H 	 -131.569 	 65.5414 	 -56.4316 	 
C 	 -129.588 	 64.6555 	 -56.307 	 
H 	 -129.366 	 64.7693 	 -57.3255 	 
H 	 -128.936 	 63.8147 	 -56.1091 	 
H 	 -129.228 	 65.5237 	 -55.7893 	 
H 	 -134.857 	 62.854 	 -62.1432 	 
H 	 -135.464 	 62.4941 	 -54.0306 	 
*
