! wB97X-D3 SP def2-SVP
%pal
nprocs 24
end

* xyz 0 1
S 	 -132.592 	 23.3257 	 -22.5008 	 
C 	 -133.505 	 21.8856 	 -23.0054 	 
C 	 -133.167 	 21.595 	 -24.2885 	 
C 	 -132.173 	 22.464 	 -24.8393 	 
C 	 -131.726 	 23.439 	 -23.992 	 
H 	 -131.641 	 22.3514 	 -25.7355 	 
C 	 -133.863 	 20.5178 	 -25.0821 	 
H 	 -134.515 	 20.9973 	 -25.8026 	 
H 	 -134.637 	 20.1612 	 -24.3929 	 
C 	 -133.022 	 19.4097 	 -25.5372 	 
H 	 -132.291 	 19.7139 	 -26.3211 	 
H 	 -132.406 	 19.002 	 -24.665 	 
C 	 -133.911 	 18.2532 	 -25.968 	 
H 	 -134.26 	 17.6724 	 -25.149 	 
H 	 -134.886 	 18.7046 	 -26.4223 	 
H 	 -133.353 	 17.6178 	 -26.7049 	 
S 	 -130.703 	 25.8584 	 -24.7738 	 
C 	 -128.952 	 26.0822 	 -24.6791 	 
C 	 -128.339 	 24.8977 	 -24.3115 	 
C 	 -129.235 	 23.8785 	 -23.9959 	 
C 	 -130.53 	 24.1963 	 -24.2344 	 
H 	 -127.294 	 24.8574 	 -24.197 	 
C 	 -128.795 	 22.5434 	 -23.3789 	 
H 	 -129.559 	 22.2206 	 -22.5909 	 
H 	 -127.894 	 22.7383 	 -22.8559 	 
C 	 -128.406 	 21.44 	 -24.3392 	 
H 	 -127.333 	 21.4943 	 -24.6172 	 
H 	 -128.955 	 21.8232 	 -25.2576 	 
C 	 -128.873 	 20.0355 	 -23.8761 	 
H 	 -130.005 	 19.8523 	 -23.7666 	 
H 	 -128.411 	 19.684 	 -23.0016 	 
H 	 -128.563 	 19.3012 	 -24.5729 	 
H 	 -134.18 	 21.3064 	 -22.4586 	 
H 	 -128.424 	 26.9213 	 -24.9947 	 
*
