! wB97X-D3 SP def2-SVP
%pal
nprocs 24
end

* xyz 0 1
S 	 -46.0321 	 -2.22416 	 -23.623 	 
C 	 -47.0875 	 -2.96518 	 -24.7956 	 
C 	 -46.4114 	 -3.77129 	 -25.713 	 
C 	 -45.0001 	 -3.64066 	 -25.4843 	 
C 	 -44.5746 	 -2.82079 	 -24.4493 	 
H 	 -44.2804 	 -4.2217 	 -26.097 	 
C 	 -46.9803 	 -4.52493 	 -26.9716 	 
H 	 -46.5031 	 -5.5381 	 -26.8877 	 
H 	 -46.5848 	 -4.17925 	 -27.8415 	 
C 	 -48.5279 	 -4.68405 	 -26.9174 	 
H 	 -48.921 	 -5.63232 	 -27.3898 	 
H 	 -48.7121 	 -4.78637 	 -25.8301 	 
C 	 -49.3316 	 -3.62239 	 -27.5277 	 
H 	 -49.1278 	 -2.67284 	 -26.9444 	 
H 	 -48.9366 	 -3.40645 	 -28.4946 	 
H 	 -50.4341 	 -3.91782 	 -27.6083 	 
S 	 -42.7277 	 -0.833637 	 -23.9494 	 
C 	 -41.0788 	 -1.31968 	 -23.4772 	 
C 	 -40.8677 	 -2.66496 	 -23.5589 	 
C 	 -42.0599 	 -3.34397 	 -23.8678 	 
C 	 -43.1807 	 -2.46147 	 -24.0609 	 
H 	 -39.8924 	 -2.98997 	 -23.3931 	 
C 	 -42.0793 	 -4.86773 	 -23.9761 	 
H 	 -42.1212 	 -5.06836 	 -25.0309 	 
H 	 -43.1028 	 -5.11195 	 -23.6557 	 
C 	 -40.9324 	 -5.59344 	 -23.3036 	 
H 	 -41.0012 	 -5.31255 	 -22.2439 	 
H 	 -40.0007 	 -5.27421 	 -23.7262 	 
C 	 -40.7167 	 -7.16299 	 -23.3019 	 
H 	 -41.59 	 -7.7431 	 -23.1468 	 
H 	 -40.0149 	 -7.47118 	 -22.5306 	 
H 	 -40.2401 	 -7.44938 	 -24.2345 	 
H 	 -48.1808 	 -2.91029 	 -24.7482 	 
H 	 -40.3364 	 -0.538124 	 -23.125 	 
*
