! wB97X-D3 SP def2-SVP
%pal
nprocs 24
end

* xyz 0 1
S 	 -88.0823 	 -5.19449 	 -60.566 	 
C 	 -88.2835 	 -3.64153 	 -61.305 	 
C 	 -87.1874 	 -2.86637 	 -61.065 	 
C 	 -86.2083 	 -3.51072 	 -60.2539 	 
C 	 -86.5473 	 -4.8062 	 -59.8393 	 
H 	 -85.2714 	 -3.09404 	 -59.8866 	 
C 	 -86.9665 	 -1.40543 	 -61.4461 	 
H 	 -86.7345 	 -0.826527 	 -60.5643 	 
H 	 -87.8844 	 -1.10518 	 -61.9781 	 
C 	 -85.8689 	 -1.11367 	 -62.4425 	 
H 	 -85.8231 	 -0.0692618 	 -62.7233 	 
H 	 -84.8996 	 -1.31144 	 -62.0012 	 
C 	 -85.8623 	 -1.99718 	 -63.6778 	 
H 	 -86.803 	 -2.09012 	 -64.2359 	 
H 	 -84.9998 	 -1.81186 	 -64.3386 	 
H 	 -85.6696 	 -3.0668 	 -63.3142 	 
S 	 -85.6723 	 -7.32592 	 -59.6694 	 
C 	 -84.7072 	 -7.89065 	 -58.4003 	 
C 	 -84.3906 	 -6.90229 	 -57.488 	 
C 	 -84.9527 	 -5.6722 	 -57.883 	 
C 	 -85.7233 	 -5.70897 	 -59.041 	 
H 	 -83.8551 	 -7.15886 	 -56.5521 	 
C 	 -84.8239 	 -4.36061 	 -57.1636 	 
H 	 -85.7407 	 -3.7763 	 -57.376 	 
H 	 -83.9115 	 -3.92821 	 -57.5302 	 
C 	 -84.6846 	 -4.3542 	 -55.6348 	 
H 	 -84.5877 	 -3.26028 	 -55.4092 	 
H 	 -83.688 	 -4.78409 	 -55.4726 	 
C 	 -85.7552 	 -4.94291 	 -54.8103 	 
H 	 -85.9226 	 -5.97124 	 -55.0657 	 
H 	 -86.641 	 -4.3653 	 -55.0111 	 
H 	 -85.4538 	 -4.98838 	 -53.8311 	 
H 	 -89.1164 	 -3.30142 	 -61.9396 	 
H 	 -84.374 	 -8.9437 	 -58.2879 	 
*
