! wB97X-D3 SP def2-SVP
%pal
nprocs 24
end

* xyz 0 1
S 	 -132.912 	 5.40384 	 -11.0713 	 
C 	 -133.117 	 6.54749 	 -9.81274 	 
C 	 -133.7 	 7.71322 	 -10.2522 	 
C 	 -134.18 	 7.64255 	 -11.52 	 
C 	 -133.836 	 6.46877 	 -12.1904 	 
H 	 -134.752 	 8.40067 	 -12.0288 	 
C 	 -134.079 	 8.84438 	 -9.2891 	 
H 	 -133.904 	 8.3674 	 -8.32509 	 
H 	 -135.135 	 9.03325 	 -9.39873 	 
C 	 -133.156 	 10.0957 	 -9.27958 	 
H 	 -133.262 	 10.7251 	 -8.44607 	 
H 	 -132.197 	 9.74517 	 -9.38892 	 
C 	 -133.394 	 11.0511 	 -10.5042 	 
H 	 -133.173 	 10.4683 	 -11.4173 	 
H 	 -134.49 	 11.3671 	 -10.6147 	 
H 	 -132.728 	 11.8954 	 -10.6576 	 
S 	 -135.309 	 4.94418 	 -13.8453 	 
C 	 -135.077 	 5.07173 	 -15.5649 	 
C 	 -134.058 	 5.91983 	 -15.893 	 
C 	 -133.433 	 6.49509 	 -14.7704 	 
C 	 -134.084 	 6.0996 	 -13.5877 	 
H 	 -133.715 	 6.08095 	 -16.8928 	 
C 	 -132.182 	 7.38012 	 -14.8204 	 
H 	 -131.271 	 6.7749 	 -14.8038 	 
H 	 -132.072 	 7.9531 	 -13.8844 	 
C 	 -132.219 	 8.49107 	 -15.8767 	 
H 	 -133.024 	 9.21735 	 -15.5971 	 
H 	 -132.51 	 8.19742 	 -16.9038 	 
C 	 -130.94 	 9.26483 	 -16.0212 	 
H 	 -130.683 	 9.92426 	 -15.1585 	 
H 	 -130.971 	 9.97196 	 -16.8702 	 
H 	 -130.066 	 8.52397 	 -16.0095 	 
H 	 -132.761 	 6.42512 	 -8.79832 	 
H 	 -135.637 	 4.54605 	 -16.3292 	 
*
