! wB97X-D3 SP def2-SVP
%pal
nprocs 24
end

* xyz 0 1
S 	 -128.458 	 63.8414 	 -56.4943 	 
C 	 -126.886 	 64.6882 	 -56.6358 	 
C 	 -125.785 	 63.8257 	 -56.6467 	 
C 	 -126.25 	 62.4581 	 -56.472 	 
C 	 -127.591 	 62.3261 	 -56.1953 	 
H 	 -125.656 	 61.6174 	 -56.42 	 
C 	 -124.359 	 64.231 	 -56.6497 	 
H 	 -123.788 	 63.4132 	 -56.2472 	 
H 	 -124.138 	 65.0469 	 -55.9679 	 
C 	 -123.701 	 64.5976 	 -58.0432 	 
H 	 -123.352 	 63.5847 	 -58.3834 	 
H 	 -124.414 	 65.0077 	 -58.7139 	 
C 	 -122.463 	 65.5833 	 -58.0117 	 
H 	 -122.234 	 65.9595 	 -58.993 	 
H 	 -122.619 	 66.4413 	 -57.4645 	 
H 	 -121.583 	 65.0145 	 -57.6933 	 
S 	 -129.661 	 60.7677 	 -57.1239 	 
C 	 -129.946 	 59.2781 	 -56.3671 	 
C 	 -128.98 	 58.9132 	 -55.4482 	 
C 	 -128.045 	 59.9957 	 -55.2647 	 
C 	 -128.308 	 61.0794 	 -56.0424 	 
H 	 -129.129 	 58.0687 	 -54.7992 	 
C 	 -126.993 	 59.8242 	 -54.2573 	 
H 	 -127.481 	 59.287 	 -53.5222 	 
H 	 -126.722 	 60.7477 	 -53.6489 	 
C 	 -125.659 	 59.1943 	 -54.6981 	 
H 	 -125.357 	 59.8247 	 -55.4995 	 
H 	 -125.863 	 58.2126 	 -55.113 	 
C 	 -124.519 	 59.0386 	 -53.6402 	 
H 	 -124.53 	 59.9988 	 -53.1306 	 
H 	 -123.513 	 58.767 	 -53.9085 	 
H 	 -124.763 	 58.432 	 -52.7947 	 
H 	 -126.72 	 65.7372 	 -56.6313 	 
H 	 -130.704 	 58.6606 	 -56.6487 	 
*
