! wB97X-D3 SP def2-SVP
%pal
nprocs 24
end

* xyz 0 1
S 	 -116.656 	 57.5095 	 -38.7479 	 
C 	 -118.004 	 57.178 	 -39.797 	 
C 	 -119.224 	 57.4222 	 -39.2124 	 
C 	 -119.037 	 57.7363 	 -37.8283 	 
C 	 -117.772 	 57.9001 	 -37.3846 	 
H 	 -119.815 	 57.8714 	 -37.1588 	 
C 	 -120.572 	 57.2947 	 -39.8717 	 
H 	 -121.43 	 57.3953 	 -39.1882 	 
H 	 -120.523 	 56.2878 	 -40.376 	 
C 	 -120.933 	 58.3273 	 -40.9444 	 
H 	 -122.001 	 58.2771 	 -41.1142 	 
H 	 -120.682 	 59.3092 	 -40.6268 	 
C 	 -120.203 	 58.047 	 -42.192 	 
H 	 -120.603 	 57.0344 	 -42.5084 	 
H 	 -120.36 	 58.7838 	 -42.9717 	 
H 	 -119.127 	 57.9859 	 -42.1636 	 
S 	 -118.373 	 59.5996 	 -35.3276 	 
C 	 -117.283 	 59.5866 	 -33.9002 	 
C 	 -116.445 	 58.4619 	 -34.0059 	 
C 	 -116.512 	 57.7089 	 -35.2162 	 
C 	 -117.461 	 58.2576 	 -36.0087 	 
H 	 -115.756 	 58.1584 	 -33.2418 	 
C 	 -115.555 	 56.5502 	 -35.535 	 
H 	 -115.836 	 56.2821 	 -36.4701 	 
H 	 -115.688 	 55.7415 	 -34.7798 	 
C 	 -114.06 	 56.9487 	 -35.787 	 
H 	 -113.791 	 57.5258 	 -34.8557 	 
H 	 -114.024 	 57.6062 	 -36.6072 	 
C 	 -113.199 	 55.6902 	 -35.9104 	 
H 	 -112.107 	 55.9108 	 -35.9673 	 
H 	 -113.539 	 55.1601 	 -36.794 	 
H 	 -113.351 	 55.0608 	 -35.0832 	 
H 	 -117.876 	 56.8252 	 -40.8649 	 
H 	 -117.36 	 60.2943 	 -33.0204 	 
*
