! wB97X-D3 SP def2-SVP
%pal
nprocs 24
end

* xyz 0 1
S 	 -124.898 	 59.1661 	 -54.6464 	 
C 	 -125.839 	 57.8475 	 -55.302 	 
C 	 -126.703 	 58.2597 	 -56.306 	 
C 	 -126.539 	 59.6566 	 -56.567 	 
C 	 -125.586 	 60.352 	 -55.7961 	 
H 	 -127.005 	 60.1797 	 -57.4116 	 
C 	 -127.79 	 57.3154 	 -56.8167 	 
H 	 -128.669 	 57.7525 	 -56.3315 	 
H 	 -127.607 	 56.4317 	 -56.2251 	 
C 	 -128.011 	 57.3002 	 -58.353 	 
H 	 -128.241 	 58.2998 	 -58.734 	 
H 	 -127.063 	 56.9464 	 -58.775 	 
C 	 -129.025 	 56.2983 	 -58.8894 	 
H 	 -129.118 	 56.201 	 -60.061 	 
H 	 -128.843 	 55.2378 	 -58.6412 	 
H 	 -130.039 	 56.6759 	 -58.4683 	 
S 	 -126.309 	 62.7706 	 -56.9278 	 
C 	 -125.331 	 64.1315 	 -56.5576 	 
C 	 -124.287 	 63.8676 	 -55.7147 	 
C 	 -124.214 	 62.4555 	 -55.3316 	 
C 	 -125.298 	 61.7675 	 -55.8459 	 
H 	 -123.708 	 64.6985 	 -55.3164 	 
C 	 -123.095 	 61.89 	 -54.4597 	 
H 	 -123.526 	 61.1904 	 -53.7194 	 
H 	 -122.796 	 62.6236 	 -53.828 	 
C 	 -121.902 	 61.3617 	 -55.285 	 
H 	 -121.516 	 62.2128 	 -55.8948 	 
H 	 -122.286 	 60.5536 	 -55.9695 	 
C 	 -120.857 	 60.6884 	 -54.3729 	 
H 	 -120.778 	 61.2627 	 -53.4975 	 
H 	 -119.814 	 60.5884 	 -54.7645 	 
H 	 -121.084 	 59.6541 	 -54.0878 	 
H 	 -125.72 	 56.8553 	 -54.9746 	 
H 	 -125.607 	 65.1655 	 -56.8405 	 
*
