! wB97X-D3 SP def2-SVP
%pal
nprocs 24
end

* xyz 0 1
S 	 -31.4373 	 14.5266 	 6.49602 	 
C 	 -33.2157 	 14.5475 	 6.35903 	 
C 	 -33.9038 	 14.7964 	 7.54654 	 
C 	 -32.9891 	 15.2676 	 8.54784 	 
C 	 -31.6863 	 15.2062 	 8.11149 	 
H 	 -33.3413 	 15.7095 	 9.4202 	 
C 	 -35.4469 	 14.8024 	 7.72399 	 
H 	 -35.9744 	 15.0282 	 6.75458 	 
H 	 -35.7645 	 15.6624 	 8.29829 	 
C 	 -35.9677 	 13.5644 	 8.42459 	 
H 	 -35.6817 	 12.6357 	 7.84711 	 
H 	 -35.3561 	 13.3064 	 9.32742 	 
C 	 -37.4086 	 13.7275 	 8.64015 	 
H 	 -37.9607 	 13.7609 	 7.73918 	 
H 	 -37.7552 	 12.8428 	 9.21072 	 
H 	 -37.7631 	 14.6221 	 9.1706 	 
S 	 -29.3427 	 16.641 	 7.77017 	 
C 	 -28.478 	 17.1643 	 9.24833 	 
C 	 -29.1355 	 16.748 	 10.384 	 
C 	 -30.2706 	 15.9995 	 10.1393 	 
C 	 -30.5625 	 15.8569 	 8.76146 	 
H 	 -28.639 	 16.9983 	 11.4003 	 
C 	 -30.9948 	 15.3653 	 11.3275 	 
H 	 -31.7952 	 14.8089 	 10.847 	 
H 	 -31.421 	 16.2174 	 11.8838 	 
C 	 -30.1864 	 14.5079 	 12.2205 	 
H 	 -29.3933 	 15.1784 	 12.6571 	 
H 	 -29.6062 	 13.8403 	 11.6089 	 
C 	 -30.9802 	 13.717 	 13.2779 	 
H 	 -31.0114 	 14.4142 	 14.1639 	 
H 	 -30.3245 	 12.8515 	 13.5011 	 
H 	 -31.9149 	 13.3619 	 12.9391 	 
H 	 -33.7289 	 14.2155 	 5.48771 	 
H 	 -27.6112 	 17.7424 	 9.10123 	 
*
