! wB97X-D3 SP def2-SVP
%pal
nprocs 24
end

* xyz 0 1
S 	 -49.879 	 -43.7188 	 -77.2534 	 
C 	 -50.262 	 -42.1547 	 -77.8889 	 
C 	 -49.1454 	 -41.3453 	 -77.7404 	 
C 	 -47.9909 	 -42.0678 	 -77.2397 	 
C 	 -48.1771 	 -43.3824 	 -77.0975 	 
H 	 -47.0509 	 -41.592 	 -76.9465 	 
C 	 -49.0715 	 -39.8949 	 -78.0229 	 
H 	 -49.0531 	 -39.3064 	 -77.0883 	 
H 	 -49.9778 	 -39.6083 	 -78.5053 	 
C 	 -47.9307 	 -39.5492 	 -78.9394 	 
H 	 -46.9399 	 -40.0205 	 -78.6956 	 
H 	 -48.1336 	 -39.8923 	 -79.9714 	 
C 	 -47.8532 	 -38.0022 	 -78.8666 	 
H 	 -47.4607 	 -37.6681 	 -77.8722 	 
H 	 -47.193 	 -37.5378 	 -79.6074 	 
H 	 -48.8422 	 -37.5554 	 -79.0979 	 
S 	 -47.6738 	 -44.9523 	 -74.8907 	 
C 	 -46.5929 	 -46.3237 	 -75.0691 	 
C 	 -45.9712 	 -46.2409 	 -76.2882 	 
C 	 -46.3023 	 -45.1325 	 -77.0741 	 
C 	 -47.2942 	 -44.4166 	 -76.5497 	 
H 	 -45.2129 	 -46.9391 	 -76.5689 	 
C 	 -45.7584 	 -44.9154 	 -78.4257 	 
H 	 -46.2125 	 -44.0193 	 -78.8914 	 
H 	 -46.1287 	 -45.7227 	 -79.0337 	 
C 	 -44.2358 	 -44.9946 	 -78.5053 	 
H 	 -43.8684 	 -45.9575 	 -78.1383 	 
H 	 -43.6965 	 -44.2539 	 -77.9461 	 
C 	 -43.8174 	 -44.9762 	 -80.006 	 
H 	 -44.2153 	 -43.9693 	 -80.3081 	 
H 	 -44.413 	 -45.6252 	 -80.554 	 
H 	 -42.7344 	 -44.9397 	 -80.0883 	 
H 	 -51.3311 	 -42.0152 	 -77.9983 	 
H 	 -46.3627 	 -47.2131 	 -74.425 	 
*
