! wB97X-D3 SP def2-SVP
%pal
nprocs 24
end

* xyz 0 1
S 	 13.8465 	 -14.8142 	 -117.012 	 
C 	 12.2416 	 -14.1344 	 -117.094 	 
C 	 11.3616 	 -14.9867 	 -117.696 	 
C 	 11.9538 	 -16.2534 	 -118.041 	 
C 	 13.2544 	 -16.3439 	 -117.639 	 
H 	 11.4759 	 -17.1235 	 -118.555 	 
C 	 9.96686 	 -14.7258 	 -117.986 	 
H 	 9.88382 	 -14.7507 	 -119.038 	 
H 	 9.77722 	 -13.6934 	 -117.705 	 
C 	 8.81089 	 -15.5934 	 -117.405 	 
H 	 7.83057 	 -15.3484 	 -117.804 	 
H 	 8.9694 	 -16.6621 	 -117.7 	 
C 	 8.67066 	 -15.4413 	 -115.988 	 
H 	 8.50886 	 -14.4361 	 -115.667 	 
H 	 7.88723 	 -16.0853 	 -115.658 	 
H 	 9.58423 	 -15.8944 	 -115.579 	 
S 	 15.6578 	 -17.2561 	 -118.163 	 
C 	 16.0335 	 -18.9502 	 -118.151 	 
C 	 14.9376 	 -19.7059 	 -117.744 	 
C 	 13.8106 	 -18.8828 	 -117.395 	 
C 	 14.0812 	 -17.5481 	 -117.529 	 
H 	 14.9923 	 -20.7066 	 -117.687 	 
C 	 12.4209 	 -19.4924 	 -116.999 	 
H 	 11.6848 	 -18.7142 	 -116.733 	 
H 	 12.5846 	 -20.1068 	 -116.086 	 
C 	 11.7956 	 -20.5094 	 -118.019 	 
H 	 12.4537 	 -21.4426 	 -118.3 	 
H 	 11.578 	 -20.0171 	 -118.956 	 
C 	 10.4508 	 -20.9354 	 -117.454 	 
H 	 10.5594 	 -21.5314 	 -116.54 	 
H 	 9.90785 	 -21.4879 	 -118.154 	 
H 	 9.87921 	 -20.1341 	 -117.018 	 
H 	 12.0336 	 -13.2113 	 -116.578 	 
H 	 16.9501 	 -19.4775 	 -118.287 	 
*
