! wB97X-D3 SP def2-SVP
%pal
nprocs 24
end

* xyz 0 1
S 	 -84.1192 	 -38.6371 	 -72.1386 	 
C 	 -83.6466 	 -38.2449 	 -73.7852 	 
C 	 -83.7924 	 -39.3871 	 -74.6169 	 
C 	 -84.2271 	 -40.5972 	 -73.888 	 
C 	 -84.3272 	 -40.3453 	 -72.5168 	 
H 	 -84.392 	 -41.5847 	 -74.2299 	 
C 	 -83.4441 	 -39.3991 	 -76.0589 	 
H 	 -83.6936 	 -38.4513 	 -76.3155 	 
H 	 -84.0488 	 -40.0585 	 -76.6759 	 
C 	 -81.9578 	 -39.5987 	 -76.2926 	 
H 	 -81.6461 	 -39.5076 	 -77.3146 	 
H 	 -81.4897 	 -38.8086 	 -75.7049 	 
C 	 -81.4298 	 -40.9957 	 -75.8249 	 
H 	 -80.4813 	 -41.1615 	 -76.3305 	 
H 	 -81.2875 	 -41.0664 	 -74.7283 	 
H 	 -82.1776 	 -41.7553 	 -76.1484 	 
S 	 -84.2915 	 -40.8951 	 -69.849 	 
C 	 -84.8005 	 -42.3637 	 -69.1921 	 
C 	 -85.4226 	 -43.1796 	 -70.1596 	 
C 	 -85.1823 	 -42.6455 	 -71.5081 	 
C 	 -84.7007 	 -41.3222 	 -71.4476 	 
H 	 -85.8044 	 -44.1344 	 -69.9492 	 
C 	 -85.7083 	 -43.3325 	 -72.7261 	 
H 	 -85.8849 	 -42.7692 	 -73.6639 	 
H 	 -86.7034 	 -43.596 	 -72.5179 	 
C 	 -85.0528 	 -44.7283 	 -73.0525 	 
H 	 -85.5941 	 -45.071 	 -73.9314 	 
H 	 -85.092 	 -45.3875 	 -72.1493 	 
C 	 -83.5812 	 -44.6987 	 -73.4914 	 
H 	 -83.2927 	 -45.734 	 -73.5981 	 
H 	 -83.0089 	 -44.1346 	 -72.7414 	 
H 	 -83.4109 	 -44.0849 	 -74.4415 	 
H 	 -83.2989 	 -37.2823 	 -74.02 	 
H 	 -84.6409 	 -42.5833 	 -68.1496 	 
*
