! wB97X-D3 SP def2-SVP
%pal
nprocs 24
end

* xyz 0 1
S 	 24.8459 	 -4.18704 	 -112.511 	 
C 	 24.5529 	 -4.5246 	 -114.155 	 
C 	 23.2569 	 -4.32008 	 -114.498 	 
C 	 22.4581 	 -4.02586 	 -113.355 	 
C 	 23.1297 	 -3.95355 	 -112.162 	 
H 	 21.3321 	 -3.92088 	 -113.369 	 
C 	 22.6497 	 -4.48833 	 -115.945 	 
H 	 23.4189 	 -4.5561 	 -116.77 	 
H 	 22.2054 	 -3.51007 	 -116.19 	 
C 	 21.6171 	 -5.65725 	 -116.039 	 
H 	 20.9307 	 -5.55127 	 -115.188 	 
H 	 21.0292 	 -5.44689 	 -116.962 	 
C 	 22.1816 	 -6.99597 	 -115.822 	 
H 	 22.8084 	 -7.2739 	 -116.679 	 
H 	 22.8224 	 -7.20171 	 -114.882 	 
H 	 21.3578 	 -7.73928 	 -115.828 	 
S 	 22.8058 	 -2.07122 	 -110.256 	 
C 	 21.8658 	 -2.34454 	 -108.739 	 
C 	 21.1371 	 -3.54198 	 -108.907 	 
C 	 21.6631 	 -4.33187 	 -110.007 	 
C 	 22.5685 	 -3.67467 	 -110.852 	 
H 	 20.3556 	 -3.84373 	 -108.213 	 
C 	 21.1088 	 -5.73178 	 -110.255 	 
H 	 20.9041 	 -5.66572 	 -111.347 	 
H 	 20.1658 	 -5.88131 	 -109.756 	 
C 	 22.0522 	 -6.93239 	 -109.883 	 
H 	 22.2553 	 -6.83951 	 -108.83 	 
H 	 22.9919 	 -6.64655 	 -110.457 	 
C 	 21.5652 	 -8.29004 	 -110.331 	 
H 	 22.4306 	 -8.99349 	 -110.454 	 
H 	 21.1706 	 -8.1866 	 -111.304 	 
H 	 20.8157 	 -8.76586 	 -109.706 	 
H 	 25.2263 	 -4.99999 	 -114.933 	 
H 	 21.412 	 -1.60821 	 -108.153 	 
*
