! wB97X-D3 SP def2-SVP
%pal
nprocs 24
end

* xyz 0 1
S 	 -76.2967 	 -3.96943 	 5.58551 	 
C 	 -74.6535 	 -4.40112 	 5.22192 	 
C 	 -74.2809 	 -5.59396 	 5.8216 	 
C 	 -75.3656 	 -6.11325 	 6.56735 	 
C 	 -76.5438 	 -5.43185 	 6.49923 	 
H 	 -75.2862 	 -6.80431 	 7.28305 	 
C 	 -72.8673 	 -6.21243 	 5.98811 	 
H 	 -72.198 	 -5.93297 	 5.17163 	 
H 	 -72.926 	 -7.25695 	 5.76659 	 
C 	 -72.1321 	 -6.05113 	 7.35519 	 
H 	 -71.1771 	 -6.51762 	 7.1945 	 
H 	 -71.9756 	 -4.99624 	 7.49107 	 
C 	 -72.7685 	 -6.5995 	 8.6038 	 
H 	 -72.0252 	 -7.1105 	 9.20475 	 
H 	 -73.2272 	 -5.8471 	 9.27354 	 
H 	 -73.5056 	 -7.38679 	 8.36659 	 
S 	 -77.763 	 -4.23351 	 8.6308 	 
C 	 -79.0494 	 -5.14049 	 9.42187 	 
C 	 -79.261 	 -6.40604 	 8.93386 	 
C 	 -78.5126 	 -6.62376 	 7.72596 	 
C 	 -77.6925 	 -5.54711 	 7.37862 	 
H 	 -79.9281 	 -7.05003 	 9.49778 	 
C 	 -78.6226 	 -7.96047 	 7.0269 	 
H 	 -79.1598 	 -8.66292 	 7.65538 	 
H 	 -77.5925 	 -8.34569 	 6.99654 	 
C 	 -79.3488 	 -7.82553 	 5.67351 	 
H 	 -78.8225 	 -7.20638 	 4.97349 	 
H 	 -80.1993 	 -7.21593 	 5.7377 	 
C 	 -79.4621 	 -9.23235 	 4.85238 	 
H 	 -80.1624 	 -9.90621 	 5.38019 	 
H 	 -78.5189 	 -9.70289 	 4.75943 	 
H 	 -79.984 	 -8.96755 	 3.87687 	 
H 	 -73.9538 	 -3.75229 	 4.6254 	 
H 	 -79.5869 	 -4.8568 	 10.2894 	 
*
