! wB97X-D3 SP def2-SVP
%pal
nprocs 24
end

* xyz 0 1
S 	 -102.999 	 19.3439 	 -123.21 	 
C 	 -103.495 	 20.4968 	 -122.029 	 
C 	 -103.481 	 19.895 	 -120.778 	 
C 	 -103.073 	 18.5325 	 -120.807 	 
C 	 -102.906 	 18.0164 	 -122.082 	 
H 	 -102.804 	 17.9074 	 -119.989 	 
C 	 -103.86 	 20.5539 	 -119.492 	 
H 	 -103.373 	 21.5576 	 -119.346 	 
H 	 -103.594 	 19.9407 	 -118.629 	 
C 	 -105.355 	 20.775 	 -119.384 	 
H 	 -105.645 	 21.4933 	 -120.17 	 
H 	 -105.937 	 19.879 	 -119.624 	 
C 	 -105.736 	 21.314 	 -117.953 	 
H 	 -104.934 	 21.9941 	 -117.448 	 
H 	 -106.703 	 21.7811 	 -117.938 	 
H 	 -105.778 	 20.4539 	 -117.21 	 
S 	 -101.591 	 16.426 	 -123.991 	 
C 	 -101.52 	 14.7261 	 -123.778 	 
C 	 -101.98 	 14.3634 	 -122.581 	 
C 	 -102.412 	 15.4625 	 -121.804 	 
C 	 -102.486 	 16.6539 	 -122.469 	 
H 	 -101.778 	 13.3729 	 -122.234 	 
C 	 -102.922 	 15.2509 	 -120.439 	 
H 	 -102.259 	 15.8483 	 -119.735 	 
H 	 -102.764 	 14.1949 	 -120.143 	 
C 	 -104.408 	 15.436 	 -120.126 	 
H 	 -105.099 	 14.7921 	 -120.711 	 
H 	 -104.633 	 16.4764 	 -120.402 	 
C 	 -104.736 	 15.1504 	 -118.687 	 
H 	 -105.226 	 14.1064 	 -118.627 	 
H 	 -105.449 	 15.9843 	 -118.317 	 
H 	 -103.863 	 15.1969 	 -118.038 	 
H 	 -103.669 	 21.5183 	 -122.203 	 
H 	 -101.057 	 13.9473 	 -124.416 	 
*
