! wB97X-D3 SP def2-SVP
%pal
nprocs 24
end

* xyz 0 1
S 	 -99.2346 	 7.43673 	 2.93731 	 
C 	 -99.571 	 7.80839 	 1.23653 	 
C 	 -98.3838 	 7.69911 	 0.535768 	 
C 	 -97.2274 	 7.71348 	 1.35917 	 
C 	 -97.4913 	 7.57079 	 2.72535 	 
H 	 -96.1539 	 7.67417 	 0.98166 	 
C 	 -98.2394 	 7.93622 	 -0.909021 	 
H 	 -99.1307 	 7.68367 	 -1.41909 	 
H 	 -97.4775 	 7.25156 	 -1.41647 	 
C 	 -97.8054 	 9.32553 	 -1.27844 	 
H 	 -98.6739 	 9.95454 	 -1.07319 	 
H 	 -97.1229 	 9.7096 	 -0.608152 	 
C 	 -97.2458 	 9.53351 	 -2.65106 	 
H 	 -97.2613 	 10.5222 	 -2.82369 	 
H 	 -96.2198 	 9.11691 	 -2.77443 	 
H 	 -97.7468 	 9.03856 	 -3.46433 	 
S 	 -96.933 	 6.0922 	 4.95116 	 
C 	 -95.3868 	 6.19036 	 5.7176 	 
C 	 -94.6047 	 7.20179 	 5.19098 	 
C 	 -95.2052 	 7.75755 	 3.99597 	 
C 	 -96.4982 	 7.3048 	 3.82451 	 
H 	 -93.5361 	 7.30208 	 5.57432 	 
C 	 -94.4959 	 8.69727 	 3.07053 	 
H 	 -95.329 	 9.18858 	 2.48257 	 
H 	 -93.783 	 8.09259 	 2.39631 	 
C 	 -93.6437 	 9.87359 	 3.55682 	 
H 	 -93.3969 	 10.475 	 2.65719 	 
H 	 -92.7704 	 9.41518 	 3.97273 	 
C 	 -94.2829 	 10.8012 	 4.59783 	 
H 	 -93.7698 	 11.8025 	 4.69681 	 
H 	 -94.5702 	 10.4259 	 5.55168 	 
H 	 -95.2698 	 11.1897 	 4.30627 	 
H 	 -100.538 	 7.74252 	 0.749082 	 
H 	 -95.1012 	 5.61905 	 6.62219 	 
*
