! wB97X-D3 SP def2-SVP
%pal
nprocs 24
end

* xyz 0 1
S 	 -135.884 	 63.4282 	 -59.7513 	 
C 	 -134.668 	 64.2562 	 -60.8015 	 
C 	 -134.473 	 65.5799 	 -60.4422 	 
C 	 -135.261 	 65.8571 	 -59.2449 	 
C 	 -135.948 	 64.7972 	 -58.6903 	 
H 	 -135.269 	 66.7424 	 -58.7187 	 
C 	 -133.448 	 66.5201 	 -61.0898 	 
H 	 -133.6 	 67.4266 	 -60.4457 	 
H 	 -133.769 	 66.7533 	 -62.1114 	 
C 	 -132.036 	 65.8877 	 -60.8865 	 
H 	 -131.889 	 65.2418 	 -61.6943 	 
H 	 -131.235 	 66.5731 	 -61.0604 	 
C 	 -131.758 	 65.1214 	 -59.5091 	 
H 	 -131.881 	 65.7964 	 -58.6559 	 
H 	 -132.343 	 64.2086 	 -59.2819 	 
H 	 -130.822 	 64.7471 	 -59.5903 	 
S 	 -138.28 	 63.9052 	 -57.5009 	 
C 	 -138.554 	 64.3621 	 -55.7716 	 
C 	 -137.787 	 65.4249 	 -55.4061 	 
C 	 -136.772 	 65.6463 	 -56.4189 	 
C 	 -136.804 	 64.8032 	 -57.5071 	 
H 	 -137.832 	 65.8533 	 -54.4083 	 
C 	 -135.63 	 66.693 	 -56.1631 	 
H 	 -135.723 	 67.5747 	 -56.7398 	 
H 	 -134.662 	 66.2789 	 -56.6266 	 
C 	 -135.543 	 67.1767 	 -54.6488 	 
H 	 -135.328 	 66.3533 	 -53.957 	 
H 	 -136.508 	 67.5708 	 -54.3085 	 
C 	 -134.602 	 68.3418 	 -54.3888 	 
H 	 -133.583 	 68.0452 	 -54.8334 	 
H 	 -134.435 	 68.6682 	 -53.3316 	 
H 	 -134.927 	 69.204 	 -54.9242 	 
H 	 -134.187 	 63.8267 	 -61.6743 	 
H 	 -139.374 	 63.9338 	 -55.2291 	 
*
