! wB97X-D3 SP def2-SVP
%pal
nprocs 24
end

* xyz 0 1
S 	 -130.615 	 8.60264 	 -1.39761 	 
C 	 -129.092 	 8.7849 	 -0.531758 	 
C 	 -128.306 	 7.64892 	 -0.769407 	 
C 	 -128.924 	 6.71792 	 -1.66502 	 
C 	 -130.105 	 7.20584 	 -2.18184 	 
H 	 -128.494 	 5.77496 	 -2.02298 	 
C 	 -126.911 	 7.44641 	 -0.273203 	 
H 	 -127.116 	 6.58754 	 0.411158 	 
H 	 -126.636 	 8.27077 	 0.325692 	 
C 	 -125.834 	 6.95954 	 -1.25882 	 
H 	 -126.157 	 6.14871 	 -1.85585 	 
H 	 -125.734 	 7.84556 	 -1.89486 	 
C 	 -124.549 	 6.42202 	 -0.604496 	 
H 	 -123.823 	 6.11475 	 -1.28147 	 
H 	 -124.149 	 7.19979 	 0.0560852 	 
H 	 -124.613 	 5.50725 	 -0.0215766 	 
S 	 -131.442 	 7.33356 	 -4.6073 	 
C 	 -132.578 	 6.01393 	 -4.99262 	 
C 	 -132.323 	 4.86413 	 -4.23882 	 
C 	 -131.38 	 5.12024 	 -3.16233 	 
C 	 -130.917 	 6.44719 	 -3.18352 	 
H 	 -132.948 	 3.98105 	 -4.38483 	 
C 	 -131.052 	 4.07483 	 -2.0645 	 
H 	 -131.94 	 3.45861 	 -1.9147 	 
H 	 -130.868 	 4.54822 	 -1.1134 	 
C 	 -129.885 	 3.18133 	 -2.44996 	 
H 	 -129.821 	 2.46538 	 -1.60478 	 
H 	 -128.982 	 3.77603 	 -2.48932 	 
C 	 -130.059 	 2.46291 	 -3.81376 	 
H 	 -129.57 	 2.95211 	 -4.59516 	 
H 	 -131.021 	 2.27835 	 -4.08321 	 
H 	 -129.716 	 1.47254 	 -3.71418 	 
H 	 -128.92 	 9.58796 	 0.155539 	 
H 	 -133.336 	 6.09127 	 -5.78496 	 
*
