! wB97X-D3 SP def2-SVP
%pal
nprocs 24
end

* xyz 0 1
S 	 -35.0997 	 -29.7213 	 -99.3422 	 
C 	 -35.1913 	 -29.6362 	 -101.025 	 
C 	 -35.2725 	 -30.8969 	 -101.667 	 
C 	 -35.1586 	 -31.9874 	 -100.76 	 
C 	 -34.8786 	 -31.5381 	 -99.4631 	 
H 	 -35.0832 	 -33.0496 	 -101.039 	 
C 	 -35.4126 	 -31.1819 	 -103.14 	 
H 	 -35.9036 	 -32.1134 	 -103.164 	 
H 	 -34.454 	 -31.4671 	 -103.642 	 
C 	 -36.0637 	 -30.0655 	 -103.994 	 
H 	 -35.5504 	 -29.0731 	 -103.867 	 
H 	 -36.0504 	 -30.3772 	 -105.034 	 
C 	 -37.5555 	 -29.8919 	 -103.691 	 
H 	 -38.0132 	 -29.0056 	 -104.119 	 
H 	 -38.1704 	 -30.6781 	 -104.127 	 
H 	 -37.6867 	 -29.8559 	 -102.629 	 
S 	 -35.8982 	 -32.6634 	 -97.2285 	 
C 	 -34.8746 	 -33.7721 	 -96.395 	 
C 	 -33.6611 	 -34.0005 	 -96.9926 	 
C 	 -33.4684 	 -33.2397 	 -98.1428 	 
C 	 -34.6169 	 -32.4038 	 -98.338 	 
H 	 -33.0512 	 -34.5608 	 -96.4212 	 
C 	 -32.1806 	 -33.2444 	 -98.8419 	 
H 	 -31.4013 	 -33.3199 	 -98.0572 	 
H 	 -31.9125 	 -32.3147 	 -99.2136 	 
C 	 -32.0077 	 -34.2052 	 -100.07 	 
H 	 -32.5003 	 -33.5792 	 -100.795 	 
H 	 -32.655 	 -35.1355 	 -100.013 	 
C 	 -30.5865 	 -34.5085 	 -100.55 	 
H 	 -30.0804 	 -35.2409 	 -99.983 	 
H 	 -30.0281 	 -33.6077 	 -100.743 	 
H 	 -30.6359 	 -34.9467 	 -101.563 	 
H 	 -35.114 	 -28.6932 	 -101.525 	 
H 	 -35.1559 	 -34.2967 	 -95.4989 	 
*
