! wB97X-D3 SP def2-SVP
%pal
nprocs 24
end

* xyz 0 1
S 	 36.4768 	 -15.6679 	 -122.306 	 
C 	 36.4896 	 -13.984 	 -121.861 	 
C 	 37.4294 	 -13.2633 	 -122.495 	 
C 	 38.284 	 -14.0965 	 -123.262 	 
C 	 37.9766 	 -15.4338 	 -123.29 	 
H 	 39.0234 	 -13.7009 	 -123.887 	 
C 	 37.731 	 -11.7245 	 -122.441 	 
H 	 37.5462 	 -11.3908 	 -121.394 	 
H 	 37.0569 	 -11.3342 	 -123.125 	 
C 	 39.1603 	 -11.2043 	 -122.883 	 
H 	 39.2145 	 -11.5706 	 -123.881 	 
H 	 39.2715 	 -10.0795 	 -122.928 	 
C 	 40.2929 	 -11.6087 	 -121.879 	 
H 	 40.4086 	 -12.6558 	 -121.604 	 
H 	 41.2722 	 -11.4362 	 -122.287 	 
H 	 40.1952 	 -11.2139 	 -120.845 	 
S 	 37.4903 	 -17.9034 	 -124.433 	 
C 	 38.6585 	 -18.6012 	 -125.501 	 
C 	 39.8815 	 -17.8599 	 -125.391 	 
C 	 39.843 	 -16.7338 	 -124.499 	 
C 	 38.5565 	 -16.5559 	 -124.024 	 
H 	 40.6969 	 -18.2092 	 -126.03 	 
C 	 41.0622 	 -15.9806 	 -124.007 	 
H 	 41.7773 	 -16.6327 	 -123.631 	 
H 	 40.7963 	 -15.3564 	 -123.162 	 
C 	 41.6621 	 -15.2146 	 -125.177 	 
H 	 41.0262 	 -14.4819 	 -125.691 	 
H 	 41.9669 	 -15.8038 	 -125.998 	 
C 	 42.9519 	 -14.5231 	 -124.751 	 
H 	 43.6441 	 -15.2455 	 -124.505 	 
H 	 42.8479 	 -13.8553 	 -123.92 	 
H 	 43.469 	 -14.0691 	 -125.539 	 
H 	 35.7733 	 -13.5122 	 -121.27 	 
H 	 38.5168 	 -19.5863 	 -126.019 	 
*
