! wB97X-D3 SP def2-SVP
%pal
nprocs 24
end

* xyz 0 1
S 	 -143.62 	 3.73215 	 0.571477 	 
C 	 -141.994 	 3.74891 	 0.0283551 	 
C 	 -141.243 	 4.62091 	 0.834657 	 
C 	 -141.955 	 5.231 	 1.89725 	 
C 	 -143.239 	 4.76147 	 2.01504 	 
H 	 -141.575 	 5.96718 	 2.61926 	 
C 	 -139.709 	 4.98446 	 0.685565 	 
H 	 -139.184 	 4.09244 	 0.394936 	 
H 	 -139.263 	 5.32056 	 1.60583 	 
C 	 -139.491 	 6.23338 	 -0.221814 	 
H 	 -140.064 	 6.19316 	 -1.12379 	 
H 	 -139.849 	 7.214 	 0.275019 	 
C 	 -137.993 	 6.50684 	 -0.462746 	 
H 	 -137.645 	 5.76331 	 -1.18852 	 
H 	 -137.74 	 7.49141 	 -0.877967 	 
H 	 -137.419 	 6.50919 	 0.490569 	 
S 	 -145.683 	 6.13446 	 2.51452 	 
C 	 -146.202 	 6.27879 	 4.18495 	 
C 	 -145.267 	 5.68157 	 5.04703 	 
C 	 -144.15 	 5.08079 	 4.38156 	 
C 	 -144.236 	 5.17838 	 3.00402 	 
H 	 -145.375 	 5.48217 	 6.12431 	 
C 	 -143.052 	 4.33155 	 5.15237 	 
H 	 -142.609 	 3.79381 	 4.33224 	 
H 	 -143.432 	 3.53783 	 5.81066 	 
C 	 -142.065 	 5.23027 	 5.90109 	 
H 	 -142.729 	 5.74925 	 6.61718 	 
H 	 -141.634 	 5.94944 	 5.28522 	 
C 	 -141.03 	 4.35801 	 6.5868 	 
H 	 -141.558 	 3.71278 	 7.23997 	 
H 	 -140.478 	 4.9549 	 7.29938 	 
H 	 -140.262 	 3.84134 	 5.98813 	 
H 	 -141.694 	 3.23541 	 -0.877111 	 
H 	 -147.125 	 6.76189 	 4.59339 	 
*
