! wB97X-D3 SP def2-SVP
%pal
nprocs 24
end

* xyz 0 1
S 	 -129.54 	 12.9923 	 -10.4016 	 
C 	 -128.303 	 13.6988 	 -9.36693 	 
C 	 -127.125 	 13.8236 	 -10.0704 	 
C 	 -127.252 	 13.3265 	 -11.3902 	 
C 	 -128.463 	 12.6405 	 -11.6757 	 
H 	 -126.412 	 13.3259 	 -12.0711 	 
C 	 -125.877 	 14.3688 	 -9.49088 	 
H 	 -126.045 	 14.4734 	 -8.39077 	 
H 	 -125.766 	 15.3626 	 -9.86857 	 
C 	 -124.605 	 13.5919 	 -9.98082 	 
H 	 -124.734 	 12.5126 	 -10.0833 	 
H 	 -124.4 	 13.9528 	 -10.9543 	 
C 	 -123.337 	 13.9558 	 -9.22169 	 
H 	 -123.537 	 13.7148 	 -8.14156 	 
H 	 -122.525 	 13.3005 	 -9.49743 	 
H 	 -123.05 	 15.0032 	 -9.32649 	 
S 	 -130.551 	 11.7173 	 -13.224 	 
C 	 -130.276 	 10.3726 	 -14.4058 	 
C 	 -128.894 	 10.088 	 -14.3761 	 
C 	 -128.178 	 10.6533 	 -13.3619 	 
C 	 -128.818 	 11.673 	 -12.7502 	 
H 	 -128.574 	 9.34945 	 -15.1243 	 
C 	 -126.78 	 10.1922 	 -13.0941 	 
H 	 -126.197 	 10.9991 	 -12.6689 	 
H 	 -126.356 	 9.92474 	 -14.0339 	 
C 	 -126.636 	 8.99599 	 -12.1802 	 
H 	 -126.926 	 9.29015 	 -11.1384 	 
H 	 -125.545 	 8.79426 	 -12.1012 	 
C 	 -127.448 	 7.68569 	 -12.6226 	 
H 	 -126.937 	 6.7922 	 -12.2708 	 
H 	 -127.504 	 7.47285 	 -13.6851 	 
H 	 -128.434 	 7.65934 	 -12.2567 	 
H 	 -128.332 	 13.9051 	 -8.30812 	 
H 	 -131.072 	 9.95591 	 -15.0483 	 
*
