! wB97X-D3 SP def2-SVP
%pal
nprocs 24
end

* xyz 0 1
S 	 -111.68 	 60.3007 	 -75.2979 	 
C 	 -110.408 	 61.4935 	 -75.6063 	 
C 	 -110.119 	 62.2435 	 -74.4829 	 
C 	 -110.799 	 61.7774 	 -73.3385 	 
C 	 -111.737 	 60.7586 	 -73.569 	 
H 	 -110.774 	 62.1736 	 -72.3944 	 
C 	 -109.061 	 63.325 	 -74.4642 	 
H 	 -108.128 	 63.1726 	 -74.9418 	 
H 	 -108.786 	 63.3925 	 -73.422 	 
C 	 -109.487 	 64.738 	 -74.898 	 
H 	 -108.598 	 65.2578 	 -75.3722 	 
H 	 -110.104 	 64.7099 	 -75.6879 	 
C 	 -110.183 	 65.5898 	 -73.7765 	 
H 	 -110.306 	 66.559 	 -74.2033 	 
H 	 -111.125 	 65.1502 	 -73.4357 	 
H 	 -109.564 	 65.7207 	 -72.8693 	 
S 	 -113.138 	 61.1597 	 -71.2764 	 
C 	 -113.958 	 59.8348 	 -70.4679 	 
C 	 -113.908 	 58.7465 	 -71.3164 	 
C 	 -113.202 	 58.9389 	 -72.5407 	 
C 	 -112.639 	 60.1591 	 -72.5776 	 
H 	 -114.423 	 57.8279 	 -70.8484 	 
C 	 -112.918 	 57.7788 	 -73.4182 	 
H 	 -112.785 	 56.8454 	 -72.8346 	 
H 	 -111.974 	 58.0025 	 -73.8507 	 
C 	 -113.955 	 57.4494 	 -74.532 	 
H 	 -114.338 	 58.2993 	 -75.0277 	 
H 	 -114.871 	 57.0611 	 -74.142 	 
C 	 -113.3 	 56.4833 	 -75.5927 	 
H 	 -114.094 	 55.894 	 -76.0841 	 
H 	 -112.561 	 55.8261 	 -75.1835 	 
H 	 -112.885 	 57.1075 	 -76.3132 	 
H 	 -109.857 	 61.5766 	 -76.5155 	 
H 	 -114.542 	 59.9179 	 -69.565 	 
*
