! wB97X-D3 SP def2-SVP
%pal
nprocs 24
end

* xyz 0 1
S 	 31.2368 	 -35.574 	 -135.091 	 
C 	 32.7377 	 -34.6662 	 -134.978 	 
C 	 33.1047 	 -34.4893 	 -133.623 	 
C 	 32.1468 	 -35.1165 	 -132.794 	 
C 	 31.0383 	 -35.6585 	 -133.38 	 
H 	 32.3415 	 -35.333 	 -131.77 	 
C 	 34.3132 	 -33.8902 	 -133.04 	 
H 	 34.2613 	 -32.8228 	 -132.871 	 
H 	 35.1684 	 -33.9204 	 -133.808 	 
C 	 34.7939 	 -34.482 	 -131.652 	 
H 	 35.6788 	 -33.8937 	 -131.33 	 
H 	 34.0623 	 -34.3249 	 -130.789 	 
C 	 35.3471 	 -35.935 	 -131.642 	 
H 	 35.6984 	 -36.2611 	 -130.596 	 
H 	 34.6122 	 -36.667 	 -131.951 	 
H 	 36.2493 	 -36.0208 	 -132.283 	 
S 	 30.4604 	 -38.2086 	 -132.821 	 
C 	 29.1879 	 -38.6201 	 -131.774 	 
C 	 28.5968 	 -37.5214 	 -131.219 	 
C 	 29.1001 	 -36.2771 	 -131.74 	 
C 	 30.0678 	 -36.496 	 -132.706 	 
H 	 27.7992 	 -37.619 	 -130.528 	 
C 	 28.6285 	 -34.863 	 -131.259 	 
H 	 27.5234 	 -34.8854 	 -131.082 	 
H 	 28.9905 	 -34.1141 	 -132.077 	 
C 	 29.2025 	 -34.4541 	 -129.909 	 
H 	 30.3535 	 -34.4855 	 -129.879 	 
H 	 28.9458 	 -35.1833 	 -129.19 	 
C 	 28.77 	 -33.0616 	 -129.399 	 
H 	 27.6295 	 -32.9544 	 -129.489 	 
H 	 29.2236 	 -32.3551 	 -130.028 	 
H 	 29.0589 	 -32.8324 	 -128.388 	 
H 	 33.2347 	 -34.2698 	 -135.873 	 
H 	 28.9605 	 -39.6111 	 -131.414 	 
*
