! wB97X-D3 SP def2-SVP
%pal
nprocs 24
end

* xyz 0 1
S 	 -112.558 	 35.8711 	 -119.076 	 
C 	 -112.155 	 34.3143 	 -118.409 	 
C 	 -113.197 	 33.4221 	 -118.525 	 
C 	 -114.387 	 34.0174 	 -119.004 	 
C 	 -114.197 	 35.4521 	 -119.134 	 
H 	 -115.327 	 33.4326 	 -119.175 	 
C 	 -113.167 	 31.9218 	 -118.233 	 
H 	 -114.039 	 31.7648 	 -117.572 	 
H 	 -112.261 	 31.7238 	 -117.704 	 
C 	 -113.175 	 31.1353 	 -119.519 	 
H 	 -114.068 	 31.3547 	 -120.089 	 
H 	 -112.318 	 31.4208 	 -120.058 	 
C 	 -113.215 	 29.6096 	 -119.386 	 
H 	 -113.184 	 29.0654 	 -120.304 	 
H 	 -112.452 	 29.2305 	 -118.739 	 
H 	 -114.112 	 29.2702 	 -118.919 	 
S 	 -114.67 	 36.8077 	 -121.476 	 
C 	 -115.919 	 37.9953 	 -121.596 	 
C 	 -116.57 	 38.103 	 -120.38 	 
C 	 -116.078 	 37.2569 	 -119.305 	 
C 	 -115.063 	 36.3972 	 -119.822 	 
H 	 -117.371 	 38.7634 	 -120.32 	 
C 	 -116.603 	 37.2056 	 -117.875 	 
H 	 -117.307 	 38.0524 	 -117.732 	 
H 	 -115.926 	 37.309 	 -117.012 	 
C 	 -117.409 	 35.9653 	 -117.548 	 
H 	 -117.775 	 36.0156 	 -116.602 	 
H 	 -116.781 	 35.0801 	 -117.574 	 
C 	 -118.473 	 35.7423 	 -118.621 	 
H 	 -119.259 	 36.5408 	 -118.575 	 
H 	 -119.097 	 34.8483 	 -118.473 	 
H 	 -118.03 	 35.7738 	 -119.613 	 
H 	 -111.132 	 33.8752 	 -118.246 	 
H 	 -116.138 	 38.5929 	 -122.448 	 
*
