! wB97X-D3 SP def2-SVP
%pal
nprocs 24
end

* xyz 0 1
S 	 -49.2242 	 26.8005 	 27.4245 	 
C 	 -50.042 	 26.8297 	 28.9376 	 
C 	 -49.5934 	 25.93 	 29.9309 	 
C 	 -48.5486 	 25.1375 	 29.3106 	 
C 	 -48.2882 	 25.4457 	 27.9687 	 
H 	 -47.8866 	 24.3802 	 29.7061 	 
C 	 -50.1079 	 25.7936 	 31.3361 	 
H 	 -50.5499 	 24.7796 	 31.372 	 
H 	 -50.8397 	 26.6103 	 31.601 	 
C 	 -48.9821 	 25.7233 	 32.4154 	 
H 	 -47.9968 	 25.3569 	 32.0395 	 
H 	 -48.7861 	 26.8411 	 32.6732 	 
C 	 -49.3945 	 24.8605 	 33.6084 	 
H 	 -49.6336 	 23.8667 	 33.2601 	 
H 	 -48.6139 	 24.8542 	 34.3916 	 
H 	 -50.386 	 25.1593 	 33.9638 	 
S 	 -46.0815 	 25.814 	 26.3856 	 
C 	 -45.0254 	 24.4707 	 25.9859 	 
C 	 -45.566 	 23.2857 	 26.4685 	 
C 	 -46.835 	 23.4102 	 27.1085 	 
C 	 -47.2431 	 24.7911 	 27.154 	 
H 	 -45.0333 	 22.3606 	 26.4234 	 
C 	 -47.5159 	 22.159 	 27.7026 	 
H 	 -47.8757 	 21.4493 	 26.9811 	 
H 	 -48.449 	 22.5614 	 27.9707 	 
C 	 -46.8469 	 21.5104 	 28.9983 	 
H 	 -46.8698 	 22.2666 	 29.8473 	 
H 	 -45.7884 	 21.3043 	 28.7771 	 
C 	 -47.5868 	 20.2391 	 29.3414 	 
H 	 -47.1032 	 19.8756 	 30.2544 	 
H 	 -47.3696 	 19.4349 	 28.6578 	 
H 	 -48.6495 	 20.2227 	 29.5233 	 
H 	 -50.8009 	 27.482 	 29.2061 	 
H 	 -44.074 	 24.6233 	 25.4316 	 
*
