! wB97X-D3 SP def2-SVP
%pal
nprocs 24
end

* xyz 0 1
S 	 -107.416 	 43.7168 	 -9.33156 	 
C 	 -108.395 	 44.5815 	 -10.5485 	 
C 	 -108.073 	 44.1691 	 -11.8198 	 
C 	 -107.048 	 43.1736 	 -11.8144 	 
C 	 -106.631 	 42.7936 	 -10.5816 	 
H 	 -106.515 	 42.7634 	 -12.6664 	 
C 	 -108.627 	 44.7181 	 -13.0523 	 
H 	 -107.891 	 45.3379 	 -13.4816 	 
H 	 -109.406 	 45.3984 	 -12.6057 	 
C 	 -109.395 	 43.6745 	 -13.9812 	 
H 	 -108.754 	 42.8628 	 -14.2036 	 
H 	 -110.296 	 43.306 	 -13.5911 	 
C 	 -109.667 	 44.2173 	 -15.4517 	 
H 	 -110.138 	 43.4275 	 -16.0098 	 
H 	 -110.352 	 45.0057 	 -15.3407 	 
H 	 -108.778 	 44.3835 	 -16.004 	 
S 	 -103.992 	 42.9602 	 -9.85597 	 
C 	 -102.949 	 41.5935 	 -10.0108 	 
C 	 -103.762 	 40.4623 	 -10.1217 	 
C 	 -105.145 	 40.6809 	 -10.2288 	 
C 	 -105.414 	 42.0275 	 -10.3117 	 
H 	 -103.235 	 39.5233 	 -10.124 	 
C 	 -106.152 	 39.5452 	 -10.3668 	 
H 	 -107.023 	 39.6477 	 -9.77427 	 
H 	 -105.706 	 38.7152 	 -9.76879 	 
C 	 -106.544 	 39.1515 	 -11.8529 	 
H 	 -105.676 	 39.1086 	 -12.4744 	 
H 	 -107.253 	 39.8839 	 -12.313 	 
C 	 -107.306 	 37.7743 	 -11.8798 	 
H 	 -108.196 	 37.7755 	 -11.2533 	 
H 	 -106.559 	 37.0687 	 -11.5146 	 
H 	 -107.61 	 37.383 	 -12.837 	 
H 	 -109.117 	 45.3376 	 -10.461 	 
H 	 -101.919 	 41.5875 	 -9.82041 	 
*
