! wB97X-D3 SP def2-SVP
%pal
nprocs 24
end

* xyz 0 1
S 	 -52.3705 	 21.3412 	 -98.3323 	 
C 	 -51.647 	 20.4557 	 -97.0144 	 
C 	 -51.3477 	 19.1717 	 -97.4275 	 
C 	 -51.8768 	 18.875 	 -98.7403 	 
C 	 -52.5195 	 19.9512 	 -99.365 	 
H 	 -51.8605 	 18.0043 	 -99.3452 	 
C 	 -50.5436 	 18.1892 	 -96.6117 	 
H 	 -50.6337 	 18.3716 	 -95.5687 	 
H 	 -49.4996 	 18.3915 	 -96.8766 	 
C 	 -50.8268 	 16.6929 	 -96.9148 	 
H 	 -50.5767 	 16.5771 	 -97.9932 	 
H 	 -50.1029 	 16.1593 	 -96.2987 	 
C 	 -52.3036 	 16.4434 	 -96.5804 	 
H 	 -52.7392 	 16.7104 	 -95.5791 	 
H 	 -52.8782 	 16.9488 	 -97.3548 	 
H 	 -52.5503 	 15.405 	 -96.7659 	 
S 	 -54.6206 	 20.2901 	 -100.937 	 
C 	 -54.4924 	 19.818 	 -102.602 	 
C 	 -53.1685 	 19.8169 	 -102.975 	 
C 	 -52.2665 	 19.9611 	 -101.872 	 
C 	 -52.9166 	 20.0749 	 -100.737 	 
H 	 -52.9297 	 19.6423 	 -104.026 	 
C 	 -50.7807 	 20.0163 	 -102 	 
H 	 -50.3811 	 20.293 	 -101.014 	 
H 	 -50.4986 	 20.8152 	 -102.75 	 
C 	 -50.1003 	 18.8687 	 -102.632 	 
H 	 -48.9873 	 18.8912 	 -102.614 	 
H 	 -50.4214 	 18.7442 	 -103.674 	 
C 	 -50.4669 	 17.5328 	 -101.903 	 
H 	 -51.4584 	 17.3389 	 -101.724 	 
H 	 -49.8748 	 17.3835 	 -101.004 	 
H 	 -50.0699 	 16.7114 	 -102.476 	 
H 	 -51.1815 	 20.8709 	 -96.1233 	 
H 	 -55.257 	 19.5857 	 -103.303 	 
*
