! wB97X-D3 SP def2-SVP
%pal
nprocs 24
end

* xyz 0 1
S 	 -43.2897 	 -49.8811 	 -71.1943 	 
C 	 -41.9546 	 -48.7176 	 -71.2335 	 
C 	 -41.9385 	 -47.8188 	 -70.1643 	 
C 	 -42.7545 	 -48.3395 	 -69.1235 	 
C 	 -43.5924 	 -49.3642 	 -69.544 	 
H 	 -42.8863 	 -48.0277 	 -68.1077 	 
C 	 -41.1909 	 -46.5163 	 -70.0057 	 
H 	 -40.2544 	 -46.8759 	 -70.2883 	 
H 	 -41.0285 	 -46.2666 	 -68.9181 	 
C 	 -41.7471 	 -45.3907 	 -70.8982 	 
H 	 -41.2572 	 -44.4446 	 -70.6743 	 
H 	 -41.5148 	 -45.6225 	 -71.9669 	 
C 	 -43.1822 	 -45.0899 	 -70.7326 	 
H 	 -43.5032 	 -45.0982 	 -69.701 	 
H 	 -43.4399 	 -44.1788 	 -71.0984 	 
H 	 -43.6369 	 -45.9004 	 -71.2862 	 
S 	 -43.5803 	 -51.7801 	 -68.3541 	 
C 	 -44.9192 	 -52.2685 	 -67.3779 	 
C 	 -45.829 	 -51.269 	 -67.1881 	 
C 	 -45.5291 	 -50.0815 	 -67.975 	 
C 	 -44.3926 	 -50.276 	 -68.7264 	 
H 	 -46.6276 	 -51.487 	 -66.5117 	 
C 	 -46.4315 	 -48.8633 	 -67.9701 	 
H 	 -45.7068 	 -48.0322 	 -68.0822 	 
H 	 -46.8579 	 -48.6327 	 -67.0007 	 
C 	 -47.4389 	 -48.8149 	 -69.092 	 
H 	 -47.1208 	 -49.5933 	 -69.8383 	 
H 	 -47.4401 	 -47.8306 	 -69.4662 	 
C 	 -48.8207 	 -49.1593 	 -68.4983 	 
H 	 -48.8762 	 -49.9361 	 -67.758 	 
H 	 -49.457 	 -49.3943 	 -69.3163 	 
H 	 -49.3576 	 -48.2627 	 -68.1337 	 
H 	 -41.4182 	 -48.375 	 -72.1054 	 
H 	 -44.9611 	 -53.1318 	 -66.692 	 
*
