! wB97X-D3 SP def2-SVP
%pal
nprocs 24
end

* xyz 0 1
S 	 20.2729 	 -8.7101 	 -113.65 	 
C 	 20.5917 	 -9.03935 	 -111.959 	 
C 	 19.4556 	 -9.62334 	 -111.4 	 
C 	 18.4457 	 -9.87688 	 -112.345 	 
C 	 18.8174 	 -9.61802 	 -113.642 	 
H 	 17.424 	 -10.3832 	 -112.105 	 
C 	 19.3067 	 -9.90525 	 -109.924 	 
H 	 19.135 	 -10.9494 	 -110.019 	 
H 	 18.3882 	 -9.4163 	 -109.499 	 
C 	 20.4619 	 -9.6735 	 -109.007 	 
H 	 20.7024 	 -8.65098 	 -108.95 	 
H 	 20.1093 	 -9.92427 	 -108.003 	 
C 	 21.6719 	 -10.5985 	 -109.335 	 
H 	 22.4296 	 -10.4977 	 -108.545 	 
H 	 21.3736 	 -11.6508 	 -109.327 	 
H 	 22.092 	 -10.3906 	 -110.338 	 
S 	 19.2218 	 -10.8101 	 -116.065 	 
C 	 17.9084 	 -11.1874 	 -117.126 	 
C 	 16.7756 	 -10.5008 	 -116.724 	 
C 	 16.981 	 -9.77783 	 -115.508 	 
C 	 18.2031 	 -9.92209 	 -114.914 	 
H 	 15.8288 	 -10.5154 	 -117.261 	 
C 	 15.8656 	 -8.92412 	 -114.939 	 
H 	 15.7714 	 -8.03823 	 -115.561 	 
H 	 16.0211 	 -8.50673 	 -114.006 	 
C 	 14.4535 	 -9.52645 	 -114.779 	 
H 	 14.4717 	 -10.1058 	 -113.835 	 
H 	 14.22 	 -10.1517 	 -115.594 	 
C 	 13.3465 	 -8.47256 	 -114.811 	 
H 	 12.4233 	 -9.0253 	 -114.464 	 
H 	 12.9951 	 -8.04867 	 -115.736 	 
H 	 13.5701 	 -7.63918 	 -114.149 	 
H 	 21.444 	 -8.8134 	 -111.41 	 
H 	 17.8678 	 -11.9185 	 -117.924 	 
*
