! wB97X-D3 SP def2-SVP
%pal
nprocs 24
end

* xyz 0 1
S 	 -67.4824 	 -46.3573 	 -87.767 	 
C 	 -66.1041 	 -47.1738 	 -88.6185 	 
C 	 -65.2526 	 -47.7185 	 -87.6237 	 
C 	 -65.7189 	 -47.4424 	 -86.2251 	 
C 	 -66.8761 	 -46.6613 	 -86.1839 	 
H 	 -65.3172 	 -47.6931 	 -85.247 	 
C 	 -63.9829 	 -48.4816 	 -87.876 	 
H 	 -64.1285 	 -48.9977 	 -88.7843 	 
H 	 -63.9028 	 -49.1339 	 -86.9359 	 
C 	 -62.7433 	 -47.6171 	 -88.1665 	 
H 	 -62.8465 	 -46.9874 	 -89.0188 	 
H 	 -62.5886 	 -47.2254 	 -87.1613 	 
C 	 -61.4619 	 -48.4291 	 -88.3454 	 
H 	 -60.5829 	 -47.8586 	 -88.2751 	 
H 	 -61.5299 	 -49.1619 	 -87.5702 	 
H 	 -61.366 	 -49.0671 	 -89.2256 	 
S 	 -67.714 	 -44.532 	 -84.6433 	 
C 	 -68.4754 	 -44.9163 	 -83.1291 	 
C 	 -68.6807 	 -46.2541 	 -82.9514 	 
C 	 -68.1997 	 -47.0415 	 -84.0086 	 
C 	 -67.6286 	 -46.2688 	 -84.9845 	 
H 	 -69.2497 	 -46.608 	 -82.0822 	 
C 	 -68.1772 	 -48.5172 	 -84.0624 	 
H 	 -68.6195 	 -48.776 	 -83.0971 	 
H 	 -67.2151 	 -49.0724 	 -84.0618 	 
C 	 -69.1733 	 -49.169 	 -85.0838 	 
H 	 -69.0769 	 -48.7876 	 -86.1501 	 
H 	 -70.1435 	 -48.8688 	 -84.8012 	 
C 	 -69.1467 	 -50.6935 	 -85.1561 	 
H 	 -70.0455 	 -51.0289 	 -85.7484 	 
H 	 -69.1897 	 -51.1496 	 -84.164 	 
H 	 -68.1679 	 -51.0702 	 -85.5451 	 
H 	 -66.0269 	 -47.3539 	 -89.7111 	 
H 	 -69.1911 	 -44.2415 	 -82.5834 	 
*
