! wB97X-D3 SP def2-SVP
%pal
nprocs 24
end

* xyz 0 1
S 	 -108.229 	 54.1783 	 -90.5875 	 
C 	 -109.684 	 53.9886 	 -89.5476 	 
C 	 -109.723 	 54.9891 	 -88.5395 	 
C 	 -108.509 	 55.7862 	 -88.5879 	 
C 	 -107.571 	 55.3676 	 -89.4899 	 
H 	 -108.173 	 56.5547 	 -87.8067 	 
C 	 -110.742 	 55.1738 	 -87.5311 	 
H 	 -111.633 	 54.5424 	 -87.6705 	 
H 	 -111.194 	 56.1466 	 -87.4049 	 
C 	 -110.339 	 54.8699 	 -86.0069 	 
H 	 -109.352 	 55.2347 	 -85.7528 	 
H 	 -111.021 	 55.4214 	 -85.3537 	 
C 	 -110.416 	 53.3941 	 -85.6922 	 
H 	 -111.354 	 52.8855 	 -85.9903 	 
H 	 -109.627 	 52.9112 	 -86.3297 	 
H 	 -110.199 	 53.2451 	 -84.6189 	 
S 	 -104.924 	 54.8068 	 -89.6499 	 
C 	 -103.731 	 56.0708 	 -90.063 	 
C 	 -104.244 	 57.3176 	 -89.881 	 
C 	 -105.696 	 57.2844 	 -89.6886 	 
C 	 -106.256 	 56.0096 	 -89.6994 	 
H 	 -103.649 	 58.251 	 -89.9307 	 
C 	 -106.44 	 58.5838 	 -89.4815 	 
H 	 -105.779 	 59.4655 	 -89.7235 	 
H 	 -106.633 	 58.8504 	 -88.3619 	 
C 	 -107.698 	 58.8099 	 -90.3519 	 
H 	 -108.526 	 58.1993 	 -90.0499 	 
H 	 -107.502 	 58.4114 	 -91.3542 	 
C 	 -108.163 	 60.284 	 -90.4746 	 
H 	 -108.407 	 60.6975 	 -89.491 	 
H 	 -109.062 	 60.4505 	 -91.0055 	 
H 	 -107.464 	 60.9147 	 -90.9657 	 
H 	 -110.369 	 53.1567 	 -89.5381 	 
H 	 -102.68 	 55.9093 	 -90.3276 	 
*
