! wB97X-D3 SP def2-SVP
%pal
nprocs 24
end

* xyz 0 1
S 	 -29.8782 	 -38.9656 	 -91.5271 	 
C 	 -29.7892 	 -37.1844 	 -91.7764 	 
C 	 -30.2446 	 -36.5294 	 -90.6207 	 
C 	 -30.7588 	 -37.496 	 -89.6848 	 
C 	 -30.7535 	 -38.8335 	 -89.9863 	 
H 	 -31.3034 	 -37.2551 	 -88.8532 	 
C 	 -30.2295 	 -35.0111 	 -90.445 	 
H 	 -30.9864 	 -34.9668 	 -89.6407 	 
H 	 -30.8032 	 -34.5015 	 -91.232 	 
C 	 -29.0185 	 -34.2083 	 -89.8558 	 
H 	 -29.4789 	 -33.2682 	 -89.5053 	 
H 	 -28.5053 	 -34.674 	 -88.9944 	 
C 	 -27.928 	 -33.9121 	 -90.9458 	 
H 	 -27.211 	 -33.1837 	 -90.5196 	 
H 	 -27.4117 	 -34.8722 	 -91.1207 	 
H 	 -28.2003 	 -33.4808 	 -91.9208 	 
S 	 -30.3721 	 -40.9654 	 -88.3647 	 
C 	 -31.7622 	 -42.0299 	 -87.9598 	 
C 	 -32.8862 	 -41.5999 	 -88.6237 	 
C 	 -32.653 	 -40.3793 	 -89.3437 	 
C 	 -31.3859 	 -39.9461 	 -89.3805 	 
H 	 -33.823 	 -42.1273 	 -88.6179 	 
C 	 -33.7978 	 -39.7436 	 -90.1215 	 
H 	 -33.7372 	 -38.6462 	 -89.9432 	 
H 	 -34.7618 	 -40.122 	 -89.6872 	 
C 	 -33.8242 	 -40.097 	 -91.6149 	 
H 	 -32.9623 	 -39.689 	 -92.1068 	 
H 	 -34.6359 	 -39.6267 	 -92.1056 	 
C 	 -33.9691 	 -41.5861 	 -91.9626 	 
H 	 -34.1876 	 -41.7727 	 -92.9899 	 
H 	 -34.7758 	 -42.0411 	 -91.4589 	 
H 	 -33.0684 	 -41.9959 	 -91.7455 	 
H 	 -29.2166 	 -36.6902 	 -92.6118 	 
H 	 -31.5867 	 -42.9978 	 -87.4336 	 
*
