! wB97X-D3 SP def2-SVP
%pal
nprocs 24
end

* xyz 0 1
S 	 -95.512 	 -6.25961 	 -119.043 	 
C 	 -97.037 	 -5.76315 	 -119.679 	 
C 	 -98.1121 	 -6.20707 	 -118.942 	 
C 	 -97.6762 	 -6.84727 	 -117.732 	 
C 	 -96.2861 	 -6.90965 	 -117.644 	 
H 	 -98.2906 	 -7.17671 	 -116.898 	 
C 	 -99.5958 	 -5.97751 	 -119.179 	 
H 	 -99.6516 	 -5.11898 	 -119.856 	 
H 	 -100.246 	 -5.69134 	 -118.341 	 
C 	 -100.21 	 -7.22812 	 -119.756 	 
H 	 -100.231 	 -7.28596 	 -120.851 	 
H 	 -99.5661 	 -8.06779 	 -119.407 	 
C 	 -101.69 	 -7.48508 	 -119.304 	 
H 	 -102.283 	 -8.18743 	 -119.914 	 
H 	 -101.759 	 -7.87636 	 -118.248 	 
H 	 -102.197 	 -6.50174 	 -119.428 	 
S 	 -93.7148 	 -7.19852 	 -116.532 	 
C 	 -93.4911 	 -8.47449 	 -115.38 	 
C 	 -94.6646 	 -9.1803 	 -115.149 	 
C 	 -95.7419 	 -8.76901 	 -115.941 	 
C 	 -95.4645 	 -7.62893 	 -116.71 	 
H 	 -94.6041 	 -9.92552 	 -114.329 	 
C 	 -97.0132 	 -9.54308 	 -115.911 	 
H 	 -97.932 	 -8.95222 	 -115.738 	 
H 	 -96.8003 	 -10.163 	 -115.045 	 
C 	 -97.2441 	 -10.3589 	 -117.183 	 
H 	 -96.8302 	 -9.90529 	 -118.074 	 
H 	 -98.3412 	 -10.3938 	 -117.392 	 
C 	 -96.6126 	 -11.7094 	 -117.153 	 
H 	 -96.7771 	 -12.2553 	 -116.343 	 
H 	 -95.5815 	 -11.6859 	 -117.395 	 
H 	 -97.1132 	 -12.2685 	 -117.972 	 
H 	 -97.2877 	 -5.46044 	 -120.699 	 
H 	 -92.5668 	 -8.78636 	 -114.955 	 
*
