! wB97X-D3 SP def2-SVP
%pal
nprocs 24
end

* xyz 0 1
S 	 -56.7106 	 15.7356 	 -87.238 	 
C 	 -57.4015 	 15.9392 	 -88.7791 	 
C 	 -57.2891 	 17.2397 	 -89.2733 	 
C 	 -56.5924 	 18.0877 	 -88.374 	 
C 	 -56.0917 	 17.44 	 -87.2359 	 
H 	 -56.3558 	 19.1542 	 -88.6131 	 
C 	 -58.0182 	 17.745 	 -90.4678 	 
H 	 -58.6631 	 18.6234 	 -90.0808 	 
H 	 -58.644 	 16.9373 	 -90.9479 	 
C 	 -57.1499 	 18.4162 	 -91.62 	 
H 	 -56.4518 	 19.1048 	 -91.0765 	 
H 	 -56.4865 	 17.6697 	 -92.0759 	 
C 	 -57.9541 	 19.2552 	 -92.6249 	 
H 	 -58.769 	 19.8742 	 -92.2148 	 
H 	 -57.3532 	 20.121 	 -92.9684 	 
H 	 -58.3877 	 18.7012 	 -93.4787 	 
S 	 -55.54 	 17.9921 	 -84.6563 	 
C 	 -54.0114 	 18.6281 	 -84.3165 	 
C 	 -53.2582 	 18.9827 	 -85.4027 	 
C 	 -53.9407 	 18.7435 	 -86.5639 	 
C 	 -55.1455 	 18.0565 	 -86.3402 	 
H 	 -52.2968 	 19.4255 	 -85.3472 	 
C 	 -53.3504 	 18.8955 	 -87.9338 	 
H 	 -52.6867 	 19.8106 	 -87.8838 	 
H 	 -54.082 	 19.1675 	 -88.6757 	 
C 	 -52.6039 	 17.6859 	 -88.2982 	 
H 	 -53.3681 	 16.8831 	 -88.4477 	 
H 	 -51.9239 	 17.4512 	 -87.4918 	 
C 	 -51.9356 	 17.8284 	 -89.6776 	 
H 	 -51.1283 	 17.0636 	 -89.7696 	 
H 	 -51.384 	 18.776 	 -89.7675 	 
H 	 -52.5031 	 17.6768 	 -90.5745 	 
H 	 -57.9172 	 15.1936 	 -89.3809 	 
H 	 -53.6252 	 18.8832 	 -83.3058 	 
*
