! wB97X-D3 SP def2-SVP
%pal
nprocs 24
end

* xyz 0 1
S 	 -138.891 	 16.1897 	 -3.28963 	 
C 	 -139.994 	 14.9105 	 -2.81064 	 
C 	 -139.384 	 14.1098 	 -1.82549 	 
C 	 -137.997 	 14.4985 	 -1.54519 	 
C 	 -137.627 	 15.62 	 -2.1912 	 
H 	 -137.318 	 14.043 	 -0.840282 	 
C 	 -139.991 	 12.9407 	 -1.124 	 
H 	 -140.908 	 12.6939 	 -1.75415 	 
H 	 -140.523 	 13.2603 	 -0.190104 	 
C 	 -139.088 	 11.6694 	 -1.03781 	 
H 	 -138.523 	 11.5312 	 -1.96095 	 
H 	 -138.389 	 11.8401 	 -0.203442 	 
C 	 -139.859 	 10.3065 	 -0.847661 	 
H 	 -140.596 	 10.1135 	 -1.72179 	 
H 	 -139.195 	 9.41431 	 -0.887783 	 
H 	 -140.429 	 10.2955 	 0.0881424 	 
S 	 -136.155 	 18.0612 	 -1.8984 	 
C 	 -134.475 	 18.1171 	 -1.84487 	 
C 	 -133.96 	 16.8215 	 -1.90763 	 
C 	 -134.973 	 15.8048 	 -2.02535 	 
C 	 -136.278 	 16.3064 	 -2.06907 	 
H 	 -132.86 	 16.604 	 -1.84728 	 
C 	 -134.676 	 14.3436 	 -1.98866 	 
H 	 -133.689 	 14.3281 	 -2.48216 	 
H 	 -135.433 	 13.8125 	 -2.58213 	 
C 	 -134.383 	 13.7373 	 -0.679675 	 
H 	 -135.208 	 13.6946 	 -0.0498044 	 
H 	 -133.593 	 14.3215 	 -0.174599 	 
C 	 -133.972 	 12.2329 	 -0.798408 	 
H 	 -133.664 	 11.8176 	 0.177746 	 
H 	 -133.111 	 12.0886 	 -1.44843 	 
H 	 -134.682 	 11.544 	 -1.32878 	 
H 	 -140.927 	 14.8017 	 -3.22791 	 
H 	 -133.893 	 19.014 	 -1.80147 	 
*
