! wB97X-D3 SP def2-SVP
%pal
nprocs 24
end

* xyz 0 1
S 	 -56.9694 	 10.5248 	 -100.852 	 
C 	 -55.8312 	 11.8305 	 -101.19 	 
C 	 -54.863 	 11.4099 	 -102.104 	 
C 	 -55.1791 	 10.1022 	 -102.62 	 
C 	 -56.3025 	 9.51584 	 -102.069 	 
H 	 -54.4899 	 9.60166 	 -103.328 	 
C 	 -53.8587 	 12.2779 	 -102.703 	 
H 	 -53.1199 	 11.6154 	 -103.119 	 
H 	 -53.3694 	 12.9081 	 -101.923 	 
C 	 -54.425 	 13.1867 	 -103.805 	 
H 	 -54.8276 	 12.6125 	 -104.645 	 
H 	 -55.3812 	 13.5651 	 -103.538 	 
C 	 -53.4168 	 14.2916 	 -104.269 	 
H 	 -53.0503 	 14.6503 	 -103.33 	 
H 	 -52.5429 	 14.0006 	 -104.829 	 
H 	 -53.9839 	 15.0122 	 -104.801 	 
S 	 -58.5424 	 8.11081 	 -102.836 	 
C 	 -58.5254 	 6.3431 	 -102.946 	 
C 	 -57.2814 	 5.91983 	 -102.72 	 
C 	 -56.3343 	 6.93164 	 -102.46 	 
C 	 -56.8534 	 8.22301 	 -102.414 	 
H 	 -56.9925 	 4.90915 	 -102.874 	 
C 	 -54.8916 	 6.59707 	 -102.092 	 
H 	 -54.205 	 7.48391 	 -102.276 	 
H 	 -54.5007 	 5.87041 	 -102.938 	 
C 	 -54.6054 	 6.16149 	 -100.672 	 
H 	 -53.5267 	 5.96908 	 -100.66 	 
H 	 -55.1451 	 5.16971 	 -100.404 	 
C 	 -55.0775 	 7.21721 	 -99.526 	 
H 	 -54.7421 	 6.9044 	 -98.5526 	 
H 	 -56.1702 	 7.29875 	 -99.3846 	 
H 	 -54.8273 	 8.2382 	 -99.7239 	 
H 	 -55.799 	 12.864 	 -100.919 	 
H 	 -59.3447 	 5.70271 	 -103.203 	 
*
