! wB97X-D3 SP def2-SVP
%pal
nprocs 24
end

* xyz 0 1
S 	 -50.2168 	 13.3455 	 27.4062 	 
C 	 -51.7449 	 14.154 	 27.2333 	 
C 	 -52.6184 	 13.5761 	 26.368 	 
C 	 -52.0594 	 12.4218 	 25.7947 	 
C 	 -50.7931 	 12.1656 	 26.212 	 
H 	 -52.5122 	 11.7532 	 25.0571 	 
C 	 -54.0444 	 14.0546 	 25.9727 	 
H 	 -54.6755 	 14.2874 	 26.819 	 
H 	 -54.5842 	 13.284 	 25.4912 	 
C 	 -54.0413 	 15.1699 	 24.9009 	 
H 	 -53.5643 	 14.7673 	 23.9851 	 
H 	 -55.1011 	 15.4945 	 24.7209 	 
C 	 -53.1839 	 16.2962 	 25.2397 	 
H 	 -53.5705 	 17.1695 	 24.6784 	 
H 	 -53.3044 	 16.6171 	 26.305 	 
H 	 -52.1312 	 16.1188 	 25.0959 	 
S 	 -50.7528 	 9.58196 	 27.0467 	 
C 	 -49.4705 	 8.49828 	 26.4438 	 
C 	 -49.0439 	 8.97485 	 25.2214 	 
C 	 -49.3609 	 10.3818 	 25.0303 	 
C 	 -50.0991 	 10.9305 	 26.0539 	 
H 	 -48.4241 	 8.2614 	 24.6143 	 
C 	 -49.035 	 11.0664 	 23.7246 	 
H 	 -49.9783 	 11.4316 	 23.3357 	 
H 	 -48.7773 	 10.3687 	 22.9278 	 
C 	 -47.9594 	 12.2747 	 23.7517 	 
H 	 -48.2635 	 12.9954 	 24.511 	 
H 	 -47.827 	 12.7596 	 22.8394 	 
C 	 -46.5775 	 11.6898 	 24.0892 	 
H 	 -45.9916 	 12.6299 	 24.3027 	 
H 	 -46.1456 	 11.0873 	 23.2827 	 
H 	 -46.5087 	 11.1376 	 25.0674 	 
H 	 -52.0637 	 15.0277 	 27.7828 	 
H 	 -49.432 	 7.42537 	 26.5896 	 
*
