! wB97X-D3 SP def2-SVP
%pal
nprocs 24
end

* xyz 0 1
S 	 -107.418 	 55.3394 	 -70.0202 	 
C 	 -107.782 	 53.8345 	 -70.8353 	 
C 	 -108.622 	 54.0377 	 -71.9193 	 
C 	 -108.988 	 55.3951 	 -72.0647 	 
C 	 -108.455 	 56.2209 	 -71.1024 	 
H 	 -109.61 	 55.8282 	 -72.8165 	 
C 	 -109.098 	 52.9823 	 -72.8906 	 
H 	 -108.851 	 51.9529 	 -72.6388 	 
H 	 -108.686 	 53.2041 	 -73.8619 	 
C 	 -110.659 	 52.876 	 -73.0801 	 
H 	 -111.109 	 52.3745 	 -72.1748 	 
H 	 -111.103 	 53.8645 	 -73.1755 	 
C 	 -111.142 	 52.1068 	 -74.2723 	 
H 	 -110.733 	 52.4711 	 -75.2633 	 
H 	 -111.045 	 51.0564 	 -74.2388 	 
H 	 -112.239 	 52.3077 	 -74.5158 	 
S 	 -107.24 	 58.6436 	 -70.7685 	 
C 	 -108.084 	 60.0688 	 -71.2527 	 
C 	 -109.461 	 59.9295 	 -71.3586 	 
C 	 -109.778 	 58.4799 	 -71.2893 	 
C 	 -108.66 	 57.6459 	 -70.9729 	 
H 	 -110.048 	 60.8458 	 -71.4671 	 
C 	 -111.163 	 58.0517 	 -71.6656 	 
H 	 -110.925 	 57.3387 	 -72.4337 	 
H 	 -111.683 	 59.0377 	 -72.0207 	 
C 	 -112.061 	 57.375 	 -70.6104 	 
H 	 -112.208 	 57.9902 	 -69.7821 	 
H 	 -111.612 	 56.4587 	 -70.2784 	 
C 	 -113.479 	 57.1157 	 -71.1427 	 
H 	 -113.555 	 56.1781 	 -71.7095 	 
H 	 -113.818 	 57.6895 	 -72.0071 	 
H 	 -114.18 	 57.1378 	 -70.3373 	 
H 	 -107.528 	 52.8474 	 -70.4993 	 
H 	 -107.594 	 61.0507 	 -71.1854 	 
*
