! wB97X-D3 SP def2-SVP
%pal
nprocs 24
end

* xyz 0 1
S 	 -140.258 	 7.49851 	 6.67584 	 
C 	 -141.701 	 7.92062 	 5.76497 	 
C 	 -141.984 	 9.2889 	 5.93253 	 
C 	 -141.144 	 9.87205 	 6.95206 	 
C 	 -140.307 	 8.92908 	 7.54899 	 
H 	 -141.392 	 10.8105 	 7.3059 	 
C 	 -143.113 	 10.1424 	 5.26276 	 
H 	 -143.115 	 9.58343 	 4.34598 	 
H 	 -142.804 	 11.1867 	 5.03898 	 
C 	 -144.387 	 10.1011 	 6.15349 	 
H 	 -144.738 	 9.09876 	 6.48275 	 
H 	 -144.17 	 10.5932 	 7.121 	 
C 	 -145.581 	 10.7027 	 5.49769 	 
H 	 -145.803 	 10.3861 	 4.51992 	 
H 	 -146.444 	 10.4368 	 6.06231 	 
H 	 -145.415 	 11.7812 	 5.3837 	 
S 	 -137.862 	 10.1701 	 8.24006 	 
C 	 -137.327 	 10.2269 	 9.93199 	 
C 	 -138.205 	 9.52391 	 10.7597 	 
C 	 -139.227 	 8.85422 	 9.95992 	 
C 	 -139.334 	 9.30134 	 8.59463 	 
H 	 -137.861 	 9.44121 	 11.8166 	 
C 	 -140.084 	 7.78188 	 10.6263 	 
H 	 -139.64 	 7.6664 	 11.5843 	 
H 	 -139.883 	 6.84941 	 10.1406 	 
C 	 -141.503 	 8.06024 	 10.987 	 
H 	 -141.921 	 7.09998 	 11.3664 	 
H 	 -141.998 	 8.22704 	 10.0081 	 
C 	 -141.768 	 9.22885 	 11.9796 	 
H 	 -142.841 	 9.43304 	 11.8927 	 
H 	 -141.122 	 9.98644 	 11.5768 	 
H 	 -141.447 	 8.94868 	 12.9706 	 
H 	 -142.21 	 7.26529 	 5.12134 	 
H 	 -136.448 	 10.725 	 10.3071 	 
*
