! wB97X-D3 SP def2-SVP
%pal
nprocs 24
end

* xyz 0 1
S 	 -103.29 	 22.3091 	 -118.005 	 
C 	 -104.704 	 21.9104 	 -117.095 	 
C 	 -105.525 	 21.1346 	 -117.908 	 
C 	 -105.172 	 21.1054 	 -119.282 	 
C 	 -103.959 	 21.7284 	 -119.54 	 
H 	 -105.803 	 20.6016 	 -120.011 	 
C 	 -106.857 	 20.5586 	 -117.421 	 
H 	 -107.577 	 20.4572 	 -118.218 	 
H 	 -107.388 	 21.265 	 -116.81 	 
C 	 -106.851 	 19.2118 	 -116.799 	 
H 	 -106.267 	 19.2026 	 -115.908 	 
H 	 -107.882 	 18.8971 	 -116.692 	 
C 	 -106.361 	 18.1202 	 -117.772 	 
H 	 -106.442 	 17.187 	 -117.185 	 
H 	 -106.976 	 18.0165 	 -118.671 	 
H 	 -105.342 	 18.2292 	 -117.999 	 
S 	 -101.638 	 21.5632 	 -121.005 	 
C 	 -101.715 	 21.9139 	 -122.688 	 
C 	 -102.993 	 21.9865 	 -123.134 	 
C 	 -103.969 	 22.0054 	 -122.101 	 
C 	 -103.392 	 21.8546 	 -120.868 	 
H 	 -103.218 	 22.0556 	 -124.211 	 
C 	 -105.425 	 22.0051 	 -122.412 	 
H 	 -105.542 	 22.7608 	 -123.231 	 
H 	 -106.062 	 22.3142 	 -121.611 	 
C 	 -106.018 	 20.6384 	 -122.925 	 
H 	 -106.233 	 19.9744 	 -122.116 	 
H 	 -105.405 	 20.1718 	 -123.64 	 
C 	 -107.321 	 20.8598 	 -123.708 	 
H 	 -107.878 	 21.6337 	 -123.301 	 
H 	 -107.928 	 19.9172 	 -123.919 	 
H 	 -106.955 	 21.1279 	 -124.683 	 
H 	 -104.882 	 22.1002 	 -116.019 	 
H 	 -100.932 	 21.9906 	 -123.411 	 
*
