! wB97X-D3 SP def2-SVP
%pal
nprocs 24
end

* xyz 0 1
S 	 -130.089 	 3.36507 	 6.0115 	 
C 	 -129.114 	 3.19965 	 4.60561 	 
C 	 -128.285 	 2.09673 	 4.66055 	 
C 	 -128.473 	 1.39473 	 5.86878 	 
C 	 -129.476 	 1.88754 	 6.67619 	 
H 	 -127.982 	 0.398677 	 6.05768 	 
C 	 -127.353 	 1.56884 	 3.65877 	 
H 	 -127.841 	 0.810524 	 3.00655 	 
H 	 -126.558 	 1.02645 	 4.24498 	 
C 	 -126.7 	 2.75736 	 2.94837 	 
H 	 -127.434 	 3.60049 	 2.63574 	 
H 	 -126.061 	 3.31754 	 3.60395 	 
C 	 -125.745 	 2.36371 	 1.77853 	 
H 	 -125.385 	 3.31743 	 1.3465 	 
H 	 -124.963 	 1.66841 	 2.10686 	 
H 	 -126.222 	 1.72389 	 1.00623 	 
S 	 -129.324 	 2.31671 	 9.33577 	 
C 	 -130.124 	 1.15937 	 10.419 	 
C 	 -130.6 	 0.112775 	 9.76153 	 
C 	 -130.396 	 0.166046 	 8.35297 	 
C 	 -129.885 	 1.3891 	 7.98063 	 
H 	 -130.953 	 -0.722443 	 10.3175 	 
C 	 -130.788 	 -0.939224 	 7.39889 	 
H 	 -130.298 	 -0.827438 	 6.47576 	 
H 	 -131.862 	 -0.764749 	 7.27679 	 
C 	 -130.602 	 -2.4175 	 7.98891 	 
H 	 -131.253 	 -3.089 	 7.40178 	 
H 	 -131.023 	 -2.49081 	 9.01993 	 
C 	 -129.175 	 -2.95629 	 8.10753 	 
H 	 -129.091 	 -3.94939 	 8.50992 	 
H 	 -128.668 	 -2.29016 	 8.76426 	 
H 	 -128.777 	 -3.02814 	 7.05718 	 
H 	 -129.044 	 3.9361 	 3.82877 	 
H 	 -130.003 	 1.18925 	 11.4854 	 
*
