! wB97X-D3 SP def2-SVP
%pal
nprocs 24
end

* xyz 0 1
S 	 29.8584 	 -29.2548 	 -130.948 	 
C 	 29.1968 	 -28.1959 	 -132.163 	 
C 	 27.8783 	 -28.5768 	 -132.417 	 
C 	 27.4553 	 -29.5576 	 -131.495 	 
C 	 28.3821 	 -30.0502 	 -130.609 	 
H 	 26.4429 	 -29.989 	 -131.326 	 
C 	 26.9489 	 -27.7901 	 -133.333 	 
H 	 27.7093 	 -27.2382 	 -133.933 	 
H 	 26.4251 	 -27.0207 	 -132.847 	 
C 	 26.1115 	 -28.6102 	 -134.377 	 
H 	 26.8567 	 -29.2056 	 -134.954 	 
H 	 25.4633 	 -29.3284 	 -133.799 	 
C 	 25.3025 	 -27.7401 	 -135.265 	 
H 	 25.8334 	 -27.3741 	 -136.097 	 
H 	 24.4929 	 -28.3212 	 -135.786 	 
H 	 24.9548 	 -26.838 	 -134.66 	 
S 	 27.3907 	 -32.5154 	 -130.07 	 
C 	 27.6214 	 -33.3524 	 -128.488 	 
C 	 28.3026 	 -32.517 	 -127.659 	 
C 	 28.7026 	 -31.2514 	 -128.27 	 
C 	 28.1469 	 -31.0579 	 -129.549 	 
H 	 28.5337 	 -32.6947 	 -126.6 	 
C 	 29.6127 	 -30.1983 	 -127.659 	 
H 	 30.1308 	 -29.7377 	 -128.458 	 
H 	 30.3411 	 -30.6494 	 -126.994 	 
C 	 29.0276 	 -29.0498 	 -126.871 	 
H 	 28.7393 	 -29.4767 	 -125.96 	 
H 	 28.1508 	 -28.6019 	 -127.335 	 
C 	 30.0926 	 -28.0054 	 -126.519 	 
H 	 29.6891 	 -27.0776 	 -126.038 	 
H 	 30.4549 	 -27.5994 	 -127.418 	 
H 	 30.8776 	 -28.43 	 -125.895 	 
H 	 29.8077 	 -27.4873 	 -132.672 	 
H 	 27.2436 	 -34.3274 	 -128.261 	 
*
