! wB97X-D3 SP def2-SVP
%pal
nprocs 24
end

* xyz 0 1
S 	 -101.957 	 -0.630792 	 -104.841 	 
C 	 -102.018 	 -1.71434 	 -106.172 	 
C 	 -101.874 	 -3.05531 	 -105.818 	 
C 	 -101.681 	 -3.14561 	 -104.419 	 
C 	 -101.55 	 -1.9191 	 -103.709 	 
H 	 -101.523 	 -4.00781 	 -103.775 	 
C 	 -101.922 	 -4.25013 	 -106.747 	 
H 	 -102.498 	 -3.9316 	 -107.628 	 
H 	 -102.364 	 -5.14869 	 -106.309 	 
C 	 -100.489 	 -4.69343 	 -107.267 	 
H 	 -100.086 	 -3.93043 	 -107.931 	 
H 	 -99.7233 	 -4.55692 	 -106.437 	 
C 	 -100.589 	 -6.12127 	 -107.919 	 
H 	 -100.896 	 -6.87533 	 -107.117 	 
H 	 -101.247 	 -6.12478 	 -108.786 	 
H 	 -99.6185 	 -6.41966 	 -108.307 	 
S 	 -100.081 	 -2.72486 	 -101.571 	 
C 	 -100.398 	 -2.10592 	 -99.9841 	 
C 	 -101.313 	 -1.08542 	 -99.9903 	 
C 	 -101.848 	 -0.933318 	 -101.298 	 
C 	 -101.273 	 -1.70808 	 -102.287 	 
H 	 -101.628 	 -0.425601 	 -99.1212 	 
C 	 -102.844 	 0.195314 	 -101.582 	 
H 	 -103.219 	 0.104424 	 -102.554 	 
H 	 -102.262 	 1.10345 	 -101.435 	 
C 	 -104.118 	 0.313428 	 -100.662 	 
H 	 -104.86 	 1.11136 	 -100.992 	 
H 	 -103.717 	 0.612486 	 -99.6952 	 
C 	 -104.969 	 -1.01055 	 -100.684 	 
H 	 -104.255 	 -1.74949 	 -100.272 	 
H 	 -105.243 	 -1.22515 	 -101.689 	 
H 	 -105.846 	 -0.858952 	 -100.121 	 
H 	 -102.102 	 -1.34973 	 -107.189 	 
H 	 -99.7945 	 -2.28233 	 -99.1301 	 
*
