! wB97X-D3 SP def2-SVP
%pal
nprocs 24
end

* xyz 0 1
S 	 -36.2678 	 -48.7244 	 -78.626 	 
C 	 -34.8356 	 -49.0487 	 -79.5014 	 
C 	 -33.731 	 -49.1379 	 -78.6829 	 
C 	 -34.0342 	 -48.9429 	 -77.3155 	 
C 	 -35.422 	 -48.6319 	 -77.1168 	 
H 	 -33.3114 	 -48.9058 	 -76.5415 	 
C 	 -32.3148 	 -49.3645 	 -79.1673 	 
H 	 -31.7275 	 -48.7486 	 -78.4831 	 
H 	 -32.0812 	 -48.8784 	 -80.1774 	 
C 	 -31.7506 	 -50.7672 	 -79.2988 	 
H 	 -31.8066 	 -51.2344 	 -78.2726 	 
H 	 -32.5195 	 -51.3053 	 -79.8508 	 
C 	 -30.3909 	 -50.9186 	 -80.0006 	 
H 	 -29.5422 	 -50.473 	 -79.4847 	 
H 	 -30.203 	 -51.9098 	 -80.2065 	 
H 	 -30.5055 	 -50.4831 	 -80.9908 	 
S 	 -37.6437 	 -48.9707 	 -75.6097 	 
C 	 -37.9608 	 -47.9783 	 -74.2242 	 
C 	 -36.8666 	 -47.1957 	 -74.0318 	 
C 	 -35.7957 	 -47.2445 	 -74.9977 	 
C 	 -36.1282 	 -48.214 	 -75.9701 	 
H 	 -36.7444 	 -46.5458 	 -73.2259 	 
C 	 -34.5348 	 -46.4567 	 -74.9525 	 
H 	 -33.7467 	 -47.0572 	 -75.3712 	 
H 	 -34.2194 	 -46.4141 	 -73.8504 	 
C 	 -34.6862 	 -45.1175 	 -75.5243 	 
H 	 -35.5997 	 -44.666 	 -75.1678 	 
H 	 -34.8516 	 -45.2809 	 -76.677 	 
C 	 -33.5323 	 -44.1725 	 -75.205 	 
H 	 -33.4418 	 -44.0819 	 -74.0723 	 
H 	 -33.7644 	 -43.2196 	 -75.5814 	 
H 	 -32.6167 	 -44.5746 	 -75.6384 	 
H 	 -34.7853 	 -49.118 	 -80.6209 	 
H 	 -38.8547 	 -47.8235 	 -73.6697 	 
*
