! wB97X-D3 SP def2-SVP
%pal
nprocs 24
end

* xyz 0 1
S 	 -72.2899 	 -0.938373 	 -67.5412 	 
C 	 -71.2418 	 0.065378 	 -68.4954 	 
C 	 -71.0877 	 -0.45188 	 -69.7833 	 
C 	 -71.7936 	 -1.68622 	 -69.9885 	 
C 	 -72.6113 	 -2.01913 	 -68.8783 	 
H 	 -71.8952 	 -2.28824 	 -70.8614 	 
C 	 -70.2443 	 0.285614 	 -70.8495 	 
H 	 -69.7847 	 -0.477176 	 -71.5487 	 
H 	 -69.3891 	 0.664573 	 -70.3229 	 
C 	 -70.9591 	 1.32073 	 -71.7836 	 
H 	 -71.1154 	 0.967371 	 -72.8298 	 
H 	 -71.9098 	 1.47373 	 -71.3667 	 
C 	 -70.2377 	 2.71865 	 -71.8468 	 
H 	 -69.3128 	 2.56721 	 -72.3087 	 
H 	 -70.7857 	 3.42144 	 -72.4189 	 
H 	 -70.0649 	 3.08397 	 -70.8521 	 
S 	 -73.7756 	 -3.83846 	 -67.1415 	 
C 	 -74.6663 	 -5.20925 	 -67.7395 	 
C 	 -74.8541 	 -5.05324 	 -69.132 	 
C 	 -74.2807 	 -3.84774 	 -69.7331 	 
C 	 -73.4619 	 -3.18613 	 -68.7815 	 
H 	 -75.4507 	 -5.74916 	 -69.8133 	 
C 	 -74.4095 	 -3.54567 	 -71.1828 	 
H 	 -74.3242 	 -2.43895 	 -71.501 	 
H 	 -75.4657 	 -3.83472 	 -71.4139 	 
C 	 -73.48 	 -4.31133 	 -72.126 	 
H 	 -73.4169 	 -5.36633 	 -71.8421 	 
H 	 -72.4472 	 -3.85563 	 -72.033 	 
C 	 -73.9723 	 -4.16867 	 -73.5345 	 
H 	 -73.0673 	 -4.34152 	 -74.1687 	 
H 	 -74.3339 	 -3.16678 	 -73.7295 	 
H 	 -74.6772 	 -4.94988 	 -73.8113 	 
H 	 -70.676 	 0.926618 	 -68.2252 	 
H 	 -75.1618 	 -6.03531 	 -67.1449 	 
*
