! wB97X-D3 SP def2-SVP
%pal
nprocs 24
end

* xyz 0 1
S 	 -127.434 	 61.1021 	 -58.4209 	 
C 	 -126.763 	 62.0638 	 -59.7522 	 
C 	 -126.743 	 63.3823 	 -59.4144 	 
C 	 -127.188 	 63.6304 	 -58.0642 	 
C 	 -127.492 	 62.5007 	 -57.3446 	 
H 	 -127.31 	 64.6021 	 -57.7723 	 
C 	 -126.379 	 64.5582 	 -60.2482 	 
H 	 -127.331 	 65.0522 	 -60.6252 	 
H 	 -125.69 	 64.2488 	 -61.0355 	 
C 	 -125.665 	 65.6799 	 -59.4471 	 
H 	 -126.457 	 66.2526 	 -58.8812 	 
H 	 -125.035 	 65.1546 	 -58.7411 	 
C 	 -124.808 	 66.688 	 -60.2345 	 
H 	 -123.956 	 66.2272 	 -60.7375 	 
H 	 -125.459 	 67.2813 	 -60.935 	 
H 	 -124.392 	 67.3864 	 -59.4588 	 
S 	 -129.79 	 62.9341 	 -55.9625 	 
C 	 -129.998 	 62.3057 	 -54.3297 	 
C 	 -128.784 	 61.9978 	 -53.8177 	 
C 	 -127.695 	 62.0315 	 -54.7599 	 
C 	 -128.075 	 62.4713 	 -56.0213 	 
H 	 -128.723 	 61.7693 	 -52.7823 	 
C 	 -126.315 	 61.5302 	 -54.3347 	 
H 	 -125.702 	 61.5975 	 -55.1559 	 
H 	 -126.567 	 60.4546 	 -54.04 	 
C 	 -125.499 	 62.2938 	 -53.1786 	 
H 	 -126.156 	 62.8359 	 -52.5137 	 
H 	 -124.901 	 63.0227 	 -53.7718 	 
C 	 -124.485 	 61.5036 	 -52.3897 	 
H 	 -123.99 	 62.1655 	 -51.7513 	 
H 	 -123.878 	 60.9729 	 -53.1571 	 
H 	 -124.963 	 60.749 	 -51.8432 	 
H 	 -126.501 	 61.7157 	 -60.7962 	 
H 	 -130.897 	 62.4239 	 -53.8253 	 
*
