! wB97X-D3 SP def2-SVP
%pal
nprocs 24
end

* xyz 0 1
S 	 -35.5884 	 -42.0106 	 -80.1986 	 
C 	 -36.7603 	 -40.9385 	 -79.4255 	 
C 	 -36.2785 	 -39.6527 	 -79.3395 	 
C 	 -34.9681 	 -39.4975 	 -79.9482 	 
C 	 -34.5693 	 -40.6373 	 -80.577 	 
H 	 -34.3362 	 -38.6589 	 -79.9087 	 
C 	 -37.029 	 -38.504 	 -78.677 	 
H 	 -36.2774 	 -37.9013 	 -78.3093 	 
H 	 -37.6932 	 -38.9096 	 -77.8453 	 
C 	 -37.8256 	 -37.6882 	 -79.6754 	 
H 	 -37.3061 	 -37.5378 	 -80.627 	 
H 	 -38.6668 	 -38.3144 	 -79.9143 	 
C 	 -38.2928 	 -36.3394 	 -79.0688 	 
H 	 -37.5175 	 -35.65 	 -78.9247 	 
H 	 -38.9901 	 -35.8016 	 -79.7299 	 
H 	 -38.8569 	 -36.524 	 -78.1614 	 
S 	 -32.3519 	 -42.2832 	 -80.4398 	 
C 	 -30.8078 	 -41.6162 	 -81.0474 	 
C 	 -31.001 	 -40.3592 	 -81.6222 	 
C 	 -32.3695 	 -39.9694 	 -81.7267 	 
C 	 -33.2155 	 -40.8626 	 -81.0716 	 
H 	 -30.1362 	 -39.7786 	 -81.9735 	 
C 	 -32.7823 	 -38.5908 	 -82.3064 	 
H 	 -31.9295 	 -38.1352 	 -82.8451 	 
H 	 -33.1251 	 -37.8584 	 -81.6214 	 
C 	 -33.8682 	 -38.6199 	 -83.3066 	 
H 	 -34.084 	 -37.6304 	 -83.6476 	 
H 	 -34.7052 	 -39.0518 	 -82.7525 	 
C 	 -33.4298 	 -39.4704 	 -84.5361 	 
H 	 -32.6869 	 -38.9713 	 -85.1076 	 
H 	 -34.1699 	 -39.5012 	 -85.3274 	 
H 	 -33.2484 	 -40.4806 	 -84.1384 	 
H 	 -37.6041 	 -41.2346 	 -78.7894 	 
H 	 -29.775 	 -41.9682 	 -80.7412 	 
*
