! wB97X-D3 SP def2-SVP
%pal
nprocs 24
end

* xyz 0 1
S 	 45.3622 	 -8.42756 	 -106.303 	 
C 	 45.7467 	 -6.85817 	 -107.005 	 
C 	 44.9116 	 -6.62684 	 -108.082 	 
C 	 43.8234 	 -7.53969 	 -108.097 	 
C 	 43.8492 	 -8.60206 	 -107.165 	 
H 	 43.076 	 -7.438 	 -108.809 	 
C 	 44.9339 	 -5.44418 	 -108.984 	 
H 	 45.8687 	 -4.92757 	 -108.608 	 
H 	 44.0606 	 -4.74618 	 -108.804 	 
C 	 45.1085 	 -5.76867 	 -110.472 	 
H 	 45.8617 	 -6.54055 	 -110.567 	 
H 	 44.1373 	 -6.2272 	 -110.815 	 
C 	 45.515 	 -4.48014 	 -111.274 	 
H 	 46.4124 	 -4.05071 	 -110.767 	 
H 	 45.8384 	 -4.65707 	 -112.308 	 
H 	 44.7893 	 -3.65586 	 -111.323 	 
S 	 43.5911 	 -11.2651 	 -106.404 	 
C 	 42.0235 	 -12.0396 	 -106.366 	 
C 	 41.024 	 -11.1413 	 -106.73 	 
C 	 41.5631 	 -9.85359 	 -107.039 	 
C 	 42.9139 	 -9.7399 	 -106.909 	 
H 	 39.995 	 -11.4905 	 -106.889 	 
C 	 40.6763 	 -8.78364 	 -107.554 	 
H 	 41.2566 	 -8.16811 	 -108.22 	 
H 	 40.5145 	 -8.14634 	 -106.687 	 
C 	 39.2977 	 -9.1137 	 -108.278 	 
H 	 38.8322 	 -8.17093 	 -108.553 	 
H 	 38.4978 	 -9.62619 	 -107.746 	 
C 	 39.6169 	 -9.9013 	 -109.64 	 
H 	 40.4814 	 -9.46759 	 -110.161 	 
H 	 38.7832 	 -9.97892 	 -110.376 	 
H 	 39.9426 	 -10.9141 	 -109.341 	 
H 	 46.5861 	 -6.29016 	 -106.71 	 
H 	 41.8496 	 -13.113 	 -106.346 	 
*
