! wB97X-D3 SP def2-SVP
%pal
nprocs 24
end

* xyz 0 1
S 	 -63.0119 	 -56.3261 	 -76.6084 	 
C 	 -64.668 	 -56.1441 	 -77.151 	 
C 	 -65.1021 	 -57.1857 	 -77.9331 	 
C 	 -64.0326 	 -58.0978 	 -78.2131 	 
C 	 -62.8275 	 -57.7138 	 -77.6521 	 
H 	 -64.1267 	 -59.05 	 -78.7205 	 
C 	 -66.4667 	 -57.1806 	 -78.4979 	 
H 	 -66.8066 	 -56.2076 	 -78.4184 	 
H 	 -67.2063 	 -57.7437 	 -77.8542 	 
C 	 -66.5638 	 -57.6469 	 -79.9714 	 
H 	 -66.1786 	 -58.6202 	 -80.0423 	 
H 	 -67.5337 	 -57.7554 	 -80.3756 	 
C 	 -65.8348 	 -56.8365 	 -81.1058 	 
H 	 -66.4166 	 -55.9513 	 -81.0908 	 
H 	 -64.7545 	 -56.5936 	 -80.9207 	 
H 	 -65.8027 	 -57.3293 	 -82.0447 	 
S 	 -60.6042 	 -58.4503 	 -76.1753 	 
C 	 -59.322 	 -59.3536 	 -76.9724 	 
C 	 -59.6788 	 -59.6286 	 -78.2708 	 
C 	 -60.9033 	 -59.0963 	 -78.7459 	 
C 	 -61.6178 	 -58.4864 	 -77.659 	 
H 	 -59.0209 	 -60.1707 	 -78.8234 	 
C 	 -61.3853 	 -59.2027 	 -80.18 	 
H 	 -62.5121 	 -59.3069 	 -80.2433 	 
H 	 -61.0922 	 -60.1569 	 -80.5998 	 
C 	 -60.9043 	 -58.0596 	 -81.1306 	 
H 	 -60.963 	 -58.565 	 -82.1104 	 
H 	 -59.8712 	 -57.8499 	 -80.8927 	 
C 	 -61.7642 	 -56.818 	 -81.0846 	 
H 	 -62.7928 	 -56.9483 	 -81.2896 	 
H 	 -61.4992 	 -56.1277 	 -81.9132 	 
H 	 -61.6431 	 -56.1334 	 -80.2094 	 
H 	 -65.2899 	 -55.2736 	 -76.8657 	 
H 	 -58.4959 	 -59.7557 	 -76.521 	 
*
