! wB97X-D3 SP def2-SVP
%pal
nprocs 24
end

* xyz 0 1
S 	 -24.878 	 -32.0483 	 -96.3558 	 
C 	 -24.2903 	 -33.6405 	 -96.915 	 
C 	 -23.1595 	 -33.4626 	 -97.696 	 
C 	 -22.8729 	 -32.1028 	 -97.9709 	 
C 	 -23.5647 	 -31.1953 	 -97.1889 	 
H 	 -22.1637 	 -31.6839 	 -98.6739 	 
C 	 -22.3737 	 -34.5658 	 -98.3633 	 
H 	 -22.7345 	 -35.4872 	 -97.9468 	 
H 	 -21.3631 	 -34.4559 	 -97.9996 	 
C 	 -22.3601 	 -34.4246 	 -99.8871 	 
H 	 -23.3949 	 -34.3448 	 -100.194 	 
H 	 -21.9354 	 -33.4551 	 -100.157 	 
C 	 -21.7343 	 -35.5935 	 -100.591 	 
H 	 -22.0217 	 -36.5523 	 -100.277 	 
H 	 -21.9207 	 -35.5344 	 -101.681 	 
H 	 -20.6481 	 -35.4786 	 -100.396 	 
S 	 -24.8272 	 -28.993 	 -98.117 	 
C 	 -24.1822 	 -27.3756 	 -97.747 	 
C 	 -23.1024 	 -27.4693 	 -96.9213 	 
C 	 -22.6977 	 -28.7825 	 -96.6455 	 
C 	 -23.5201 	 -29.7486 	 -97.2302 	 
H 	 -22.6278 	 -26.5711 	 -96.4919 	 
C 	 -21.5276 	 -29.1364 	 -95.7996 	 
H 	 -21.814 	 -29.9254 	 -95.0764 	 
H 	 -21.1399 	 -28.333 	 -95.2024 	 
C 	 -20.3291 	 -29.6101 	 -96.6137 	 
H 	 -20.2095 	 -29.0368 	 -97.5133 	 
H 	 -20.4064 	 -30.5963 	 -96.8899 	 
C 	 -19.0382 	 -29.4423 	 -95.7901 	 
H 	 -18.2383 	 -29.8237 	 -96.4113 	 
H 	 -19.0795 	 -30.0242 	 -94.8739 	 
H 	 -18.8346 	 -28.4267 	 -95.4495 	 
H 	 -24.6187 	 -34.5773 	 -96.4729 	 
H 	 -24.5867 	 -26.4954 	 -98.1336 	 
*
