! wB97X-D3 SP def2-SVP
%pal
nprocs 24
end

* xyz 0 1
S 	 -49.2588 	 17.2818 	 20.6441 	 
C 	 -50.6576 	 17.1508 	 21.6939 	 
C 	 -51.7317 	 16.6397 	 21.0726 	 
C 	 -51.3503 	 16.0896 	 19.7997 	 
C 	 -50.0884 	 16.4241 	 19.4108 	 
H 	 -51.9793 	 15.5215 	 19.137 	 
C 	 -53.1063 	 16.4821 	 21.6567 	 
H 	 -53.775 	 16.1599 	 20.834 	 
H 	 -53.3823 	 17.5322 	 21.8255 	 
C 	 -53.4261 	 15.5029 	 22.7435 	 
H 	 -52.5287 	 15.3475 	 23.3053 	 
H 	 -54.0131 	 16.013 	 23.5056 	 
C 	 -53.9426 	 14.1288 	 22.2827 	 
H 	 -54.8878 	 14.0231 	 21.7495 	 
H 	 -53.1642 	 13.7201 	 21.6118 	 
H 	 -54.0432 	 13.4946 	 23.2186 	 
S 	 -48.0572 	 14.6335 	 18.9117 	 
C 	 -47.8942 	 13.9577 	 17.3413 	 
C 	 -48.6762 	 14.5782 	 16.4136 	 
C 	 -49.5351 	 15.5923 	 16.9684 	 
C 	 -49.3153 	 15.7691 	 18.3315 	 
H 	 -48.6868 	 14.3381 	 15.3402 	 
C 	 -50.6302 	 16.2923 	 16.17 	 
H 	 -51.0413 	 17.0615 	 16.8141 	 
H 	 -51.4439 	 15.5692 	 16.1025 	 
C 	 -50.3633 	 16.9101 	 14.7733 	 
H 	 -51.2904 	 17.1129 	 14.2964 	 
H 	 -49.8405 	 16.2276 	 14.1957 	 
C 	 -49.5021 	 18.1737 	 14.8629 	 
H 	 -49.3371 	 18.7061 	 13.8817 	 
H 	 -48.5525 	 17.8827 	 15.1993 	 
H 	 -50.0157 	 18.8523 	 15.4945 	 
H 	 -50.8793 	 17.5368 	 22.6589 	 
H 	 -47.263 	 13.0923 	 17.1018 	 
*
