! wB97X-D3 SP def2-SVP
%pal
nprocs 24
end

* xyz 0 1
S 	 26.5613 	 -9.90862 	 -114.867 	 
C 	 27.8302 	 -10.6911 	 -113.863 	 
C 	 27.4785 	 -10.8121 	 -112.523 	 
C 	 26.3309 	 -10.055 	 -112.211 	 
C 	 25.6369 	 -9.50995 	 -113.335 	 
H 	 25.7791 	 -10.0038 	 -111.273 	 
C 	 28.2659 	 -11.5324 	 -111.43 	 
H 	 28.9005 	 -12.2981 	 -111.87 	 
H 	 27.5219 	 -12.047 	 -110.881 	 
C 	 29.0935 	 -10.6602 	 -110.428 	 
H 	 29.9104 	 -10.1499 	 -110.914 	 
H 	 28.482 	 -9.88451 	 -109.884 	 
C 	 29.8214 	 -11.542 	 -109.424 	 
H 	 30.4658 	 -12.3169 	 -109.877 	 
H 	 30.5085 	 -10.7969 	 -109.054 	 
H 	 29.1871 	 -11.9291 	 -108.672 	 
S 	 23.254 	 -9.19055 	 -114.631 	 
C 	 21.9589 	 -8.43654 	 -113.822 	 
C 	 22.355 	 -8.06224 	 -112.567 	 
C 	 23.7502 	 -8.31077 	 -112.196 	 
C 	 24.4005 	 -8.81614 	 -113.291 	 
H 	 21.6209 	 -7.52561 	 -111.955 	 
C 	 24.3356 	 -7.8502 	 -110.802 	 
H 	 24.0844 	 -6.83434 	 -110.665 	 
H 	 25.4032 	 -7.7673 	 -110.738 	 
C 	 23.7698 	 -8.74734 	 -109.738 	 
H 	 24.1244 	 -9.70119 	 -109.954 	 
H 	 22.6906 	 -8.86124 	 -109.863 	 
C 	 24.1407 	 -8.27638 	 -108.316 	 
H 	 23.7547 	 -9.08884 	 -107.662 	 
H 	 23.65 	 -7.34165 	 -108.031 	 
H 	 25.2227 	 -8.07646 	 -108.132 	 
H 	 28.7424 	 -11.1362 	 -114.31 	 
H 	 21.033 	 -8.23756 	 -114.315 	 
*
