! wB97X-D3 SP def2-SVP
%pal
nprocs 24
end

* xyz 0 1
S 	 -106.587 	 54.8973 	 -107.581 	 
C 	 -105.488 	 55.3373 	 -108.908 	 
C 	 -106.039 	 56.129 	 -109.854 	 
C 	 -107.447 	 56.2574 	 -109.601 	 
C 	 -107.911 	 55.6398 	 -108.42 	 
H 	 -108.196 	 56.7861 	 -110.262 	 
C 	 -105.376 	 56.603 	 -111.125 	 
H 	 -106.089 	 56.4816 	 -111.903 	 
H 	 -104.643 	 55.9817 	 -111.499 	 
C 	 -104.669 	 57.9158 	 -111.141 	 
H 	 -103.786 	 57.8471 	 -110.468 	 
H 	 -104.314 	 58.123 	 -112.136 	 
C 	 -105.62 	 59.0751 	 -110.878 	 
H 	 -105.111 	 60.0652 	 -110.802 	 
H 	 -106.303 	 59.1907 	 -111.673 	 
H 	 -106.011 	 59.1125 	 -109.903 	 
S 	 -109.493 	 56.4079 	 -106.263 	 
C 	 -111.27 	 56.4585 	 -106.423 	 
C 	 -111.66 	 55.8906 	 -107.625 	 
C 	 -110.517 	 55.4988 	 -108.448 	 
C 	 -109.288 	 55.8153 	 -107.904 	 
H 	 -112.677 	 55.9605 	 -107.866 	 
C 	 -110.725 	 54.6741 	 -109.734 	 
H 	 -109.794 	 54.6767 	 -110.261 	 
H 	 -111.456 	 55.1447 	 -110.44 	 
C 	 -111.154 	 53.1518 	 -109.481 	 
H 	 -112.19 	 53.0873 	 -109.132 	 
H 	 -110.447 	 52.8943 	 -108.617 	 
C 	 -110.787 	 52.334 	 -110.756 	 
H 	 -109.709 	 52.1116 	 -110.894 	 
H 	 -111.058 	 52.9091 	 -111.595 	 
H 	 -111.331 	 51.4134 	 -110.696 	 
H 	 -104.366 	 55.1196 	 -108.9 	 
H 	 -111.897 	 57.0725 	 -105.865 	 
*
