! wB97X-D3 SP def2-SVP
%pal
nprocs 24
end

* xyz 0 1
S 	 -63.0567 	 9.05803 	 22.8449 	 
C 	 -61.8909 	 9.9224 	 21.9118 	 
C 	 -60.7155 	 9.22151 	 21.7643 	 
C 	 -60.6748 	 8.07542 	 22.5955 	 
C 	 -61.9494 	 7.69717 	 23.0038 	 
H 	 -59.7283 	 7.51343 	 22.9357 	 
C 	 -59.4585 	 9.70832 	 21.0788 	 
H 	 -59.6678 	 10.5366 	 20.41 	 
H 	 -59.116 	 8.88737 	 20.4283 	 
C 	 -58.4398 	 10.1743 	 22.0664 	 
H 	 -58.8684 	 10.5393 	 22.9706 	 
H 	 -57.8809 	 9.29755 	 22.3776 	 
C 	 -57.4228 	 11.2365 	 21.4957 	 
H 	 -56.6469 	 11.5241 	 22.1838 	 
H 	 -56.8682 	 10.9349 	 20.6243 	 
H 	 -57.9453 	 12.0872 	 21.1821 	 
S 	 -62.224 	 6.24913 	 25.2679 	 
C 	 -62.2175 	 4.4502 	 25.204 	 
C 	 -62.2224 	 4.03278 	 23.8873 	 
C 	 -62.1027 	 5.1085 	 22.9703 	 
C 	 -62.253 	 6.38177 	 23.5281 	 
H 	 -62.0532 	 2.95965 	 23.6019 	 
C 	 -62.0826 	 4.90405 	 21.4593 	 
H 	 -61.0813 	 4.47059 	 21.2982 	 
H 	 -62.2126 	 5.90919 	 21.0624 	 
C 	 -63.2423 	 4.01999 	 20.9196 	 
H 	 -64.1776 	 4.57748 	 20.9848 	 
H 	 -63.5415 	 3.23187 	 21.4946 	 
C 	 -63.1612 	 3.61067 	 19.4793 	 
H 	 -64.0614 	 3.03788 	 19.2259 	 
H 	 -62.2526 	 3.02809 	 19.351 	 
H 	 -63.0386 	 4.51684 	 18.844 	 
H 	 -62.0377 	 10.9798 	 21.6073 	 
H 	 -62.2848 	 3.84146 	 26.1125 	 
*
