! wB97X-D3 SP def2-SVP
%pal
nprocs 24
end

* xyz 0 1
S 	 -64.4413 	 14.1683 	 -75.859 	 
C 	 -65.4643 	 13.8634 	 -74.4395 	 
C 	 -64.6681 	 13.7701 	 -73.3132 	 
C 	 -63.2993 	 14.0792 	 -73.6116 	 
C 	 -62.9894 	 14.2816 	 -74.9501 	 
H 	 -62.4691 	 14.1859 	 -72.8386 	 
C 	 -65.0686 	 13.4227 	 -71.8843 	 
H 	 -65.7252 	 14.2238 	 -71.6319 	 
H 	 -64.2072 	 13.5986 	 -71.3279 	 
C 	 -65.6035 	 12.0073 	 -71.5897 	 
H 	 -65.9463 	 11.9567 	 -70.5608 	 
H 	 -66.4532 	 11.7704 	 -72.295 	 
C 	 -64.6341 	 10.9234 	 -71.9471 	 
H 	 -65.0352 	 9.96346 	 -71.606 	 
H 	 -64.6715 	 10.8574 	 -72.9922 	 
H 	 -63.7212 	 11.0987 	 -71.4147 	 
S 	 -60.1881 	 13.6142 	 -75.2511 	 
C 	 -59.2566 	 14.5802 	 -76.3623 	 
C 	 -60.0409 	 15.441 	 -77.0839 	 
C 	 -61.4189 	 15.5045 	 -76.6015 	 
C 	 -61.6906 	 14.5744 	 -75.5982 	 
H 	 -59.6273 	 15.9844 	 -77.903 	 
C 	 -62.4768 	 16.392 	 -77.1917 	 
H 	 -63.2476 	 16.6469 	 -76.4213 	 
H 	 -62.9977 	 15.8052 	 -77.9819 	 
C 	 -62.0258 	 17.681 	 -77.841 	 
H 	 -61.4057 	 17.4133 	 -78.7026 	 
H 	 -61.3304 	 18.1718 	 -77.0989 	 
C 	 -63.0805 	 18.7119 	 -78.2344 	 
H 	 -62.5968 	 19.6638 	 -78.6158 	 
H 	 -63.7248 	 19.0763 	 -77.429 	 
H 	 -63.7787 	 18.3841 	 -78.9321 	 
H 	 -66.4728 	 13.6046 	 -74.4167 	 
H 	 -58.1898 	 14.4622 	 -76.4811 	 
*
