! wB97X-D3 SP def2-SVP
%pal
nprocs 24
end

* xyz 0 1
S 	 -31.4644 	 -37.2735 	 -95.0137 	 
C 	 -32.9219 	 -37.2818 	 -94.0769 	 
C 	 -32.6749 	 -36.8248 	 -92.7977 	 
C 	 -31.3198 	 -36.4243 	 -92.6417 	 
C 	 -30.5721 	 -36.4928 	 -93.7891 	 
H 	 -30.965 	 -36.027 	 -91.6461 	 
C 	 -33.491 	 -37.0856 	 -91.616 	 
H 	 -34.4397 	 -37.4343 	 -92.0614 	 
H 	 -33.7636 	 -36.2193 	 -91.0258 	 
C 	 -32.9477 	 -38.117 	 -90.6736 	 
H 	 -32.2893 	 -38.9226 	 -91.1468 	 
H 	 -32.183 	 -37.6103 	 -90.148 	 
C 	 -34.003 	 -38.7533 	 -89.79 	 
H 	 -33.6338 	 -39.6719 	 -89.4678 	 
H 	 -34.1376 	 -38.14 	 -88.9419 	 
H 	 -34.9358 	 -38.928 	 -90.2956 	 
S 	 -28.2713 	 -37.7097 	 -94.8816 	 
C 	 -26.7156 	 -36.9685 	 -94.6096 	 
C 	 -26.8338 	 -35.8368 	 -93.8313 	 
C 	 -28.1604 	 -35.6013 	 -93.3636 	 
C 	 -29.1257 	 -36.4906 	 -93.866 	 
H 	 -25.9463 	 -35.2555 	 -93.5809 	 
C 	 -28.3825 	 -34.4351 	 -92.3841 	 
H 	 -27.4146 	 -34.0898 	 -91.9483 	 
H 	 -28.8872 	 -34.8855 	 -91.5055 	 
C 	 -29.0393 	 -33.174 	 -93.0361 	 
H 	 -29.9418 	 -33.5092 	 -93.511 	 
H 	 -28.3613 	 -32.6342 	 -93.7524 	 
C 	 -29.3617 	 -32.3167 	 -91.8643 	 
H 	 -29.5759 	 -31.2902 	 -92.2039 	 
H 	 -28.5883 	 -32.1658 	 -91.1273 	 
H 	 -30.2623 	 -32.6866 	 -91.3506 	 
H 	 -33.8022 	 -37.8373 	 -94.3572 	 
H 	 -25.8047 	 -37.2854 	 -95.1344 	 
*
