! wB97X-D3 SP def2-SVP
%pal
nprocs 24
end

* xyz 0 1
S 	 -105.536 	 51.6804 	 -81.4522 	 
C 	 -105.287 	 51.9879 	 -83.1738 	 
C 	 -106.527 	 51.9051 	 -83.8504 	 
C 	 -107.621 	 51.5295 	 -82.9773 	 
C 	 -107.293 	 51.3941 	 -81.6502 	 
H 	 -108.646 	 51.4606 	 -83.2357 	 
C 	 -106.809 	 52.1637 	 -85.3223 	 
H 	 -106.486 	 51.263 	 -85.871 	 
H 	 -106.141 	 53.0091 	 -85.5657 	 
C 	 -108.233 	 52.5574 	 -85.7519 	 
H 	 -108.938 	 51.7234 	 -85.5328 	 
H 	 -108.575 	 53.3571 	 -85.0844 	 
C 	 -108.368 	 52.8454 	 -87.238 	 
H 	 -109.36 	 52.9474 	 -87.479 	 
H 	 -107.853 	 53.7512 	 -87.5013 	 
H 	 -108.035 	 51.9454 	 -87.7086 	 
S 	 -109.837 	 51.4673 	 -80.643 	 
C 	 -110.183 	 50.6015 	 -79.1139 	 
C 	 -109.165 	 49.7569 	 -78.7703 	 
C 	 -107.997 	 50.0099 	 -79.5514 	 
C 	 -108.135 	 51.0228 	 -80.5294 	 
H 	 -109.325 	 49.0623 	 -77.9681 	 
C 	 -106.772 	 49.355 	 -79.2445 	 
H 	 -106.734 	 48.9032 	 -78.2217 	 
H 	 -105.955 	 50.0996 	 -79.2399 	 
C 	 -106.174 	 48.3575 	 -80.2627 	 
H 	 -105.294 	 47.8693 	 -79.9212 	 
H 	 -105.843 	 48.8894 	 -81.1292 	 
C 	 -107.156 	 47.3239 	 -80.8034 	 
H 	 -108.049 	 47.8243 	 -81.1515 	 
H 	 -107.373 	 46.6833 	 -79.9921 	 
H 	 -106.653 	 46.7654 	 -81.5791 	 
H 	 -104.326 	 52.309 	 -83.5258 	 
H 	 -111.224 	 50.6062 	 -78.7935 	 
*
