! wB97X-D3 SP def2-SVP
%pal
nprocs 24
end

* xyz 0 1
S 	 -114.715 	 16.399 	 -112.025 	 
C 	 -113.864 	 17.3723 	 -113.077 	 
C 	 -113.889 	 16.9058 	 -114.387 	 
C 	 -114.641 	 15.6948 	 -114.473 	 
C 	 -115.156 	 15.2688 	 -113.277 	 
H 	 -114.64 	 15.0926 	 -115.385 	 
C 	 -113.062 	 17.5714 	 -115.527 	 
H 	 -112.058 	 17.2288 	 -115.45 	 
H 	 -113.174 	 18.5896 	 -115.369 	 
C 	 -113.663 	 17.1914 	 -116.959 	 
H 	 -113.392 	 16.2122 	 -117.436 	 
H 	 -114.775 	 17.3551 	 -116.879 	 
C 	 -113.165 	 18.2922 	 -117.908 	 
H 	 -113.57 	 19.2707 	 -117.677 	 
H 	 -112.086 	 18.4474 	 -118.007 	 
H 	 -113.388 	 18.0315 	 -118.964 	 
S 	 -117.114 	 14.0501 	 -111.716 	 
C 	 -117.028 	 12.3424 	 -111.446 	 
C 	 -116.218 	 11.729 	 -112.389 	 
C 	 -115.557 	 12.7087 	 -113.206 	 
C 	 -115.801 	 14.0273 	 -112.903 	 
H 	 -116.205 	 10.7032 	 -112.606 	 
C 	 -114.42 	 12.2586 	 -114.095 	 
H 	 -113.768 	 11.572 	 -113.511 	 
H 	 -113.716 	 13.0681 	 -114.317 	 
C 	 -114.885 	 11.5505 	 -115.373 	 
H 	 -115.807 	 12.0701 	 -115.761 	 
H 	 -115.178 	 10.4958 	 -115.079 	 
C 	 -114.091 	 11.5419 	 -116.655 	 
H 	 -114.687 	 11.002 	 -117.372 	 
H 	 -113.14 	 10.9764 	 -116.517 	 
H 	 -113.874 	 12.4426 	 -117.206 	 
H 	 -113.452 	 18.358 	 -112.831 	 
H 	 -117.749 	 11.7488 	 -110.912 	 
*
