! wB97X-D3 SP def2-SVP
%pal
nprocs 24
end

* xyz 0 1
S 	 -68.728 	 19.0582 	 -76.7546 	 
C 	 -69.53 	 19.1712 	 -75.2059 	 
C 	 -70.154 	 17.9643 	 -74.8295 	 
C 	 -70.0458 	 16.9463 	 -75.8687 	 
C 	 -69.2371 	 17.3473 	 -76.9158 	 
H 	 -70.4563 	 15.8566 	 -75.8081 	 
C 	 -70.8271 	 17.6463 	 -73.461 	 
H 	 -70.7595 	 18.6228 	 -72.8899 	 
H 	 -70.1503 	 16.8899 	 -73.003 	 
C 	 -72.2512 	 17.1182 	 -73.6766 	 
H 	 -72.943 	 17.9704 	 -73.8957 	 
H 	 -72.3677 	 16.5 	 -74.4842 	 
C 	 -72.8115 	 16.3663 	 -72.4201 	 
H 	 -72.215 	 15.457 	 -72.2553 	 
H 	 -72.6614 	 16.9157 	 -71.4653 	 
H 	 -73.8661 	 16.0538 	 -72.5538 	 
S 	 -70.293 	 16.0966 	 -79.0521 	 
C 	 -69.3033 	 15.2405 	 -80.2418 	 
C 	 -67.9608 	 15.3676 	 -79.8802 	 
C 	 -67.7824 	 16.149 	 -78.7262 	 
C 	 -68.9409 	 16.633 	 -78.1088 	 
H 	 -67.1902 	 15.0804 	 -80.446 	 
C 	 -66.3888 	 16.3426 	 -78.1633 	 
H 	 -66.5931 	 16.5321 	 -77.1444 	 
H 	 -66.0291 	 17.2552 	 -78.52 	 
C 	 -65.4059 	 15.1538 	 -78.386 	 
H 	 -64.5048 	 15.4293 	 -77.8368 	 
H 	 -65.1904 	 15.0388 	 -79.4263 	 
C 	 -65.8987 	 13.8372 	 -77.7951 	 
H 	 -65.0588 	 13.2006 	 -77.7956 	 
H 	 -66.5921 	 13.2957 	 -78.4687 	 
H 	 -66.3121 	 13.8414 	 -76.7438 	 
H 	 -69.4303 	 19.8916 	 -74.4669 	 
H 	 -69.657 	 14.6697 	 -81.0794 	 
*
