! wB97X-D3 SP def2-SVP
%pal
nprocs 24
end

* xyz 0 1
S 	 -122.527 	 65.3974 	 -43.6199 	 
C 	 -123.309 	 66.8044 	 -42.8914 	 
C 	 -122.419 	 67.7897 	 -42.5361 	 
C 	 -121.103 	 67.2362 	 -42.5219 	 
C 	 -120.996 	 65.9449 	 -43.0912 	 
H 	 -120.202 	 67.7512 	 -42.257 	 
C 	 -122.767 	 69.179 	 -41.9744 	 
H 	 -123.223 	 68.946 	 -40.972 	 
H 	 -123.603 	 69.594 	 -42.5177 	 
C 	 -121.632 	 70.2557 	 -41.9451 	 
H 	 -120.781 	 69.8061 	 -41.4486 	 
H 	 -121.258 	 70.4275 	 -42.9566 	 
C 	 -121.991 	 71.5157 	 -41.2174 	 
H 	 -121.165 	 72.2337 	 -41.181 	 
H 	 -122.877 	 72.093 	 -41.6463 	 
H 	 -122.27 	 71.2802 	 -40.195 	 
S 	 -119.895 	 63.4509 	 -43.0124 	 
C 	 -118.378 	 63.0778 	 -43.7357 	 
C 	 -117.864 	 64.2556 	 -44.3517 	 
C 	 -118.649 	 65.4297 	 -44.0812 	 
C 	 -119.837 	 65.0884 	 -43.4336 	 
H 	 -116.855 	 64.2025 	 -44.7228 	 
C 	 -118.018 	 66.8148 	 -44.2567 	 
H 	 -118.807 	 67.5135 	 -44.0382 	 
H 	 -117.747 	 66.8942 	 -45.3121 	 
C 	 -116.843 	 67.2686 	 -43.3096 	 
H 	 -116.523 	 68.2817 	 -43.6146 	 
H 	 -115.996 	 66.6035 	 -43.5003 	 
C 	 -117.241 	 67.4355 	 -41.8111 	 
H 	 -116.328 	 67.6535 	 -41.246 	 
H 	 -117.718 	 66.5127 	 -41.3679 	 
H 	 -117.841 	 68.2612 	 -41.5466 	 
H 	 -124.358 	 66.9086 	 -42.6886 	 
H 	 -117.97 	 62.0492 	 -43.8648 	 
*
