! wB97X-D3 SP def2-SVP
%pal
nprocs 24
end

* xyz 0 1
S 	 45.7341 	 -14.6458 	 -125.975 	 
C 	 46.2293 	 -13.2098 	 -125.082 	 
C 	 45.1549 	 -12.7159 	 -124.422 	 
C 	 43.9903 	 -13.5169 	 -124.505 	 
C 	 44.1364 	 -14.4935 	 -125.446 	 
H 	 43.0597 	 -13.4761 	 -123.982 	 
C 	 45.1622 	 -11.313 	 -123.804 	 
H 	 46.1723 	 -10.9145 	 -123.777 	 
H 	 44.8681 	 -11.3335 	 -122.745 	 
C 	 44.2005 	 -10.3366 	 -124.404 	 
H 	 43.1579 	 -10.7246 	 -124.338 	 
H 	 44.3054 	 -9.46149 	 -123.722 	 
C 	 44.3158 	 -9.86905 	 -125.953 	 
H 	 44.7613 	 -10.6738 	 -126.699 	 
H 	 43.348 	 -9.58134 	 -126.257 	 
H 	 45.0782 	 -9.12404 	 -125.886 	 
S 	 43.5116 	 -17.1342 	 -124.941 	 
C 	 42.053 	 -17.699 	 -125.731 	 
C 	 41.4304 	 -16.8059 	 -126.531 	 
C 	 42.0799 	 -15.5998 	 -126.516 	 
C 	 43.1836 	 -15.5785 	 -125.705 	 
H 	 40.5076 	 -17.0526 	 -127.041 	 
C 	 41.6719 	 -14.4587 	 -127.407 	 
H 	 41.8384 	 -13.5919 	 -126.9 	 
H 	 40.5961 	 -14.4117 	 -127.493 	 
C 	 42.2184 	 -14.5202 	 -128.86 	 
H 	 43.2647 	 -14.2562 	 -128.767 	 
H 	 41.7288 	 -13.7863 	 -129.434 	 
C 	 41.9324 	 -15.8409 	 -129.621 	 
H 	 42.0096 	 -15.7869 	 -130.684 	 
H 	 40.9053 	 -16.1459 	 -129.362 	 
H 	 42.6454 	 -16.5172 	 -129.274 	 
H 	 47.1177 	 -12.6196 	 -125.38 	 
H 	 41.6871 	 -18.7181 	 -125.611 	 
*
