! wB97X-D3 SP def2-SVP
%pal
nprocs 24
end

* xyz 0 1
S 	 -51.4652 	 16.1291 	 27.1001 	 
C 	 -50.7707 	 17.3436 	 28.1474 	 
C 	 -50.4307 	 18.4623 	 27.4214 	 
C 	 -50.7923 	 18.4068 	 26.0399 	 
C 	 -51.3036 	 17.1806 	 25.6581 	 
H 	 -50.6154 	 19.1297 	 25.3078 	 
C 	 -49.983 	 19.8615 	 27.9808 	 
H 	 -49.2625 	 20.2652 	 27.332 	 
H 	 -49.4998 	 19.5914 	 28.8529 	 
C 	 -51.0607 	 20.6957 	 28.5322 	 
H 	 -51.5791 	 20.0911 	 29.3192 	 
H 	 -50.6248 	 21.6621 	 28.8696 	 
C 	 -52.2171 	 21.2012 	 27.6243 	 
H 	 -53.0539 	 21.6041 	 28.243 	 
H 	 -52.0262 	 22.1123 	 27.069 	 
H 	 -52.5364 	 20.5154 	 26.8673 	 
S 	 -53.2641 	 15.6926 	 24.1803 	 
C 	 -52.873 	 15.3182 	 22.5361 	 
C 	 -51.9809 	 16.22 	 22.0624 	 
C 	 -51.3973 	 17.157 	 23.0202 	 
C 	 -51.8719 	 16.826 	 24.31 	 
H 	 -51.6872 	 16.2755 	 21.0649 	 
C 	 -50.1407 	 17.9277 	 22.6976 	 
H 	 -49.561 	 17.2255 	 22.0871 	 
H 	 -49.3526 	 18.0692 	 23.4314 	 
C 	 -50.223 	 19.2581 	 21.9884 	 
H 	 -50.6315 	 19.8649 	 22.8018 	 
H 	 -51.0905 	 19.1519 	 21.3346 	 
C 	 -48.9751 	 19.9456 	 21.592 	 
H 	 -48.2935 	 20.1849 	 22.3769 	 
H 	 -49.1609 	 20.9506 	 21.2263 	 
H 	 -48.4122 	 19.2294 	 20.9479 	 
H 	 -50.6551 	 17.1123 	 29.1931 	 
H 	 -53.2365 	 14.4924 	 21.9897 	 
*
