! wB97X-D3 SP def2-SVP
%pal
nprocs 24
end

* xyz 0 1
S 	 -48.3148 	 5.87276 	 -17.3837 	 
C 	 -48.7067 	 4.51381 	 -18.4189 	 
C 	 -49.904 	 3.84977 	 -17.9312 	 
C 	 -50.4015 	 4.48211 	 -16.7662 	 
C 	 -49.6337 	 5.54289 	 -16.2887 	 
H 	 -51.2834 	 4.16117 	 -16.3099 	 
C 	 -50.4921 	 2.52758 	 -18.5017 	 
H 	 -51.4334 	 2.67645 	 -19.1324 	 
H 	 -50.8635 	 1.9333 	 -17.6505 	 
C 	 -49.4413 	 1.63978 	 -19.3003 	 
H 	 -49.9115 	 0.96895 	 -19.9967 	 
H 	 -48.8317 	 2.25615 	 -20.0251 	 
C 	 -48.4814 	 0.877935 	 -18.4496 	 
H 	 -47.669 	 0.393558 	 -19.0803 	 
H 	 -47.9561 	 1.5427 	 -17.8168 	 
H 	 -48.8555 	 0.0491697 	 -17.9125 	 
S 	 -50.5805 	 7.9263 	 -15.4472 	 
C 	 -50.6808 	 8.3224 	 -13.771 	 
C 	 -50.3495 	 7.24951 	 -13.0112 	 
C 	 -49.9506 	 6.07274 	 -13.7704 	 
C 	 -49.8867 	 6.34895 	 -15.1298 	 
H 	 -50.3017 	 7.33065 	 -11.9238 	 
C 	 -49.6314 	 4.7207 	 -13.1672 	 
H 	 -49.9221 	 3.90851 	 -13.8637 	 
H 	 -50.1408 	 4.59735 	 -12.1362 	 
C 	 -48.1139 	 4.52665 	 -12.8741 	 
H 	 -47.5544 	 4.71897 	 -13.7653 	 
H 	 -47.863 	 3.4898 	 -12.6432 	 
C 	 -47.6143 	 5.39155 	 -11.7443 	 
H 	 -47.9408 	 5.01595 	 -10.8149 	 
H 	 -48.0016 	 6.4069 	 -11.802 	 
H 	 -46.543 	 5.39071 	 -11.7467 	 
H 	 -48.1528 	 4.28503 	 -19.3393 	 
H 	 -50.9716 	 9.31427 	 -13.4269 	 
*
