! wB97X-D3 SP def2-SVP
%pal
nprocs 24
end

* xyz 0 1
S 	 32.8169 	 -26.2556 	 -118.589 	 
C 	 33.5066 	 -25.2559 	 -117.314 	 
C 	 34.0644 	 -26.0102 	 -116.355 	 
C 	 33.9868 	 -27.3951 	 -116.62 	 
C 	 33.3988 	 -27.7687 	 -117.783 	 
H 	 34.4826 	 -28.0947 	 -116.041 	 
C 	 34.8488 	 -25.4017 	 -115.144 	 
H 	 34.2536 	 -24.6758 	 -114.594 	 
H 	 35.7657 	 -24.9897 	 -115.603 	 
C 	 35.4913 	 -26.2867 	 -114.055 	 
H 	 36.0614 	 -27.0672 	 -114.59 	 
H 	 36.1061 	 -25.7211 	 -113.389 	 
C 	 34.4651 	 -26.9589 	 -113.135 	 
H 	 35.026 	 -27.4005 	 -112.28 	 
H 	 33.7139 	 -26.2523 	 -112.769 	 
H 	 33.9842 	 -27.7987 	 -113.632 	 
S 	 33.5323 	 -29.2062 	 -120.059 	 
C 	 33.7014 	 -30.873 	 -119.95 	 
C 	 33.4878 	 -31.3475 	 -118.654 	 
C 	 33.2938 	 -30.3101 	 -117.664 	 
C 	 33.2622 	 -29.089 	 -118.348 	 
H 	 33.4895 	 -32.4602 	 -118.5 	 
C 	 33.2332 	 -30.638 	 -116.227 	 
H 	 32.3233 	 -31.2302 	 -116.119 	 
H 	 33.0942 	 -29.721 	 -115.658 	 
C 	 34.4763 	 -31.3996 	 -115.634 	 
H 	 34.4825 	 -32.4326 	 -116.076 	 
H 	 34.4392 	 -31.3294 	 -114.541 	 
C 	 35.8208 	 -30.7396 	 -116 	 
H 	 36.5795 	 -31.3868 	 -115.588 	 
H 	 36.0345 	 -29.8308 	 -115.497 	 
H 	 35.8706 	 -30.502 	 -117.076 	 
H 	 33.5325 	 -24.1514 	 -117.323 	 
H 	 33.7526 	 -31.4518 	 -120.826 	 
*
