! wB97X-D3 SP def2-SVP
%pal
nprocs 24
end

* xyz 0 1
S 	 18.7446 	 -9.3595 	 -116.624 	 
C 	 19.1594 	 -9.25233 	 -114.93 	 
C 	 18.9663 	 -7.95636 	 -114.486 	 
C 	 18.189 	 -7.21767 	 -115.415 	 
C 	 17.869 	 -7.82317 	 -116.596 	 
H 	 17.6951 	 -6.2702 	 -115.315 	 
C 	 19.2671 	 -7.45282 	 -113.063 	 
H 	 19.7149 	 -8.30308 	 -112.506 	 
H 	 18.2712 	 -7.22599 	 -112.702 	 
C 	 20.1908 	 -6.17462 	 -112.913 	 
H 	 19.8822 	 -5.36171 	 -113.622 	 
H 	 20.0902 	 -5.79283 	 -111.837 	 
C 	 21.5912 	 -6.46942 	 -113.298 	 
H 	 22.2605 	 -7.05496 	 -112.657 	 
H 	 21.6899 	 -6.94653 	 -114.305 	 
H 	 22.1668 	 -5.61194 	 -113.35 	 
S 	 17.3021 	 -6.6865 	 -119.053 	 
C 	 15.7259 	 -6.92498 	 -119.696 	 
C 	 14.8651 	 -7.62911 	 -118.803 	 
C 	 15.5259 	 -8.06581 	 -117.637 	 
C 	 16.8089 	 -7.5517 	 -117.557 	 
H 	 13.8052 	 -7.73437 	 -119.171 	 
C 	 14.7574 	 -8.93601 	 -116.628 	 
H 	 14.9618 	 -8.44584 	 -115.671 	 
H 	 15.2729 	 -9.89754 	 -116.603 	 
C 	 13.2412 	 -9.04811 	 -116.964 	 
H 	 13.2345 	 -9.38436 	 -118.024 	 
H 	 12.6606 	 -8.09458 	 -116.933 	 
C 	 12.4329 	 -10.0819 	 -116.121 	 
H 	 11.5924 	 -10.5055 	 -116.627 	 
H 	 12.0112 	 -9.6764 	 -115.178 	 
H 	 13.041 	 -10.9239 	 -115.974 	 
H 	 19.3763 	 -10.0883 	 -114.262 	 
H 	 15.2537 	 -6.44502 	 -120.599 	 
*
