! wB97X-D3 SP def2-SVP
%pal
nprocs 24
end

* xyz 0 1
S 	 -63.8005 	 15.3397 	 -89.3966 	 
C 	 -64.4297 	 16.7217 	 -88.4358 	 
C 	 -64.9622 	 16.3577 	 -87.2154 	 
C 	 -64.7397 	 15.0049 	 -86.9711 	 
C 	 -64.1047 	 14.3317 	 -88.0047 	 
H 	 -64.9762 	 14.4187 	 -86.067 	 
C 	 -65.76 	 17.2247 	 -86.3317 	 
H 	 -65.562 	 18.2542 	 -86.5656 	 
H 	 -65.1821 	 17.1085 	 -85.5069 	 
C 	 -67.2408 	 16.9309 	 -86.4212 	 
H 	 -67.5433 	 16.0377 	 -85.9939 	 
H 	 -67.9153 	 17.6604 	 -86.0419 	 
C 	 -67.7582 	 16.866 	 -87.8936 	 
H 	 -68.8558 	 16.8486 	 -87.8628 	 
H 	 -67.4894 	 17.7483 	 -88.487 	 
H 	 -67.3884 	 15.9703 	 -88.3942 	 
S 	 -64.9295 	 11.7452 	 -87.944 	 
C 	 -63.7952 	 10.4599 	 -88.1322 	 
C 	 -62.474 	 10.9758 	 -88.2116 	 
C 	 -62.4416 	 12.3719 	 -88.0402 	 
C 	 -63.6919 	 12.9347 	 -87.9867 	 
H 	 -61.6119 	 10.304 	 -88.286 	 
C 	 -61.0694 	 13.1097 	 -87.9043 	 
H 	 -61.3782 	 13.8476 	 -87.0994 	 
H 	 -60.7829 	 13.6508 	 -88.7448 	 
C 	 -59.8006 	 12.3674 	 -87.4383 	 
H 	 -59.5509 	 11.6526 	 -88.2366 	 
H 	 -59.9764 	 11.7619 	 -86.5258 	 
C 	 -58.5574 	 13.2153 	 -87.1505 	 
H 	 -58.68 	 13.8117 	 -86.352 	 
H 	 -58.2203 	 13.7977 	 -88.0156 	 
H 	 -57.7001 	 12.5789 	 -86.907 	 
H 	 -64.3969 	 17.8235 	 -88.6851 	 
H 	 -64.0093 	 9.42638 	 -88.2527 	 
*
