! wB97X-D3 SP def2-SVP
%pal
nprocs 24
end

* xyz 0 1
S 	 -139.269 	 10.2209 	 3.60568 	 
C 	 -140.681 	 10.4403 	 2.77027 	 
C 	 -141.709 	 10.9883 	 3.5039 	 
C 	 -141.281 	 11.3929 	 4.78008 	 
C 	 -139.961 	 11.017 	 5.00138 	 
H 	 -141.86 	 11.8461 	 5.53312 	 
C 	 -143.015 	 11.3958 	 2.85633 	 
H 	 -143.828 	 10.6777 	 3.01086 	 
H 	 -142.804 	 11.1837 	 1.77568 	 
C 	 -143.441 	 12.8409 	 3.22782 	 
H 	 -143.7 	 12.8916 	 4.27142 	 
H 	 -142.505 	 13.427 	 3.11672 	 
C 	 -144.583 	 13.403 	 2.39262 	 
H 	 -145.465 	 12.7393 	 2.17945 	 
H 	 -144.92 	 14.3925 	 2.69796 	 
H 	 -144.054 	 13.6988 	 1.54378 	 
S 	 -137.609 	 11.4029 	 6.25766 	 
C 	 -137.529 	 11.5136 	 7.97563 	 
C 	 -138.734 	 11.2542 	 8.52053 	 
C 	 -139.758 	 11.1341 	 7.55312 	 
C 	 -139.291 	 11.0431 	 6.26266 	 
H 	 -138.827 	 11.1754 	 9.60445 	 
C 	 -141.249 	 10.993 	 7.99255 	 
H 	 -141.064 	 10.416 	 8.86002 	 
H 	 -141.639 	 10.1676 	 7.33375 	 
C 	 -142.133 	 12.1374 	 8.29819 	 
H 	 -143.223 	 11.8451 	 8.3619 	 
H 	 -142.043 	 12.8638 	 7.49973 	 
C 	 -141.821 	 12.8012 	 9.69465 	 
H 	 -142.506 	 13.5767 	 9.89866 	 
H 	 -140.799 	 13.2392 	 9.58449 	 
H 	 -141.88 	 12.1182 	 10.5313 	 
H 	 -140.856 	 10.2019 	 1.74616 	 
H 	 -136.678 	 11.8679 	 8.50804 	 
*
