! wB97X-D3 SP def2-SVP
%pal
nprocs 24
end

* xyz 0 1
S 	 -33.2062 	 17.7959 	 16.134 	 
C 	 -32.0781 	 19.0917 	 16.3479 	 
C 	 -30.8357 	 18.7429 	 15.7774 	 
C 	 -30.9102 	 17.5508 	 15.0538 	 
C 	 -32.1369 	 16.9811 	 15.1028 	 
H 	 -30.072 	 17.0381 	 14.5255 	 
C 	 -29.5431 	 19.513 	 15.8809 	 
H 	 -29.9575 	 20.4956 	 16.086 	 
H 	 -29.0645 	 19.6327 	 14.878 	 
C 	 -28.6008 	 18.9284 	 16.8972 	 
H 	 -29.0502 	 18.8715 	 17.864 	 
H 	 -28.4835 	 17.9159 	 16.6507 	 
C 	 -27.2848 	 19.6317 	 16.831 	 
H 	 -26.9071 	 19.5249 	 15.8341 	 
H 	 -27.271 	 20.7276 	 16.9952 	 
H 	 -26.4936 	 19.1022 	 17.3467 	 
S 	 -32.7523 	 14.3017 	 15.3947 	 
C 	 -32.5877 	 13.2305 	 14.0255 	 
C 	 -32.4476 	 13.9966 	 12.8859 	 
C 	 -32.2564 	 15.3744 	 13.1109 	 
C 	 -32.5186 	 15.7732 	 14.4238 	 
H 	 -32.3212 	 13.4946 	 11.9234 	 
C 	 -32.0244 	 16.3424 	 11.9261 	 
H 	 -30.9175 	 16.4691 	 11.6798 	 
H 	 -32.2813 	 17.2742 	 12.3507 	 
C 	 -32.9452 	 16.2399 	 10.73 	 
H 	 -34.0115 	 16.1545 	 11.157 	 
H 	 -32.7462 	 15.255 	 10.2644 	 
C 	 -32.7909 	 17.3331 	 9.70968 	 
H 	 -33.6461 	 17.4229 	 9.05792 	 
H 	 -31.985 	 17.0716 	 9.07677 	 
H 	 -32.6857 	 18.3417 	 10.0639 	 
H 	 -32.2178 	 19.9144 	 16.9287 	 
H 	 -32.7652 	 12.2053 	 14.0347 	 
*
