! wB97X-D3 SP def2-SVP
%pal
nprocs 24
end

* xyz 0 1
S 	 -114.834 	 53.4803 	 -95.9438 	 
C 	 -114.553 	 55.05 	 -96.6272 	 
C 	 -114.332 	 56.0383 	 -95.71 	 
C 	 -114.392 	 55.4645 	 -94.4187 	 
C 	 -114.782 	 54.1682 	 -94.3108 	 
H 	 -114.14 	 56.1648 	 -93.6078 	 
C 	 -113.931 	 57.5298 	 -95.8685 	 
H 	 -114.036 	 57.6918 	 -96.8763 	 
H 	 -112.899 	 57.766 	 -95.7067 	 
C 	 -114.887 	 58.5688 	 -95.2164 	 
H 	 -115.892 	 58.176 	 -95.1128 	 
H 	 -114.637 	 58.7407 	 -94.1964 	 
C 	 -114.878 	 59.9263 	 -95.897 	 
H 	 -115.274 	 59.8364 	 -96.9119 	 
H 	 -115.529 	 60.6113 	 -95.3756 	 
H 	 -113.934 	 60.4576 	 -95.8376 	 
S 	 -113.946 	 51.7311 	 -93.181 	 
C 	 -114.214 	 51.3813 	 -91.4701 	 
C 	 -114.886 	 52.4044 	 -90.9138 	 
C 	 -115.145 	 53.5448 	 -91.8028 	 
C 	 -114.705 	 53.3265 	 -93.1101 	 
H 	 -115.275 	 52.4415 	 -89.8711 	 
C 	 -115.743 	 54.8341 	 -91.233 	 
H 	 -116.651 	 54.5067 	 -90.7306 	 
H 	 -116.07 	 55.4401 	 -92.0938 	 
C 	 -114.809 	 55.6085 	 -90.2757 	 
H 	 -113.941 	 55.9063 	 -90.9137 	 
H 	 -114.615 	 54.9034 	 -89.4339 	 
C 	 -115.406 	 56.9086 	 -89.7696 	 
H 	 -115.099 	 57.72 	 -90.4104 	 
H 	 -115.058 	 57.1456 	 -88.8434 	 
H 	 -116.496 	 56.9215 	 -89.7057 	 
H 	 -114.541 	 55.2379 	 -97.6422 	 
H 	 -114.062 	 50.4743 	 -90.9334 	 
*
