! wB97X-D3 SP def2-SVP
%pal
nprocs 24
end

* xyz 0 1
S 	 34.0962 	 -26.9612 	 -118.332 	 
C 	 35.2525 	 -25.9709 	 -117.376 	 
C 	 36.5265 	 -26.1795 	 -117.88 	 
C 	 36.5427 	 -27.1843 	 -118.948 	 
C 	 35.2976 	 -27.6085 	 -119.345 	 
H 	 37.3734 	 -27.5216 	 -119.529 	 
C 	 37.7937 	 -25.4162 	 -117.492 	 
H 	 37.4364 	 -24.5776 	 -116.929 	 
H 	 38.2907 	 -25.0226 	 -118.372 	 
C 	 38.7861 	 -26.1677 	 -116.616 	 
H 	 38.8839 	 -27.1256 	 -117.162 	 
H 	 39.7376 	 -25.6884 	 -116.494 	 
C 	 38.2548 	 -26.1995 	 -115.134 	 
H 	 37.8824 	 -25.1913 	 -114.834 	 
H 	 37.4628 	 -26.9205 	 -115.215 	 
H 	 39.0016 	 -26.5626 	 -114.411 	 
S 	 35.333 	 -28.5872 	 -121.985 	 
C 	 34.2928 	 -29.9812 	 -122.306 	 
C 	 33.9144 	 -30.5758 	 -121.13 	 
C 	 34.2516 	 -29.8506 	 -119.967 	 
C 	 34.9895 	 -28.7007 	 -120.219 	 
H 	 33.2879 	 -31.4075 	 -121.116 	 
C 	 33.8508 	 -30.368 	 -118.629 	 
H 	 32.7733 	 -30.2134 	 -118.583 	 
H 	 34.3101 	 -29.691 	 -117.923 	 
C 	 34.1075 	 -31.8787 	 -118.464 	 
H 	 33.586 	 -32.4336 	 -119.253 	 
H 	 33.6674 	 -32.1047 	 -117.539 	 
C 	 35.6342 	 -32.168 	 -118.582 	 
H 	 35.9582 	 -33.1819 	 -118.359 	 
H 	 36.3344 	 -31.6319 	 -117.944 	 
H 	 35.9079 	 -31.9831 	 -119.581 	 
H 	 35.0081 	 -25.2355 	 -116.582 	 
H 	 33.995 	 -30.3813 	 -123.203 	 
*
