! wB97X-D3 SP def2-SVP
%pal
nprocs 24
end

* xyz 0 1
S 	 32.9297 	 -3.26942 	 -118.206 	 
C 	 31.2986 	 -2.84571 	 -118.754 	 
C 	 30.9753 	 -3.57362 	 -119.864 	 
C 	 32.0104 	 -4.38835 	 -120.317 	 
C 	 33.1715 	 -4.27958 	 -119.565 	 
H 	 31.9108 	 -5.04268 	 -121.173 	 
C 	 29.7203 	 -3.50404 	 -120.634 	 
H 	 28.9686 	 -3.65995 	 -119.881 	 
H 	 29.5118 	 -4.28404 	 -121.323 	 
C 	 29.664 	 -2.19443 	 -121.443 	 
H 	 29.9999 	 -1.37331 	 -120.856 	 
H 	 30.5122 	 -2.25648 	 -122.12 	 
C 	 28.324 	 -1.86923 	 -122.117 	 
H 	 28.0708 	 -2.46171 	 -123.043 	 
H 	 27.5742 	 -2.08086 	 -121.358 	 
H 	 28.4315 	 -0.823299 	 -122.374 	 
S 	 35.8351 	 -4.29464 	 -120.186 	 
C 	 36.8307 	 -5.70987 	 -120.126 	 
C 	 36.0627 	 -6.70269 	 -119.571 	 
C 	 34.6932 	 -6.4452 	 -119.485 	 
C 	 34.3936 	 -5.07475 	 -119.655 	 
H 	 36.5472 	 -7.68416 	 -119.263 	 
C 	 33.7256 	 -7.50356 	 -119.054 	 
H 	 34.0928 	 -8.46044 	 -119.471 	 
H 	 32.7269 	 -7.25061 	 -119.315 	 
C 	 33.743 	 -7.69371 	 -117.517 	 
H 	 33.6437 	 -6.72408 	 -117.041 	 
H 	 34.6829 	 -8.11596 	 -117.254 	 
C 	 32.6277 	 -8.67692 	 -117.126 	 
H 	 32.7723 	 -9.61634 	 -117.687 	 
H 	 31.623 	 -8.30607 	 -117.301 	 
H 	 32.6834 	 -8.88457 	 -116.106 	 
H 	 30.6388 	 -2.13235 	 -118.304 	 
H 	 37.9779 	 -5.80372 	 -120.307 	 
*
