! wB97X-D3 SP def2-SVP
%pal
nprocs 24
end

* xyz 0 1
S 	 -33.2621 	 -31.0841 	 -91.3468 	 
C 	 -33.7088 	 -31.3168 	 -93.013 	 
C 	 -32.8598 	 -32.0943 	 -93.7062 	 
C 	 -31.6445 	 -32.3137 	 -92.9458 	 
C 	 -31.6645 	 -31.7869 	 -91.6528 	 
H 	 -30.7716 	 -32.9064 	 -93.3099 	 
C 	 -32.9989 	 -32.6297 	 -95.0659 	 
H 	 -31.975 	 -32.9269 	 -95.4169 	 
H 	 -33.3765 	 -31.8257 	 -95.6935 	 
C 	 -33.9152 	 -33.9091 	 -95.1841 	 
H 	 -34.8988 	 -33.6579 	 -94.9654 	 
H 	 -33.769 	 -34.2481 	 -96.2063 	 
C 	 -33.4465 	 -34.889 	 -94.1421 	 
H 	 -32.3863 	 -35.0667 	 -94.3499 	 
H 	 -33.564 	 -34.6875 	 -93.1087 	 
H 	 -34.0627 	 -35.7793 	 -94.2901 	 
S 	 -30.4134 	 -33.5879 	 -89.896 	 
C 	 -29.5107 	 -32.9047 	 -88.6188 	 
C 	 -29.0025 	 -31.6605 	 -88.9051 	 
C 	 -29.7029 	 -31.1261 	 -90.0249 	 
C 	 -30.5968 	 -31.986 	 -90.6103 	 
H 	 -28.3279 	 -31.2785 	 -88.2233 	 
C 	 -29.4755 	 -29.6387 	 -90.3128 	 
H 	 -29.9336 	 -29.4252 	 -91.2139 	 
H 	 -28.4462 	 -29.512 	 -90.401 	 
C 	 -30.0906 	 -28.557 	 -89.2934 	 
H 	 -29.8656 	 -28.8355 	 -88.3421 	 
H 	 -31.1369 	 -28.5859 	 -89.474 	 
C 	 -29.6668 	 -27.1812 	 -89.5954 	 
H 	 -30.021 	 -26.4398 	 -88.8339 	 
H 	 -29.8936 	 -26.8618 	 -90.6173 	 
H 	 -28.5404 	 -27.2645 	 -89.4652 	 
H 	 -34.7057 	 -31.068 	 -93.3795 	 
H 	 -29.0136 	 -33.4015 	 -87.8306 	 
*
