! wB97X-D3 SP def2-SVP
%pal
nprocs 24
end

* xyz 0 1
S 	 21.2082 	 0.343057 	 -109.941 	 
C 	 20.239 	 -0.115586 	 -108.591 	 
C 	 18.8878 	 -0.192067 	 -108.891 	 
C 	 18.6802 	 0.0871255 	 -110.245 	 
C 	 19.7786 	 0.274739 	 -110.97 	 
H 	 17.7815 	 0.0468509 	 -110.79 	 
C 	 17.8296 	 -0.620822 	 -107.911 	 
H 	 17.2513 	 0.262301 	 -107.627 	 
H 	 18.3064 	 -0.88625 	 -107.007 	 
C 	 16.9068 	 -1.7315 	 -108.38 	 
H 	 16.2536 	 -1.91063 	 -107.559 	 
H 	 16.3135 	 -1.30474 	 -109.268 	 
C 	 17.5757 	 -3.04395 	 -108.816 	 
H 	 16.9438 	 -3.71684 	 -109.386 	 
H 	 18.3854 	 -2.86351 	 -109.513 	 
H 	 18.1097 	 -3.68108 	 -108.093 	 
S 	 20.5041 	 2.22087 	 -112.836 	 
C 	 19.9589 	 2.03718 	 -114.518 	 
C 	 19.5006 	 0.772131 	 -114.738 	 
C 	 19.3208 	 0.00434065 	 -113.513 	 
C 	 19.8993 	 0.628403 	 -112.393 	 
H 	 19.3418 	 0.434804 	 -115.767 	 
C 	 18.7423 	 -1.42403 	 -113.57 	 
H 	 17.7575 	 -1.27255 	 -114.124 	 
H 	 18.3994 	 -1.58328 	 -112.513 	 
C 	 19.6136 	 -2.49129 	 -114.138 	 
H 	 19.9316 	 -2.97019 	 -113.283 	 
H 	 20.4641 	 -2.01554 	 -114.735 	 
C 	 18.8851 	 -3.42136 	 -115.037 	 
H 	 18.5044 	 -2.91979 	 -115.973 	 
H 	 18.044 	 -3.82071 	 -114.562 	 
H 	 19.5714 	 -4.20591 	 -115.377 	 
H 	 20.6826 	 -0.367182 	 -107.718 	 
H 	 20.2733 	 2.66329 	 -115.349 	 
*
