! wB97X-D3 SP def2-SVP
%pal
nprocs 24
end

* xyz 0 1
S 	 -36.7331 	 -10.3097 	 19.8426 	 
C 	 -36.1497 	 -10.6099 	 21.4725 	 
C 	 -35.5844 	 -11.8526 	 21.6603 	 
C 	 -35.8561 	 -12.6202 	 20.4446 	 
C 	 -36.4203 	 -11.96 	 19.3879 	 
H 	 -35.586 	 -13.6513 	 20.2352 	 
C 	 -35.0129 	 -12.4963 	 22.9145 	 
H 	 -35.4992 	 -13.4874 	 23.034 	 
H 	 -35.1766 	 -11.8595 	 23.8191 	 
C 	 -33.5717 	 -12.8895 	 22.8941 	 
H 	 -33.4318 	 -13.2715 	 23.9057 	 
H 	 -33.3246 	 -13.6965 	 22.1863 	 
C 	 -32.6198 	 -11.7177 	 22.8238 	 
H 	 -31.6397 	 -12.2162 	 22.8507 	 
H 	 -32.7799 	 -11.2097 	 21.8644 	 
H 	 -32.6978 	 -11.0837 	 23.6575 	 
S 	 -38.4022 	 -12.3892 	 17.4741 	 
C 	 -38.052 	 -13.3348 	 16.0311 	 
C 	 -36.7408 	 -13.5089 	 15.9548 	 
C 	 -36.0356 	 -13.081 	 17.1205 	 
C 	 -36.8122 	 -12.4699 	 18.0717 	 
H 	 -36.2767 	 -13.8844 	 15.0359 	 
C 	 -34.5209 	 -13.1893 	 17.0686 	 
H 	 -34.3969 	 -14.0426 	 16.3565 	 
H 	 -34.1702 	 -13.5499 	 18.0167 	 
C 	 -33.8407 	 -11.8663 	 16.6929 	 
H 	 -33.9886 	 -11.1243 	 17.4333 	 
H 	 -34.171 	 -11.4253 	 15.7128 	 
C 	 -32.3126 	 -12.1116 	 16.6467 	 
H 	 -31.8999 	 -12.5851 	 17.5186 	 
H 	 -31.6799 	 -11.2391 	 16.4503 	 
H 	 -31.9766 	 -12.7677 	 15.8417 	 
H 	 -36.3105 	 -9.85006 	 22.2468 	 
H 	 -38.687 	 -13.4495 	 15.1536 	 
*
