! wB97X-D3 SP def2-SVP
%pal
nprocs 24
end

* xyz 0 1
S 	 -103.92 	 -2.16396 	 -111.787 	 
C 	 -105.582 	 -2.28596 	 -112.482 	 
C 	 -106.318 	 -1.19561 	 -112.196 	 
C 	 -105.572 	 -0.184185 	 -111.525 	 
C 	 -104.241 	 -0.467643 	 -111.337 	 
H 	 -105.923 	 0.800323 	 -111.245 	 
C 	 -107.776 	 -1.08589 	 -112.407 	 
H 	 -107.884 	 -1.74907 	 -113.278 	 
H 	 -108.188 	 -0.120216 	 -112.795 	 
C 	 -108.598 	 -1.53262 	 -111.206 	 
H 	 -107.982 	 -2.23707 	 -110.642 	 
H 	 -108.911 	 -0.648744 	 -110.504 	 
C 	 -109.97 	 -2.22829 	 -111.692 	 
H 	 -109.918 	 -2.98945 	 -112.492 	 
H 	 -110.524 	 -2.66544 	 -110.833 	 
H 	 -110.628 	 -1.40476 	 -112.128 	 
S 	 -102.012 	 -0.371588 	 -109.611 	 
C 	 -101.075 	 1.10509 	 -109.438 	 
C 	 -101.686 	 2.11995 	 -110.171 	 
C 	 -102.865 	 1.7437 	 -110.891 	 
C 	 -103.153 	 0.34933 	 -110.772 	 
H 	 -101.326 	 3.12997 	 -110.181 	 
C 	 -103.636 	 2.74548 	 -111.711 	 
H 	 -103.832 	 3.57197 	 -111.066 	 
H 	 -104.613 	 2.30989 	 -111.94 	 
C 	 -102.98 	 3.24713 	 -113.021 	 
H 	 -102.001 	 3.73473 	 -112.864 	 
H 	 -103.631 	 4.03799 	 -113.333 	 
C 	 -102.761 	 2.15636 	 -114.064 	 
H 	 -102.021 	 1.53818 	 -113.665 	 
H 	 -102.39 	 2.48958 	 -115.047 	 
H 	 -103.721 	 1.63847 	 -114.168 	 
H 	 -105.91 	 -3.11762 	 -112.95 	 
H 	 -100.216 	 1.26087 	 -108.79 	 
*
