! wB97X-D3 SP def2-SVP
%pal
nprocs 24
end

* xyz 0 1
S 	 -84.34 	 -6.04517 	 -62.9989 	 
C 	 -85.7281 	 -6.21115 	 -64.0641 	 
C 	 -86.9101 	 -6.1871 	 -63.352 	 
C 	 -86.6777 	 -5.9098 	 -61.9851 	 
C 	 -85.3086 	 -5.82071 	 -61.6389 	 
H 	 -87.4334 	 -5.85604 	 -61.192 	 
C 	 -88.2782 	 -6.50105 	 -63.8879 	 
H 	 -88.4636 	 -7.54386 	 -63.8855 	 
H 	 -88.2168 	 -6.22691 	 -64.9014 	 
C 	 -89.4495 	 -5.76548 	 -63.0532 	 
H 	 -89.5677 	 -6.20406 	 -62.0211 	 
H 	 -89.1226 	 -4.74907 	 -62.8334 	 
C 	 -90.8448 	 -5.8425 	 -63.7002 	 
H 	 -91.6333 	 -5.5159 	 -63.005 	 
H 	 -90.7962 	 -5.33274 	 -64.682 	 
H 	 -91.105 	 -6.86762 	 -63.9688 	 
S 	 -84.1137 	 -7.0766 	 -59.4182 	 
C 	 -84.213 	 -6.17012 	 -57.9389 	 
C 	 -84.4627 	 -4.83298 	 -58.1982 	 
C 	 -84.6522 	 -4.53658 	 -59.5452 	 
C 	 -84.7426 	 -5.67404 	 -60.3058 	 
H 	 -84.5303 	 -4.16445 	 -57.4145 	 
C 	 -84.9337 	 -3.062 	 -59.9441 	 
H 	 -85.345 	 -2.39431 	 -59.1712 	 
H 	 -85.8818 	 -3.01355 	 -60.6117 	 
C 	 -83.7766 	 -2.40819 	 -60.6947 	 
H 	 -82.9278 	 -3.06524 	 -60.9528 	 
H 	 -83.295 	 -1.67221 	 -60.0756 	 
C 	 -84.2895 	 -1.66638 	 -61.8898 	 
H 	 -83.4864 	 -1.16502 	 -62.4125 	 
H 	 -85.0029 	 -0.936082 	 -61.556 	 
H 	 -84.8292 	 -2.32865 	 -62.5825 	 
H 	 -85.6845 	 -6.37582 	 -65.2205 	 
H 	 -84.0934 	 -6.66163 	 -56.9709 	 
*
