! wB97X-D3 SP def2-SVP
%pal
nprocs 24
end

* xyz 0 1
S 	 -99.9631 	 2.69192 	 -108.473 	 
C 	 -100.868 	 3.27556 	 -107.119 	 
C 	 -100.249 	 4.26781 	 -106.439 	 
C 	 -98.9401 	 4.4175 	 -106.832 	 
C 	 -98.589 	 3.50183 	 -107.794 	 
H 	 -98.1856 	 5.10324 	 -106.413 	 
C 	 -100.857 	 5.02089 	 -105.247 	 
H 	 -101.751 	 5.3574 	 -105.685 	 
H 	 -100.163 	 5.87723 	 -105.1 	 
C 	 -101.031 	 4.14595 	 -103.973 	 
H 	 -101.692 	 3.28928 	 -104.231 	 
H 	 -100.076 	 3.83694 	 -103.719 	 
C 	 -101.626 	 4.88522 	 -102.827 	 
H 	 -102.656 	 5.27457 	 -103.109 	 
H 	 -101.732 	 4.22317 	 -102.018 	 
H 	 -101.135 	 5.74184 	 -102.567 	 
S 	 -97.3697 	 3.71426 	 -110.225 	 
C 	 -95.6862 	 3.94931 	 -110.368 	 
C 	 -95.0816 	 3.93475 	 -109.136 	 
C 	 -95.9693 	 3.6439 	 -108.013 	 
C 	 -97.2814 	 3.44047 	 -108.472 	 
H 	 -94.0512 	 4.18462 	 -109.075 	 
C 	 -95.478 	 3.47456 	 -106.633 	 
H 	 -94.5788 	 2.8194 	 -106.649 	 
H 	 -96.3145 	 3.13937 	 -105.981 	 
C 	 -95.1619 	 4.82464 	 -106.111 	 
H 	 -96.0479 	 5.46389 	 -106.411 	 
H 	 -94.2096 	 5.24459 	 -106.501 	 
C 	 -94.9419 	 4.93119 	 -104.559 	 
H 	 -94.0837 	 4.33129 	 -104.212 	 
H 	 -95.7059 	 4.53186 	 -103.911 	 
H 	 -94.8369 	 5.99933 	 -104.196 	 
H 	 -101.907 	 2.9483 	 -106.948 	 
H 	 -95.0659 	 4.26397 	 -111.229 	 
*
