! wB97X-D3 SP def2-SVP
%pal
nprocs 24
end

* xyz 0 1
S 	 32.3248 	 -33.0812 	 -129.013 	 
C 	 33.7246 	 -32.6738 	 -128.011 	 
C 	 34.8936 	 -33.3351 	 -128.391 	 
C 	 34.6326 	 -34.1414 	 -129.557 	 
C 	 33.3201 	 -34.2018 	 -129.868 	 
H 	 35.2469 	 -34.7067 	 -130.181 	 
C 	 36.2662 	 -33.2099 	 -127.71 	 
H 	 36.6693 	 -34.1526 	 -127.398 	 
H 	 36.1285 	 -32.7155 	 -126.749 	 
C 	 37.3732 	 -32.4388 	 -128.417 	 
H 	 38.3336 	 -32.6652 	 -128.047 	 
H 	 37.3319 	 -32.7957 	 -129.44 	 
C 	 37.2636 	 -30.8956 	 -128.208 	 
H 	 37.7663 	 -30.3253 	 -128.911 	 
H 	 36.2286 	 -30.6312 	 -128.406 	 
H 	 37.4441 	 -30.5161 	 -127.246 	 
S 	 32.8065 	 -34.1075 	 -132.673 	 
C 	 32.0692 	 -35.5278 	 -133.422 	 
C 	 32.1455 	 -36.646 	 -132.566 	 
C 	 32.601 	 -36.3001 	 -131.272 	 
C 	 32.8196 	 -34.9482 	 -131.076 	 
H 	 31.6588 	 -37.5815 	 -132.987 	 
C 	 32.5267 	 -37.3232 	 -130.086 	 
H 	 31.5498 	 -37.9049 	 -130.141 	 
H 	 32.4923 	 -36.8036 	 -129.126 	 
C 	 33.613 	 -38.4168 	 -130.024 	 
H 	 34.5597 	 -38.0194 	 -129.711 	 
H 	 33.7021 	 -38.7574 	 -131.08 	 
C 	 33.3931 	 -39.6713 	 -129.239 	 
H 	 33.2686 	 -39.3961 	 -128.087 	 
H 	 34.1365 	 -40.4482 	 -129.337 	 
H 	 32.4628 	 -40.1129 	 -129.536 	 
H 	 33.5737 	 -32.1026 	 -127.03 	 
H 	 31.6098 	 -35.6432 	 -134.433 	 
*
