! wB97X-D3 SP def2-SVP
%pal
nprocs 24
end

* xyz 0 1
S 	 -44.1595 	 21.6786 	 22.3911 	 
C 	 -44.2699 	 20.7811 	 20.8367 	 
C 	 -45.0493 	 19.6411 	 20.9364 	 
C 	 -45.5251 	 19.4666 	 22.2973 	 
C 	 -45.168 	 20.4712 	 23.1884 	 
H 	 -46.097 	 18.5788 	 22.6835 	 
C 	 -45.3466 	 18.6129 	 19.8729 	 
H 	 -44.8881 	 18.7612 	 18.8653 	 
H 	 -46.4694 	 18.6464 	 19.7075 	 
C 	 -44.9845 	 17.0918 	 20.1519 	 
H 	 -45.5693 	 16.7967 	 21.0118 	 
H 	 -45.3602 	 16.5258 	 19.3155 	 
C 	 -43.5076 	 17.007 	 20.2259 	 
H 	 -43.1923 	 17.9199 	 20.8153 	 
H 	 -43.2527 	 16.0142 	 20.7485 	 
H 	 -43.0433 	 17.1437 	 19.2771 	 
S 	 -47.2864 	 20.2198 	 25.0076 	 
C 	 -46.895 	 20.567 	 26.6592 	 
C 	 -45.5291 	 20.8038 	 26.8926 	 
C 	 -44.8233 	 20.9688 	 25.667 	 
C 	 -45.6044 	 20.5624 	 24.5667 	 
H 	 -45.2525 	 20.9703 	 27.9922 	 
C 	 -43.3484 	 21.3282 	 25.7115 	 
H 	 -43.198 	 22.428 	 25.9736 	 
H 	 -42.9317 	 21.2674 	 24.651 	 
C 	 -42.4617 	 20.4373 	 26.6077 	 
H 	 -42.7923 	 20.633 	 27.5912 	 
H 	 -41.4555 	 20.7959 	 26.636 	 
C 	 -42.4845 	 18.9793 	 26.4364 	 
H 	 -41.7484 	 18.5017 	 27.0458 	 
H 	 -42.3289 	 18.6662 	 25.4045 	 
H 	 -43.4545 	 18.6117 	 26.6919 	 
H 	 -43.9145 	 21.1671 	 19.8828 	 
H 	 -47.7028 	 20.4167 	 27.4118 	 
*
