! wB97X-D3 SP def2-SVP
%pal
nprocs 24
end

* xyz 0 1
S 	 -120.509 	 65.4315 	 -35.9825 	 
C 	 -120.047 	 66.1677 	 -34.4678 	 
C 	 -120.895 	 67.2198 	 -34.2244 	 
C 	 -121.957 	 67.3356 	 -35.1495 	 
C 	 -122.059 	 66.2276 	 -35.9714 	 
H 	 -122.578 	 68.2108 	 -35.2544 	 
C 	 -120.64 	 68.2557 	 -33.0826 	 
H 	 -120.198 	 69.1804 	 -33.4945 	 
H 	 -119.9 	 67.7891 	 -32.3923 	 
C 	 -121.921 	 68.6316 	 -32.3624 	 
H 	 -121.68 	 69.4015 	 -31.5987 	 
H 	 -122.515 	 69.1536 	 -33.1864 	 
C 	 -122.717 	 67.4179 	 -31.8027 	 
H 	 -122.943 	 66.6764 	 -32.5979 	 
H 	 -122.19 	 66.9423 	 -30.923 	 
H 	 -123.673 	 67.7341 	 -31.3832 	 
S 	 -122.612 	 65.6871 	 -38.6463 	 
C 	 -124.296 	 65.6194 	 -39.208 	 
C 	 -125.126 	 66.0568 	 -38.1925 	 
C 	 -124.51 	 66.24 	 -36.9026 	 
C 	 -123.101 	 66.0518 	 -36.9925 	 
H 	 -126.246 	 66.1497 	 -38.4357 	 
C 	 -125.314 	 66.5936 	 -35.6342 	 
H 	 -125.981 	 67.4096 	 -35.8494 	 
H 	 -124.582 	 67.0472 	 -34.8896 	 
C 	 -125.966 	 65.4109 	 -34.931 	 
H 	 -125.112 	 64.7365 	 -34.7761 	 
H 	 -126.676 	 64.9588 	 -35.5681 	 
C 	 -126.752 	 65.6763 	 -33.6408 	 
H 	 -126.083 	 65.8438 	 -32.7951 	 
H 	 -127.263 	 64.775 	 -33.3329 	 
H 	 -127.531 	 66.4431 	 -33.6535 	 
H 	 -119.223 	 65.8546 	 -33.8487 	 
H 	 -124.499 	 65.5524 	 -40.2827 	 
*
