! wB97X-D3 SP def2-SVP
%pal
nprocs 24
end

* xyz 0 1
S 	 -115.772 	 18.7363 	 -113.451 	 
C 	 -117.301 	 19.4826 	 -113.049 	 
C 	 -118.305 	 18.8812 	 -113.757 	 
C 	 -117.813 	 18.0226 	 -114.833 	 
C 	 -116.436 	 17.8072 	 -114.776 	 
H 	 -118.326 	 17.5483 	 -115.538 	 
C 	 -119.795 	 18.9499 	 -113.448 	 
H 	 -119.903 	 19.3276 	 -112.431 	 
H 	 -120.108 	 17.9302 	 -113.359 	 
C 	 -120.646 	 19.7282 	 -114.386 	 
H 	 -121.589 	 20.107 	 -113.921 	 
H 	 -120.053 	 20.6065 	 -114.583 	 
C 	 -121.049 	 19.1101 	 -115.678 	 
H 	 -120.225 	 18.8982 	 -116.355 	 
H 	 -121.649 	 18.1663 	 -115.434 	 
H 	 -121.642 	 19.9218 	 -116.151 	 
S 	 -115.22 	 15.3386 	 -115.266 	 
C 	 -114.167 	 15.203 	 -116.626 	 
C 	 -114.321 	 16.2722 	 -117.465 	 
C 	 -115.045 	 17.3422 	 -116.914 	 
C 	 -115.73 	 16.9749 	 -115.742 	 
H 	 -113.789 	 16.2355 	 -118.404 	 
C 	 -115.338 	 18.5061 	 -117.773 	 
H 	 -114.433 	 18.7334 	 -118.366 	 
H 	 -115.711 	 19.396 	 -117.306 	 
C 	 -116.417 	 18.11 	 -118.805 	 
H 	 -117.33 	 17.8683 	 -118.327 	 
H 	 -116.093 	 17.1469 	 -119.242 	 
C 	 -116.717 	 19.1817 	 -119.891 	 
H 	 -115.886 	 19.087 	 -120.586 	 
H 	 -116.887 	 20.1086 	 -119.426 	 
H 	 -117.7 	 19.076 	 -120.436 	 
H 	 -117.595 	 20.0817 	 -112.244 	 
H 	 -113.505 	 14.4017 	 -116.85 	 
*
