! wB97X-D3 SP def2-SVP
%pal
nprocs 24
end

* xyz 0 1
S 	 -41.7675 	 -5.0438 	 19.8027 	 
C 	 -42.652 	 -5.47082 	 18.3885 	 
C 	 -43.9047 	 -5.88178 	 18.9107 	 
C 	 -44.1364 	 -5.57737 	 20.2709 	 
C 	 -43.0803 	 -4.97354 	 20.9571 	 
H 	 -45.1226 	 -5.64617 	 20.6479 	 
C 	 -45.0505 	 -6.43926 	 18.0452 	 
H 	 -45.1427 	 -7.51333 	 18.3386 	 
H 	 -44.6487 	 -6.45785 	 17.0342 	 
C 	 -46.4458 	 -5.65893 	 18.0811 	 
H 	 -46.8323 	 -5.35011 	 19.0198 	 
H 	 -46.1994 	 -4.7772 	 17.6776 	 
C 	 -47.5655 	 -6.4261 	 17.3108 	 
H 	 -47.1599 	 -6.90744 	 16.4392 	 
H 	 -47.9311 	 -7.23511 	 17.9267 	 
H 	 -48.4375 	 -5.8571 	 17.0672 	 
S 	 -41.3666 	 -4.89084 	 23.1832 	 
C 	 -41.981 	 -4.6286 	 24.7867 	 
C 	 -43.2888 	 -4.2323 	 24.7001 	 
C 	 -43.8808 	 -4.27743 	 23.3927 	 
C 	 -42.9475 	 -4.6046 	 22.369 	 
H 	 -43.7153 	 -3.86989 	 25.6025 	 
C 	 -45.3312 	 -4.01346 	 23.1646 	 
H 	 -45.8541 	 -4.32466 	 24.0217 	 
H 	 -45.5375 	 -4.81498 	 22.5009 	 
C 	 -45.7386 	 -2.70337 	 22.4396 	 
H 	 -46.8221 	 -2.73732 	 22.2521 	 
H 	 -45.2143 	 -2.54311 	 21.5244 	 
C 	 -45.428 	 -1.38881 	 23.2525 	 
H 	 -44.481 	 -1.52037 	 23.7177 	 
H 	 -46.2358 	 -1.23275 	 24.0433 	 
H 	 -45.4218 	 -0.457921 	 22.6991 	 
H 	 -42.3477 	 -5.45631 	 17.3382 	 
H 	 -41.3999 	 -4.65395 	 25.6717 	 
*
