! wB97X-D3 SP def2-SVP
%pal
nprocs 24
end

* xyz 0 1
S 	 -119.203 	 64.794 	 -35.8773 	 
C 	 -118.161 	 66.1072 	 -35.3102 	 
C 	 -118.923 	 67.1184 	 -34.7651 	 
C 	 -120.354 	 66.9288 	 -34.9251 	 
C 	 -120.64 	 65.745 	 -35.5017 	 
H 	 -121.231 	 67.6198 	 -34.827 	 
C 	 -118.357 	 68.4624 	 -34.2559 	 
H 	 -118.895 	 69.3463 	 -34.5942 	 
H 	 -117.392 	 68.6024 	 -34.5805 	 
C 	 -118.483 	 68.4778 	 -32.7531 	 
H 	 -118.086 	 69.4347 	 -32.4723 	 
H 	 -119.542 	 68.4037 	 -32.4055 	 
C 	 -117.645 	 67.5007 	 -31.9875 	 
H 	 -117.979 	 66.451 	 -32.2288 	 
H 	 -116.589 	 67.7163 	 -32.318 	 
H 	 -117.775 	 67.7971 	 -30.9577 	 
S 	 -121.954 	 65.1901 	 -37.8782 	 
C 	 -123.652 	 64.7221 	 -37.8614 	 
C 	 -124.143 	 64.7483 	 -36.5832 	 
C 	 -123.158 	 65.0878 	 -35.6076 	 
C 	 -121.864 	 65.2466 	 -36.1033 	 
H 	 -125.21 	 64.6893 	 -36.3469 	 
C 	 -123.488 	 65.123 	 -34.1297 	 
H 	 -122.534 	 65.1889 	 -33.6217 	 
H 	 -123.753 	 64.1185 	 -33.8579 	 
C 	 -124.527 	 66.2093 	 -33.6648 	 
H 	 -125.531 	 65.8234 	 -33.9213 	 
H 	 -124.458 	 67.1022 	 -34.2436 	 
C 	 -124.442 	 66.6306 	 -32.1603 	 
H 	 -124.99 	 67.565 	 -32.0883 	 
H 	 -123.475 	 66.8381 	 -31.7179 	 
H 	 -124.811 	 65.8121 	 -31.5002 	 
H 	 -117.055 	 66.0602 	 -35.4048 	 
H 	 -124.358 	 64.609 	 -38.7284 	 
*
