! wB97X-D3 SP def2-SVP
%pal
nprocs 24
end

* xyz 0 1
S 	 -124.997 	 63.8088 	 -51.9251 	 
C 	 -124.049 	 63.5619 	 -53.3738 	 
C 	 -122.742 	 63.7837 	 -53.142 	 
C 	 -122.394 	 64.0606 	 -51.7742 	 
C 	 -123.495 	 63.9948 	 -50.9829 	 
H 	 -121.428 	 64.4487 	 -51.298 	 
C 	 -121.794 	 63.7622 	 -54.3136 	 
H 	 -122.368 	 63.505 	 -55.2605 	 
H 	 -121.204 	 62.8253 	 -54.2891 	 
C 	 -120.953 	 65.0254 	 -54.5662 	 
H 	 -120.432 	 64.9866 	 -55.5483 	 
H 	 -121.667 	 65.8639 	 -54.695 	 
C 	 -119.834 	 65.2484 	 -53.526 	 
H 	 -119.305 	 66.1731 	 -53.7239 	 
H 	 -120.266 	 65.4424 	 -52.5774 	 
H 	 -119.139 	 64.3824 	 -53.4531 	 
S 	 -125.055 	 65.3522 	 -48.8887 	 
C 	 -124.365 	 65.4488 	 -47.3203 	 
C 	 -123.059 	 64.9759 	 -47.3234 	 
C 	 -122.715 	 64.3474 	 -48.5188 	 
C 	 -123.586 	 64.4882 	 -49.589 	 
H 	 -122.514 	 65.0216 	 -46.3603 	 
C 	 -121.398 	 63.5567 	 -48.5265 	 
H 	 -120.932 	 63.8662 	 -47.6559 	 
H 	 -120.732 	 64.0204 	 -49.3044 	 
C 	 -121.516 	 62.0573 	 -48.616 	 
H 	 -120.426 	 61.8484 	 -48.533 	 
H 	 -121.922 	 61.884 	 -49.6153 	 
C 	 -122.338 	 61.3806 	 -47.5148 	 
H 	 -123.365 	 61.6112 	 -47.6505 	 
H 	 -122.05 	 61.7353 	 -46.463 	 
H 	 -122.279 	 60.2784 	 -47.4639 	 
H 	 -124.443 	 63.5363 	 -54.3305 	 
H 	 -124.834 	 65.828 	 -46.3928 	 
*
