! wB97X-D3 SP def2-SVP
%pal
nprocs 24
end

* xyz 0 1
S 	 -76.1218 	 2.21194 	 -109.211 	 
C 	 -77.3113 	 3.4661 	 -108.94 	 
C 	 -76.7344 	 4.67511 	 -108.732 	 
C 	 -75.3117 	 4.58117 	 -108.627 	 
C 	 -74.8237 	 3.28685 	 -108.856 	 
H 	 -74.5892 	 5.42312 	 -108.553 	 
C 	 -77.4491 	 5.96769 	 -108.818 	 
H 	 -78.123 	 6.03304 	 -109.669 	 
H 	 -76.586 	 6.7568 	 -108.845 	 
C 	 -78.2988 	 6.3984 	 -107.596 	 
H 	 -79.0396 	 5.62017 	 -107.304 	 
H 	 -77.6018 	 6.51141 	 -106.831 	 
C 	 -78.9017 	 7.77271 	 -107.804 	 
H 	 -78.3372 	 8.38625 	 -108.5 	 
H 	 -79.8927 	 7.68459 	 -108.262 	 
H 	 -79.1193 	 8.17622 	 -106.776 	 
S 	 -72.4631 	 4.27573 	 -109.562 	 
C 	 -70.9507 	 3.30104 	 -109.436 	 
C 	 -71.1982 	 2.14031 	 -108.746 	 
C 	 -72.5946 	 1.94641 	 -108.438 	 
C 	 -73.3922 	 3.00043 	 -108.861 	 
H 	 -70.3799 	 1.39004 	 -108.507 	 
C 	 -73.1288 	 0.563433 	 -107.966 	 
H 	 -74.0813 	 0.629671 	 -107.423 	 
H 	 -72.4501 	 0.319013 	 -107.186 	 
C 	 -73.1176 	 -0.596942 	 -108.958 	 
H 	 -72.1513 	 -0.575357 	 -109.483 	 
H 	 -73.8586 	 -0.458961 	 -109.774 	 
C 	 -73.4809 	 -1.86594 	 -108.297 	 
H 	 -72.5876 	 -2.25783 	 -107.665 	 
H 	 -73.674 	 -2.76113 	 -108.877 	 
H 	 -74.3763 	 -1.87011 	 -107.659 	 
H 	 -78.3701 	 3.45764 	 -109.037 	 
H 	 -69.9553 	 3.71593 	 -109.668 	 
*
