! wB97X-D3 SP def2-SVP
%pal
nprocs 24
end

* xyz 0 1
S 	 -53.1434 	 17.9121 	 23.6897 	 
C 	 -54.1732 	 18.2569 	 25.1229 	 
C 	 -55.514 	 18.2507 	 24.8289 	 
C 	 -55.691 	 18.0623 	 23.4641 	 
C 	 -54.5447 	 17.6452 	 22.7282 	 
H 	 -56.6315 	 18.301 	 23.0153 	 
C 	 -56.5286 	 18.6316 	 25.782 	 
H 	 -57.4011 	 18.8578 	 25.1833 	 
H 	 -56.1692 	 19.477 	 26.2927 	 
C 	 -56.8972 	 17.6321 	 26.8618 	 
H 	 -57.3419 	 16.747 	 26.413 	 
H 	 -56.05 	 17.2503 	 27.4409 	 
C 	 -57.8097 	 18.1034 	 27.9686 	 
H 	 -57.5009 	 17.6015 	 28.8703 	 
H 	 -57.6827 	 19.2075 	 28.0761 	 
H 	 -58.8871 	 17.946 	 27.8034 	 
S 	 -53.757 	 18.3552 	 20.1079 	 
C 	 -54.0726 	 17.1636 	 18.8454 	 
C 	 -54.8752 	 16.146 	 19.3481 	 
C 	 -55.0119 	 16.1608 	 20.7498 	 
C 	 -54.474 	 17.296 	 21.305 	 
H 	 -55.2087 	 15.3959 	 18.7269 	 
C 	 -55.6635 	 15.0243 	 21.5467 	 
H 	 -56.5827 	 14.8261 	 20.9044 	 
H 	 -55.9951 	 15.276 	 22.5713 	 
C 	 -54.7804 	 13.8184 	 21.7027 	 
H 	 -54.3324 	 13.5058 	 20.7347 	 
H 	 -55.5176 	 12.9765 	 21.9119 	 
C 	 -53.6674 	 14.1066 	 22.7441 	 
H 	 -53.1897 	 13.1434 	 23.0609 	 
H 	 -53.937 	 14.6148 	 23.6677 	 
H 	 -52.8448 	 14.7133 	 22.2939 	 
H 	 -53.921 	 18.2841 	 26.1314 	 
H 	 -53.8529 	 17.3562 	 17.7801 	 
*
