! wB97X-D3 SP def2-SVP
%pal
nprocs 24
end

* xyz 0 1
S 	 -97.0341 	 -2.83478 	 -117.125 	 
C 	 -97.5847 	 -1.89206 	 -118.505 	 
C 	 -98.9347 	 -2.21364 	 -118.777 	 
C 	 -99.3878 	 -3.21484 	 -117.886 	 
C 	 -98.4336 	 -3.80385 	 -117.048 	 
H 	 -100.347 	 -3.6412 	 -117.955 	 
C 	 -99.729 	 -1.57986 	 -119.857 	 
H 	 -100.154 	 -2.34862 	 -120.598 	 
H 	 -99.0828 	 -1.02544 	 -120.613 	 
C 	 -100.867 	 -0.515363 	 -119.551 	 
H 	 -101.512 	 -0.875074 	 -118.846 	 
H 	 -100.396 	 0.303438 	 -118.934 	 
C 	 -101.594 	 0.248961 	 -120.733 	 
H 	 -100.953 	 0.885251 	 -121.314 	 
H 	 -102.16 	 -0.299585 	 -121.481 	 
H 	 -102.294 	 0.934202 	 -120.232 	 
S 	 -98.2587 	 -4.52171 	 -114.407 	 
C 	 -98.7248 	 -6.16701 	 -113.9 	 
C 	 -99.225 	 -6.74126 	 -114.986 	 
C 	 -99.2801 	 -6.03027 	 -116.199 	 
C 	 -98.6177 	 -4.853 	 -116.086 	 
H 	 -99.6133 	 -7.73766 	 -114.898 	 
C 	 -99.996 	 -6.59447 	 -117.394 	 
H 	 -100.757 	 -5.89009 	 -117.736 	 
H 	 -100.634 	 -7.48807 	 -117.068 	 
C 	 -99.0683 	 -6.94735 	 -118.569 	 
H 	 -98.5783 	 -5.98171 	 -118.896 	 
H 	 -99.6964 	 -7.33757 	 -119.362 	 
C 	 -98.1099 	 -8.14924 	 -118.111 	 
H 	 -97.3997 	 -8.32659 	 -118.85 	 
H 	 -98.6087 	 -9.13735 	 -118.07 	 
H 	 -97.513 	 -7.97707 	 -117.24 	 
H 	 -96.9078 	 -1.39361 	 -119.182 	 
H 	 -99.0327 	 -6.47583 	 -112.936 	 
*
