! wB97X-D3 SP def2-SVP
%pal
nprocs 24
end

* xyz 0 1
S 	 -120.876 	 53.7685 	 -30.0344 	 
C 	 -121.994 	 52.4441 	 -29.9285 	 
C 	 -122.075 	 51.6498 	 -31.0093 	 
C 	 -121.234 	 52.1469 	 -32.054 	 
C 	 -120.548 	 53.3031 	 -31.7232 	 
H 	 -121.167 	 51.679 	 -33.0311 	 
C 	 -122.775 	 50.2859 	 -31.0643 	 
H 	 -123.054 	 49.9878 	 -30.0119 	 
H 	 -121.961 	 49.5833 	 -31.4093 	 
C 	 -124.101 	 50.2077 	 -31.8226 	 
H 	 -123.984 	 50.3822 	 -32.8884 	 
H 	 -124.529 	 49.1966 	 -31.8658 	 
C 	 -125.197 	 51.1458 	 -31.3204 	 
H 	 -126.154 	 50.9786 	 -31.8526 	 
H 	 -125.425 	 51.1476 	 -30.2663 	 
H 	 -124.949 	 52.201 	 -31.6296 	 
S 	 -117.899 	 53.2076 	 -32.6462 	 
C 	 -117.312 	 54.3192 	 -33.846 	 
C 	 -118.333 	 55.1942 	 -34.2212 	 
C 	 -119.548 	 54.9735 	 -33.4754 	 
C 	 -119.476 	 53.9606 	 -32.4996 	 
H 	 -118.061 	 56.0204 	 -34.871 	 
C 	 -120.73 	 55.8168 	 -33.8479 	 
H 	 -121.589 	 55.1235 	 -33.7312 	 
H 	 -120.62 	 56.0399 	 -34.821 	 
C 	 -121.003 	 57.1178 	 -33.0965 	 
H 	 -120.985 	 57.1148 	 -32.0693 	 
H 	 -122.064 	 57.2605 	 -33.3353 	 
C 	 -120.26 	 58.3025 	 -33.7252 	 
H 	 -119.184 	 58.1968 	 -33.6778 	 
H 	 -120.681 	 59.2466 	 -33.3203 	 
H 	 -120.65 	 58.31 	 -34.718 	 
H 	 -122.475 	 52.2619 	 -28.9886 	 
H 	 -116.231 	 54.4001 	 -34.2111 	 
*
