! wB97X-D3 SP def2-SVP
%pal
nprocs 24
end

* xyz 0 1
S 	 -145.167 	 17.6087 	 -4.7542 	 
C 	 -143.726 	 16.7049 	 -4.88526 	 
C 	 -143.844 	 15.4169 	 -4.31816 	 
C 	 -145.173 	 15.2538 	 -3.83342 	 
C 	 -146.082 	 16.2716 	 -4.05007 	 
H 	 -145.643 	 14.3066 	 -3.51766 	 
C 	 -142.7 	 14.4568 	 -4.46147 	 
H 	 -142.048 	 14.4373 	 -3.62169 	 
H 	 -142.081 	 14.7093 	 -5.34596 	 
C 	 -143.029 	 12.9383 	 -4.58573 	 
H 	 -142.144 	 12.262 	 -4.65709 	 
H 	 -143.688 	 12.635 	 -3.75427 	 
C 	 -143.827 	 12.6681 	 -5.93346 	 
H 	 -143.149 	 12.4952 	 -6.72315 	 
H 	 -144.462 	 11.7385 	 -5.89899 	 
H 	 -144.529 	 13.5381 	 -6.07233 	 
S 	 -147.945 	 17.6659 	 -2.57618 	 
C 	 -149.565 	 17.0948 	 -2.48055 	 
C 	 -149.664 	 15.8007 	 -2.9154 	 
C 	 -148.395 	 15.353 	 -3.46125 	 
C 	 -147.415 	 16.3186 	 -3.5003 	 
H 	 -150.526 	 15.2029 	 -2.70291 	 
C 	 -148.399 	 14.0087 	 -4.19874 	 
H 	 -147.45 	 13.727 	 -4.53825 	 
H 	 -148.965 	 14.1546 	 -5.12353 	 
C 	 -148.803 	 12.8252 	 -3.27793 	 
H 	 -149.833 	 12.9921 	 -2.83931 	 
H 	 -148.155 	 12.6582 	 -2.38348 	 
C 	 -148.723 	 11.5308 	 -4.08007 	 
H 	 -149.653 	 11.4555 	 -4.64572 	 
H 	 -148.931 	 10.6576 	 -3.4579 	 
H 	 -147.905 	 11.421 	 -4.70343 	 
H 	 -142.854 	 17.0115 	 -5.48175 	 
H 	 -150.264 	 17.5542 	 -1.76216 	 
*
