! wB97X-D3 SP def2-SVP
%pal
nprocs 24
end

* xyz 0 1
S 	 -53.2025 	 -47.9426 	 -80.1341 	 
C 	 -52.918 	 -46.4801 	 -79.2588 	 
C 	 -51.6816 	 -46.5499 	 -78.6086 	 
C 	 -50.9027 	 -47.7338 	 -78.9865 	 
C 	 -51.6204 	 -48.6536 	 -79.713 	 
H 	 -49.8992 	 -47.9449 	 -78.6324 	 
C 	 -51.1335 	 -45.4453 	 -77.7107 	 
H 	 -51.6989 	 -45.4182 	 -76.803 	 
H 	 -51.3334 	 -44.4662 	 -78.1676 	 
C 	 -49.6313 	 -45.4097 	 -77.4019 	 
H 	 -49.3248 	 -44.8094 	 -76.5168 	 
H 	 -49.3831 	 -46.418 	 -77.0473 	 
C 	 -48.6971 	 -45.1191 	 -78.5918 	 
H 	 -48.7736 	 -45.7847 	 -79.3821 	 
H 	 -48.6719 	 -44.0589 	 -78.825 	 
H 	 -47.7135 	 -45.3036 	 -78.3523 	 
S 	 -52.3871 	 -51.1809 	 -79.4644 	 
C 	 -51.5622 	 -52.4768 	 -80.3668 	 
C 	 -50.4609 	 -51.9178 	 -81.0404 	 
C 	 -50.33 	 -50.528 	 -80.9417 	 
C 	 -51.2588 	 -49.9948 	 -80.1141 	 
H 	 -49.8272 	 -52.5631 	 -81.6709 	 
C 	 -49.225 	 -49.7168 	 -81.6611 	 
H 	 -48.3203 	 -50.2047 	 -81.4344 	 
H 	 -49.0684 	 -48.8326 	 -81.0628 	 
C 	 -49.3836 	 -49.3968 	 -83.192 	 
H 	 -50.1148 	 -48.6017 	 -83.2364 	 
H 	 -49.6557 	 -50.3381 	 -83.739 	 
C 	 -47.9632 	 -49.043 	 -83.6145 	 
H 	 -47.9999 	 -48.3773 	 -84.4516 	 
H 	 -47.373 	 -49.894 	 -84.0304 	 
H 	 -47.3601 	 -48.4462 	 -82.838 	 
H 	 -53.5819 	 -45.596 	 -79.0865 	 
H 	 -51.863 	 -53.4943 	 -80.4273 	 
*
