! wB97X-D3 SP def2-SVP
%pal
nprocs 24
end

* xyz 0 1
S 	 -104.764 	 26.9013 	 -119.082 	 
C 	 -104.607 	 28.3874 	 -118.176 	 
C 	 -105.871 	 28.9566 	 -118.067 	 
C 	 -106.942 	 27.9952 	 -118.435 	 
C 	 -106.422 	 26.7339 	 -118.735 	 
H 	 -108.004 	 28.1016 	 -118.286 	 
C 	 -106.15 	 30.4107 	 -117.706 	 
H 	 -106.922 	 30.8084 	 -118.395 	 
H 	 -105.31 	 31.0066 	 -117.916 	 
C 	 -106.505 	 30.5894 	 -116.241 	 
H 	 -105.832 	 30.0771 	 -115.558 	 
H 	 -106.246 	 31.6238 	 -115.983 	 
C 	 -107.948 	 30.3609 	 -115.944 	 
H 	 -108.22 	 29.3356 	 -116.002 	 
H 	 -108.269 	 30.699 	 -114.941 	 
H 	 -108.54 	 30.9853 	 -116.642 	 
S 	 -106.518 	 24.6038 	 -120.462 	 
C 	 -107.773 	 23.3867 	 -120.309 	 
C 	 -108.471 	 23.5239 	 -119.122 	 
C 	 -108.141 	 24.7831 	 -118.447 	 
C 	 -107.087 	 25.5118 	 -119.063 	 
H 	 -109.215 	 22.8301 	 -118.753 	 
C 	 -108.836 	 25.0791 	 -117.094 	 
H 	 -109.881 	 25.0225 	 -117.308 	 
H 	 -108.589 	 26.0611 	 -116.674 	 
C 	 -108.564 	 23.9842 	 -116.021 	 
H 	 -108.784 	 22.9441 	 -116.49 	 
H 	 -109.277 	 24.0348 	 -115.122 	 
C 	 -107.132 	 23.9912 	 -115.493 	 
H 	 -106.857 	 24.9052 	 -114.971 	 
H 	 -106.596 	 24.009 	 -116.466 	 
H 	 -106.982 	 23.1961 	 -114.717 	 
H 	 -103.744 	 28.9619 	 -118.117 	 
H 	 -107.962 	 22.5691 	 -121.061 	 
*
