! wB97X-D3 SP def2-SVP
%pal
nprocs 24
end

* xyz 0 1
S 	 -53.0596 	 -52.2881 	 -75.5627 	 
C 	 -51.5404 	 -52.2251 	 -74.5913 	 
C 	 -51.3677 	 -53.4028 	 -73.8652 	 
C 	 -52.4373 	 -54.3235 	 -74.1269 	 
C 	 -53.3162 	 -53.9036 	 -75.0537 	 
H 	 -52.3841 	 -55.3502 	 -73.8153 	 
C 	 -50.2252 	 -53.6141 	 -72.8548 	 
H 	 -50.6599 	 -54.286 	 -72.0439 	 
H 	 -50.0142 	 -52.6713 	 -72.2293 	 
C 	 -48.9189 	 -54.2083 	 -73.4392 	 
H 	 -49.1894 	 -55.0968 	 -74.0396 	 
H 	 -48.489 	 -53.4118 	 -74.1186 	 
C 	 -47.8956 	 -54.5991 	 -72.326 	 
H 	 -47.3952 	 -53.6897 	 -71.9842 	 
H 	 -48.1996 	 -55.2386 	 -71.5058 	 
H 	 -47.0685 	 -55.0446 	 -72.8748 	 
S 	 -55.9332 	 -54.6407 	 -75.1605 	 
C 	 -56.481 	 -55.6897 	 -76.4785 	 
C 	 -55.4467 	 -56.0988 	 -77.28 	 
C 	 -54.2167 	 -55.5663 	 -76.8437 	 
C 	 -54.2953 	 -54.7127 	 -75.7851 	 
H 	 -55.6175 	 -56.7835 	 -78.0719 	 
C 	 -52.8795 	 -55.8983 	 -77.5842 	 
H 	 -52.9065 	 -56.9504 	 -77.8953 	 
H 	 -52.0937 	 -55.9265 	 -76.8369 	 
C 	 -52.4485 	 -55.0144 	 -78.7311 	 
H 	 -51.5028 	 -55.3458 	 -79.0958 	 
H 	 -52.1607 	 -53.9936 	 -78.3593 	 
C 	 -53.34 	 -54.8499 	 -79.8821 	 
H 	 -52.967 	 -54.1137 	 -80.6751 	 
H 	 -54.2689 	 -54.375 	 -79.5376 	 
H 	 -53.5684 	 -55.8481 	 -80.4185 	 
H 	 -50.7803 	 -51.4407 	 -74.5895 	 
H 	 -57.4578 	 -55.9753 	 -76.821 	 
*
