! wB97X-D3 SP def2-SVP
%pal
nprocs 24
end

* xyz 0 1
S 	 -128.248 	 57.9532 	 -59.5306 	 
C 	 -127.99 	 57.0143 	 -61.041 	 
C 	 -128.528 	 55.799 	 -60.838 	 
C 	 -128.965 	 55.5694 	 -59.505 	 
C 	 -129.03 	 56.6273 	 -58.7041 	 
H 	 -129.355 	 54.5403 	 -59.2186 	 
C 	 -128.515 	 54.6632 	 -61.8093 	 
H 	 -128.269 	 55.0945 	 -62.7826 	 
H 	 -129.607 	 54.2771 	 -61.7664 	 
C 	 -127.486 	 53.5011 	 -61.5562 	 
H 	 -127.536 	 52.8309 	 -60.7606 	 
H 	 -127.678 	 52.8565 	 -62.441 	 
C 	 -125.971 	 53.9276 	 -61.6019 	 
H 	 -125.316 	 53.064 	 -61.8209 	 
H 	 -125.764 	 54.5592 	 -62.4059 	 
H 	 -125.687 	 54.3772 	 -60.6442 	 
S 	 -128.449 	 56.4936 	 -56.0464 	 
C 	 -129.611 	 56.8362 	 -54.9243 	 
C 	 -130.788 	 57.2194 	 -55.5856 	 
C 	 -130.826 	 57.0781 	 -56.9978 	 
C 	 -129.582 	 56.7341 	 -57.3592 	 
H 	 -131.674 	 57.6518 	 -55.0103 	 
C 	 -132.124 	 57.3266 	 -57.7743 	 
H 	 -132.961 	 56.9193 	 -57.2229 	 
H 	 -132.059 	 56.8313 	 -58.734 	 
C 	 -132.472 	 58.7943 	 -58.0739 	 
H 	 -131.572 	 59.2192 	 -58.5044 	 
H 	 -132.433 	 59.2972 	 -57.1042 	 
C 	 -133.884 	 58.9449 	 -58.8604 	 
H 	 -133.907 	 58.6515 	 -59.8773 	 
H 	 -134.275 	 59.9609 	 -58.803 	 
H 	 -134.623 	 58.4136 	 -58.3568 	 
H 	 -127.779 	 57.4298 	 -62.0159 	 
H 	 -129.658 	 56.5838 	 -53.8573 	 
*
