! wB97X-D3 SP def2-SVP
%pal
nprocs 24
end

* xyz 0 1
S 	 -59.6785 	 9.15799 	 -96.1897 	 
C 	 -59.4257 	 10.6836 	 -95.3948 	 
C 	 -60.4949 	 11.5309 	 -95.5111 	 
C 	 -61.5478 	 10.9264 	 -96.2446 	 
C 	 -61.2991 	 9.64287 	 -96.6812 	 
H 	 -62.431 	 11.3987 	 -96.5967 	 
C 	 -60.4725 	 12.9918 	 -95.0477 	 
H 	 -59.4921 	 13.3758 	 -94.7415 	 
H 	 -61.1624 	 13.0584 	 -94.2146 	 
C 	 -60.9432 	 14.0537 	 -96.0756 	 
H 	 -60.1619 	 14.149 	 -96.8265 	 
H 	 -61.7361 	 13.6813 	 -96.6563 	 
C 	 -61.137 	 15.3873 	 -95.4653 	 
H 	 -60.2574 	 15.82 	 -95.072 	 
H 	 -61.4258 	 16.0672 	 -96.2103 	 
H 	 -61.9746 	 15.4082 	 -94.7974 	 
S 	 -61.3313 	 7.80619 	 -98.8127 	 
C 	 -62.7409 	 6.72577 	 -99.0213 	 
C 	 -63.7937 	 7.20726 	 -98.2775 	 
C 	 -63.4208 	 8.23653 	 -97.3002 	 
C 	 -62.1068 	 8.73852 	 -97.4886 	 
H 	 -64.8362 	 6.78771 	 -98.4398 	 
C 	 -64.3899 	 8.7695 	 -96.3223 	 
H 	 -64.3973 	 9.82482 	 -96.2974 	 
H 	 -63.9286 	 8.52701 	 -95.3636 	 
C 	 -65.7875 	 8.26401 	 -96.5186 	 
H 	 -65.7596 	 7.16126 	 -96.3414 	 
H 	 -66.1072 	 8.53664 	 -97.5258 	 
C 	 -66.7568 	 8.84562 	 -95.4816 	 
H 	 -66.8922 	 8.22392 	 -94.582 	 
H 	 -67.615 	 8.93034 	 -96.0001 	 
H 	 -66.5781 	 9.84666 	 -95.2148 	 
H 	 -58.4429 	 11.0063 	 -94.9584 	 
H 	 -62.833 	 6.04166 	 -99.8438 	 
*
