! wB97X-D3 SP def2-SVP
%pal
nprocs 24
end

* xyz 0 1
S 	 -75.2085 	 -3.45353 	 6.41265 	 
C 	 -73.4406 	 -3.1189 	 6.38698 	 
C 	 -72.758 	 -3.82945 	 7.36266 	 
C 	 -73.6361 	 -4.44967 	 8.25546 	 
C 	 -74.9961 	 -4.36695 	 7.90832 	 
H 	 -73.3984 	 -4.95155 	 9.14335 	 
C 	 -71.2323 	 -3.94408 	 7.52121 	 
H 	 -71.0752 	 -4.3142 	 6.52553 	 
H 	 -71.0652 	 -4.78168 	 8.18466 	 
C 	 -70.3663 	 -2.69861 	 7.7698 	 
H 	 -69.3073 	 -2.99314 	 7.6757 	 
H 	 -70.5908 	 -1.9939 	 6.97857 	 
C 	 -70.6839 	 -2.00801 	 9.12428 	 
H 	 -70.1415 	 -1.11843 	 9.08252 	 
H 	 -71.8058 	 -1.79306 	 9.05928 	 
H 	 -70.4113 	 -2.64829 	 9.96639 	 
S 	 -76.5581 	 -4.61261 	 10.103 	 
C 	 -78.0721 	 -5.4353 	 9.91165 	 
C 	 -78.0694 	 -6.25313 	 8.78775 	 
C 	 -77.0081 	 -5.92482 	 7.81907 	 
C 	 -76.0571 	 -5.185 	 8.46149 	 
H 	 -78.8579 	 -6.9286 	 8.56383 	 
C 	 -76.9478 	 -6.47571 	 6.39146 	 
H 	 -76.1399 	 -7.15715 	 6.45581 	 
H 	 -76.5404 	 -5.7531 	 5.65612 	 
C 	 -78.128 	 -7.45096 	 5.86968 	 
H 	 -79.047 	 -6.92981 	 6.04371 	 
H 	 -78.0768 	 -8.39327 	 6.36659 	 
C 	 -77.9443 	 -7.93028 	 4.3923 	 
H 	 -78.3369 	 -8.95053 	 4.19921 	 
H 	 -76.9385 	 -7.98424 	 4.02642 	 
H 	 -78.4283 	 -7.15181 	 3.70362 	 
H 	 -72.9848 	 -2.43334 	 5.62853 	 
H 	 -78.7662 	 -5.65559 	 10.7422 	 
*
