! wB97X-D3 SP def2-SVP
%pal
nprocs 24
end

* xyz 0 1
S 	 -81.3423 	 -42.8535 	 -91.6443 	 
C 	 -79.8955 	 -42.0666 	 -91.1258 	 
C 	 -79.0321 	 -42.9009 	 -90.4435 	 
C 	 -79.7666 	 -44.0482 	 -89.9485 	 
C 	 -81.1186 	 -44.1537 	 -90.3857 	 
H 	 -79.3201 	 -44.7732 	 -89.3034 	 
C 	 -77.6454 	 -42.5231 	 -90.1366 	 
H 	 -77.4361 	 -41.4822 	 -90.4511 	 
H 	 -76.9404 	 -43.1947 	 -90.5577 	 
C 	 -77.2182 	 -42.3335 	 -88.6765 	 
H 	 -77.506 	 -41.379 	 -88.2271 	 
H 	 -77.7311 	 -43.1217 	 -88.0879 	 
C 	 -75.7241 	 -42.3937 	 -88.4137 	 
H 	 -75.1219 	 -41.723 	 -88.9991 	 
H 	 -75.5296 	 -42.1515 	 -87.342 	 
H 	 -75.3863 	 -43.4476 	 -88.6506 	 
S 	 -83.5399 	 -44.608 	 -89.0338 	 
C 	 -83.9742 	 -46.2615 	 -88.7599 	 
C 	 -83.153 	 -47.1417 	 -89.4845 	 
C 	 -82.1089 	 -46.5178 	 -90.1532 	 
C 	 -82.1124 	 -45.1396 	 -90.0039 	 
H 	 -83.3894 	 -48.1871 	 -89.4238 	 
C 	 -81.0154 	 -47.2562 	 -90.8737 	 
H 	 -80.7527 	 -48.226 	 -90.3193 	 
H 	 -80.1031 	 -46.628 	 -90.6324 	 
C 	 -81.0071 	 -47.1903 	 -92.4095 	 
H 	 -79.9987 	 -47.457 	 -92.7451 	 
H 	 -81.2395 	 -46.1429 	 -92.6964 	 
C 	 -82.0905 	 -48.1749 	 -93.0279 	 
H 	 -82.1131 	 -48.1114 	 -94.0978 	 
H 	 -83.0231 	 -47.8929 	 -92.6579 	 
H 	 -81.8832 	 -49.1507 	 -92.6742 	 
H 	 -79.671 	 -41.0552 	 -91.5345 	 
H 	 -84.745 	 -46.608 	 -88.2056 	 
*
