! wB97X-D3 SP def2-SVP
%pal
nprocs 24
end

* xyz 0 1
S 	 -92.6065 	 -29.555 	 -73.025 	 
C 	 -92.4996 	 -30.9785 	 -73.973 	 
C 	 -91.4118 	 -30.9784 	 -74.8345 	 
C 	 -90.6385 	 -29.7578 	 -74.6908 	 
C 	 -91.1476 	 -28.8439 	 -73.7872 	 
H 	 -89.6506 	 -29.6552 	 -75.1527 	 
C 	 -91.0059 	 -32.0497 	 -75.8771 	 
H 	 -91.5824 	 -32.9313 	 -75.6152 	 
H 	 -89.9494 	 -32.2284 	 -75.6084 	 
C 	 -91.208 	 -31.6267 	 -77.3222 	 
H 	 -91.1214 	 -32.6148 	 -77.8578 	 
H 	 -92.2269 	 -31.1514 	 -77.4103 	 
C 	 -90.1619 	 -30.6218 	 -77.8914 	 
H 	 -90.1924 	 -29.7109 	 -77.2437 	 
H 	 -89.0778 	 -30.9615 	 -77.9441 	 
H 	 -90.4679 	 -30.2918 	 -78.8653 	 
S 	 -90.3773 	 -27.1776 	 -71.7842 	 
C 	 -89.6763 	 -25.6981 	 -72.2602 	 
C 	 -89.5773 	 -25.5144 	 -73.586 	 
C 	 -90.0997 	 -26.6371 	 -74.2926 	 
C 	 -90.67 	 -27.5577 	 -73.4221 	 
H 	 -89.0342 	 -24.5857 	 -73.9209 	 
C 	 -90.155 	 -26.6866 	 -75.7734 	 
H 	 -90.8977 	 -27.4292 	 -76.1964 	 
H 	 -89.2617 	 -27.1396 	 -76.2481 	 
C 	 -90.2959 	 -25.3087 	 -76.4441 	 
H 	 -89.6583 	 -24.6547 	 -75.8728 	 
H 	 -91.375 	 -25.0575 	 -76.2822 	 
C 	 -89.9859 	 -25.2729 	 -77.9546 	 
H 	 -88.9341 	 -25.4805 	 -78.1736 	 
H 	 -90.1538 	 -24.2369 	 -78.3565 	 
H 	 -90.4601 	 -26.0589 	 -78.4889 	 
H 	 -93.329 	 -31.7739 	 -73.912 	 
H 	 -89.3959 	 -24.9642 	 -71.5584 	 
*
