! wB97X-D3 SP def2-SVP
%pal
nprocs 24
end

* xyz 0 1
S 	 -71.0697 	 -41.1857 	 -92.5479 	 
C 	 -69.8809 	 -40.1967 	 -93.3742 	 
C 	 -69.197 	 -40.9485 	 -94.3444 	 
C 	 -69.6068 	 -42.3082 	 -94.3046 	 
C 	 -70.5976 	 -42.6148 	 -93.3962 	 
H 	 -69.308 	 -43.064 	 -95.0311 	 
C 	 -68.0355 	 -40.5096 	 -95.2133 	 
H 	 -68.4698 	 -40.363 	 -96.1798 	 
H 	 -67.3744 	 -41.3775 	 -95.2478 	 
C 	 -67.3187 	 -39.0796 	 -95.0245 	 
H 	 -66.6758 	 -38.8832 	 -95.9422 	 
H 	 -67.9885 	 -38.2516 	 -95.2214 	 
C 	 -66.52 	 -38.8919 	 -93.6285 	 
H 	 -65.6779 	 -39.4436 	 -93.7289 	 
H 	 -66.1221 	 -37.8683 	 -93.4841 	 
H 	 -67.0236 	 -39.3168 	 -92.7693 	 
S 	 -70.7696 	 -44.6894 	 -91.6941 	 
C 	 -71.8983 	 -45.9753 	 -92.0214 	 
C 	 -72.4699 	 -45.8373 	 -93.2487 	 
C 	 -72.0347 	 -44.6427 	 -93.9492 	 
C 	 -71.2861 	 -43.8441 	 -93.1128 	 
H 	 -73.1051 	 -46.6805 	 -93.6354 	 
C 	 -72.3857 	 -44.4404 	 -95.4252 	 
H 	 -72.8124 	 -45.3617 	 -95.8532 	 
H 	 -71.4645 	 -44.1862 	 -96.0135 	 
C 	 -73.4045 	 -43.2947 	 -95.4173 	 
H 	 -73.3012 	 -42.5677 	 -94.6841 	 
H 	 -74.3747 	 -43.7111 	 -95.1501 	 
C 	 -73.4941 	 -42.6271 	 -96.7512 	 
H 	 -72.5864 	 -42.3475 	 -97.2777 	 
H 	 -74.1009 	 -41.7717 	 -96.6797 	 
H 	 -74.0973 	 -43.2908 	 -97.3933 	 
H 	 -69.7325 	 -39.1557 	 -93.2134 	 
H 	 -72.0573 	 -46.8285 	 -91.3232 	 
*
