! wB97X-D3 SP def2-SVP
%pal
nprocs 24
end

* xyz 0 1
S 	 34.4688 	 -28.4386 	 -112.173 	 
C 	 34.6138 	 -27.9 	 -110.415 	 
C 	 35.6665 	 -28.5821 	 -109.785 	 
C 	 36.4037 	 -29.4676 	 -110.703 	 
C 	 35.9614 	 -29.3766 	 -112.004 	 
H 	 37.3463 	 -29.9572 	 -110.555 	 
C 	 36.0016 	 -28.4366 	 -108.294 	 
H 	 36.6031 	 -29.3727 	 -108.09 	 
H 	 35.1381 	 -28.4884 	 -107.73 	 
C 	 36.8417 	 -27.2176 	 -107.908 	 
H 	 37.7684 	 -27.0874 	 -108.514 	 
H 	 36.2563 	 -26.4067 	 -108.222 	 
C 	 37.2929 	 -27.1969 	 -106.433 	 
H 	 36.5612 	 -27.2721 	 -105.595 	 
H 	 37.8687 	 -28.1195 	 -106.242 	 
H 	 37.921 	 -26.2993 	 -106.291 	 
S 	 35.4716 	 -31.2438 	 -113.886 	 
C 	 36.7155 	 -31.5326 	 -115.036 	 
C 	 37.9278 	 -30.8554 	 -114.771 	 
C 	 37.7875 	 -29.9918 	 -113.665 	 
C 	 36.474 	 -30.058 	 -113.154 	 
H 	 38.7695 	 -31.0059 	 -115.473 	 
C 	 38.9238 	 -29.2605 	 -113.071 	 
H 	 39.3386 	 -30.111 	 -112.489 	 
H 	 38.5027 	 -28.4886 	 -112.498 	 
C 	 39.7937 	 -28.5107 	 -114 	 
H 	 39.1821 	 -27.6852 	 -114.275 	 
H 	 40.2348 	 -29.0626 	 -114.886 	 
C 	 41.0218 	 -28.0089 	 -113.299 	 
H 	 41.6002 	 -28.8703 	 -112.824 	 
H 	 40.7147 	 -27.2028 	 -112.538 	 
H 	 41.6988 	 -27.4879 	 -113.935 	 
H 	 33.812 	 -27.2607 	 -110.017 	 
H 	 36.7169 	 -32.2985 	 -115.785 	 
*
