! wB97X-D3 SP def2-SVP
%pal
nprocs 24
end

* xyz 0 1
S 	 -52.4422 	 19.9654 	 -100.857 	 
C 	 -54.0729 	 19.3169 	 -100.909 	 
C 	 -54.6147 	 19.3346 	 -102.199 	 
C 	 -53.768 	 20.0846 	 -103.092 	 
C 	 -52.553 	 20.43 	 -102.493 	 
H 	 -53.9322 	 20.2299 	 -104.078 	 
C 	 -56.0275 	 18.824 	 -102.484 	 
H 	 -56.2779 	 18.1183 	 -101.689 	 
H 	 -55.9897 	 18.2063 	 -103.411 	 
C 	 -57.0896 	 19.8027 	 -102.62 	 
H 	 -57.0768 	 20.3067 	 -103.52 	 
H 	 -57.8911 	 19.1125 	 -102.651 	 
C 	 -57.0762 	 20.8934 	 -101.545 	 
H 	 -57.9715 	 21.5858 	 -101.563 	 
H 	 -57.1112 	 20.4482 	 -100.486 	 
H 	 -56.1562 	 21.4727 	 -101.562 	 
S 	 -50.7286 	 22.5606 	 -102.72 	 
C 	 -49.5192 	 22.4883 	 -103.991 	 
C 	 -49.7125 	 21.2798 	 -104.703 	 
C 	 -50.7662 	 20.4868 	 -104.267 	 
C 	 -51.4551 	 21.019 	 -103.229 	 
H 	 -48.9963 	 21.0725 	 -105.474 	 
C 	 -50.9363 	 19.0672 	 -104.738 	 
H 	 -51.6284 	 18.5899 	 -104.037 	 
H 	 -50.0992 	 18.4094 	 -104.488 	 
C 	 -51.2789 	 18.8885 	 -106.167 	 
H 	 -51.188 	 17.8442 	 -106.416 	 
H 	 -50.4523 	 19.5193 	 -106.605 	 
C 	 -52.6326 	 19.4343 	 -106.608 	 
H 	 -52.8664 	 20.5127 	 -106.511 	 
H 	 -53.3507 	 18.8944 	 -105.978 	 
H 	 -52.8785 	 19.0855 	 -107.614 	 
H 	 -54.5748 	 18.9846 	 -100.009 	 
H 	 -48.7469 	 23.1998 	 -104.235 	 
*
