! wB97X-D3 SP def2-SVP
%pal
nprocs 24
end

* xyz 0 1
S 	 -137.35 	 23.1231 	 -16.864 	 
C 	 -138.779 	 22.3293 	 -17.432 	 
C 	 -138.795 	 22.2276 	 -18.8043 	 
C 	 -137.731 	 22.9428 	 -19.4255 	 
C 	 -136.848 	 23.5358 	 -18.5188 	 
H 	 -137.476 	 23.0189 	 -20.4697 	 
C 	 -139.755 	 21.3407 	 -19.5388 	 
H 	 -140.555 	 22.0157 	 -20.0229 	 
H 	 -140.408 	 20.8876 	 -18.8271 	 
C 	 -139.165 	 20.3511 	 -20.5122 	 
H 	 -139.856 	 20.2375 	 -21.3125 	 
H 	 -138.195 	 20.6759 	 -20.835 	 
C 	 -138.895 	 18.9958 	 -19.8592 	 
H 	 -138.34 	 19.0347 	 -18.952 	 
H 	 -139.915 	 18.6437 	 -19.5791 	 
H 	 -138.357 	 18.3596 	 -20.5442 	 
S 	 -134.203 	 23.6429 	 -17.5827 	 
C 	 -132.945 	 24.4574 	 -18.4373 	 
C 	 -133.467 	 24.8935 	 -19.63 	 
C 	 -134.874 	 24.6617 	 -19.7896 	 
C 	 -135.463 	 23.998 	 -18.73 	 
H 	 -132.93 	 25.4277 	 -20.3821 	 
C 	 -135.6 	 25.1777 	 -21.0293 	 
H 	 -135.529 	 26.278 	 -21.0301 	 
H 	 -136.641 	 24.9574 	 -20.9585 	 
C 	 -135.135 	 24.6771 	 -22.4138 	 
H 	 -135.565 	 23.6938 	 -22.5516 	 
H 	 -134.037 	 24.7014 	 -22.4188 	 
C 	 -135.672 	 25.6374 	 -23.5283 	 
H 	 -135.377 	 26.6664 	 -23.1873 	 
H 	 -136.754 	 25.5383 	 -23.6183 	 
H 	 -135.278 	 25.2734 	 -24.5193 	 
H 	 -139.26 	 21.6393 	 -16.7153 	 
H 	 -131.907 	 24.5504 	 -18.0826 	 
*
