! wB97X-D3 SP def2-SVP
%pal
nprocs 24
end

* xyz 0 1
S 	 -109.042 	 45.4413 	 -4.99701 	 
C 	 -109.436 	 47.0832 	 -4.4944 	 
C 	 -109.09 	 47.9785 	 -5.52225 	 
C 	 -108.46 	 47.3066 	 -6.62017 	 
C 	 -108.268 	 45.9236 	 -6.4442 	 
H 	 -107.922 	 47.7784 	 -7.42647 	 
C 	 -109.137 	 49.5326 	 -5.29151 	 
H 	 -109.883 	 49.8531 	 -4.57069 	 
H 	 -109.498 	 50.0173 	 -6.21415 	 
C 	 -107.813 	 50.2508 	 -5.03909 	 
H 	 -108.067 	 51.3471 	 -5.02212 	 
H 	 -107.324 	 49.9898 	 -4.09391 	 
C 	 -106.812 	 50.0894 	 -6.09681 	 
H 	 -107.279 	 50.0761 	 -7.08095 	 
H 	 -106.075 	 50.8485 	 -6.22431 	 
H 	 -106.346 	 49.0639 	 -5.9302 	 
S 	 -108.328 	 43.6312 	 -7.94888 	 
C 	 -107.183 	 43.2878 	 -9.16134 	 
C 	 -106.16 	 44.2524 	 -9.07685 	 
C 	 -106.342 	 45.2324 	 -8.05842 	 
C 	 -107.521 	 45.022 	 -7.32089 	 
H 	 -105.525 	 44.1829 	 -9.902 	 
C 	 -105.384 	 46.4031 	 -7.94495 	 
H 	 -104.468 	 46.1198 	 -7.4344 	 
H 	 -105.885 	 47.1133 	 -7.30583 	 
C 	 -105.073 	 47.1857 	 -9.25464 	 
H 	 -104.43 	 46.4651 	 -9.79382 	 
H 	 -104.338 	 48.0238 	 -9.12351 	 
C 	 -106.281 	 47.665 	 -10.0939 	 
H 	 -106.19 	 48.7285 	 -10.2783 	 
H 	 -107.157 	 47.4185 	 -9.63033 	 
H 	 -106.206 	 47.1672 	 -11.0687 	 
H 	 -109.746 	 47.4251 	 -3.54797 	 
H 	 -107.312 	 42.5384 	 -9.92289 	 
*
