! wB97X-D3 SP def2-SVP
%pal
nprocs 24
end

* xyz 0 1
S 	 -121.163 	 65.5911 	 -62.4 	 
C 	 -120.821 	 64.1548 	 -63.3097 	 
C 	 -119.869 	 63.3236 	 -62.6686 	 
C 	 -119.2 	 64.0822 	 -61.6513 	 
C 	 -119.663 	 65.3573 	 -61.4081 	 
H 	 -118.442 	 63.7666 	 -60.9621 	 
C 	 -119.406 	 61.9373 	 -63.0663 	 
H 	 -118.298 	 61.9464 	 -63.101 	 
H 	 -119.664 	 61.7129 	 -64.0675 	 
C 	 -119.697 	 60.7017 	 -62.1204 	 
H 	 -119.309 	 60.9367 	 -61.185 	 
H 	 -120.77 	 60.5981 	 -61.9563 	 
C 	 -119.077 	 59.4086 	 -62.7287 	 
H 	 -119.493 	 59.1904 	 -63.6937 	 
H 	 -117.979 	 59.6272 	 -62.7686 	 
H 	 -119.454 	 58.5708 	 -62.1139 	 
S 	 -120.448 	 67.0633 	 -59.3781 	 
C 	 -119.326 	 67.9002 	 -58.4198 	 
C 	 -118.034 	 67.465 	 -58.6751 	 
C 	 -117.97 	 66.6212 	 -59.8276 	 
C 	 -119.225 	 66.2656 	 -60.3202 	 
H 	 -117.227 	 67.8522 	 -58.0837 	 
C 	 -116.667 	 66.0362 	 -60.165 	 
H 	 -116.78 	 64.9334 	 -60.1572 	 
H 	 -115.969 	 66.2174 	 -59.3868 	 
C 	 -115.988 	 66.5004 	 -61.4745 	 
H 	 -116.728 	 66.633 	 -62.3177 	 
H 	 -115.327 	 65.7002 	 -61.6836 	 
C 	 -115.264 	 67.8215 	 -61.2445 	 
H 	 -116.033 	 68.5998 	 -61.1465 	 
H 	 -114.519 	 67.9857 	 -61.9862 	 
H 	 -114.805 	 67.8882 	 -60.2667 	 
H 	 -121.463 	 63.8859 	 -64.1624 	 
H 	 -119.619 	 68.5165 	 -57.6112 	 
*
