! wB97X-D3 SP def2-SVP
%pal
nprocs 24
end

* xyz 0 1
S 	 -92.8169 	 -31.965 	 -64.2522 	 
C 	 -94.4253 	 -32.5513 	 -63.9009 	 
C 	 -95.3316 	 -32.1426 	 -64.8892 	 
C 	 -94.6795 	 -31.2977 	 -65.8089 	 
C 	 -93.3342 	 -31.0365 	 -65.5752 	 
H 	 -95.2224 	 -30.748 	 -66.5475 	 
C 	 -96.859 	 -32.3783 	 -64.8718 	 
H 	 -97.3327 	 -31.4507 	 -64.7392 	 
H 	 -97.1511 	 -32.9268 	 -63.9839 	 
C 	 -97.4854 	 -33.1972 	 -66.0351 	 
H 	 -97.1232 	 -34.2174 	 -66.0372 	 
H 	 -98.5173 	 -33.3959 	 -65.8231 	 
C 	 -97.4142 	 -32.666 	 -67.4358 	 
H 	 -97.7336 	 -33.3353 	 -68.1699 	 
H 	 -97.9004 	 -31.7307 	 -67.4038 	 
H 	 -96.3322 	 -32.4818 	 -67.74 	 
S 	 -91.003 	 -29.5072 	 -65.6159 	 
C 	 -90.4209 	 -28.937 	 -67.1633 	 
C 	 -91.3834 	 -29.0215 	 -68.1299 	 
C 	 -92.4914 	 -29.8668 	 -67.7978 	 
C 	 -92.4586 	 -30.2131 	 -66.4437 	 
H 	 -91.2348 	 -28.5683 	 -69.0778 	 
C 	 -93.5272 	 -30.1635 	 -68.8834 	 
H 	 -94.1194 	 -31.105 	 -68.7782 	 
H 	 -93.017 	 -30.3224 	 -69.856 	 
C 	 -94.5245 	 -29.0333 	 -69.1002 	 
H 	 -93.9362 	 -28.1462 	 -69.3182 	 
H 	 -95.0611 	 -28.8017 	 -68.1703 	 
C 	 -95.4968 	 -29.1887 	 -70.237 	 
H 	 -96.143 	 -30.1026 	 -70.2832 	 
H 	 -94.9664 	 -29.0741 	 -71.2167 	 
H 	 -96.2294 	 -28.3881 	 -70.2312 	 
H 	 -94.6387 	 -33.2016 	 -63.0568 	 
H 	 -89.4989 	 -28.425 	 -67.2282 	 
*
