! wB97X-D3 SP def2-SVP
%pal
nprocs 24
end

* xyz 0 1
S 	 -65.3568 	 -50.4315 	 -81.9948 	 
C 	 -64.9304 	 -52.0661 	 -82.2708 	 
C 	 -65.8619 	 -52.9454 	 -81.711 	 
C 	 -66.976 	 -52.2065 	 -81.162 	 
C 	 -66.8628 	 -50.8292 	 -81.1984 	 
H 	 -67.8745 	 -52.6871 	 -80.9027 	 
C 	 -65.8685 	 -54.444 	 -81.7146 	 
H 	 -66.0744 	 -54.6866 	 -82.7938 	 
H 	 -66.7594 	 -54.7739 	 -81.2207 	 
C 	 -64.5874 	 -55.1924 	 -81.3208 	 
H 	 -63.898 	 -55.1198 	 -82.1445 	 
H 	 -64.0756 	 -54.6771 	 -80.4399 	 
C 	 -64.8733 	 -56.6981 	 -80.9791 	 
H 	 -65.2799 	 -57.2478 	 -81.7763 	 
H 	 -63.9083 	 -57.2588 	 -80.7498 	 
H 	 -65.5798 	 -56.7424 	 -80.1537 	 
S 	 -68.5376 	 -49.9903 	 -79.1596 	 
C 	 -69.5604 	 -48.6319 	 -79.3465 	 
C 	 -69.2646 	 -47.9511 	 -80.5191 	 
C 	 -68.2854 	 -48.6357 	 -81.341 	 
C 	 -67.8688 	 -49.8407 	 -80.7697 	 
H 	 -69.8623 	 -47.0788 	 -80.822 	 
C 	 -67.881 	 -48.1746 	 -82.7502 	 
H 	 -66.811 	 -48.1606 	 -82.8349 	 
H 	 -68.1981 	 -47.1145 	 -82.8948 	 
C 	 -68.3158 	 -49.0005 	 -83.9292 	 
H 	 -68.0654 	 -50.0129 	 -83.7104 	 
H 	 -67.6578 	 -48.7632 	 -84.7347 	 
C 	 -69.799 	 -48.7826 	 -84.3284 	 
H 	 -70.4412 	 -49.477 	 -83.7936 	 
H 	 -70.0601 	 -49.1054 	 -85.338 	 
H 	 -70.0528 	 -47.7046 	 -84.1473 	 
H 	 -64.1929 	 -52.3426 	 -82.9547 	 
H 	 -69.9769 	 -48.0395 	 -78.6107 	 
*
