! wB97X-D3 SP def2-SVP
%pal
nprocs 24
end

* xyz 0 1
S 	 29.8341 	 -23.8981 	 -126.115 	 
C 	 29.8648 	 -23.585 	 -127.83 	 
C 	 29.1599 	 -24.5248 	 -128.513 	 
C 	 28.2576 	 -25.1882 	 -127.576 	 
C 	 28.5025 	 -24.9483 	 -126.239 	 
H 	 27.5403 	 -25.9034 	 -127.888 	 
C 	 29.0266 	 -24.5358 	 -130.021 	 
H 	 29.2907 	 -23.5564 	 -130.466 	 
H 	 28.008 	 -24.5561 	 -130.383 	 
C 	 29.8552 	 -25.5312 	 -130.81 	 
H 	 29.3263 	 -26.4758 	 -130.506 	 
H 	 29.5764 	 -25.4116 	 -131.913 	 
C 	 31.3327 	 -25.6756 	 -130.411 	 
H 	 31.7148 	 -26.5648 	 -130.878 	 
H 	 31.8128 	 -24.7311 	 -130.676 	 
H 	 31.3281 	 -25.7677 	 -129.343 	 
S 	 28.1643 	 -27.243 	 -124.663 	 
C 	 26.7933 	 -27.3414 	 -123.554 	 
C 	 26.2902 	 -26.0814 	 -123.329 	 
C 	 26.7995 	 -25.0872 	 -124.301 	 
C 	 27.7442 	 -25.6085 	 -125.152 	 
H 	 25.4657 	 -25.8692 	 -122.615 	 
C 	 26.2819 	 -23.6817 	 -124.288 	 
H 	 25.1977 	 -23.7558 	 -124.412 	 
H 	 26.6147 	 -23.0631 	 -125.208 	 
C 	 26.5554 	 -22.8537 	 -123.047 	 
H 	 26.1521 	 -23.3757 	 -122.183 	 
H 	 26.1161 	 -21.8626 	 -123.105 	 
C 	 28.0296 	 -22.6137 	 -122.671 	 
H 	 28.5646 	 -23.5277 	 -122.516 	 
H 	 28.1309 	 -22.1429 	 -121.686 	 
H 	 28.4142 	 -21.9839 	 -123.449 	 
H 	 30.5358 	 -22.9022 	 -128.367 	 
H 	 26.5355 	 -28.2354 	 -122.944 	 
*
