! wB97X-D3 SP def2-SVP
%pal
nprocs 24
end

* xyz 0 1
S 	 -110.584 	 55.4074 	 -89.9723 	 
C 	 -110.872 	 56.2986 	 -88.5352 	 
C 	 -110.456 	 55.6093 	 -87.4274 	 
C 	 -109.898 	 54.3676 	 -87.801 	 
C 	 -109.705 	 54.1968 	 -89.152 	 
H 	 -109.598 	 53.7033 	 -87.029 	 
C 	 -110.59 	 56.0423 	 -85.9591 	 
H 	 -111.273 	 55.4006 	 -85.4593 	 
H 	 -111.243 	 56.8838 	 -85.9556 	 
C 	 -109.395 	 56.4835 	 -85.1332 	 
H 	 -109.749 	 56.7345 	 -84.1609 	 
H 	 -108.702 	 55.6142 	 -85.1447 	 
C 	 -108.722 	 57.731 	 -85.5371 	 
H 	 -109.358 	 58.5982 	 -85.2564 	 
H 	 -107.784 	 57.7376 	 -84.9282 	 
H 	 -108.432 	 57.7363 	 -86.6155 	 
S 	 -109.612 	 52.4083 	 -91.246 	 
C 	 -108.161 	 51.4942 	 -91.5686 	 
C 	 -107.249 	 51.5455 	 -90.4876 	 
C 	 -107.696 	 52.4913 	 -89.4927 	 
C 	 -108.913 	 53.0609 	 -89.754 	 
H 	 -106.37 	 50.9807 	 -90.4776 	 
C 	 -106.726 	 52.944 	 -88.4025 	 
H 	 -106.474 	 52.0995 	 -87.8007 	 
H 	 -107.26 	 53.4837 	 -87.6708 	 
C 	 -105.434 	 53.7282 	 -88.8984 	 
H 	 -104.806 	 53.1416 	 -89.5256 	 
H 	 -104.924 	 53.9266 	 -87.9604 	 
C 	 -105.816 	 55.1067 	 -89.5648 	 
H 	 -104.91 	 55.7108 	 -89.6667 	 
H 	 -106.623 	 55.6406 	 -89.0952 	 
H 	 -106.03 	 54.8736 	 -90.5881 	 
H 	 -111.427 	 57.1943 	 -88.5734 	 
H 	 -108.046 	 50.7046 	 -92.3177 	 
*
