! wB97X-D3 SP def2-SVP
%pal
nprocs 24
end

* xyz 0 1
S 	 28.2059 	 -29.529 	 -132.909 	 
C 	 28.1053 	 -27.8631 	 -132.345 	 
C 	 28.4936 	 -27.8411 	 -131.045 	 
C 	 28.7667 	 -29.09 	 -130.449 	 
C 	 28.4184 	 -30.1309 	 -131.258 	 
H 	 29.0892 	 -29.3078 	 -129.454 	 
C 	 28.338 	 -26.6783 	 -130.121 	 
H 	 28.6909 	 -25.7467 	 -130.595 	 
H 	 29.1342 	 -26.872 	 -129.381 	 
C 	 26.8885 	 -26.4332 	 -129.498 	 
H 	 26.0751 	 -26.328 	 -130.187 	 
H 	 26.605 	 -27.1757 	 -128.864 	 
C 	 26.9106 	 -25.1134 	 -128.75 	 
H 	 26.77 	 -24.2319 	 -129.414 	 
H 	 25.9995 	 -25.0807 	 -128.109 	 
H 	 27.8176 	 -24.9659 	 -128.155 	 
S 	 29.9562 	 -32.2926 	 -132.049 	 
C 	 30.1599 	 -33.6574 	 -130.983 	 
C 	 29.4259 	 -33.473 	 -129.85 	 
C 	 28.6908 	 -32.2622 	 -129.786 	 
C 	 28.8721 	 -31.5293 	 -130.95 	 
H 	 29.4855 	 -34.2681 	 -129.066 	 
C 	 27.9734 	 -31.8491 	 -128.413 	 
H 	 28.2821 	 -30.8704 	 -128.123 	 
H 	 28.4087 	 -32.5482 	 -127.659 	 
C 	 26.4585 	 -31.8656 	 -128.51 	 
H 	 25.98 	 -32.6955 	 -129.068 	 
H 	 26.1894 	 -31.0856 	 -129.179 	 
C 	 25.706 	 -31.7835 	 -127.17 	 
H 	 25.9076 	 -32.6986 	 -126.581 	 
H 	 24.6461 	 -31.7523 	 -127.341 	 
H 	 26.017 	 -30.9933 	 -126.524 	 
H 	 27.9272 	 -26.9611 	 -132.969 	 
H 	 30.7105 	 -34.5383 	 -131.161 	 
*
