! wB97X-D3 SP def2-SVP
%pal
nprocs 24
end

* xyz 0 1
S 	 -86.5825 	 -29.5288 	 -61.1087 	 
C 	 -87.4352 	 -28.5247 	 -59.9764 	 
C 	 -87.4993 	 -29.1852 	 -58.7254 	 
C 	 -86.9098 	 -30.466 	 -58.8263 	 
C 	 -86.4246 	 -30.9014 	 -60.0366 	 
H 	 -86.6778 	 -31.1229 	 -57.9603 	 
C 	 -87.9931 	 -28.5712 	 -57.3602 	 
H 	 -87.0963 	 -28.3283 	 -56.8206 	 
H 	 -88.4743 	 -29.3988 	 -56.8471 	 
C 	 -88.8236 	 -27.2662 	 -57.498 	 
H 	 -88.9592 	 -26.8193 	 -56.5275 	 
H 	 -88.2047 	 -26.6613 	 -58.1472 	 
C 	 -90.2607 	 -27.3893 	 -58.1306 	 
H 	 -90.6432 	 -26.3719 	 -58.2043 	 
H 	 -90.2846 	 -27.8853 	 -59.0694 	 
H 	 -90.8365 	 -28.0039 	 -57.3709 	 
S 	 -86.616 	 -33.6275 	 -59.8952 	 
C 	 -85.303 	 -34.6011 	 -60.4228 	 
C 	 -84.2678 	 -33.7675 	 -60.8958 	 
C 	 -84.5477 	 -32.391 	 -60.8554 	 
C 	 -85.7548 	 -32.168 	 -60.233 	 
H 	 -83.4073 	 -34.2476 	 -61.23 	 
C 	 -83.538 	 -31.2963 	 -61.2094 	 
H 	 -83.9275 	 -30.5111 	 -61.7636 	 
H 	 -82.8526 	 -31.8338 	 -61.8667 	 
C 	 -83.0335 	 -30.5558 	 -59.9392 	 
H 	 -83.8548 	 -30.1103 	 -59.4029 	 
H 	 -82.2708 	 -29.8228 	 -60.2463 	 
C 	 -82.3413 	 -31.4885 	 -58.9089 	 
H 	 -83.121 	 -32.1023 	 -58.4431 	 
H 	 -81.7256 	 -31.0295 	 -58.1483 	 
H 	 -81.693 	 -32.2331 	 -59.4143 	 
H 	 -87.7428 	 -27.5459 	 -60.205 	 
H 	 -85.1606 	 -35.6919 	 -60.3289 	 
*
