! wB97X-D3 SP def2-SVP
%pal
nprocs 24
end

* xyz 0 1
S 	 -100.92 	 13.0311 	 -122.21 	 
C 	 -99.8274 	 14.4526 	 -122.464 	 
C 	 -100.516 	 15.5741 	 -122.867 	 
C 	 -101.908 	 15.3084 	 -122.901 	 
C 	 -102.35 	 14.017 	 -122.555 	 
H 	 -102.669 	 15.9711 	 -123.355 	 
C 	 -99.8683 	 16.9622 	 -123.133 	 
H 	 -99.0961 	 17.16 	 -122.339 	 
H 	 -100.765 	 17.5434 	 -122.869 	 
C 	 -99.4382 	 17.1372 	 -124.591 	 
H 	 -99.0615 	 16.148 	 -124.902 	 
H 	 -100.332 	 17.3291 	 -125.195 	 
C 	 -98.4878 	 18.24 	 -124.939 	 
H 	 -97.9761 	 17.9715 	 -125.873 	 
H 	 -99.0188 	 19.1664 	 -125.158 	 
H 	 -97.6508 	 18.433 	 -124.262 	 
S 	 -104.85 	 14.3531 	 -123.688 	 
C 	 -106.102 	 13.3746 	 -123.092 	 
C 	 -105.657 	 12.319 	 -122.326 	 
C 	 -104.287 	 12.3888 	 -122.047 	 
C 	 -103.659 	 13.4874 	 -122.706 	 
H 	 -106.371 	 11.5283 	 -122.027 	 
C 	 -103.553 	 11.272 	 -121.181 	 
H 	 -102.927 	 11.7405 	 -120.347 	 
H 	 -102.946 	 10.667 	 -121.859 	 
C 	 -104.584 	 10.313 	 -120.608 	 
H 	 -105.218 	 9.85354 	 -121.415 	 
H 	 -105.302 	 10.8092 	 -119.91 	 
C 	 -104.037 	 9.1689 	 -119.685 	 
H 	 -103.263 	 9.55155 	 -118.953 	 
H 	 -103.488 	 8.44547 	 -120.316 	 
H 	 -104.794 	 8.6487 	 -119.082 	 
H 	 -98.7812 	 14.4971 	 -122.205 	 
H 	 -107.056 	 13.3581 	 -123.573 	 
*
