! wB97X-D3 SP def2-SVP
%pal
nprocs 24
end

* xyz 0 1
S 	 -118.817 	 33.4951 	 -115.725 	 
C 	 -117.962 	 33.1285 	 -117.187 	 
C 	 -117.739 	 34.2635 	 -117.961 	 
C 	 -118.279 	 35.4007 	 -117.277 	 
C 	 -118.674 	 35.1957 	 -115.968 	 
H 	 -118.174 	 36.429 	 -117.666 	 
C 	 -117.191 	 34.3989 	 -119.331 	 
H 	 -117.69 	 35.1539 	 -119.907 	 
H 	 -117.359 	 33.5324 	 -119.986 	 
C 	 -115.703 	 34.8098 	 -119.246 	 
H 	 -115.597 	 35.6964 	 -118.628 	 
H 	 -115.069 	 34.0458 	 -118.798 	 
C 	 -115.192 	 35.1426 	 -120.635 	 
H 	 -115.481 	 34.4383 	 -121.474 	 
H 	 -115.278 	 36.1531 	 -120.97 	 
H 	 -114.038 	 35.1472 	 -120.605 	 
S 	 -119.173 	 35.5944 	 -113.275 	 
C 	 -119.786 	 37.1259 	 -112.685 	 
C 	 -119.926 	 38.0027 	 -113.719 	 
C 	 -119.537 	 37.4508 	 -115.026 	 
C 	 -119.092 	 36.1513 	 -114.917 	 
H 	 -120.405 	 38.9089 	 -113.578 	 
C 	 -119.757 	 38.1756 	 -116.279 	 
H 	 -118.853 	 38.3027 	 -116.866 	 
H 	 -119.999 	 39.2602 	 -116.065 	 
C 	 -120.874 	 37.6507 	 -117.216 	 
H 	 -121.821 	 37.5447 	 -116.696 	 
H 	 -120.561 	 36.5905 	 -117.44 	 
C 	 -121.106 	 38.5856 	 -118.406 	 
H 	 -121.827 	 38.152 	 -119.09 	 
H 	 -120.239 	 38.7036 	 -119.049 	 
H 	 -121.438 	 39.6136 	 -118.036 	 
H 	 -117.599 	 32.1549 	 -117.582 	 
H 	 -120.2 	 37.2725 	 -111.64 	 
*
