! wB97X-D3 SP def2-SVP
%pal
nprocs 24
end

* xyz 0 1
S 	 40.4056 	 -20.2956 	 -126.749 	 
C 	 40.9195 	 -18.8579 	 -127.693 	 
C 	 41.3909 	 -17.9246 	 -126.765 	 
C 	 41.6713 	 -18.4918 	 -125.496 	 
C 	 41.2708 	 -19.7823 	 -125.307 	 
H 	 41.9055 	 -17.8642 	 -124.654 	 
C 	 41.4261 	 -16.4166 	 -126.969 	 
H 	 41.7479 	 -16.1513 	 -127.938 	 
H 	 42.3452 	 -16.0481 	 -126.551 	 
C 	 40.2193 	 -15.6432 	 -126.376 	 
H 	 40.0956 	 -15.6557 	 -125.314 	 
H 	 40.4511 	 -14.5861 	 -126.684 	 
C 	 38.9327 	 -16.1547 	 -127.039 	 
H 	 37.9936 	 -15.6028 	 -126.719 	 
H 	 38.9645 	 -16.1432 	 -128.112 	 
H 	 38.6764 	 -17.0991 	 -126.76 	 
S 	 41.3191 	 -22.4296 	 -124.393 	 
C 	 41.478 	 -22.7586 	 -122.708 	 
C 	 41.5422 	 -21.6141 	 -122 	 
C 	 41.4712 	 -20.4012 	 -122.81 	 
C 	 41.3001 	 -20.6812 	 -124.137 	 
H 	 41.6381 	 -21.5927 	 -120.893 	 
C 	 41.6864 	 -19.0779 	 -122.098 	 
H 	 42.322 	 -18.4505 	 -122.577 	 
H 	 42.0377 	 -19.3551 	 -121.132 	 
C 	 40.4476 	 -18.2098 	 -121.925 	 
H 	 39.6145 	 -18.5745 	 -121.382 	 
H 	 40.1022 	 -17.8946 	 -122.93 	 
C 	 40.8578 	 -16.8654 	 -121.323 	 
H 	 41.5511 	 -16.274 	 -121.905 	 
H 	 41.1694 	 -16.9831 	 -120.282 	 
H 	 40.0146 	 -16.1778 	 -121.291 	 
H 	 40.6343 	 -18.5856 	 -128.677 	 
H 	 41.4848 	 -23.6921 	 -122.261 	 
*
