! wB97X-D3 SP def2-SVP
%pal
nprocs 24
end

* xyz 0 1
S 	 -37.5991 	 3.36226 	 12.5809 	 
C 	 -36.3615 	 2.95016 	 13.7256 	 
C 	 -36.6133 	 1.74169 	 14.4054 	 
C 	 -37.9018 	 1.28124 	 14.0769 	 
C 	 -38.5376 	 1.95879 	 13.0588 	 
H 	 -38.442 	 0.359909 	 14.4483 	 
C 	 -35.6936 	 1.00844 	 15.4267 	 
H 	 -34.7203 	 0.991725 	 14.8613 	 
H 	 -36.1203 	 -0.0610084 	 15.5908 	 
C 	 -35.4644 	 1.79055 	 16.7161 	 
H 	 -34.6232 	 1.27651 	 17.227 	 
H 	 -35.2948 	 2.83501 	 16.4074 	 
C 	 -36.6695 	 1.61821 	 17.6538 	 
H 	 -37.5111 	 2.15237 	 17.2092 	 
H 	 -36.988 	 0.609672 	 17.895 	 
H 	 -36.4638 	 2.12038 	 18.5436 	 
S 	 -40.2145 	 1.63227 	 10.8957 	 
C 	 -41.8478 	 1.17924 	 11.1625 	 
C 	 -42.2165 	 1.38297 	 12.4531 	 
C 	 -41.1337 	 1.61407 	 13.3454 	 
C 	 -39.9334 	 1.84104 	 12.6522 	 
H 	 -43.2604 	 1.29223 	 12.6535 	 
C 	 -41.4415 	 1.92059 	 14.7312 	 
H 	 -42.348 	 2.41076 	 14.9523 	 
H 	 -40.7166 	 2.68051 	 15.1924 	 
C 	 -41.3551 	 0.736668 	 15.6461 	 
H 	 -40.4756 	 0.132042 	 15.2931 	 
H 	 -42.1358 	 0.0925286 	 15.3805 	 
C 	 -41.2384 	 0.911799 	 17.1652 	 
H 	 -40.933 	 0.0257255 	 17.6298 	 
H 	 -42.1287 	 1.2946 	 17.5671 	 
H 	 -40.4069 	 1.57466 	 17.3279 	 
H 	 -35.4559 	 3.50306 	 13.8595 	 
H 	 -42.5377 	 0.966795 	 10.3922 	 
*
