! wB97X-D3 SP def2-SVP
%pal
nprocs 24
end

* xyz 0 1
S 	 -36.3803 	 -8.24339 	 16.152 	 
C 	 -35.1204 	 -9.47448 	 16.4198 	 
C 	 -35.5904 	 -10.7051 	 16.0451 	 
C 	 -37.0018 	 -10.6051 	 15.6536 	 
C 	 -37.5799 	 -9.36677 	 15.8056 	 
H 	 -37.6216 	 -11.4386 	 15.4032 	 
C 	 -34.8175 	 -12.03 	 15.9604 	 
H 	 -35.5137 	 -12.9027 	 16.0699 	 
H 	 -34.0378 	 -12.0856 	 16.6919 	 
C 	 -34.1464 	 -12.2374 	 14.6035 	 
H 	 -34.0998 	 -13.3367 	 14.5674 	 
H 	 -34.842 	 -12.0715 	 13.7927 	 
C 	 -32.9094 	 -11.399 	 14.4533 	 
H 	 -32.3274 	 -11.4518 	 15.4097 	 
H 	 -32.2237 	 -11.6031 	 13.6162 	 
H 	 -33.1665 	 -10.3613 	 14.2993 	 
S 	 -39.9785 	 -8.98065 	 16.9199 	 
C 	 -41.3641 	 -8.49583 	 15.8948 	 
C 	 -40.9404 	 -8.4735 	 14.5949 	 
C 	 -39.5893 	 -8.84654 	 14.3273 	 
C 	 -38.9178 	 -8.98067 	 15.5149 	 
H 	 -41.666 	 -8.24475 	 13.8084 	 
C 	 -39.0477 	 -8.89058 	 12.9396 	 
H 	 -39.8616 	 -9.30625 	 12.3247 	 
H 	 -38.1074 	 -9.44158 	 12.8922 	 
C 	 -38.9063 	 -7.46777 	 12.3398 	 
H 	 -38.239 	 -6.98541 	 12.9797 	 
H 	 -39.8934 	 -6.93917 	 12.4084 	 
C 	 -38.2062 	 -7.52253 	 10.9506 	 
H 	 -38.7825 	 -8.04157 	 10.1921 	 
H 	 -37.194 	 -7.88177 	 11.0618 	 
H 	 -38.2528 	 -6.49553 	 10.5547 	 
H 	 -34.0922 	 -9.26943 	 16.6466 	 
H 	 -42.3437 	 -8.34506 	 16.2108 	 
*
