! wB97X-D3 SP def2-SVP
%pal
nprocs 24
end

* xyz 0 1
S 	 -72.1108 	 0.313624 	 -67.5471 	 
C 	 -71.9099 	 1.91725 	 -66.8707 	 
C 	 -72.9837 	 2.70243 	 -67.3735 	 
C 	 -73.7763 	 1.97018 	 -68.3203 	 
C 	 -73.5332 	 0.607056 	 -68.4232 	 
H 	 -74.4395 	 2.61748 	 -68.8881 	 
C 	 -73.2737 	 4.15586 	 -66.9 	 
H 	 -72.4194 	 4.77853 	 -67.1364 	 
H 	 -73.1976 	 3.96721 	 -65.7959 	 
C 	 -74.5893 	 4.85242 	 -67.3306 	 
H 	 -74.499 	 5.24632 	 -68.3023 	 
H 	 -75.4192 	 4.23898 	 -67.2443 	 
C 	 -74.8907 	 6.04864 	 -66.3931 	 
H 	 -75.0769 	 5.77298 	 -65.3477 	 
H 	 -74.1578 	 6.83806 	 -66.3046 	 
H 	 -75.8013 	 6.47035 	 -66.6866 	 
S 	 -73.3448 	 -1.81273 	 -69.6516 	 
C 	 -74.8909 	 -2.62183 	 -70.1324 	 
C 	 -75.964 	 -1.80706 	 -69.9027 	 
C 	 -75.681 	 -0.622488 	 -69.1573 	 
C 	 -74.3017 	 -0.466849 	 -69.0053 	 
H 	 -76.9909 	 -2.112 	 -70.1378 	 
C 	 -76.7166 	 0.253089 	 -68.6245 	 
H 	 -77.5696 	 0.375778 	 -69.3186 	 
H 	 -76.4584 	 1.27974 	 -68.547 	 
C 	 -77.2495 	 -0.253053 	 -67.2289 	 
H 	 -76.5263 	 -0.871885 	 -66.704 	 
H 	 -77.8902 	 -1.158 	 -67.3916 	 
C 	 -77.8909 	 0.764178 	 -66.3497 	 
H 	 -78.4001 	 0.247927 	 -65.5918 	 
H 	 -78.5779 	 1.34932 	 -66.9645 	 
H 	 -77.1676 	 1.47691 	 -65.858 	 
H 	 -71.0203 	 2.18494 	 -66.3279 	 
H 	 -74.9081 	 -3.50986 	 -70.7019 	 
*
