! wB97X-D3 SP def2-SVP
%pal
nprocs 24
end

* xyz 0 1
S 	 -121.258 	 64.0544 	 -61.2469 	 
C 	 -122.716 	 64.0616 	 -62.2397 	 
C 	 -123.486 	 62.9638 	 -62.1024 	 
C 	 -123.138 	 62.3037 	 -60.8768 	 
C 	 -121.937 	 62.7653 	 -60.3631 	 
H 	 -123.61 	 61.4288 	 -60.4649 	 
C 	 -124.754 	 62.6821 	 -63.0037 	 
H 	 -124.405 	 62.6737 	 -64.0248 	 
H 	 -125.495 	 63.5094 	 -62.8431 	 
C 	 -125.506 	 61.3018 	 -62.8619 	 
H 	 -124.897 	 60.4968 	 -63.0622 	 
H 	 -125.906 	 61.1579 	 -61.9158 	 
C 	 -126.724 	 61.3184 	 -63.8956 	 
H 	 -126.359 	 61.2705 	 -64.9438 	 
H 	 -127.421 	 60.4819 	 -63.7472 	 
H 	 -127.338 	 62.2198 	 -63.694 	 
S 	 -121 	 63.6319 	 -57.957 	 
C 	 -120.619 	 62.3631 	 -56.7165 	 
C 	 -120.882 	 61.0999 	 -57.1998 	 
C 	 -121.131 	 61.0563 	 -58.6089 	 
C 	 -121.353 	 62.3422 	 -59.0923 	 
H 	 -120.802 	 60.3282 	 -56.4425 	 
C 	 -121.142 	 59.6929 	 -59.3477 	 
H 	 -122.136 	 59.5964 	 -59.7847 	 
H 	 -121.037 	 58.8814 	 -58.6532 	 
C 	 -120.111 	 59.4651 	 -60.5718 	 
H 	 -120.328 	 60.129 	 -61.3673 	 
H 	 -120.077 	 58.4133 	 -60.9008 	 
C 	 -118.683 	 59.7452 	 -60.2433 	 
H 	 -118.456 	 60.846 	 -60.1241 	 
H 	 -117.985 	 59.4169 	 -61.0811 	 
H 	 -118.438 	 59.3465 	 -59.2616 	 
H 	 -122.929 	 64.8078 	 -62.9864 	 
H 	 -120.235 	 62.5166 	 -55.7153 	 
*
