! wB97X-D3 SP def2-SVP
%pal
nprocs 24
end

* xyz 0 1
S 	 -134.7 	 7.95942 	 -7.8914 	 
C 	 -133.567 	 8.29803 	 -6.5984 	 
C 	 -132.716 	 9.36523 	 -7.03695 	 
C 	 -132.871 	 9.7332 	 -8.4261 	 
C 	 -133.863 	 9.00748 	 -9.02391 	 
H 	 -132.267 	 10.4947 	 -8.94244 	 
C 	 -131.742 	 10.1199 	 -6.09723 	 
H 	 -132.179 	 9.94196 	 -5.10887 	 
H 	 -131.9 	 11.2364 	 -6.29635 	 
C 	 -130.243 	 9.6686 	 -6.24984 	 
H 	 -129.67 	 10.1502 	 -5.47613 	 
H 	 -130.148 	 8.56101 	 -6.2655 	 
C 	 -129.818 	 10.0434 	 -7.73956 	 
H 	 -130.285 	 10.81 	 -8.28016 	 
H 	 -128.734 	 10.1465 	 -7.6653 	 
H 	 -129.963 	 9.18304 	 -8.36869 	 
S 	 -135.988 	 9.77139 	 -10.5615 	 
C 	 -135.834 	 9.82661 	 -12.3439 	 
C 	 -134.535 	 9.4868 	 -12.6693 	 
C 	 -133.695 	 9.13801 	 -11.5784 	 
C 	 -134.35 	 9.11238 	 -10.3861 	 
H 	 -134.265 	 9.60197 	 -13.7 	 
C 	 -132.232 	 8.8076 	 -11.8574 	 
H 	 -132.241 	 8.0823 	 -12.6521 	 
H 	 -131.786 	 8.19377 	 -11.0741 	 
C 	 -131.241 	 9.88345 	 -12.1511 	 
H 	 -130.996 	 10.484 	 -11.2921 	 
H 	 -131.582 	 10.5244 	 -12.9817 	 
C 	 -129.921 	 9.41723 	 -12.8249 	 
H 	 -129.606 	 8.67773 	 -12.1064 	 
H 	 -129.275 	 10.3114 	 -12.878 	 
H 	 -129.97 	 8.93632 	 -13.7744 	 
H 	 -133.683 	 7.86801 	 -5.69008 	 
H 	 -136.547 	 10.0075 	 -13.1025 	 
*
