! wB97X-D3 SP def2-SVP
%pal
nprocs 24
end

* xyz 0 1
S 	 -146.764 	 10.469 	 -9.67732 	 
C 	 -145.464 	 9.341 	 -9.61935 	 
C 	 -145.145 	 8.97335 	 -8.28837 	 
C 	 -146.109 	 9.54592 	 -7.33234 	 
C 	 -146.961 	 10.4041 	 -7.92421 	 
H 	 -146.095 	 9.33572 	 -6.27832 	 
C 	 -144.08 	 8.02595 	 -7.9191 	 
H 	 -143.955 	 7.20206 	 -8.57221 	 
H 	 -144.331 	 7.42221 	 -7.00798 	 
C 	 -142.688 	 8.70647 	 -7.95604 	 
H 	 -142.487 	 9.2013 	 -8.90156 	 
H 	 -142.749 	 9.5414 	 -7.21414 	 
C 	 -141.586 	 7.72907 	 -7.65654 	 
H 	 -140.626 	 8.11991 	 -8.04762 	 
H 	 -141.553 	 7.55717 	 -6.54414 	 
H 	 -141.718 	 6.75833 	 -8.19339 	 
S 	 -149.552 	 10.3437 	 -7.22797 	 
C 	 -150.264 	 11.6786 	 -6.35623 	 
C 	 -149.342 	 12.6701 	 -6.13029 	 
C 	 -148.042 	 12.3984 	 -6.6693 	 
C 	 -148.008 	 11.1321 	 -7.19399 	 
H 	 -149.744 	 13.5173 	 -5.64052 	 
C 	 -146.968 	 13.4727 	 -6.66701 	 
H 	 -147.667 	 14.3223 	 -6.59011 	 
H 	 -146.479 	 13.3028 	 -7.62698 	 
C 	 -145.968 	 13.4512 	 -5.55267 	 
H 	 -145.472 	 12.4202 	 -5.50723 	 
H 	 -146.452 	 13.6024 	 -4.56627 	 
C 	 -144.94 	 14.5188 	 -5.70397 	 
H 	 -145.455 	 15.518 	 -5.77652 	 
H 	 -144.287 	 14.3391 	 -6.57205 	 
H 	 -144.164 	 14.5032 	 -4.91244 	 
H 	 -144.842 	 9.13155 	 -10.4469 	 
H 	 -151.311 	 11.8735 	 -6.21828 	 
*
