! wB97X-D3 SP def2-SVP
%pal
nprocs 24
end

* xyz 0 1
S 	 -86.8394 	 -30.9561 	 -60.6771 	 
C 	 -88.1582 	 -29.9597 	 -61.2491 	 
C 	 -89.2558 	 -30.0508 	 -60.3852 	 
C 	 -89.023 	 -31.0896 	 -59.4505 	 
C 	 -87.7907 	 -31.7118 	 -59.4755 	 
H 	 -89.7812 	 -31.3953 	 -58.658 	 
C 	 -90.5446 	 -29.2563 	 -60.6557 	 
H 	 -90.3404 	 -28.3675 	 -61.3721 	 
H 	 -90.8136 	 -28.9594 	 -59.6233 	 
C 	 -91.5033 	 -30.2599 	 -61.2778 	 
H 	 -91.3851 	 -30.3142 	 -62.3476 	 
H 	 -91.3547 	 -31.3357 	 -60.9051 	 
C 	 -93.0448 	 -29.8327 	 -61.0293 	 
H 	 -93.582 	 -30.5806 	 -61.603 	 
H 	 -93.2719 	 -29.9594 	 -59.9594 	 
H 	 -93.3394 	 -28.8378 	 -61.3109 	 
S 	 -88.3587 	 -34.2204 	 -58.5341 	 
C 	 -87.3176 	 -34.9372 	 -57.3147 	 
C 	 -86.2517 	 -34.0583 	 -57.0416 	 
C 	 -86.3409 	 -32.798 	 -57.5996 	 
C 	 -87.3607 	 -32.7795 	 -58.5707 	 
H 	 -85.5294 	 -34.362 	 -56.314 	 
C 	 -85.2602 	 -31.7849 	 -57.2433 	 
H 	 -85.4553 	 -30.9037 	 -57.8562 	 
H 	 -84.2731 	 -32.1494 	 -57.5721 	 
C 	 -85.2293 	 -31.2014 	 -55.791 	 
H 	 -84.5356 	 -30.3738 	 -55.6948 	 
H 	 -84.8982 	 -31.9483 	 -55.1205 	 
C 	 -86.6754 	 -30.7304 	 -55.4879 	 
H 	 -87.0528 	 -30.0481 	 -56.3032 	 
H 	 -86.6549 	 -30.067 	 -54.612 	 
H 	 -87.2595 	 -31.6203 	 -55.2998 	 
H 	 -88.1598 	 -29.1118 	 -61.9793 	 
H 	 -87.3763 	 -35.9913 	 -56.9439 	 
*
