! wB97X-D3 SP def2-SVP
%pal
nprocs 24
end

* xyz 0 1
S 	 -65.4496 	 16.1774 	 -107.31 	 
C 	 -66.1616 	 15.7443 	 -105.737 	 
C 	 -65.3122 	 14.8542 	 -105.163 	 
C 	 -64.1448 	 14.5247 	 -105.96 	 
C 	 -64.0891 	 15.095 	 -107.213 	 
H 	 -63.3047 	 13.9063 	 -105.682 	 
C 	 -65.5183 	 14.2027 	 -103.727 	 
H 	 -66.5422 	 13.9491 	 -103.619 	 
H 	 -65.3767 	 14.9201 	 -102.907 	 
C 	 -64.6472 	 13.0454 	 -103.442 	 
H 	 -64.7349 	 12.2294 	 -104.151 	 
H 	 -63.5506 	 13.3396 	 -103.484 	 
C 	 -64.8591 	 12.5331 	 -102.078 	 
H 	 -64.1929 	 11.7679 	 -101.78 	 
H 	 -64.7543 	 13.3026 	 -101.342 	 
H 	 -65.8844 	 12.0574 	 -102.011 	 
S 	 -62.6297 	 16.6913 	 -108.905 	 
C 	 -61.3154 	 15.9572 	 -109.812 	 
C 	 -61.0774 	 14.6404 	 -109.488 	 
C 	 -62.1148 	 14.1905 	 -108.608 	 
C 	 -62.9795 	 15.1684 	 -108.167 	 
H 	 -60.2121 	 14.124 	 -109.932 	 
C 	 -62.0461 	 12.798 	 -108.083 	 
H 	 -62.1324 	 12.211 	 -108.982 	 
H 	 -62.9256 	 12.6108 	 -107.379 	 
C 	 -60.6834 	 12.4171 	 -107.448 	 
H 	 -59.9188 	 12.4351 	 -108.215 	 
H 	 -60.7245 	 11.3662 	 -107.194 	 
C 	 -60.2778 	 13.1391 	 -106.119 	 
H 	 -60.9458 	 12.8467 	 -105.252 	 
H 	 -60.4187 	 14.22 	 -106.294 	 
H 	 -59.2251 	 12.9415 	 -105.918 	 
H 	 -67.1037 	 16.0776 	 -105.36 	 
H 	 -60.8257 	 16.4475 	 -110.655 	 
*
