! wB97X-D3 SP def2-SVP
%pal
nprocs 24
end

* xyz 0 1
S 	 -36.9838 	 4.43738 	 7.12441 	 
C 	 -36.9859 	 6.0013 	 7.86423 	 
C 	 -37.6423 	 6.98237 	 7.14174 	 
C 	 -38.0443 	 6.43651 	 5.89399 	 
C 	 -37.6003 	 5.18325 	 5.63809 	 
H 	 -38.6729 	 7.02038 	 5.25725 	 
C 	 -37.9097 	 8.41983 	 7.55112 	 
H 	 -37.6869 	 8.52037 	 8.5861 	 
H 	 -39.024 	 8.55549 	 7.39375 	 
C 	 -36.9439 	 9.44518 	 6.8625 	 
H 	 -36.9916 	 9.4842 	 5.82307 	 
H 	 -36.9887 	 10.4689 	 7.10929 	 
C 	 -35.4607 	 9.15861 	 7.10198 	 
H 	 -35.1162 	 8.19285 	 6.62202 	 
H 	 -34.8708 	 10.0031 	 6.6555 	 
H 	 -35.2318 	 9.10776 	 8.15105 	 
S 	 -38.9032 	 2.95589 	 4.79172 	 
C 	 -39.1941 	 2.67606 	 2.99572 	 
C 	 -38.6784 	 3.72468 	 2.29704 	 
C 	 -38.0292 	 4.74352 	 3.08623 	 
C 	 -38.0234 	 4.46934 	 4.4196 	 
H 	 -38.9244 	 3.70821 	 1.28713 	 
C 	 -37.3393 	 5.92785 	 2.46198 	 
H 	 -36.8486 	 6.5136 	 3.27994 	 
H 	 -38.1054 	 6.6215 	 2.13814 	 
C 	 -36.4226 	 5.53343 	 1.25925 	 
H 	 -36.4509 	 6.3971 	 0.558399 	 
H 	 -36.7112 	 4.63593 	 0.733629 	 
C 	 -34.9734 	 5.3853 	 1.79363 	 
H 	 -34.8967 	 4.68567 	 2.62522 	 
H 	 -34.6391 	 6.35739 	 2.23161 	 
H 	 -34.3372 	 5.13254 	 0.936513 	 
H 	 -36.6254 	 6.17141 	 8.88621 	 
H 	 -39.8624 	 1.98118 	 2.51943 	 
*
