! wB97X-D3 SP def2-SVP
%pal
nprocs 24
end

* xyz 0 1
S 	 -41.0451 	 13.0718 	 -10.2509 	 
C 	 -40.6817 	 11.6083 	 -11.1687 	 
C 	 -40.2578 	 10.5933 	 -10.3473 	 
C 	 -40.3779 	 10.9559 	 -8.95366 	 
C 	 -40.6962 	 12.3045 	 -8.75345 	 
H 	 -40.2182 	 10.4181 	 -8.08584 	 
C 	 -40.0074 	 9.20458 	 -10.8802 	 
H 	 -38.9656 	 9.18429 	 -11.1191 	 
H 	 -40.5585 	 9.02789 	 -11.8378 	 
C 	 -40.2547 	 7.94621 	 -9.9797 	 
H 	 -39.6143 	 7.87286 	 -9.11787 	 
H 	 -41.2425 	 7.87242 	 -9.50475 	 
C 	 -39.9162 	 6.60151 	 -10.7561 	 
H 	 -38.7867 	 6.52388 	 -10.7868 	 
H 	 -40.1697 	 5.75906 	 -10.1313 	 
H 	 -40.4137 	 6.47375 	 -11.7185 	 
S 	 -42.3954 	 13.5257 	 -7.00433 	 
C 	 -41.9515 	 13.6416 	 -5.35449 	 
C 	 -40.6107 	 13.4245 	 -5.18786 	 
C 	 -39.9178 	 13.0015 	 -6.39927 	 
C 	 -40.8016 	 12.8898 	 -7.46222 	 
H 	 -40.1773 	 13.5741 	 -4.24169 	 
C 	 -38.4734 	 12.5487 	 -6.42331 	 
H 	 -38.3264 	 11.6013 	 -6.90003 	 
H 	 -38.2549 	 12.4018 	 -5.37995 	 
C 	 -37.4754 	 13.5504 	 -6.94631 	 
H 	 -37.7314 	 14.517 	 -6.50406 	 
H 	 -37.4412 	 13.6562 	 -8.02291 	 
C 	 -36.0814 	 13.2672 	 -6.42427 	 
H 	 -35.8801 	 12.2773 	 -6.88452 	 
H 	 -36.0862 	 13.1692 	 -5.35515 	 
H 	 -35.222 	 13.9835 	 -6.72592 	 
H 	 -40.7957 	 11.5678 	 -12.2685 	 
H 	 -42.5358 	 14.0881 	 -4.56124 	 
*
