! wB97X-D3 SP def2-SVP
%pal
nprocs 24
end

* xyz 0 1
S 	 -47.4005 	 7.37119 	 26.8839 	 
C 	 -46.4549 	 8.272 	 25.7643 	 
C 	 -47.1845 	 9.12244 	 25.0023 	 
C 	 -48.6067 	 8.90002 	 25.1361 	 
C 	 -48.888 	 8.16659 	 26.3049 	 
H 	 -49.4254 	 9.49916 	 24.6588 	 
C 	 -46.6864 	 10.1551 	 24.0014 	 
H 	 -45.5978 	 10.3765 	 24.2359 	 
H 	 -47.2485 	 11.0813 	 24.1599 	 
C 	 -46.6662 	 9.71668 	 22.5682 	 
H 	 -47.7384 	 9.61152 	 22.4176 	 
H 	 -46.2835 	 10.4657 	 21.808 	 
C 	 -46.0354 	 8.3843 	 22.255 	 
H 	 -45.0476 	 8.52971 	 21.795 	 
H 	 -45.8666 	 7.69967 	 23.1605 	 
H 	 -46.5664 	 7.8858 	 21.5132 	 
S 	 -50.6035 	 6.05694 	 26.4357 	 
C 	 -52.1581 	 6.2251 	 27.2211 	 
C 	 -52.3327 	 7.57775 	 27.5172 	 
C 	 -51.1962 	 8.45596 	 27.3914 	 
C 	 -50.2074 	 7.73347 	 26.7861 	 
H 	 -53.3108 	 7.90481 	 27.7997 	 
C 	 -51.2332 	 9.89133 	 27.7811 	 
H 	 -52.231 	 10.2964 	 27.6249 	 
H 	 -50.6934 	 10.3897 	 26.9221 	 
C 	 -50.6481 	 10.2717 	 29.1115 	 
H 	 -50.7402 	 11.3669 	 29.2231 	 
H 	 -49.5317 	 10.0418 	 29.0621 	 
C 	 -51.3669 	 9.46834 	 30.2542 	 
H 	 -50.7435 	 9.43882 	 31.1336 	 
H 	 -51.6496 	 8.53085 	 29.9162 	 
H 	 -52.2554 	 10.1332 	 30.4185 	 
H 	 -45.3886 	 8.13088 	 25.6794 	 
H 	 -52.8297 	 5.31876 	 27.2599 	 
*
