! wB97X-D3 SP def2-SVP
%pal
nprocs 24
end

* xyz 0 1
S 	 -69.893 	 7.02608 	 -113.428 	 
C 	 -71.0671 	 7.72448 	 -112.391 	 
C 	 -70.4855 	 8.43825 	 -111.358 	 
C 	 -69.1366 	 8.7455 	 -111.642 	 
C 	 -68.6657 	 8.1135 	 -112.789 	 
H 	 -68.4764 	 9.39447 	 -111.084 	 
C 	 -71.2231 	 8.98305 	 -110.095 	 
H 	 -72.1338 	 8.39597 	 -110.025 	 
H 	 -71.4906 	 9.9892 	 -110.334 	 
C 	 -70.4801 	 8.65246 	 -108.817 	 
H 	 -70.1456 	 7.62145 	 -108.759 	 
H 	 -69.4556 	 9.0945 	 -108.838 	 
C 	 -71.1444 	 9.10277 	 -107.498 	 
H 	 -70.5243 	 8.72139 	 -106.672 	 
H 	 -71.1219 	 10.2036 	 -107.437 	 
H 	 -72.1736 	 8.80158 	 -107.18 	 
S 	 -67.0654 	 7.76501 	 -114.929 	 
C 	 -65.3701 	 7.23479 	 -114.798 	 
C 	 -64.987 	 7.41426 	 -113.47 	 
C 	 -65.9898 	 7.91483 	 -112.595 	 
C 	 -67.2416 	 8.00965 	 -113.216 	 
H 	 -63.9885 	 7.22769 	 -113.154 	 
C 	 -65.804 	 7.85051 	 -111.156 	 
H 	 -65.9656 	 6.78478 	 -110.851 	 
H 	 -66.6408 	 8.46395 	 -110.763 	 
C 	 -64.5115 	 8.38045 	 -110.54 	 
H 	 -63.5932 	 7.8436 	 -110.855 	 
H 	 -64.6316 	 8.25885 	 -109.496 	 
C 	 -64.2755 	 9.82918 	 -110.825 	 
H 	 -65.1563 	 10.3814 	 -110.391 	 
H 	 -64.1253 	 10.0306 	 -111.85 	 
H 	 -63.5352 	 10.1398 	 -110.199 	 
H 	 -72.1393 	 7.52827 	 -112.488 	 
H 	 -64.8078 	 6.99018 	 -115.682 	 
*
