! wB97X-D3 SP def2-SVP
%pal
nprocs 24
end

* xyz 0 1
S 	 -33.1351 	 -46.8099 	 -75.0958 	 
C 	 -34.511 	 -45.6635 	 -74.9848 	 
C 	 -34.8092 	 -45.2113 	 -73.7582 	 
C 	 -34.0288 	 -45.8319 	 -72.7313 	 
C 	 -33.0658 	 -46.658 	 -73.2786 	 
H 	 -34.0299 	 -45.6346 	 -71.704 	 
C 	 -35.8552 	 -44.2176 	 -73.4047 	 
H 	 -36.4476 	 -44.0411 	 -74.3247 	 
H 	 -35.4239 	 -43.2648 	 -73.0713 	 
C 	 -36.8734 	 -44.6491 	 -72.3235 	 
H 	 -36.2932 	 -45.0367 	 -71.4466 	 
H 	 -37.2852 	 -43.6324 	 -72.0337 	 
C 	 -37.9547 	 -45.5986 	 -72.7628 	 
H 	 -38.5481 	 -45.8583 	 -71.8846 	 
H 	 -38.6234 	 -45.3185 	 -73.5832 	 
H 	 -37.5484 	 -46.6603 	 -72.9425 	 
S 	 -30.4781 	 -47.6926 	 -72.8406 	 
C 	 -30.1932 	 -48.8489 	 -71.5539 	 
C 	 -31.3448 	 -49.0723 	 -70.8926 	 
C 	 -32.5549 	 -48.4482 	 -71.4869 	 
C 	 -32.2301 	 -47.6087 	 -72.5748 	 
H 	 -31.3531 	 -49.6356 	 -70.049 	 
C 	 -33.8545 	 -48.5587 	 -70.7248 	 
H 	 -33.9497 	 -49.618 	 -70.603 	 
H 	 -34.5978 	 -48.1725 	 -71.4144 	 
C 	 -34.005 	 -47.6704 	 -69.4607 	 
H 	 -33.8409 	 -46.5937 	 -69.6556 	 
H 	 -33.3623 	 -47.9852 	 -68.6863 	 
C 	 -35.3557 	 -47.8607 	 -68.7132 	 
H 	 -35.3049 	 -47.3201 	 -67.7387 	 
H 	 -35.6729 	 -48.8751 	 -68.5753 	 
H 	 -36.1636 	 -47.4855 	 -69.251 	 
H 	 -35.125 	 -45.3626 	 -75.7914 	 
H 	 -29.1911 	 -49.2458 	 -71.4271 	 
*
