! wB97X-D3 SP def2-SVP
%pal
nprocs 24
end

* xyz 0 1
S 	 -86.6681 	 2.16188 	 -111.746 	 
C 	 -87.1693 	 3.40384 	 -110.627 	 
C 	 -87.4229 	 4.61763 	 -111.211 	 
C 	 -87.2881 	 4.55369 	 -112.618 	 
C 	 -86.8524 	 3.31075 	 -113.093 	 
H 	 -87.3936 	 5.28073 	 -113.38 	 
C 	 -87.8227 	 5.88721 	 -110.489 	 
H 	 -87.7345 	 6.70708 	 -111.238 	 
H 	 -87.0407 	 6.27268 	 -109.858 	 
C 	 -89.0082 	 5.8781 	 -109.549 	 
H 	 -89.3366 	 6.94178 	 -109.481 	 
H 	 -89.8834 	 5.38079 	 -109.954 	 
C 	 -88.8613 	 5.27155 	 -108.117 	 
H 	 -87.9879 	 5.55931 	 -107.592 	 
H 	 -89.7088 	 5.50092 	 -107.467 	 
H 	 -88.739 	 4.21005 	 -108.187 	 
S 	 -88.1193 	 2.66491 	 -115.496 	 
C 	 -87.242 	 2.49081 	 -116.961 	 
C 	 -85.9602 	 2.86033 	 -116.778 	 
C 	 -85.6003 	 3.09935 	 -115.391 	 
C 	 -86.6794 	 2.99611 	 -114.541 	 
H 	 -85.3109 	 2.84728 	 -117.658 	 
C 	 -84.1724 	 3.49687 	 -114.992 	 
H 	 -83.432 	 2.8825 	 -115.564 	 
H 	 -83.9461 	 3.18403 	 -113.946 	 
C 	 -83.8693 	 5.06778 	 -115.144 	 
H 	 -83.1875 	 5.33102 	 -114.396 	 
H 	 -84.7765 	 5.56181 	 -114.829 	 
C 	 -83.5647 	 5.69667 	 -116.517 	 
H 	 -82.5831 	 5.35811 	 -116.894 	 
H 	 -83.4935 	 6.82363 	 -116.445 	 
H 	 -84.2358 	 5.54237 	 -117.347 	 
H 	 -87.1936 	 3.33136 	 -109.583 	 
H 	 -87.6846 	 2.219 	 -117.909 	 
*
