! wB97X-D3 SP def2-SVP
%pal
nprocs 24
end

* xyz 0 1
S 	 -109.477 	 62.1473 	 -5.91948 	 
C 	 -108.426 	 63.4175 	 -6.42805 	 
C 	 -109.083 	 64.6514 	 -6.42351 	 
C 	 -110.479 	 64.488 	 -6.06111 	 
C 	 -110.851 	 63.1584 	 -5.8282 	 
H 	 -111.165 	 65.3566 	 -6.10844 	 
C 	 -108.601 	 65.9526 	 -7.00936 	 
H 	 -109.396 	 66.6814 	 -7.07748 	 
H 	 -108.245 	 65.8175 	 -8.01175 	 
C 	 -107.566 	 66.6397 	 -6.09403 	 
H 	 -107.951 	 66.6597 	 -5.07311 	 
H 	 -106.725 	 65.9405 	 -6.15615 	 
C 	 -107.164 	 68.0107 	 -6.6928 	 
H 	 -106.873 	 67.937 	 -7.7915 	 
H 	 -107.913 	 68.7821 	 -6.49536 	 
H 	 -106.245 	 68.2763 	 -6.11457 	 
S 	 -112.721 	 61.5381 	 -6.88902 	 
C 	 -114.287 	 61.3077 	 -6.13496 	 
C 	 -114.457 	 62.2889 	 -5.17871 	 
C 	 -113.317 	 63.092 	 -4.96539 	 
C 	 -112.241 	 62.6116 	 -5.67892 	 
H 	 -115.438 	 62.3262 	 -4.69108 	 
C 	 -113.287 	 64.2311 	 -3.95895 	 
H 	 -114.234 	 64.7468 	 -4.05772 	 
H 	 -112.461 	 64.9483 	 -4.12744 	 
C 	 -113.175 	 63.7462 	 -2.51784 	 
H 	 -114.083 	 63.1509 	 -2.32226 	 
H 	 -113.197 	 64.6345 	 -1.88318 	 
C 	 -111.877 	 62.8043 	 -2.30437 	 
H 	 -110.962 	 63.3814 	 -2.37704 	 
H 	 -111.807 	 62.1003 	 -3.11667 	 
H 	 -111.807 	 62.3684 	 -1.27882 	 
H 	 -107.428 	 63.1965 	 -6.64202 	 
H 	 -114.984 	 60.548 	 -6.27882 	 
*
