! wB97X-D3 SP def2-SVP
%pal
nprocs 24
end

* xyz 0 1
S 	 -39.3454 	 -11.1788 	 5.14119 	 
C 	 -38.7359 	 -11.7874 	 6.63492 	 
C 	 -37.9283 	 -10.8143 	 7.22994 	 
C 	 -38.1013 	 -9.56327 	 6.608 	 
C 	 -38.6566 	 -9.6262 	 5.36221 	 
H 	 -37.672 	 -8.67296 	 6.94622 	 
C 	 -37.2407 	 -11.0154 	 8.54302 	 
H 	 -37.427 	 -12.1024 	 8.72428 	 
H 	 -37.6749 	 -10.5154 	 9.41655 	 
C 	 -35.777 	 -10.5692 	 8.50093 	 
H 	 -35.7969 	 -9.42146 	 8.56627 	 
H 	 -35.2489 	 -10.9017 	 9.43465 	 
C 	 -34.8483 	 -10.9539 	 7.28921 	 
H 	 -33.8401 	 -10.902 	 7.67987 	 
H 	 -34.873 	 -11.9738 	 6.90298 	 
H 	 -34.8761 	 -10.1835 	 6.47373 	 
S 	 -38.2842 	 -8.95845 	 2.69997 	 
C 	 -38.6706 	 -7.30634 	 2.1699 	 
C 	 -39.0319 	 -6.51874 	 3.20902 	 
C 	 -38.9527 	 -7.20875 	 4.46109 	 
C 	 -38.7743 	 -8.57336 	 4.35839 	 
H 	 -39.1502 	 -5.47786 	 3.0162 	 
C 	 -38.9159 	 -6.3368 	 5.70456 	 
H 	 -39.2752 	 -6.98304 	 6.54414 	 
H 	 -39.7461 	 -5.61932 	 5.6037 	 
C 	 -37.537 	 -5.80158 	 5.91096 	 
H 	 -37.3998 	 -5.05079 	 5.07295 	 
H 	 -36.8723 	 -6.63958 	 5.61607 	 
C 	 -37.4355 	 -5.19671 	 7.34856 	 
H 	 -36.494 	 -4.52086 	 7.43483 	 
H 	 -37.3448 	 -5.9692 	 8.10187 	 
H 	 -38.319 	 -4.59515 	 7.51757 	 
H 	 -38.8167 	 -12.753 	 6.96337 	 
H 	 -38.3605 	 -6.78539 	 1.22986 	 
*
