! wB97X-D3 SP def2-SVP
%pal
nprocs 24
end

* xyz 0 1
S 	 -102.784 	 2.76025 	 -108.32 	 
C 	 -103.196 	 4.41439 	 -108.531 	 
C 	 -103.53 	 4.97428 	 -107.306 	 
C 	 -103.517 	 4.01054 	 -106.202 	 
C 	 -102.925 	 2.8091 	 -106.6 	 
H 	 -103.725 	 4.17814 	 -105.144 	 
C 	 -104.018 	 6.38697 	 -106.998 	 
H 	 -103.107 	 6.89275 	 -106.597 	 
H 	 -104.777 	 6.48628 	 -106.17 	 
C 	 -104.503 	 7.13527 	 -108.259 	 
H 	 -103.724 	 7.18545 	 -109.041 	 
H 	 -105.296 	 6.49595 	 -108.647 	 
C 	 -104.923 	 8.53066 	 -107.944 	 
H 	 -104.928 	 9.11218 	 -108.876 	 
H 	 -105.965 	 8.59028 	 -107.515 	 
H 	 -104.286 	 9.08533 	 -107.216 	 
S 	 -101.116 	 1.12647 	 -105.392 	 
C 	 -101.714 	 -0.320169 	 -104.607 	 
C 	 -103.059 	 -0.232741 	 -104.451 	 
C 	 -103.667 	 0.802187 	 -105.158 	 
C 	 -102.761 	 1.62908 	 -105.751 	 
H 	 -103.618 	 -1.03554 	 -104.056 	 
C 	 -105.172 	 0.959319 	 -105.368 	 
H 	 -105.48 	 0.613787 	 -106.406 	 
H 	 -105.52 	 1.97905 	 -105.257 	 
C 	 -106.19 	 0.151928 	 -104.485 	 
H 	 -105.844 	 0.286348 	 -103.47 	 
H 	 -106.077 	 -0.908836 	 -104.78 	 
C 	 -107.643 	 0.630664 	 -104.747 	 
H 	 -107.79 	 1.62019 	 -104.274 	 
H 	 -108.34 	 0.00982537 	 -104.137 	 
H 	 -107.994 	 0.809356 	 -105.822 	 
H 	 -103.311 	 4.78062 	 -109.555 	 
H 	 -101.134 	 -1.06302 	 -104.063 	 
*
