! wB97X-D3 SP def2-SVP
%pal
nprocs 24
end

* xyz 0 1
S 	 -61.8595 	 9.45655 	 23.2687 	 
C 	 -60.203 	 9.40861 	 22.6494 	 
C 	 -59.8677 	 8.11439 	 22.2623 	 
C 	 -60.9543 	 7.21284 	 22.2648 	 
C 	 -62.1403 	 7.74328 	 22.802 	 
H 	 -60.8001 	 6.2331 	 21.8644 	 
C 	 -58.5392 	 7.68578 	 21.6727 	 
H 	 -57.7781 	 8.32518 	 21.9738 	 
H 	 -58.5333 	 7.99078 	 20.6605 	 
C 	 -58.0189 	 6.25572 	 22.1038 	 
H 	 -57.6567 	 6.23639 	 23.1076 	 
H 	 -58.7867 	 5.49452 	 21.8737 	 
C 	 -56.732 	 5.81478 	 21.3286 	 
H 	 -56.8634 	 5.69218 	 20.2364 	 
H 	 -55.9946 	 6.61679 	 21.3637 	 
H 	 -56.2044 	 4.96357 	 21.757 	 
S 	 -64.4784 	 7.85579 	 24.1448 	 
C 	 -65.1942 	 6.4218 	 24.7437 	 
C 	 -64.6076 	 5.29265 	 24.2151 	 
C 	 -63.4502 	 5.59529 	 23.4133 	 
C 	 -63.2102 	 6.95507 	 23.3665 	 
H 	 -65.052 	 4.35594 	 24.4698 	 
C 	 -62.767 	 4.50019 	 22.5218 	 
H 	 -62.4536 	 4.87709 	 21.5431 	 
H 	 -63.569 	 3.89382 	 22.1412 	 
C 	 -61.8267 	 3.54317 	 23.1621 	 
H 	 -62.3421 	 2.76754 	 23.5908 	 
H 	 -61.213 	 4.07353 	 23.9352 	 
C 	 -60.9447 	 2.79355 	 22.1339 	 
H 	 -60.4557 	 2.02394 	 22.6824 	 
H 	 -60.3204 	 3.47711 	 21.5521 	 
H 	 -61.4209 	 2.12401 	 21.4288 	 
H 	 -59.5259 	 10.2759 	 22.5805 	 
H 	 -65.9893 	 6.2988 	 25.3374 	 
*
