! wB97X-D3 SP def2-SVP
%pal
nprocs 24
end

* xyz 0 1
S 	 -112.132 	 55.4633 	 -100.856 	 
C 	 -113.846 	 55.2513 	 -101.216 	 
C 	 -114.557 	 56.3103 	 -100.777 	 
C 	 -113.666 	 57.3489 	 -100.301 	 
C 	 -112.356 	 57.0736 	 -100.433 	 
H 	 -114.091 	 58.2426 	 -99.886 	 
C 	 -116.033 	 56.1562 	 -100.415 	 
H 	 -116.146 	 56.5172 	 -99.3749 	 
H 	 -116.236 	 55.0338 	 -100.324 	 
C 	 -116.972 	 56.9155 	 -101.276 	 
H 	 -116.829 	 56.6168 	 -102.334 	 
H 	 -118.031 	 56.5703 	 -101.071 	 
C 	 -116.846 	 58.4236 	 -101.241 	 
H 	 -115.867 	 58.793 	 -101.576 	 
H 	 -117.583 	 58.8883 	 -101.952 	 
H 	 -116.959 	 58.7916 	 -100.244 	 
S 	 -110.012 	 57.227 	 -99.0082 	 
C 	 -109.249 	 58.7712 	 -98.8529 	 
C 	 -109.842 	 59.7548 	 -99.6039 	 
C 	 -110.994 	 59.2521 	 -100.348 	 
C 	 -111.237 	 57.932 	 -100.054 	 
H 	 -109.494 	 60.7961 	 -99.7134 	 
C 	 -111.866 	 60.2025 	 -101.164 	 
H 	 -112.512 	 60.8301 	 -100.473 	 
H 	 -112.468 	 59.6988 	 -101.969 	 
C 	 -111.065 	 61.325 	 -101.817 	 
H 	 -110.113 	 60.9697 	 -102.215 	 
H 	 -110.719 	 61.9776 	 -101.017 	 
C 	 -111.7 	 62.2616 	 -102.908 	 
H 	 -111.625 	 61.8479 	 -103.919 	 
H 	 -111.047 	 63.1252 	 -102.742 	 
H 	 -112.742 	 62.5918 	 -102.722 	 
H 	 -114.155 	 54.2265 	 -101.435 	 
H 	 -108.331 	 58.9064 	 -98.2586 	 
*
