! wB97X-D3 SP def2-SVP
%pal
nprocs 24
end

* xyz 0 1
S 	 -39.4323 	 8.91927 	 32.4613 	 
C 	 -39.5771 	 8.98538 	 34.2378 	 
C 	 -39.5043 	 7.73452 	 34.7712 	 
C 	 -39.2497 	 6.68971 	 33.8891 	 
C 	 -39.1729 	 7.18187 	 32.5714 	 
H 	 -38.9878 	 5.67406 	 34.1738 	 
C 	 -39.6322 	 7.51766 	 36.2922 	 
H 	 -39.1885 	 8.29652 	 36.8419 	 
H 	 -39.0703 	 6.59664 	 36.4585 	 
C 	 -40.9948 	 7.26644 	 36.8225 	 
H 	 -41.6629 	 8.15476 	 36.6937 	 
H 	 -41.331 	 6.38067 	 36.3427 	 
C 	 -41.0218 	 6.89157 	 38.3469 	 
H 	 -40.7975 	 7.66302 	 39.1265 	 
H 	 -42.0657 	 6.50918 	 38.5548 	 
H 	 -40.2882 	 6.11549 	 38.6171 	 
S 	 -37.7138 	 7.21969 	 30.1525 	 
C 	 -37.4602 	 5.72777 	 29.1803 	 
C 	 -38.173 	 4.69786 	 29.7851 	 
C 	 -38.8278 	 5.02234 	 31.0009 	 
C 	 -38.7291 	 6.39886 	 31.3666 	 
H 	 -38.2724 	 3.78242 	 29.241 	 
C 	 -39.5992 	 3.92945 	 31.7313 	 
H 	 -40.3353 	 3.62182 	 31.063 	 
H 	 -40.1977 	 4.4664 	 32.4301 	 
C 	 -38.8243 	 2.68205 	 32.1204 	 
H 	 -38.4216 	 2.34396 	 31.1957 	 
H 	 -39.438 	 1.97345 	 32.5309 	 
C 	 -37.6199 	 2.94044 	 32.9952 	 
H 	 -36.9292 	 2.10386 	 33.0052 	 
H 	 -37.9455 	 3.25666 	 33.9742 	 
H 	 -36.9837 	 3.64983 	 32.4797 	 
H 	 -39.7124 	 9.81482 	 34.8865 	 
H 	 -37.0481 	 5.69403 	 28.1613 	 
*
