! wB97X-D3 SP def2-SVP
%pal
nprocs 24
end

* xyz 0 1
S 	 -28.882 	 13.1266 	 4.45845 	 
C 	 -30.0987 	 13.1876 	 3.23785 	 
C 	 -31.2488 	 13.864 	 3.65322 	 
C 	 -30.9621 	 14.5969 	 4.88127 	 
C 	 -29.7705 	 14.2605 	 5.44643 	 
H 	 -31.5159 	 15.4011 	 5.21183 	 
C 	 -32.4689 	 14.2044 	 2.77013 	 
H 	 -32.4163 	 13.6845 	 1.83134 	 
H 	 -32.5047 	 15.2905 	 2.46872 	 
C 	 -33.8233 	 13.9232 	 3.33903 	 
H 	 -34.0077 	 14.3717 	 4.34332 	 
H 	 -34.5832 	 14.3642 	 2.63775 	 
C 	 -34.2385 	 12.4358 	 3.43293 	 
H 	 -33.9618 	 11.8913 	 2.54575 	 
H 	 -33.6469 	 11.9833 	 4.21839 	 
H 	 -35.2815 	 12.2759 	 3.59291 	 
S 	 -27.9862 	 16.2728 	 6.27016 	 
C 	 -27.4777 	 16.3338 	 7.95788 	 
C 	 -28.2455 	 15.4733 	 8.70945 	 
C 	 -29.2438 	 14.6977 	 7.98185 	 
C 	 -29.1823 	 14.9581 	 6.62947 	 
H 	 -28.065 	 15.5049 	 9.82088 	 
C 	 -30.1761 	 13.6877 	 8.60046 	 
H 	 -30.8826 	 13.418 	 7.83455 	 
H 	 -30.7904 	 14.1664 	 9.35982 	 
C 	 -29.4949 	 12.42 	 9.19589 	 
H 	 -29.026 	 12.7472 	 10.1897 	 
H 	 -28.7443 	 12.0683 	 8.50424 	 
C 	 -30.4625 	 11.2978 	 9.60451 	 
H 	 -30.9636 	 10.8052 	 8.76674 	 
H 	 -31.1723 	 11.7838 	 10.2917 	 
H 	 -30.0277 	 10.4794 	 10.2153 	 
H 	 -29.9527 	 12.8619 	 2.23826 	 
H 	 -26.7672 	 17.0368 	 8.35789 	 
*
