! wB97X-D3 SP def2-SVP
%pal
nprocs 24
end

* xyz 0 1
S 	 -92.6529 	 14.5925 	 -117.874 	 
C 	 -91.0928 	 14.675 	 -117.142 	 
C 	 -90.7031 	 13.4391 	 -116.648 	 
C 	 -91.721 	 12.4316 	 -116.816 	 
C 	 -92.8181 	 12.8877 	 -117.513 	 
H 	 -91.5998 	 11.4149 	 -116.54 	 
C 	 -89.312 	 13.1186 	 -116.122 	 
H 	 -89.3681 	 12.4967 	 -115.203 	 
H 	 -88.8005 	 14.0456 	 -115.856 	 
C 	 -88.4771 	 12.3049 	 -117.108 	 
H 	 -87.5508 	 12.2573 	 -116.639 	 
H 	 -88.9136 	 11.2767 	 -117.238 	 
C 	 -88.3121 	 12.91 	 -118.49 	 
H 	 -87.9667 	 13.9359 	 -118.356 	 
H 	 -87.6469 	 12.2848 	 -119.109 	 
H 	 -89.2369 	 13.0702 	 -118.991 	 
S 	 -94.7954 	 11.3706 	 -116.614 	 
C 	 -95.7274 	 10.3197 	 -117.751 	 
C 	 -95.3694 	 10.6367 	 -119.046 	 
C 	 -94.3502 	 11.6375 	 -119.154 	 
C 	 -93.9153 	 12.1211 	 -117.915 	 
H 	 -95.7179 	 10.0467 	 -119.891 	 
C 	 -93.84 	 12.0854 	 -120.471 	 
H 	 -93.7513 	 13.1802 	 -120.398 	 
H 	 -94.6949 	 11.9249 	 -121.198 	 
C 	 -92.6037 	 11.4486 	 -120.957 	 
H 	 -92.578 	 10.3859 	 -120.613 	 
H 	 -91.8318 	 11.9348 	 -120.387 	 
C 	 -92.2057 	 11.7314 	 -122.431 	 
H 	 -91.1778 	 11.4529 	 -122.587 	 
H 	 -92.4156 	 12.8349 	 -122.668 	 
H 	 -92.8311 	 11.1163 	 -123.175 	 
H 	 -90.4121 	 15.5015 	 -117.261 	 
H 	 -96.3084 	 9.49609 	 -117.449 	 
*
