! wB97X-D3 SP def2-SVP
%pal
nprocs 24
end

* xyz 0 1
S 	 -137.568 	 1.59293 	 4.94072 	 
C 	 -136.678 	 0.230823 	 4.18676 	 
C 	 -135.347 	 0.469509 	 4.2871 	 
C 	 -134.944 	 1.7212 	 4.90761 	 
C 	 -136.057 	 2.40402 	 5.38337 	 
H 	 -133.974 	 2.16417 	 4.99297 	 
C 	 -134.246 	 -0.435391 	 3.70956 	 
H 	 -134.287 	 -1.33809 	 4.40359 	 
H 	 -133.33 	 0.153733 	 3.82285 	 
C 	 -134.408 	 -0.942931 	 2.2547 	 
H 	 -133.639 	 -1.78137 	 2.25037 	 
H 	 -135.425 	 -1.3523 	 2.02981 	 
C 	 -134.115 	 0.20821 	 1.31298 	 
H 	 -134.914 	 0.967793 	 1.37248 	 
H 	 -133.147 	 0.662228 	 1.56902 	 
H 	 -133.833 	 -0.102552 	 0.307051 	 
S 	 -136.673 	 5.05331 	 4.97836 	 
C 	 -136.61 	 6.15652 	 6.31902 	 
C 	 -136.104 	 5.63498 	 7.45724 	 
C 	 -135.837 	 4.2172 	 7.33003 	 
C 	 -136.09 	 3.7574 	 6.0048 	 
H 	 -135.847 	 6.24022 	 8.36165 	 
C 	 -135.072 	 3.40452 	 8.40354 	 
H 	 -134.768 	 2.44868 	 7.89001 	 
H 	 -135.787 	 3.15043 	 9.20526 	 
C 	 -133.721 	 4.10442 	 8.95824 	 
H 	 -133.41 	 3.61225 	 9.88904 	 
H 	 -134.046 	 5.15402 	 9.17362 	 
C 	 -132.536 	 4.05855 	 7.94196 	 
H 	 -132.051 	 3.06034 	 8.1289 	 
H 	 -131.784 	 4.80153 	 8.05077 	 
H 	 -133.019 	 4.20524 	 6.9506 	 
H 	 -137.12 	 -0.665613 	 3.6894 	 
H 	 -136.71 	 7.21704 	 6.1514 	 
*
