! wB97X-D3 SP def2-SVP
%pal
nprocs 24
end

* xyz 0 1
S 	 -45.2941 	 13.8461 	 33.0158 	 
C 	 -44.2652 	 15.2072 	 32.9989 	 
C 	 -44.5277 	 16.0969 	 31.8975 	 
C 	 -45.617 	 15.5543 	 31.0709 	 
C 	 -46.1583 	 14.4217 	 31.5994 	 
H 	 -46.0881 	 16.0124 	 30.2325 	 
C 	 -43.9588 	 17.4805 	 31.6306 	 
H 	 -44.2213 	 17.9404 	 30.6848 	 
H 	 -42.8477 	 17.3396 	 31.5963 	 
C 	 -44.3562 	 18.5703 	 32.7201 	 
H 	 -43.6373 	 18.4253 	 33.5235 	 
H 	 -44.1631 	 19.5244 	 32.3447 	 
C 	 -45.7279 	 18.6248 	 33.2349 	 
H 	 -45.8108 	 19.4347 	 33.9986 	 
H 	 -46.4189 	 18.7566 	 32.4201 	 
H 	 -45.9783 	 17.7583 	 33.8508 	 
S 	 -47.0632 	 12.3388 	 29.9727 	 
C 	 -48.7887 	 12.3898 	 29.56 	 
C 	 -49.5202 	 13.2707 	 30.3255 	 
C 	 -48.7182 	 14.0061 	 31.2368 	 
C 	 -47.3272 	 13.6644 	 31.0986 	 
H 	 -50.6004 	 13.3652 	 30.1427 	 
C 	 -49.2695 	 14.9957 	 32.2556 	 
H 	 -48.4968 	 15.4068 	 32.8574 	 
H 	 -49.8478 	 14.3803 	 32.9308 	 
C 	 -50.308 	 15.9892 	 31.7053 	 
H 	 -50.6613 	 16.652 	 32.545 	 
H 	 -51.1575 	 15.4703 	 31.3436 	 
C 	 -49.8778 	 16.986 	 30.6281 	 
H 	 -48.9677 	 17.5645 	 30.9287 	 
H 	 -50.654 	 17.617 	 30.2348 	 
H 	 -49.5504 	 16.4251 	 29.7457 	 
H 	 -43.4377 	 15.3175 	 33.7061 	 
H 	 -49.2379 	 11.6412 	 28.8939 	 
*
