! wB97X-D3 SP def2-SVP
%pal
nprocs 24
end

* xyz 0 1
S 	 -40.4827 	 5.06023 	 29.7714 	 
C 	 -41.9761 	 5.04235 	 30.7424 	 
C 	 -41.8967 	 6.04212 	 31.7005 	 
C 	 -40.6322 	 6.6247 	 31.819 	 
C 	 -39.7626 	 6.27835 	 30.8262 	 
H 	 -40.2496 	 7.29929 	 32.6114 	 
C 	 -43.1448 	 6.40695 	 32.5198 	 
H 	 -43.2687 	 5.59705 	 33.2368 	 
H 	 -44.0892 	 6.51674 	 32.0256 	 
C 	 -43.0407 	 7.70043 	 33.3942 	 
H 	 -42.2668 	 7.50002 	 34.1101 	 
H 	 -42.6223 	 8.56319 	 32.8367 	 
C 	 -44.455 	 8.10515 	 33.8796 	 
H 	 -44.3784 	 9.00095 	 34.4553 	 
H 	 -45.2617 	 8.34922 	 33.1396 	 
H 	 -44.854 	 7.37432 	 34.6045 	 
S 	 -38.2506 	 8.45138 	 31.2279 	 
C 	 -36.6931 	 8.61263 	 30.4317 	 
C 	 -36.2905 	 7.47723 	 29.7002 	 
C 	 -37.2887 	 6.41276 	 29.7916 	 
C 	 -38.4271 	 6.84811 	 30.5815 	 
H 	 -35.3281 	 7.38037 	 29.1532 	 
C 	 -37.0568 	 5.11806 	 29.0869 	 
H 	 -36.5561 	 5.33093 	 28.1174 	 
H 	 -38.0325 	 4.74798 	 28.7917 	 
C 	 -36.1968 	 4.00009 	 29.8162 	 
H 	 -35.1527 	 4.15357 	 30.079 	 
H 	 -36.2603 	 3.05606 	 29.2866 	 
C 	 -36.6652 	 3.64783 	 31.2257 	 
H 	 -37.7235 	 3.33163 	 31.3302 	 
H 	 -36.5299 	 4.51429 	 31.9428 	 
H 	 -36.1814 	 2.80171 	 31.659 	 
H 	 -42.9152 	 4.52495 	 30.4712 	 
H 	 -36.0137 	 9.49442 	 30.5672 	 
*
