! wB97X-D3 SP def2-SVP
%pal
nprocs 24
end

* xyz 0 1
S 	 -44.6052 	 -3.32301 	 -20.663 	 
C 	 -46.0337 	 -3.87441 	 -21.4903 	 
C 	 -45.7654 	 -5.01221 	 -22.2218 	 
C 	 -44.3702 	 -5.25894 	 -22.3996 	 
C 	 -43.607 	 -4.26429 	 -21.7442 	 
H 	 -43.858 	 -5.90914 	 -23.0586 	 
C 	 -46.8949 	 -5.71281 	 -23.0209 	 
H 	 -47.8405 	 -5.78585 	 -22.4306 	 
H 	 -46.6421 	 -6.77075 	 -23.1358 	 
C 	 -47.2388 	 -4.98279 	 -24.3911 	 
H 	 -48.1618 	 -5.37188 	 -24.8587 	 
H 	 -47.3193 	 -3.89117 	 -24.1832 	 
C 	 -46.1313 	 -5.03656 	 -25.4089 	 
H 	 -45.6277 	 -5.98685 	 -25.5789 	 
H 	 -46.3196 	 -4.60193 	 -26.3578 	 
H 	 -45.218 	 -4.53771 	 -24.9791 	 
S 	 -41.2606 	 -3.79422 	 -22.9481 	 
C 	 -39.8254 	 -3.72394 	 -21.8758 	 
C 	 -40.0872 	 -4.28837 	 -20.6466 	 
C 	 -41.451 	 -4.52114 	 -20.3891 	 
C 	 -42.1825 	 -4.28164 	 -21.5393 	 
H 	 -39.336 	 -4.38412 	 -19.854 	 
C 	 -41.8163 	 -4.96574 	 -18.9768 	 
H 	 -42.4358 	 -4.25094 	 -18.5431 	 
H 	 -40.9601 	 -5.04459 	 -18.2597 	 
C 	 -42.5665 	 -6.30802 	 -18.8299 	 
H 	 -42.0202 	 -7.16903 	 -19.087 	 
H 	 -43.3048 	 -6.30537 	 -19.576 	 
C 	 -43.1562 	 -6.55063 	 -17.4379 	 
H 	 -43.6414 	 -7.51474 	 -17.3593 	 
H 	 -43.8271 	 -5.75701 	 -17.1353 	 
H 	 -42.2928 	 -6.54747 	 -16.7542 	 
H 	 -46.9921 	 -3.42601 	 -21.3633 	 
H 	 -38.8379 	 -3.43807 	 -22.2042 	 
*
