! wB97X-D3 SP def2-SVP
%pal
nprocs 24
end

* xyz 0 1
S 	 -51.0613 	 -1.69978 	 -18.2008 	 
C 	 -51.7668 	 -2.70563 	 -19.3588 	 
C 	 -51.7771 	 -4.0288 	 -18.9925 	 
C 	 -51.4589 	 -4.18156 	 -17.5913 	 
C 	 -51.0455 	 -3.01101 	 -16.9747 	 
H 	 -51.4868 	 -5.13194 	 -17.0064 	 
C 	 -52.3894 	 -5.14071 	 -19.8925 	 
H 	 -53.439 	 -5.34563 	 -19.6499 	 
H 	 -51.921 	 -6.06187 	 -19.5403 	 
C 	 -52.1644 	 -5.01929 	 -21.4312 	 
H 	 -52.7924 	 -4.18123 	 -21.8685 	 
H 	 -51.1698 	 -4.6226 	 -21.7133 	 
C 	 -52.363 	 -6.3636 	 -22.3216 	 
H 	 -52.244 	 -6.10105 	 -23.3011 	 
H 	 -51.4952 	 -7.04371 	 -22.2452 	 
H 	 -53.3839 	 -6.90721 	 -22.3031 	 
S 	 -49.2964 	 -4.22669 	 -15.2431 	 
C 	 -48.8293 	 -3.23831 	 -13.8326 	 
C 	 -49.4372 	 -1.99637 	 -13.7329 	 
C 	 -50.3535 	 -1.81482 	 -14.7956 	 
C 	 -50.3853 	 -2.93138 	 -15.6925 	 
H 	 -49.2165 	 -1.3054 	 -12.9794 	 
C 	 -51.176 	 -0.556071 	 -15.1059 	 
H 	 -52.1141 	 -0.85675 	 -15.6665 	 
H 	 -50.6137 	 0.132446 	 -15.7208 	 
C 	 -51.5317 	 0.222855 	 -13.8447 	 
H 	 -52.0521 	 1.14746 	 -14.1348 	 
H 	 -50.6208 	 0.606725 	 -13.3747 	 
C 	 -52.5429 	 -0.455317 	 -12.917 	 
H 	 -53.4195 	 -0.91196 	 -13.411 	 
H 	 -52.9073 	 0.236566 	 -12.0945 	 
H 	 -52.1083 	 -1.37682 	 -12.428 	 
H 	 -51.9812 	 -2.29504 	 -20.2785 	 
H 	 -48.2394 	 -3.56983 	 -12.9822 	 
*
