! wB97X-D3 SP def2-SVP
%pal
nprocs 24
end

* xyz 0 1
S 	 -105.98 	 58.3667 	 -5.72156 	 
C 	 -105.251 	 59.5327 	 -4.61448 	 
C 	 -105.9 	 60.7332 	 -4.62635 	 
C 	 -106.977 	 60.7212 	 -5.48577 	 
C 	 -107.23 	 59.5006 	 -6.0862 	 
H 	 -107.639 	 61.5761 	 -5.6491 	 
C 	 -105.505 	 61.9506 	 -3.85336 	 
H 	 -105.037 	 61.6821 	 -2.96251 	 
H 	 -106.418 	 62.4947 	 -3.51279 	 
C 	 -104.458 	 62.736 	 -4.69819 	 
H 	 -103.497 	 62.1372 	 -4.771 	 
H 	 -104.966 	 62.836 	 -5.6583 	 
C 	 -104.159 	 64.0578 	 -4.05234 	 
H 	 -104.797 	 64.7904 	 -4.58951 	 
H 	 -104.49 	 63.9717 	 -2.98311 	 
H 	 -103.124 	 64.382 	 -4.22789 	 
S 	 -108.032 	 58.0673 	 -8.28235 	 
C 	 -109.629 	 58.334 	 -9.00688 	 
C 	 -110.295 	 59.301 	 -8.30815 	 
C 	 -109.622 	 59.7779 	 -7.10371 	 
C 	 -108.336 	 59.2705 	 -7.00501 	 
H 	 -111.299 	 59.6313 	 -8.68382 	 
C 	 -110.249 	 60.7899 	 -6.20096 	 
H 	 -109.88 	 60.6848 	 -5.2128 	 
H 	 -111.301 	 60.4126 	 -6.1807 	 
C 	 -110.112 	 62.2318 	 -6.72287 	 
H 	 -110.777 	 62.3855 	 -7.56612 	 
H 	 -109.054 	 62.5253 	 -7.08343 	 
C 	 -110.453 	 63.3106 	 -5.69353 	 
H 	 -109.898 	 63.31 	 -4.77132 	 
H 	 -111.504 	 63.0595 	 -5.54366 	 
H 	 -110.365 	 64.2943 	 -6.05179 	 
H 	 -104.34 	 59.4183 	 -4.0448 	 
H 	 -109.931 	 58 	 -9.96665 	 
*
