! wB97X-D3 SP def2-SVP
%pal
nprocs 24
end

* xyz 0 1
S 	 -27.8356 	 -34.0576 	 -95.8918 	 
C 	 -26.3894 	 -35.0201 	 -95.5998 	 
C 	 -25.5429 	 -34.5177 	 -94.6009 	 
C 	 -26.1495 	 -33.3636 	 -94.0178 	 
C 	 -27.3977 	 -32.9834 	 -94.6146 	 
H 	 -25.8133 	 -32.8898 	 -93.0753 	 
C 	 -24.3341 	 -35.2351 	 -94.0416 	 
H 	 -24.6057 	 -36.2389 	 -94.3464 	 
H 	 -24.4042 	 -35.1453 	 -92.9734 	 
C 	 -22.9501 	 -34.8812 	 -94.5945 	 
H 	 -22.9808 	 -34.6705 	 -95.69 	 
H 	 -22.5353 	 -33.9624 	 -94.1981 	 
C 	 -21.9359 	 -35.9826 	 -94.3594 	 
H 	 -21.8035 	 -36.2083 	 -93.2693 	 
H 	 -22.0983 	 -36.9114 	 -94.929 	 
H 	 -20.9346 	 -35.7393 	 -94.7562 	 
S 	 -29.4206 	 -32.1018 	 -92.8904 	 
C 	 -30.0246 	 -30.5545 	 -93.1607 	 
C 	 -29.1741 	 -29.7413 	 -93.934 	 
C 	 -28.0989 	 -30.4702 	 -94.487 	 
C 	 -28.2252 	 -31.8328 	 -94.1502 	 
H 	 -29.4233 	 -28.7642 	 -94.0998 	 
C 	 -27.1204 	 -29.772 	 -95.4704 	 
H 	 -27.7616 	 -29.412 	 -96.3265 	 
H 	 -26.6369 	 -30.6307 	 -95.8485 	 
C 	 -26.1435 	 -28.8531 	 -94.7252 	 
H 	 -25.8468 	 -29.412 	 -93.8676 	 
H 	 -26.7156 	 -28.021 	 -94.4141 	 
C 	 -24.8362 	 -28.5248 	 -95.3917 	 
H 	 -24.4196 	 -29.3857 	 -95.8368 	 
H 	 -24.1367 	 -28.1251 	 -94.6979 	 
H 	 -24.8927 	 -27.7544 	 -96.1566 	 
H 	 -25.9632 	 -35.7909 	 -96.294 	 
H 	 -30.9223 	 -30.1138 	 -92.7757 	 
*
