! wB97X-D3 SP def2-SVP
%pal
nprocs 24
end

* xyz 0 1
S 	 -95.1523 	 53.9661 	 -97.9881 	 
C 	 -93.9657 	 54.6742 	 -96.8464 	 
C 	 -92.7119 	 54.0592 	 -96.9936 	 
C 	 -92.7641 	 53.0745 	 -98.0735 	 
C 	 -93.9889 	 52.9014 	 -98.703 	 
H 	 -91.9007 	 52.4608 	 -98.3696 	 
C 	 -91.3869 	 54.2998 	 -96.2657 	 
H 	 -91.0566 	 53.4353 	 -95.6505 	 
H 	 -91.5887 	 55.0688 	 -95.4956 	 
C 	 -90.131 	 54.7293 	 -97.0951 	 
H 	 -90.0821 	 53.8654 	 -97.7665 	 
H 	 -90.3721 	 55.5941 	 -97.6025 	 
C 	 -88.8097 	 54.94 	 -96.3092 	 
H 	 -88.9424 	 55.6496 	 -95.4543 	 
H 	 -88.4189 	 54.0759 	 -95.7332 	 
H 	 -88.0322 	 55.3965 	 -97.0154 	 
S 	 -94.5483 	 52.6912 	 -101.428 	 
C 	 -94.7719 	 51.1545 	 -102.122 	 
C 	 -94.8144 	 50.205 	 -101.151 	 
C 	 -94.6935 	 50.6841 	 -99.7975 	 
C 	 -94.3298 	 52.0154 	 -99.8093 	 
H 	 -94.8655 	 49.177 	 -101.481 	 
C 	 -94.9163 	 49.8295 	 -98.584 	 
H 	 -94.0879 	 49.9058 	 -97.8864 	 
H 	 -94.8193 	 48.8103 	 -98.941 	 
C 	 -96.2134 	 50.0869 	 -97.7459 	 
H 	 -97.0187 	 50.4244 	 -98.4365 	 
H 	 -96.061 	 50.9209 	 -97.1126 	 
C 	 -96.6503 	 48.9426 	 -96.8714 	 
H 	 -96.575 	 48.0241 	 -97.37 	 
H 	 -97.687 	 49.0813 	 -96.7448 	 
H 	 -96.1528 	 48.9703 	 -95.8732 	 
H 	 -94.1483 	 55.3763 	 -96.0559 	 
H 	 -94.7549 	 50.941 	 -103.217 	 
*
