! wB97X-D3 SP def2-SVP
%pal
nprocs 24
end

* xyz 0 1
S 	 -81.7952 	 -3.86651 	 -58.0005 	 
C 	 -80.7589 	 -3.98826 	 -56.5935 	 
C 	 -79.8462 	 -4.97998 	 -56.8052 	 
C 	 -79.8983 	 -5.56875 	 -58.1054 	 
C 	 -80.8834 	 -5.02512 	 -58.8625 	 
H 	 -79.2591 	 -6.36812 	 -58.4112 	 
C 	 -78.8235 	 -5.49787 	 -55.8078 	 
H 	 -79.0815 	 -6.50643 	 -55.6179 	 
H 	 -79.0583 	 -5.00139 	 -54.8401 	 
C 	 -77.3808 	 -5.23582 	 -56.1425 	 
H 	 -77.2271 	 -5.51746 	 -57.2327 	 
H 	 -77.0904 	 -4.18692 	 -56.1359 	 
C 	 -76.4731 	 -6.06779 	 -55.1207 	 
H 	 -75.4822 	 -5.76427 	 -55.4285 	 
H 	 -76.4314 	 -5.57875 	 -54.1746 	 
H 	 -76.5377 	 -7.16912 	 -55.0285 	 
S 	 -82.9503 	 -5.13876 	 -60.6779 	 
C 	 -82.6142 	 -5.69478 	 -62.3144 	 
C 	 -81.2984 	 -5.98402 	 -62.4548 	 
C 	 -80.5405 	 -5.84032 	 -61.2746 	 
C 	 -81.2871 	 -5.41626 	 -60.1646 	 
H 	 -80.9297 	 -6.2616 	 -63.3985 	 
C 	 -79.0335 	 -5.89694 	 -61.3816 	 
H 	 -78.7664 	 -6.89766 	 -61.7951 	 
H 	 -78.4752 	 -5.85462 	 -60.4152 	 
C 	 -78.3908 	 -4.88305 	 -62.3093 	 
H 	 -78.8079 	 -4.87635 	 -63.3273 	 
H 	 -77.316 	 -5.21227 	 -62.3653 	 
C 	 -78.2605 	 -3.48371 	 -61.6542 	 
H 	 -77.5516 	 -2.82277 	 -62.2333 	 
H 	 -78.0577 	 -3.69229 	 -60.5909 	 
H 	 -79.2558 	 -3.00206 	 -61.68 	 
H 	 -80.7242 	 -3.45534 	 -55.6643 	 
H 	 -83.4023 	 -5.97154 	 -63.046 	 
*
