! wB97X-D3 SP def2-SVP
%pal
nprocs 24
end

* xyz 0 1
S 	 -101.093 	 42.4212 	 -86.4971 	 
C 	 -101.486 	 42.4842 	 -88.2147 	 
C 	 -102.364 	 43.5807 	 -88.4874 	 
C 	 -102.673 	 44.2917 	 -87.278 	 
C 	 -101.935 	 43.9416 	 -86.1797 	 
H 	 -103.366 	 45.1269 	 -87.2352 	 
C 	 -102.999 	 43.9777 	 -89.7649 	 
H 	 -102.137 	 44.0993 	 -90.4128 	 
H 	 -103.447 	 45.0162 	 -89.5439 	 
C 	 -104.266 	 43.161 	 -90.307 	 
H 	 -104.665 	 43.7166 	 -91.2 	 
H 	 -104.021 	 42.2848 	 -90.7661 	 
C 	 -105.311 	 42.9796 	 -89.2783 	 
H 	 -105.646 	 43.9481 	 -88.7964 	 
H 	 -106.236 	 42.5903 	 -89.7069 	 
H 	 -104.991 	 42.3671 	 -88.4637 	 
S 	 -100.877 	 45.6919 	 -84.3243 	 
C 	 -101.829 	 46.0457 	 -82.8449 	 
C 	 -103.04 	 45.4362 	 -82.8543 	 
C 	 -103.192 	 44.5722 	 -84.0245 	 
C 	 -102.098 	 44.4953 	 -84.8948 	 
H 	 -103.775 	 45.6973 	 -82.1533 	 
C 	 -104.581 	 44.0572 	 -84.3406 	 
H 	 -105.013 	 44.1911 	 -85.3531 	 
H 	 -105.351 	 44.5854 	 -83.6687 	 
C 	 -104.682 	 42.5433 	 -84.0649 	 
H 	 -104.25 	 42.383 	 -83.0856 	 
H 	 -103.979 	 41.9107 	 -84.7786 	 
C 	 -106.124 	 42.073 	 -84.0272 	 
H 	 -106.681 	 42.6144 	 -83.2254 	 
H 	 -106.31 	 41.006 	 -83.8036 	 
H 	 -106.65 	 42.301 	 -84.9439 	 
H 	 -101.223 	 41.7237 	 -88.9005 	 
H 	 -101.554 	 46.7934 	 -82.1211 	 
*
