! wB97X-D3 SP def2-SVP
%pal
nprocs 24
end

* xyz 0 1
S 	 -32.0215 	 10.3063 	 12.3311 	 
C 	 -31.7257 	 11.9786 	 11.7296 	 
C 	 -32.5896 	 12.915 	 12.259 	 
C 	 -33.4239 	 12.2765 	 13.2251 	 
C 	 -33.2897 	 10.9251 	 13.3833 	 
H 	 -34.1907 	 12.7758 	 13.7888 	 
C 	 -32.6233 	 14.4093 	 12.0432 	 
H 	 -31.8096 	 14.863 	 11.4036 	 
H 	 -32.5227 	 14.8769 	 13.0062 	 
C 	 -33.7929 	 15.0097 	 11.28 	 
H 	 -33.5927 	 16.1033 	 11.221 	 
H 	 -33.8497 	 14.638 	 10.2405 	 
C 	 -35.2624 	 14.8495 	 11.7733 	 
H 	 -36.0197 	 15.3592 	 11.1911 	 
H 	 -35.6123 	 13.8771 	 11.5767 	 
H 	 -35.4076 	 15.0529 	 12.8288 	 
S 	 -32.947 	 9.77273 	 15.8873 	 
C 	 -34.2296 	 8.92596 	 16.6238 	 
C 	 -35.3527 	 8.97659 	 15.8596 	 
C 	 -35.2084 	 9.65647 	 14.6054 	 
C 	 -33.8913 	 10.1295 	 14.4395 	 
H 	 -36.21 	 8.53722 	 16.4123 	 
C 	 -36.3972 	 9.57162 	 13.7219 	 
H 	 -36.9864 	 8.67295 	 14.0126 	 
H 	 -36.0681 	 9.38875 	 12.6641 	 
C 	 -37.3446 	 10.7878 	 13.8446 	 
H 	 -36.7341 	 11.6951 	 13.668 	 
H 	 -37.8341 	 10.8702 	 14.8521 	 
C 	 -38.5156 	 10.5698 	 12.8377 	 
H 	 -39.105 	 9.72172 	 12.9164 	 
H 	 -38.0094 	 10.5951 	 11.8755 	 
H 	 -39.1513 	 11.4882 	 12.8382 	 
H 	 -31.0522 	 12.0847 	 10.9282 	 
H 	 -34.171 	 8.54002 	 17.6343 	 
*
