! wB97X-D3 SP def2-SVP
%pal
nprocs 24
end

* xyz 0 1
S 	 -100.455 	 -0.0438172 	 -120.171 	 
C 	 -101.089 	 0.950077 	 -121.469 	 
C 	 -102.062 	 1.87789 	 -121.064 	 
C 	 -102.343 	 1.82242 	 -119.671 	 
C 	 -101.471 	 0.920743 	 -119.069 	 
H 	 -103.022 	 2.43002 	 -119.181 	 
C 	 -102.951 	 2.72258 	 -121.97 	 
H 	 -102.79 	 2.34813 	 -123.005 	 
H 	 -102.528 	 3.67599 	 -121.957 	 
C 	 -104.459 	 2.70693 	 -121.628 	 
H 	 -104.578 	 3.11936 	 -120.593 	 
H 	 -104.945 	 3.33937 	 -122.476 	 
C 	 -105.08 	 1.20686 	 -121.693 	 
H 	 -106.045 	 1.20588 	 -121.315 	 
H 	 -105.215 	 1.02585 	 -122.728 	 
H 	 -104.436 	 0.394733 	 -121.301 	 
S 	 -99.5927 	 1.37409 	 -117.209 	 
C 	 -99.9645 	 1.0651 	 -115.492 	 
C 	 -101.217 	 0.541224 	 -115.321 	 
C 	 -101.943 	 0.359502 	 -116.574 	 
C 	 -101.224 	 0.806376 	 -117.667 	 
H 	 -101.493 	 0.364872 	 -114.318 	 
C 	 -103.318 	 -0.167848 	 -116.678 	 
H 	 -103.277 	 -1.16375 	 -116.31 	 
H 	 -103.592 	 -0.110176 	 -117.758 	 
C 	 -104.299 	 0.713752 	 -115.884 	 
H 	 -104.152 	 1.65752 	 -116.247 	 
H 	 -104.097 	 0.635529 	 -114.809 	 
C 	 -105.75 	 0.309495 	 -116.124 	 
H 	 -106.063 	 -0.536181 	 -115.55 	 
H 	 -105.789 	 -0.0347699 	 -117.179 	 
H 	 -106.364 	 1.20526 	 -115.997 	 
H 	 -100.841 	 0.747978 	 -122.452 	 
H 	 -99.2599 	 1.26743 	 -114.676 	 
*
