! wB97X-D3 SP def2-SVP
%pal
nprocs 24
end

* xyz 0 1
S 	 -137.425 	 67.5884 	 -55.1788 	 
C 	 -135.889 	 66.7876 	 -55.6599 	 
C 	 -135.011 	 66.6607 	 -54.5542 	 
C 	 -135.627 	 67.2627 	 -53.3721 	 
C 	 -136.86 	 67.8524 	 -53.5573 	 
H 	 -135.157 	 67.3291 	 -52.3859 	 
C 	 -133.613 	 65.9306 	 -54.5257 	 
H 	 -133.405 	 65.6444 	 -53.4873 	 
H 	 -132.815 	 66.6745 	 -54.8067 	 
C 	 -133.408 	 64.6514 	 -55.3897 	 
H 	 -133.457 	 64.9797 	 -56.4934 	 
H 	 -132.41 	 64.3729 	 -55.1875 	 
C 	 -134.53 	 63.4182 	 -55.1652 	 
H 	 -135.444 	 63.6709 	 -55.5112 	 
H 	 -134.202 	 62.4972 	 -55.6672 	 
H 	 -134.569 	 63.2533 	 -54.1199 	 
S 	 -137.272 	 70.2608 	 -52.2318 	 
C 	 -138.267 	 70.3223 	 -50.8756 	 
C 	 -138.842 	 69.0814 	 -50.6555 	 
C 	 -138.485 	 68.0317 	 -51.5941 	 
C 	 -137.563 	 68.5528 	 -52.5262 	 
H 	 -139.624 	 68.9629 	 -49.9883 	 
C 	 -139.084 	 66.6608 	 -51.5714 	 
H 	 -138.549 	 66.2306 	 -50.7188 	 
H 	 -138.665 	 66.1949 	 -52.4736 	 
C 	 -140.514 	 66.5038 	 -51.2544 	 
H 	 -141.045 	 67.2292 	 -51.8991 	 
H 	 -140.549 	 66.7066 	 -50.18 	 
C 	 -141.043 	 65.1184 	 -51.5151 	 
H 	 -141.646 	 65.0482 	 -52.3774 	 
H 	 -141.722 	 64.8738 	 -50.6746 	 
H 	 -140.308 	 64.2846 	 -51.6249 	 
H 	 -135.642 	 66.4636 	 -56.6869 	 
H 	 -138.521 	 71.1353 	 -50.2743 	 
*
