! wB97X-D3 SP def2-SVP
%pal
nprocs 24
end

* xyz 0 1
S 	 -66.4719 	 16.4503 	 -75.316 	 
C 	 -65.4321 	 17.927 	 -75.2962 	 
C 	 -65.01 	 18.0976 	 -73.9998 	 
C 	 -65.5307 	 17.223 	 -73.0078 	 
C 	 -66.3775 	 16.2995 	 -73.5671 	 
H 	 -65.253 	 17.428 	 -71.9966 	 
C 	 -64.1684 	 19.2702 	 -73.5554 	 
H 	 -63.4179 	 19.4098 	 -74.4044 	 
H 	 -63.5016 	 18.8711 	 -72.8143 	 
C 	 -64.9918 	 20.4802 	 -73.2561 	 
H 	 -64.3256 	 21.2903 	 -72.8967 	 
H 	 -65.3317 	 20.9557 	 -74.2263 	 
C 	 -66.1923 	 20.3016 	 -72.491 	 
H 	 -66.8518 	 19.5577 	 -72.8713 	 
H 	 -66.0275 	 19.8587 	 -71.4947 	 
H 	 -66.7649 	 21.2346 	 -72.335 	 
S 	 -67.0517 	 13.6355 	 -73.3241 	 
C 	 -68.2941 	 13.1687 	 -72.2428 	 
C 	 -68.8104 	 14.2106 	 -71.5793 	 
C 	 -68.1268 	 15.4342 	 -71.8261 	 
C 	 -67.2109 	 15.3385 	 -72.8517 	 
H 	 -69.6229 	 14.1665 	 -70.9354 	 
C 	 -68.5279 	 16.7364 	 -71.0975 	 
H 	 -69.4565 	 17.1814 	 -71.4537 	 
H 	 -67.8086 	 17.5254 	 -71.4353 	 
C 	 -68.6129 	 16.7314 	 -69.5362 	 
H 	 -67.7055 	 16.3928 	 -69.0861 	 
H 	 -69.3981 	 16.0503 	 -69.4502 	 
C 	 -69.0429 	 18.0267 	 -68.8243 	 
H 	 -70.0223 	 18.427 	 -69.108 	 
H 	 -68.3272 	 18.8129 	 -69.1311 	 
H 	 -69.0687 	 17.7857 	 -67.8104 	 
H 	 -65.2504 	 18.5615 	 -76.106 	 
H 	 -68.6976 	 12.1676 	 -72.2655 	 
*
