! wB97X-D3 SP def2-SVP
%pal
nprocs 24
end

* xyz 0 1
S 	 -68.6346 	 22.4835 	 -113.713 	 
C 	 -69.2793 	 22.5618 	 -112.114 	 
C 	 -68.4533 	 22.0678 	 -111.123 	 
C 	 -67.3313 	 21.4488 	 -111.751 	 
C 	 -67.4552 	 21.3413 	 -113.148 	 
H 	 -66.4621 	 20.9808 	 -111.331 	 
C 	 -68.6025 	 22.2054 	 -109.611 	 
H 	 -68.9173 	 21.2931 	 -109.066 	 
H 	 -69.5133 	 22.8628 	 -109.52 	 
C 	 -67.4417 	 22.8084 	 -108.834 	 
H 	 -66.508 	 22.217 	 -108.818 	 
H 	 -67.1202 	 23.6394 	 -109.483 	 
C 	 -67.7362 	 23.2738 	 -107.45 	 
H 	 -66.8409 	 23.7109 	 -106.92 	 
H 	 -68.4677 	 24.0822 	 -107.493 	 
H 	 -68.2269 	 22.5428 	 -106.767 	 
S 	 -65.7753 	 21.8329 	 -115.295 	 
C 	 -64.598 	 20.6563 	 -115.822 	 
C 	 -64.8478 	 19.4744 	 -115.102 	 
C 	 -65.8713 	 19.5855 	 -114.102 	 
C 	 -66.4287 	 20.8267 	 -114.08 	 
H 	 -64.346 	 18.5788 	 -115.294 	 
C 	 -66.3977 	 18.4042 	 -113.234 	 
H 	 -67.4581 	 18.5888 	 -112.966 	 
H 	 -65.8869 	 18.5596 	 -112.26 	 
C 	 -65.9558 	 16.9695 	 -113.584 	 
H 	 -64.8979 	 16.8504 	 -113.803 	 
H 	 -66.4661 	 16.6454 	 -114.475 	 
C 	 -66.3125 	 15.8075 	 -112.677 	 
H 	 -67.3481 	 15.6112 	 -112.5 	 
H 	 -65.813 	 15.7537 	 -111.717 	 
H 	 -65.9663 	 14.8906 	 -113.23 	 
H 	 -70.0517 	 23.2578 	 -111.909 	 
H 	 -63.8214 	 20.7509 	 -116.578 	 
*
