! wB97X-D3 SP def2-SVP
%pal
nprocs 24
end

* xyz 0 1
S 	 -52.8133 	 13.0867 	 -103.581 	 
C 	 -51.6063 	 13.2528 	 -102.337 	 
C 	 -51.7166 	 12.3508 	 -101.23 	 
C 	 -52.9211 	 11.5847 	 -101.483 	 
C 	 -53.6515 	 11.8843 	 -102.637 	 
H 	 -53.3532 	 10.8255 	 -100.781 	 
C 	 -50.8564 	 12.3604 	 -99.9687 	 
H 	 -51.5332 	 12.0206 	 -99.2077 	 
H 	 -50.6428 	 13.4136 	 -99.7554 	 
C 	 -49.5631 	 11.583 	 -100.043 	 
H 	 -49.0433 	 11.7488 	 -100.992 	 
H 	 -48.8441 	 11.9742 	 -99.2313 	 
C 	 -49.6506 	 10.0723 	 -99.9556 	 
H 	 -49.9645 	 9.59375 	 -99.0573 	 
H 	 -50.2283 	 9.67183 	 -100.773 	 
H 	 -48.6173 	 9.6398 	 -99.9649 	 
S 	 -56.3955 	 11.7596 	 -102.263 	 
C 	 -57.3681 	 10.7575 	 -103.376 	 
C 	 -56.5989 	 9.88103 	 -104.065 	 
C 	 -55.1931 	 10.23 	 -103.916 	 
C 	 -54.9022 	 11.2878 	 -103.006 	 
H 	 -57.0449 	 9.22668 	 -104.798 	 
C 	 -54.0834 	 9.4617 	 -104.559 	 
H 	 -53.5835 	 8.90217 	 -103.841 	 
H 	 -53.2827 	 10.2697 	 -104.877 	 
C 	 -54.3888 	 8.47746 	 -105.716 	 
H 	 -54.8662 	 8.89856 	 -106.627 	 
H 	 -54.9554 	 7.67105 	 -105.34 	 
C 	 -53.0647 	 7.91953 	 -106.233 	 
H 	 -53.1628 	 7.22061 	 -107.078 	 
H 	 -52.4505 	 7.38793 	 -105.503 	 
H 	 -52.4614 	 8.72991 	 -106.697 	 
H 	 -50.9235 	 14.1623 	 -102.484 	 
H 	 -58.4687 	 10.6348 	 -103.303 	 
*
