! wB97X-D3 SP def2-SVP
%pal
nprocs 24
end

* xyz 0 1
S 	 -99.4058 	 6.27814 	 -122.294 	 
C 	 -99.7638 	 5.48778 	 -123.883 	 
C 	 -100.858 	 4.63295 	 -123.838 	 
C 	 -101.404 	 4.55992 	 -122.525 	 
C 	 -100.763 	 5.39586 	 -121.554 	 
H 	 -102.192 	 3.92788 	 -122.211 	 
C 	 -101.441 	 4.01338 	 -125.104 	 
H 	 -100.65 	 3.85556 	 -125.792 	 
H 	 -102.18 	 4.6408 	 -125.604 	 
C 	 -101.937 	 2.61374 	 -125.056 	 
H 	 -101.156 	 1.91775 	 -124.686 	 
H 	 -102.655 	 2.51772 	 -124.246 	 
C 	 -102.674 	 2.07256 	 -126.334 	 
H 	 -103.671 	 2.5573 	 -126.375 	 
H 	 -102.024 	 2.23734 	 -127.259 	 
H 	 -102.825 	 0.997432 	 -126.208 	 
S 	 -102.669 	 5.80013 	 -119.74 	 
C 	 -102.345 	 6.07147 	 -118 	 
C 	 -101.056 	 5.80205 	 -117.769 	 
C 	 -100.272 	 5.64326 	 -118.933 	 
C 	 -101.033 	 5.55322 	 -120.099 	 
H 	 -100.709 	 5.93576 	 -116.801 	 
C 	 -98.7919 	 5.40565 	 -118.885 	 
H 	 -98.4243 	 5.63837 	 -117.872 	 
H 	 -98.3584 	 6.03345 	 -119.747 	 
C 	 -98.5076 	 3.91315 	 -119.03 	 
H 	 -99.1121 	 3.59057 	 -119.955 	 
H 	 -99.0535 	 3.32182 	 -118.283 	 
C 	 -97.0602 	 3.46834 	 -118.997 	 
H 	 -96.3298 	 3.84716 	 -119.745 	 
H 	 -97.2197 	 2.4203 	 -119.314 	 
H 	 -96.7868 	 3.6115 	 -117.952 	 
H 	 -99.3892 	 5.89256 	 -124.822 	 
H 	 -103.013 	 6.10087 	 -117.174 	 
*
