! wB97X-D3 SP def2-SVP
%pal
nprocs 24
end

* xyz 0 1
S 	 -130.292 	 58.8514 	 -60.2006 	 
C 	 -131.291 	 59.4066 	 -58.9999 	 
C 	 -130.589 	 59.665 	 -57.8574 	 
C 	 -129.206 	 59.6888 	 -58.1139 	 
C 	 -128.853 	 59.2368 	 -59.3717 	 
H 	 -128.471 	 59.9951 	 -57.3916 	 
C 	 -131.239 	 60.1194 	 -56.5166 	 
H 	 -131.273 	 59.3343 	 -55.7662 	 
H 	 -132.286 	 60.2734 	 -56.7198 	 
C 	 -130.721 	 61.3944 	 -55.8577 	 
H 	 -129.659 	 61.2624 	 -55.7305 	 
H 	 -130.691 	 62.2362 	 -56.576 	 
C 	 -131.404 	 61.7327 	 -54.5846 	 
H 	 -131.172 	 62.6878 	 -54.18 	 
H 	 -132.514 	 61.7343 	 -54.6937 	 
H 	 -131.236 	 61.0145 	 -53.7736 	 
S 	 -127.122 	 57.4917 	 -60.568 	 
C 	 -125.557 	 58.1955 	 -60.865 	 
C 	 -125.339 	 59.4156 	 -60.3092 	 
C 	 -126.507 	 59.9787 	 -59.8161 	 
C 	 -127.534 	 59.0376 	 -59.8237 	 
H 	 -124.414 	 59.9818 	 -60.4089 	 
C 	 -126.537 	 61.3719 	 -59.1685 	 
H 	 -125.616 	 61.9074 	 -59.4635 	 
H 	 -126.403 	 61.2474 	 -58.1195 	 
C 	 -127.601 	 62.3123 	 -59.6964 	 
H 	 -128.604 	 61.8414 	 -59.762 	 
H 	 -127.279 	 62.537 	 -60.7645 	 
C 	 -127.771 	 63.5425 	 -58.7898 	 
H 	 -128.628 	 64.051 	 -59.0043 	 
H 	 -126.88 	 64.2066 	 -58.8814 	 
H 	 -127.8 	 63.1267 	 -57.7856 	 
H 	 -132.368 	 59.274 	 -58.9962 	 
H 	 -124.636 	 57.6785 	 -61.2621 	 
*
