! wB97X-D3 SP def2-SVP
%pal
nprocs 24
end

* xyz 0 1
S 	 -114.696 	 17.4843 	 -114.021 	 
C 	 -116.216 	 17.1567 	 -113.227 	 
C 	 -116.91 	 16.2103 	 -114.01 	 
C 	 -116.176 	 15.7382 	 -115.093 	 
C 	 -114.908 	 16.2893 	 -115.217 	 
H 	 -116.461 	 14.9832 	 -115.791 	 
C 	 -118.357 	 15.8825 	 -113.749 	 
H 	 -118.326 	 15.3023 	 -112.801 	 
H 	 -118.67 	 15.1528 	 -114.501 	 
C 	 -119.245 	 17.1503 	 -113.746 	 
H 	 -120.288 	 16.8721 	 -113.473 	 
H 	 -118.971 	 17.8401 	 -112.945 	 
C 	 -119.188 	 17.7868 	 -115.101 	 
H 	 -120.097 	 18.3738 	 -115.172 	 
H 	 -118.37 	 18.4984 	 -115.196 	 
H 	 -119.192 	 17.1016 	 -115.922 	 
S 	 -112.438 	 15.1239 	 -115.353 	 
C 	 -111.702 	 14.9429 	 -116.958 	 
C 	 -112.603 	 15.2727 	 -117.978 	 
C 	 -113.868 	 15.7189 	 -117.532 	 
C 	 -113.86 	 15.8783 	 -116.155 	 
H 	 -112.282 	 15.0667 	 -119.012 	 
C 	 -114.956 	 16.1037 	 -118.564 	 
H 	 -115.05 	 17.1849 	 -118.629 	 
H 	 -115.923 	 15.8447 	 -118.074 	 
C 	 -114.854 	 15.5844 	 -119.99 	 
H 	 -114.47 	 14.6168 	 -120.005 	 
H 	 -114.184 	 16.1185 	 -120.619 	 
C 	 -116.117 	 15.3929 	 -120.706 	 
H 	 -116.558 	 16.3412 	 -120.876 	 
H 	 -116.867 	 14.814 	 -120.164 	 
H 	 -116.065 	 14.9428 	 -121.644 	 
H 	 -116.654 	 17.7199 	 -112.367 	 
H 	 -110.692 	 14.5921 	 -117.187 	 
*
