! wB97X-D3 SP def2-SVP
%pal
nprocs 24
end

* xyz 0 1
S 	 -105.487 	 48.5061 	 -99.3921 	 
C 	 -106.251 	 49.8829 	 -100.126 	 
C 	 -105.394 	 50.504 	 -101.075 	 
C 	 -104.153 	 49.7748 	 -101.2 	 
C 	 -104.008 	 48.7633 	 -100.289 	 
H 	 -103.317 	 50.0075 	 -101.87 	 
C 	 -105.814 	 51.7155 	 -101.94 	 
H 	 -106.78 	 52.0673 	 -101.62 	 
H 	 -106.124 	 51.3655 	 -102.943 	 
C 	 -104.85 	 52.8903 	 -102.112 	 
H 	 -103.88 	 52.5075 	 -102.287 	 
H 	 -105.093 	 53.6299 	 -102.899 	 
C 	 -104.711 	 53.7298 	 -100.775 	 
H 	 -104.299 	 54.7794 	 -100.999 	 
H 	 -105.64 	 53.8043 	 -100.168 	 
H 	 -103.999 	 53.1213 	 -100.158 	 
S 	 -103.123 	 46.2847 	 -99.4752 	 
C 	 -101.511 	 45.7877 	 -99.7156 	 
C 	 -100.721 	 46.803 	 -100.273 	 
C 	 -101.474 	 48.0303 	 -100.429 	 
C 	 -102.791 	 47.9489 	 -100.028 	 
H 	 -99.6914 	 46.6298 	 -100.59 	 
C 	 -100.763 	 49.2224 	 -101.027 	 
H 	 -101.348 	 49.6245 	 -101.874 	 
H 	 -99.8761 	 48.8273 	 -101.53 	 
C 	 -100.246 	 50.4013 	 -100.149 	 
H 	 -99.4882 	 51.0827 	 -100.558 	 
H 	 -99.7027 	 49.9805 	 -99.2609 	 
C 	 -101.426 	 51.2383 	 -99.5432 	 
H 	 -101.129 	 52.1909 	 -99.1436 	 
H 	 -101.914 	 50.7133 	 -98.6977 	 
H 	 -102.067 	 51.4266 	 -100.432 	 
H 	 -107.212 	 50.2459 	 -99.9199 	 
H 	 -101.083 	 44.7798 	 -99.5065 	 
*
