! wB97X-D3 SP def2-SVP
%pal
nprocs 24
end

* xyz 0 1
S 	 -135.426 	 31.0866 	 -20.1386 	 
C 	 -134.452 	 30.4902 	 -21.3944 	 
C 	 -133.784 	 29.3068 	 -21.0485 	 
C 	 -134.004 	 28.9758 	 -19.708 	 
C 	 -134.781 	 29.8985 	 -19.018 	 
H 	 -133.515 	 28.1225 	 -19.214 	 
C 	 -132.929 	 28.4338 	 -21.9979 	 
H 	 -132.281 	 29.1518 	 -22.5174 	 
H 	 -133.61 	 28.0084 	 -22.729 	 
C 	 -132.079 	 27.325 	 -21.3422 	 
H 	 -131.393 	 27.7647 	 -20.5776 	 
H 	 -132.8 	 26.6611 	 -20.7426 	 
C 	 -131.24 	 26.4072 	 -22.306 	 
H 	 -131.786 	 25.792 	 -22.9618 	 
H 	 -130.528 	 26.9644 	 -22.9564 	 
H 	 -130.487 	 25.711 	 -21.8258 	 
S 	 -136.775 	 29.6014 	 -17.2034 	 
C 	 -136.317 	 29.6166 	 -15.4674 	 
C 	 -134.97 	 29.7661 	 -15.2751 	 
C 	 -134.28 	 29.8212 	 -16.5157 	 
C 	 -135.123 	 29.8407 	 -17.6154 	 
H 	 -134.461 	 29.8224 	 -14.3189 	 
C 	 -132.767 	 29.9287 	 -16.5144 	 
H 	 -132.414 	 30.7584 	 -15.881 	 
H 	 -132.426 	 30.1374 	 -17.5312 	 
C 	 -132.049 	 28.6335 	 -16.1192 	 
H 	 -132.132 	 27.899 	 -16.8885 	 
H 	 -132.524 	 28.2267 	 -15.1493 	 
C 	 -130.551 	 28.8138 	 -15.6798 	 
H 	 -130.566 	 29.5064 	 -14.8332 	 
H 	 -129.862 	 28.9955 	 -16.5679 	 
H 	 -130.262 	 27.8721 	 -15.2199 	 
H 	 -134.405 	 31.0984 	 -22.2975 	 
H 	 -137.028 	 29.6545 	 -14.7265 	 
*
