! wB97X-D3 SP def2-SVP
%pal
nprocs 24
end

* xyz 0 1
S 	 -94.3469 	 12.5309 	 -115.987 	 
C 	 -93.0895 	 13.4848 	 -115.276 	 
C 	 -91.9751 	 13.5298 	 -116.143 	 
C 	 -92.2032 	 12.8717 	 -117.403 	 
C 	 -93.4722 	 12.259 	 -117.471 	 
H 	 -91.4649 	 12.8626 	 -118.249 	 
C 	 -90.6762 	 14.0619 	 -115.756 	 
H 	 -90.8422 	 15.085 	 -115.521 	 
H 	 -90.1498 	 14.0856 	 -116.742 	 
C 	 -89.8007 	 13.1977 	 -114.823 	 
H 	 -89.0167 	 13.7289 	 -114.226 	 
H 	 -90.4493 	 12.7261 	 -114.029 	 
C 	 -89.0873 	 12.0823 	 -115.632 	 
H 	 -89.8949 	 11.4561 	 -115.887 	 
H 	 -88.5054 	 12.4307 	 -116.5 	 
H 	 -88.478 	 11.4167 	 -115.136 	 
S 	 -94.4159 	 9.86358 	 -118.633 	 
C 	 -94.9705 	 9.92934 	 -120.316 	 
C 	 -94.7665 	 11.1623 	 -120.904 	 
C 	 -94.3447 	 12.1214 	 -119.937 	 
C 	 -94.1354 	 11.6107 	 -118.635 	 
H 	 -94.9991 	 11.2723 	 -121.898 	 
C 	 -94.1071 	 13.4314 	 -120.389 	 
H 	 -93.129 	 13.5609 	 -120.856 	 
H 	 -93.9107 	 14.149 	 -119.545 	 
C 	 -95.1493 	 14.1367 	 -121.175 	 
H 	 -96.0905 	 14.0509 	 -120.641 	 
H 	 -95.327 	 13.6719 	 -122.144 	 
C 	 -94.9989 	 15.6578 	 -121.568 	 
H 	 -94.2386 	 15.903 	 -122.319 	 
H 	 -94.7986 	 16.2806 	 -120.701 	 
H 	 -95.9846 	 16.0495 	 -121.863 	 
H 	 -93.0529 	 13.9427 	 -114.315 	 
H 	 -95.198 	 9.03526 	 -120.92 	 
*
