! wB97X-D3 SP def2-SVP
%pal
nprocs 24
end

* xyz 0 1
S 	 -106.709 	 60.5511 	 -20.9669 	 
C 	 -107.705 	 61.8691 	 -20.2675 	 
C 	 -108.861 	 61.3767 	 -19.7102 	 
C 	 -108.884 	 59.9751 	 -19.622 	 
C 	 -107.824 	 59.3411 	 -20.2823 	 
H 	 -109.558 	 59.2917 	 -19.1652 	 
C 	 -109.832 	 62.3318 	 -19.0351 	 
H 	 -110.535 	 61.5704 	 -18.5021 	 
H 	 -110.272 	 63.0132 	 -19.7151 	 
C 	 -109.075 	 63.1122 	 -17.9559 	 
H 	 -108.632 	 62.3325 	 -17.3492 	 
H 	 -108.25 	 63.7781 	 -18.3505 	 
C 	 -109.997 	 63.9833 	 -17.156 	 
H 	 -110.978 	 63.4735 	 -16.9126 	 
H 	 -109.641 	 64.3141 	 -16.1432 	 
H 	 -110.27 	 64.8679 	 -17.6704 	 
S 	 -108.165 	 57.0009 	 -21.7897 	 
C 	 -107.713 	 55.463 	 -21.0524 	 
C 	 -107.012 	 55.7447 	 -19.8499 	 
C 	 -106.922 	 57.1281 	 -19.4961 	 
C 	 -107.539 	 57.9369 	 -20.3922 	 
H 	 -106.724 	 54.9645 	 -19.2284 	 
C 	 -106.279 	 57.6534 	 -18.2181 	 
H 	 -105.75 	 58.6354 	 -18.4568 	 
H 	 -105.523 	 56.9124 	 -17.8517 	 
C 	 -107.34 	 57.8242 	 -17.0894 	 
H 	 -107.732 	 56.7831 	 -17.0494 	 
H 	 -108.294 	 58.3436 	 -17.4138 	 
C 	 -106.801 	 58.2834 	 -15.7613 	 
H 	 -105.873 	 57.7608 	 -15.3957 	 
H 	 -107.603 	 58.2618 	 -14.9906 	 
H 	 -106.636 	 59.3714 	 -15.9274 	 
H 	 -107.497 	 62.886 	 -20.4199 	 
H 	 -107.952 	 54.3944 	 -21.293 	 
*
