! wB97X-D3 SP def2-SVP
%pal
nprocs 24
end

* xyz 0 1
S 	 -117.752 	 19.6806 	 -109.637 	 
C 	 -118.559 	 21.0029 	 -110.394 	 
C 	 -119.179 	 20.6838 	 -111.621 	 
C 	 -118.962 	 19.2722 	 -111.934 	 
C 	 -118.143 	 18.6093 	 -111.048 	 
H 	 -119.232 	 18.7284 	 -112.803 	 
C 	 -119.855 	 21.6746 	 -112.505 	 
H 	 -120.699 	 21.9711 	 -111.89 	 
H 	 -120.345 	 21.0981 	 -113.345 	 
C 	 -118.979 	 22.9439 	 -112.924 	 
H 	 -119.632 	 23.7961 	 -113.274 	 
H 	 -118.426 	 23.1233 	 -111.962 	 
C 	 -117.957 	 22.5803 	 -114.082 	 
H 	 -118.276 	 22.9182 	 -115.079 	 
H 	 -116.976 	 22.9343 	 -113.991 	 
H 	 -117.901 	 21.4787 	 -114.211 	 
S 	 -116.314 	 16.9315 	 -112.278 	 
C 	 -116.034 	 15.3557 	 -111.567 	 
C 	 -116.965 	 15.0857 	 -110.593 	 
C 	 -117.737 	 16.2216 	 -110.193 	 
C 	 -117.636 	 17.225 	 -111.171 	 
H 	 -116.939 	 14.1217 	 -110.104 	 
C 	 -118.824 	 16.0917 	 -109.115 	 
H 	 -119.118 	 16.993 	 -108.564 	 
H 	 -118.487 	 15.5731 	 -108.206 	 
C 	 -120.175 	 15.4587 	 -109.698 	 
H 	 -119.915 	 14.5429 	 -110.328 	 
H 	 -120.56 	 16.2635 	 -110.277 	 
C 	 -121.13 	 15.1115 	 -108.551 	 
H 	 -120.808 	 14.2797 	 -108.022 	 
H 	 -122.014 	 14.781 	 -109.166 	 
H 	 -121.407 	 15.9263 	 -107.832 	 
H 	 -118.69 	 22.0024 	 -109.992 	 
H 	 -115.318 	 14.6592 	 -112.047 	 
*
