! wB97X-D3 SP def2-SVP
%pal
nprocs 24
end

* xyz 0 1
S 	 -39.9918 	 16.6425 	 -99.4552 	 
C 	 -40.2042 	 15.2482 	 -100.436 	 
C 	 -41.0155 	 14.2989 	 -99.8596 	 
C 	 -41.4741 	 14.7973 	 -98.5689 	 
C 	 -41.2069 	 16.1388 	 -98.3764 	 
H 	 -42.1104 	 14.2722 	 -97.8408 	 
C 	 -41.3616 	 12.8908 	 -100.239 	 
H 	 -41.6442 	 12.7784 	 -101.315 	 
H 	 -42.1992 	 12.5799 	 -99.7038 	 
C 	 -40.3349 	 11.7831 	 -99.9194 	 
H 	 -40.1282 	 11.955 	 -98.8679 	 
H 	 -40.8463 	 10.8315 	 -100.043 	 
C 	 -39.056 	 11.7886 	 -100.792 	 
H 	 -38.7264 	 12.8349 	 -100.913 	 
H 	 -38.2797 	 11.3055 	 -100.244 	 
H 	 -39.119 	 11.1786 	 -101.732 	 
S 	 -40.2066 	 17.458 	 -96.0759 	 
C 	 -41.367 	 17.9321 	 -94.8718 	 
C 	 -42.6631 	 17.5711 	 -95.1923 	 
C 	 -42.7836 	 16.9617 	 -96.4476 	 
C 	 -41.5391 	 16.8277 	 -97.1043 	 
H 	 -43.4214 	 17.7141 	 -94.3667 	 
C 	 -44.0855 	 16.5242 	 -96.9795 	 
H 	 -43.6905 	 16.0813 	 -97.9596 	 
H 	 -44.7481 	 17.3805 	 -97.226 	 
C 	 -44.884 	 15.4924 	 -96.1169 	 
H 	 -45.2612 	 15.9174 	 -95.1657 	 
H 	 -44.1544 	 14.7717 	 -95.8508 	 
C 	 -46.089 	 14.8183 	 -96.7174 	 
H 	 -45.8071 	 14.5568 	 -97.7078 	 
H 	 -46.8442 	 15.5852 	 -96.9037 	 
H 	 -46.4175 	 13.912 	 -96.2176 	 
H 	 -39.6668 	 15.0273 	 -101.38 	 
H 	 -40.9876 	 18.3523 	 -93.9049 	 
*
