! wB97X-D3 SP def2-SVP
%pal
nprocs 24
end

* xyz 0 1
S 	 36.8141 	 -5.56441 	 -120.607 	 
C 	 35.2805 	 -6.4067 	 -120.928 	 
C 	 34.3967 	 -6.09645 	 -119.888 	 
C 	 34.7996 	 -5.10695 	 -118.957 	 
C 	 36.0929 	 -4.6508 	 -119.219 	 
H 	 34.2491 	 -4.80383 	 -118.129 	 
C 	 33.0534 	 -6.633 	 -119.776 	 
H 	 32.8452 	 -7.11218 	 -120.739 	 
H 	 32.4775 	 -5.70872 	 -119.74 	 
C 	 32.6628 	 -7.73703 	 -118.708 	 
H 	 33.3525 	 -8.52683 	 -118.791 	 
H 	 32.7553 	 -7.283 	 -117.718 	 
C 	 31.2363 	 -8.25125 	 -119.009 	 
H 	 31.1028 	 -8.51574 	 -120.084 	 
H 	 31.0426 	 -9.1571 	 -118.374 	 
H 	 30.4626 	 -7.49858 	 -118.768 	 
S 	 37.9233 	 -2.69796 	 -119.422 	 
C 	 38.3016 	 -1.75498 	 -117.962 	 
C 	 37.7011 	 -2.21146 	 -116.882 	 
C 	 36.809 	 -3.23573 	 -117.178 	 
C 	 36.7436 	 -3.58124 	 -118.529 	 
H 	 37.7987 	 -1.90802 	 -115.846 	 
C 	 36.2291 	 -3.97576 	 -116.011 	 
H 	 37.1062 	 -4.11251 	 -115.313 	 
H 	 36.014 	 -4.97766 	 -116.35 	 
C 	 34.9526 	 -3.49114 	 -115.376 	 
H 	 34.0479 	 -3.83965 	 -115.934 	 
H 	 34.8203 	 -2.43172 	 -115.3 	 
C 	 34.8729 	 -4.04077 	 -113.951 	 
H 	 35.2034 	 -3.41468 	 -113.14 	 
H 	 35.3598 	 -5.03644 	 -113.749 	 
H 	 33.8543 	 -4.34428 	 -113.812 	 
H 	 34.9962 	 -6.93351 	 -121.79 	 
H 	 38.9593 	 -0.932857 	 -118.025 	 
*
