! wB97X-D3 SP def2-SVP
%pal
nprocs 24
end

* xyz 0 1
S 	 -113.246 	 53.7432 	 -93.9648 	 
C 	 -113.927 	 54.778 	 -95.1783 	 
C 	 -114.416 	 55.9368 	 -94.6319 	 
C 	 -114.329 	 56.0131 	 -93.1628 	 
C 	 -113.628 	 54.8803 	 -92.691 	 
H 	 -114.744 	 56.722 	 -92.4841 	 
C 	 -115.085 	 57.0359 	 -95.3659 	 
H 	 -115.828 	 57.4698 	 -94.6377 	 
H 	 -115.614 	 56.6361 	 -96.1917 	 
C 	 -114.116 	 58.0822 	 -95.9213 	 
H 	 -113.578 	 58.5933 	 -95.2081 	 
H 	 -113.39 	 57.5728 	 -96.5607 	 
C 	 -114.897 	 58.9658 	 -96.9167 	 
H 	 -115.726 	 59.5053 	 -96.495 	 
H 	 -114.205 	 59.789 	 -97.2113 	 
H 	 -115.236 	 58.4944 	 -97.8539 	 
S 	 -114.548 	 53.1941 	 -90.6484 	 
C 	 -113.998 	 53.4332 	 -89.0291 	 
C 	 -113.021 	 54.3832 	 -88.9506 	 
C 	 -112.79 	 55.0471 	 -90.2205 	 
C 	 -113.472 	 54.4661 	 -91.2708 	 
H 	 -112.65 	 54.819 	 -88.0137 	 
C 	 -111.865 	 56.2511 	 -90.4034 	 
H 	 -112.392 	 57.1058 	 -90.08 	 
H 	 -111.768 	 56.5565 	 -91.4004 	 
C 	 -110.504 	 56.1988 	 -89.678 	 
H 	 -109.932 	 55.355 	 -90.0324 	 
H 	 -110.62 	 56.0793 	 -88.5955 	 
C 	 -109.693 	 57.4982 	 -89.8858 	 
H 	 -109.363 	 57.6961 	 -90.904 	 
H 	 -108.835 	 57.4709 	 -89.2566 	 
H 	 -110.265 	 58.3189 	 -89.5233 	 
H 	 -113.907 	 54.5791 	 -96.2525 	 
H 	 -114.501 	 52.9467 	 -88.133 	 
*
