! wB97X-D3 SP def2-SVP
%pal
nprocs 24
end

* xyz 0 1
S 	 -120.018 	 55.1263 	 -36.9047 	 
C 	 -118.689 	 54.2438 	 -37.6278 	 
C 	 -118.414 	 54.6705 	 -38.8797 	 
C 	 -119.149 	 55.8566 	 -39.1922 	 
C 	 -119.874 	 56.3934 	 -38.1576 	 
H 	 -118.912 	 56.4303 	 -40.0641 	 
C 	 -117.463 	 54.1219 	 -39.8805 	 
H 	 -117.972 	 53.8982 	 -40.7704 	 
H 	 -117.027 	 53.2346 	 -39.5004 	 
C 	 -116.292 	 55.1242 	 -40.3177 	 
H 	 -115.517 	 54.548 	 -40.8381 	 
H 	 -116.632 	 55.6455 	 -41.2386 	 
C 	 -115.673 	 56.0271 	 -39.1891 	 
H 	 -114.73 	 56.5946 	 -39.3754 	 
H 	 -116.473 	 56.6595 	 -38.7108 	 
H 	 -115.294 	 55.4329 	 -38.3059 	 
S 	 -122.141 	 58.0094 	 -37.6646 	 
C 	 -121.916 	 59.662 	 -37.2337 	 
C 	 -120.593 	 59.9853 	 -37.1132 	 
C 	 -119.792 	 58.954 	 -37.6454 	 
C 	 -120.422 	 57.7724 	 -37.8974 	 
H 	 -120.282 	 60.898 	 -36.6524 	 
C 	 -118.268 	 59.1077 	 -37.6938 	 
H 	 -117.916 	 58.2417 	 -38.1725 	 
H 	 -117.92 	 58.9629 	 -36.6593 	 
C 	 -117.899 	 60.4249 	 -38.3622 	 
H 	 -118.332 	 61.2406 	 -37.8137 	 
H 	 -118.332 	 60.629 	 -39.3497 	 
C 	 -116.282 	 60.618 	 -38.4552 	 
H 	 -115.963 	 61.6128 	 -38.9159 	 
H 	 -115.849 	 59.8083 	 -39.0332 	 
H 	 -115.85 	 60.5876 	 -37.447 	 
H 	 -118.14 	 53.3852 	 -37.1957 	 
H 	 -122.724 	 60.2043 	 -36.7624 	 
*
