! wB97X-D3 SP def2-SVP
%pal
nprocs 24
end

* xyz 0 1
S 	 -51.836 	 11.8658 	 -104.667 	 
C 	 -52.7073 	 10.4453 	 -104.027 	 
C 	 -53.6323 	 10.795 	 -103.088 	 
C 	 -53.6927 	 12.1826 	 -102.76 	 
C 	 -52.7117 	 12.8859 	 -103.513 	 
H 	 -54.4068 	 12.7263 	 -102.182 	 
C 	 -54.5739 	 9.84912 	 -102.497 	 
H 	 -55.2964 	 10.4991 	 -101.887 	 
H 	 -54.0273 	 9.2165 	 -101.739 	 
C 	 -55.3966 	 9.09238 	 -103.458 	 
H 	 -56.1705 	 9.71497 	 -104.002 	 
H 	 -54.7092 	 8.68243 	 -104.218 	 
C 	 -56.0883 	 7.9541 	 -102.775 	 
H 	 -56.8951 	 8.24933 	 -101.986 	 
H 	 -56.6002 	 7.47324 	 -103.598 	 
H 	 -55.4799 	 7.27078 	 -102.24 	 
S 	 -52.4023 	 15.053 	 -101.89 	 
C 	 -51.7018 	 16.4943 	 -102.708 	 
C 	 -52.0139 	 16.5099 	 -104.027 	 
C 	 -52.4731 	 15.2098 	 -104.519 	 
C 	 -52.4925 	 14.304 	 -103.465 	 
H 	 -51.959 	 17.4407 	 -104.565 	 
C 	 -52.8182 	 15.0027 	 -105.993 	 
H 	 -53.5923 	 14.2867 	 -106.074 	 
H 	 -52.0529 	 14.4416 	 -106.476 	 
C 	 -53.3118 	 16.2876 	 -106.754 	 
H 	 -53.6332 	 15.7653 	 -107.699 	 
H 	 -52.423 	 16.915 	 -107.03 	 
C 	 -54.4245 	 17.0556 	 -106.203 	 
H 	 -54.4255 	 18.0197 	 -106.718 	 
H 	 -54.3611 	 17.3067 	 -105.101 	 
H 	 -55.3177 	 16.4748 	 -106.481 	 
H 	 -52.5537 	 9.38428 	 -104.368 	 
H 	 -51.4227 	 17.4404 	 -102.166 	 
*
