! wB97X-D3 SP def2-SVP
%pal
nprocs 24
end

* xyz 0 1
S 	 -116.614 	 17.4649 	 -111.109 	 
C 	 -117.233 	 18.956 	 -110.343 	 
C 	 -118.529 	 18.783 	 -109.848 	 
C 	 -118.88 	 17.4285 	 -109.949 	 
C 	 -117.938 	 16.575 	 -110.539 	 
H 	 -119.803 	 16.9287 	 -109.665 	 
C 	 -119.413 	 19.7263 	 -109.176 	 
H 	 -120.365 	 19.1243 	 -109.261 	 
H 	 -119.669 	 20.662 	 -109.765 	 
C 	 -119.063 	 20.0363 	 -107.714 	 
H 	 -119.274 	 19.1306 	 -107.135 	 
H 	 -117.989 	 20.2728 	 -107.662 	 
C 	 -119.975 	 21.1366 	 -107.098 	 
H 	 -119.796 	 22.1441 	 -107.407 	 
H 	 -121.045 	 20.8805 	 -107.271 	 
H 	 -119.91 	 21.1681 	 -105.999 	 
S 	 -117.999 	 14.056 	 -109.468 	 
C 	 -117.746 	 12.609 	 -110.431 	 
C 	 -117.694 	 13.0022 	 -111.74 	 
C 	 -117.958 	 14.3927 	 -111.978 	 
C 	 -118.007 	 15.1398 	 -110.832 	 
H 	 -117.587 	 12.2918 	 -112.5 	 
C 	 -117.886 	 14.9783 	 -113.407 	 
H 	 -116.947 	 15.5521 	 -113.52 	 
H 	 -118.63 	 15.7637 	 -113.599 	 
C 	 -117.938 	 14.0175 	 -114.638 	 
H 	 -118.906 	 13.5616 	 -114.643 	 
H 	 -117.169 	 13.2304 	 -114.46 	 
C 	 -117.726 	 14.7587 	 -116.005 	 
H 	 -118.633 	 15.4181 	 -116.106 	 
H 	 -117.841 	 14.0535 	 -116.846 	 
H 	 -116.818 	 15.3624 	 -116.145 	 
H 	 -116.767 	 19.8939 	 -110.531 	 
H 	 -117.505 	 11.5598 	 -110.093 	 
*
