! wB97X-D3 SP def2-SVP
%pal
nprocs 24
end

* xyz 0 1
S 	 -40.3752 	 10.0852 	 25.7703 	 
C 	 -39.8139 	 11.1328 	 27.1058 	 
C 	 -39.1877 	 10.4048 	 28.1127 	 
C 	 -39.1762 	 9.03232 	 27.8149 	 
C 	 -39.8308 	 8.74397 	 26.6279 	 
H 	 -38.7669 	 8.13389 	 28.3263 	 
C 	 -38.5773 	 10.9484 	 29.4032 	 
H 	 -38.21 	 11.9659 	 29.2402 	 
H 	 -37.7115 	 10.3602 	 29.5479 	 
C 	 -39.4084 	 10.7046 	 30.651 	 
H 	 -38.9785 	 11.4831 	 31.3506 	 
H 	 -40.4712 	 10.8832 	 30.502 	 
C 	 -39.19 	 9.34712 	 31.2709 	 
H 	 -38.1703 	 9.12043 	 31.4519 	 
H 	 -39.7661 	 9.38853 	 32.225 	 
H 	 -39.5732 	 8.5663 	 30.6328 	 
S 	 -39.0823 	 6.77634 	 24.8054 	 
C 	 -39.6642 	 5.17176 	 25.0478 	 
C 	 -40.6373 	 5.08592 	 26.0024 	 
C 	 -40.7457 	 6.30607 	 26.7864 	 
C 	 -40.0826 	 7.33478 	 26.1823 	 
H 	 -41.0981 	 4.10907 	 26.1875 	 
C 	 -41.5504 	 6.44079 	 28.0895 	 
H 	 -42.4216 	 7.12665 	 27.8242 	 
H 	 -40.9122 	 6.9372 	 28.7943 	 
C 	 -42.073 	 5.22096 	 28.7528 	 
H 	 -42.7884 	 4.76581 	 27.997 	 
H 	 -42.7175 	 5.56341 	 29.5964 	 
C 	 -41.0604 	 4.19898 	 29.3137 	 
H 	 -41.6116 	 3.42594 	 29.7414 	 
H 	 -40.4561 	 4.72033 	 30.1068 	 
H 	 -40.3575 	 3.7657 	 28.6515 	 
H 	 -39.9479 	 12.2014 	 27.1151 	 
H 	 -39.3899 	 4.32946 	 24.3531 	 
*
