! wB97X-D3 SP def2-SVP
%pal
nprocs 24
end

* xyz 0 1
S 	 -46.5915 	 -50.2208 	 -71.9303 	 
C 	 -46.3728 	 -51.1566 	 -73.4542 	 
C 	 -46.0545 	 -52.4616 	 -73.2158 	 
C 	 -45.9228 	 -52.7417 	 -71.8036 	 
C 	 -46.1337 	 -51.6397 	 -70.9667 	 
H 	 -45.6295 	 -53.6182 	 -71.2891 	 
C 	 -45.8952 	 -53.5895 	 -74.2199 	 
H 	 -45.0644 	 -54.1998 	 -73.9364 	 
H 	 -45.5447 	 -53.0783 	 -75.1002 	 
C 	 -47.1602 	 -54.3359 	 -74.6464 	 
H 	 -47.9912 	 -53.6159 	 -74.7867 	 
H 	 -46.8808 	 -54.8758 	 -75.5416 	 
C 	 -47.5524 	 -55.4348 	 -73.6112 	 
H 	 -48.4765 	 -55.9064 	 -73.8218 	 
H 	 -46.8348 	 -56.2574 	 -73.7541 	 
H 	 -47.6526 	 -55.1593 	 -72.5498 	 
S 	 -47.1691 	 -50.6268 	 -68.6305 	 
C 	 -46.2495 	 -50.8782 	 -67.1439 	 
C 	 -45.0337 	 -51.498 	 -67.3641 	 
C 	 -44.8843 	 -51.948 	 -68.7334 	 
C 	 -45.9451 	 -51.4965 	 -69.5401 	 
H 	 -44.2776 	 -51.5747 	 -66.5754 	 
C 	 -43.6168 	 -52.5824 	 -69.1956 	 
H 	 -43.8201 	 -52.9133 	 -70.2233 	 
H 	 -43.4513 	 -53.4324 	 -68.5711 	 
C 	 -42.3387 	 -51.7494 	 -69.0645 	 
H 	 -42.0883 	 -51.3785 	 -68.0182 	 
H 	 -42.5483 	 -50.8198 	 -69.4967 	 
C 	 -41.141 	 -52.3293 	 -69.9091 	 
H 	 -41.2488 	 -52.2028 	 -71.0194 	 
H 	 -41.0417 	 -53.3981 	 -69.6852 	 
H 	 -40.1917 	 -51.9402 	 -69.4769 	 
H 	 -46.5107 	 -50.6789 	 -74.4501 	 
H 	 -46.4662 	 -50.4961 	 -66.1056 	 
*
