! wB97X-D3 SP def2-SVP
%pal
nprocs 24
end

* xyz 0 1
S 	 -144.757 	 24.9784 	 -18.53 	 
C 	 -145.239 	 23.3982 	 -19.0358 	 
C 	 -144.239 	 22.7384 	 -19.6582 	 
C 	 -143.15 	 23.6194 	 -19.8543 	 
C 	 -143.25 	 24.8201 	 -19.2319 	 
H 	 -142.227 	 23.3694 	 -20.3325 	 
C 	 -144.232 	 21.1958 	 -20.0465 	 
H 	 -144.924 	 20.6935 	 -19.3127 	 
H 	 -143.188 	 20.8619 	 -20.1264 	 
C 	 -144.831 	 21.005 	 -21.4677 	 
H 	 -145.867 	 21.3251 	 -21.4345 	 
H 	 -144.368 	 21.7427 	 -22.1235 	 
C 	 -144.703 	 19.6044 	 -21.9786 	 
H 	 -144.637 	 18.946 	 -21.11 	 
H 	 -145.521 	 19.2584 	 -22.6316 	 
H 	 -143.726 	 19.517 	 -22.5224 	 
S 	 -142.674 	 27.4668 	 -19.9345 	 
C 	 -141.251 	 28.2102 	 -19.1171 	 
C 	 -140.521 	 27.2742 	 -18.429 	 
C 	 -141.093 	 25.9962 	 -18.3921 	 
C 	 -142.275 	 25.9329 	 -19.1052 	 
H 	 -139.566 	 27.4392 	 -17.9593 	 
C 	 -140.625 	 24.9185 	 -17.4287 	 
H 	 -141.434 	 24.2266 	 -17.4476 	 
H 	 -140.589 	 25.2976 	 -16.4111 	 
C 	 -139.306 	 24.3203 	 -17.8384 	 
H 	 -138.421 	 24.9651 	 -17.9056 	 
H 	 -139.376 	 23.8558 	 -18.7704 	 
C 	 -138.839 	 23.1423 	 -17.0537 	 
H 	 -139.098 	 23.3787 	 -16.0302 	 
H 	 -137.758 	 22.9903 	 -17.0685 	 
H 	 -139.277 	 22.1949 	 -17.4046 	 
H 	 -145.998 	 22.896 	 -18.493 	 
H 	 -140.959 	 29.261 	 -19.3875 	 
*
