! wB97X-D3 SP def2-SVP
%pal
nprocs 24
end

* xyz 0 1
S 	 38.8732 	 -4.87027 	 -113.995 	 
C 	 38.9743 	 -6.49124 	 -113.363 	 
C 	 37.8501 	 -6.84214 	 -112.624 	 
C 	 36.8932 	 -5.76735 	 -112.528 	 
C 	 37.3136 	 -4.61483 	 -113.173 	 
H 	 35.9162 	 -5.76734 	 -112.156 	 
C 	 37.5848 	 -8.23136 	 -112.146 	 
H 	 38.3138 	 -8.88741 	 -112.651 	 
H 	 36.586 	 -8.4413 	 -112.518 	 
C 	 37.5614 	 -8.32361 	 -110.581 	 
H 	 38.5365 	 -8.11293 	 -110.177 	 
H 	 36.8766 	 -7.56777 	 -110.194 	 
C 	 37.1661 	 -9.76556 	 -110.018 	 
H 	 37.6825 	 -9.72936 	 -109.046 	 
H 	 36.0584 	 -9.7553 	 -109.959 	 
H 	 37.7261 	 -10.4936 	 -110.626 	 
S 	 36.9896 	 -1.86162 	 -112.994 	 
C 	 35.7581 	 -1.05855 	 -113.81 	 
C 	 34.9051 	 -1.96499 	 -114.425 	 
C 	 35.3023 	 -3.3734 	 -114.255 	 
C 	 36.4687 	 -3.46679 	 -113.567 	 
H 	 34.0529 	 -1.63333 	 -114.96 	 
C 	 34.5377 	 -4.51402 	 -114.927 	 
H 	 35.0368 	 -5.39621 	 -114.775 	 
H 	 34.5907 	 -4.30005 	 -115.988 	 
C 	 33.0585 	 -4.58054 	 -114.475 	 
H 	 32.4143 	 -5.22248 	 -115.039 	 
H 	 32.6629 	 -3.62041 	 -114.658 	 
C 	 33.0142 	 -5.14555 	 -113.063 	 
H 	 31.9658 	 -5.13416 	 -112.706 	 
H 	 33.4848 	 -4.5663 	 -112.237 	 
H 	 33.346 	 -6.18995 	 -112.993 	 
H 	 39.7478 	 -7.18663 	 -113.722 	 
H 	 35.7522 	 0.0854821 	 -113.803 	 
*
