! wB97X-D3 SP def2-SVP
%pal
nprocs 24
end

* xyz 0 1
S 	 -54.0086 	 16.7874 	 27.6567 	 
C 	 -53.1648 	 17.0893 	 26.1114 	 
C 	 -51.9082 	 17.6144 	 26.3507 	 
C 	 -51.7795 	 17.9834 	 27.7272 	 
C 	 -52.7617 	 17.5557 	 28.5816 	 
H 	 -50.9258 	 18.5105 	 28.1088 	 
C 	 -50.7483 	 17.9222 	 25.3425 	 
H 	 -50.1849 	 18.6305 	 25.9364 	 
H 	 -51.2556 	 18.4628 	 24.583 	 
C 	 -49.9123 	 16.7122 	 24.9405 	 
H 	 -50.2418 	 16.3711 	 23.9772 	 
H 	 -48.8756 	 16.9967 	 24.7425 	 
C 	 -49.8366 	 15.5644 	 25.9339 	 
H 	 -50.646 	 14.8405 	 25.8676 	 
H 	 -48.9086 	 14.982 	 25.8241 	 
H 	 -49.7977 	 15.9553 	 26.9609 	 
S 	 -52.8142 	 18.9377 	 30.8511 	 
C 	 -52.412 	 18.3075 	 32.3926 	 
C 	 -52.2421 	 16.9091 	 32.233 	 
C 	 -52.2893 	 16.4785 	 30.8493 	 
C 	 -52.7079 	 17.4874 	 30.0079 	 
H 	 -52.0039 	 16.3279 	 33.079 	 
C 	 -52.1306 	 14.9418 	 30.5445 	 
H 	 -53.0491 	 14.3415 	 30.3929 	 
H 	 -51.7568 	 14.5759 	 31.504 	 
C 	 -51.1256 	 14.5751 	 29.44 	 
H 	 -50.2727 	 15.3052 	 29.5701 	 
H 	 -51.4344 	 14.8271 	 28.4166 	 
C 	 -50.6035 	 13.1081 	 29.4462 	 
H 	 -51.3189 	 12.3828 	 29.0283 	 
H 	 -50.3244 	 12.7824 	 30.4364 	 
H 	 -49.6783 	 12.9806 	 28.8506 	 
H 	 -53.5315 	 16.7797 	 25.1436 	 
H 	 -52.2763 	 18.8766 	 33.2965 	 
*
