! wB97X-D3 SP def2-SVP
%pal
nprocs 24
end

* xyz 0 1
S 	 -96.4279 	 -22.1433 	 -65.8397 	 
C 	 -98.1216 	 -21.8493 	 -66.3028 	 
C 	 -98.7312 	 -21.1448 	 -65.2969 	 
C 	 -97.8644 	 -20.8504 	 -64.2266 	 
C 	 -96.5996 	 -21.2686 	 -64.419 	 
H 	 -98.2879 	 -20.4136 	 -63.3224 	 
C 	 -100.226 	 -20.9256 	 -65.3529 	 
H 	 -100.709 	 -21.7482 	 -64.8104 	 
H 	 -100.402 	 -20.9285 	 -66.4145 	 
C 	 -100.75 	 -19.6436 	 -64.8478 	 
H 	 -100.586 	 -19.6928 	 -63.7769 	 
H 	 -100.382 	 -18.6996 	 -65.292 	 
C 	 -102.259 	 -19.5887 	 -65.0719 	 
H 	 -102.754 	 -18.7286 	 -64.59 	 
H 	 -102.553 	 -19.513 	 -66.0972 	 
H 	 -102.655 	 -20.4323 	 -64.4848 	 
S 	 -94.7862 	 -22.5393 	 -62.9014 	 
C 	 -93.9206 	 -21.7142 	 -61.5315 	 
C 	 -94.2602 	 -20.3645 	 -61.5707 	 
C 	 -95.2638 	 -20.0243 	 -62.5342 	 
C 	 -95.5778 	 -21.0668 	 -63.3901 	 
H 	 -94.083 	 -19.698 	 -60.6438 	 
C 	 -95.9196 	 -18.6412 	 -62.5815 	 
H 	 -95.7984 	 -18.2567 	 -61.5712 	 
H 	 -96.928 	 -18.762 	 -62.8453 	 
C 	 -95.295 	 -17.8023 	 -63.7045 	 
H 	 -95.577 	 -18.2298 	 -64.6668 	 
H 	 -94.2298 	 -17.6916 	 -63.4862 	 
C 	 -95.7464 	 -16.3889 	 -63.6798 	 
H 	 -96.7892 	 -16.2382 	 -63.9514 	 
H 	 -95.1789 	 -15.7962 	 -64.4769 	 
H 	 -95.5311 	 -15.8636 	 -62.7902 	 
H 	 -98.5854 	 -22.057 	 -67.2359 	 
H 	 -93.2039 	 -22.1766 	 -60.8435 	 
*
