! wB97X-D3 SP def2-SVP
%pal
nprocs 24
end

* xyz 0 1
S 	 -58.2518 	 -0.492313 	 -30.7354 	 
C 	 -58.3743 	 1.14559 	 -31.167 	 
C 	 -58.1944 	 1.90776 	 -30.0577 	 
C 	 -57.9915 	 1.10673 	 -28.8931 	 
C 	 -58.0199 	 -0.222092 	 -29.0618 	 
H 	 -57.886 	 1.54523 	 -27.9345 	 
C 	 -58.177 	 3.39354 	 -30.0211 	 
H 	 -57.1221 	 3.6865 	 -29.9406 	 
H 	 -58.7549 	 3.68948 	 -29.1957 	 
C 	 -58.7538 	 4.09704 	 -31.2237 	 
H 	 -58.1657 	 3.97586 	 -32.1155 	 
H 	 -59.7983 	 3.74234 	 -31.2377 	 
C 	 -58.9124 	 5.66437 	 -31.0218 	 
H 	 -58.0016 	 6.25813 	 -30.8646 	 
H 	 -59.4306 	 5.98055 	 -31.9305 	 
H 	 -59.5977 	 5.88073 	 -30.1533 	 
S 	 -58.88 	 -2.62797 	 -27.9933 	 
C 	 -57.8551 	 -3.38955 	 -26.7748 	 
C 	 -56.7998 	 -2.62395 	 -26.4487 	 
C 	 -56.6968 	 -1.38091 	 -27.0939 	 
C 	 -57.6487 	 -1.31668 	 -28.1026 	 
H 	 -56.1732 	 -3.09685 	 -25.7506 	 
C 	 -55.6201 	 -0.307667 	 -26.8883 	 
H 	 -56.012 	 0.50205 	 -26.2757 	 
H 	 -55.577 	 0.257008 	 -27.8342 	 
C 	 -54.2128 	 -0.904995 	 -26.5429 	 
H 	 -54.1409 	 -1.82572 	 -27.0709 	 
H 	 -54.236 	 -1.14883 	 -25.489 	 
C 	 -53.0036 	 -0.0836808 	 -26.9152 	 
H 	 -53.1968 	 0.975992 	 -26.7764 	 
H 	 -52.7408 	 -0.333042 	 -27.9326 	 
H 	 -52.1371 	 -0.262427 	 -26.2953 	 
H 	 -58.6753 	 1.59868 	 -32.1322 	 
H 	 -58.049 	 -4.32952 	 -26.3513 	 
*
