! wB97X-D3 SP def2-SVP
%pal
nprocs 24
end

* xyz 0 1
S 	 -100.079 	 -25.5629 	 -65.9622 	 
C 	 -99.8655 	 -23.8434 	 -65.8036 	 
C 	 -98.8104 	 -23.5322 	 -64.9522 	 
C 	 -98.4091 	 -24.6837 	 -64.173 	 
C 	 -98.9077 	 -25.8694 	 -64.7386 	 
H 	 -97.7981 	 -24.8174 	 -63.3358 	 
C 	 -98.2447 	 -22.1184 	 -64.7397 	 
H 	 -98.1167 	 -21.9565 	 -63.7219 	 
H 	 -98.9962 	 -21.4224 	 -65.1708 	 
C 	 -96.7935 	 -21.886 	 -65.3397 	 
H 	 -96.7689 	 -22.2176 	 -66.373 	 
H 	 -96.6598 	 -20.8301 	 -65.3747 	 
C 	 -95.6379 	 -22.5895 	 -64.585 	 
H 	 -94.7585 	 -22.7143 	 -65.2709 	 
H 	 -95.4288 	 -22.1081 	 -63.6666 	 
H 	 -95.8492 	 -23.6418 	 -64.396 	 
S 	 -99.8324 	 -28.0124 	 -63.2477 	 
C 	 -98.8387 	 -29.4236 	 -62.9908 	 
C 	 -97.6192 	 -29.2274 	 -63.5742 	 
C 	 -97.4513 	 -27.9029 	 -64.0999 	 
C 	 -98.6139 	 -27.1864 	 -64.2229 	 
H 	 -96.8993 	 -29.9514 	 -63.4147 	 
C 	 -96.0905 	 -27.4183 	 -64.6249 	 
H 	 -96.3783 	 -26.6025 	 -65.3674 	 
H 	 -95.7888 	 -28.3416 	 -65.1298 	 
C 	 -95.0771 	 -27.0049 	 -63.583 	 
H 	 -94.7086 	 -27.8467 	 -63.0561 	 
H 	 -95.6068 	 -26.3728 	 -62.847 	 
C 	 -93.978 	 -26.166 	 -64.204 	 
H 	 -93.3984 	 -26.7873 	 -64.9165 	 
H 	 -93.3588 	 -25.8112 	 -63.4497 	 
H 	 -94.3225 	 -25.3808 	 -64.769 	 
H 	 -100.185 	 -23.1223 	 -66.5231 	 
H 	 -99.3121 	 -30.2693 	 -62.5186 	 
*
