! wB97X-D3 SP def2-SVP
%pal
nprocs 24
end

* xyz 0 1
S 	 -53.3147 	 6.96887 	 -19.1053 	 
C 	 -51.6866 	 6.76948 	 -19.4568 	 
C 	 -50.7999 	 7.22855 	 -18.5221 	 
C 	 -51.455 	 8.13103 	 -17.7011 	 
C 	 -52.8208 	 8.07822 	 -17.8046 	 
H 	 -50.9812 	 8.7724 	 -16.9969 	 
C 	 -49.3114 	 7.28169 	 -18.5404 	 
H 	 -49.0109 	 6.35865 	 -18.118 	 
H 	 -48.9659 	 8.0707 	 -17.8808 	 
C 	 -48.7407 	 7.38873 	 -19.9109 	 
H 	 -48.928 	 6.41397 	 -20.3665 	 
H 	 -49.4438 	 8.12136 	 -20.4085 	 
C 	 -47.2695 	 7.80087 	 -19.8278 	 
H 	 -47.048 	 8.71244 	 -19.2686 	 
H 	 -46.6224 	 7.01714 	 -19.4567 	 
H 	 -46.7445 	 8.01091 	 -20.7831 	 
S 	 -54.945 	 9.77984 	 -18.1382 	 
C 	 -55.5723 	 10.705 	 -16.7907 	 
C 	 -54.835 	 10.4938 	 -15.6744 	 
C 	 -53.7582 	 9.58318 	 -15.8517 	 
C 	 -53.7534 	 8.95734 	 -17.0956 	 
H 	 -55.1777 	 11.0328 	 -14.8089 	 
C 	 -52.8287 	 9.1397 	 -14.7768 	 
H 	 -52.272 	 8.20647 	 -14.9162 	 
H 	 -53.4315 	 8.89318 	 -13.9188 	 
C 	 -51.7101 	 10.1966 	 -14.5019 	 
H 	 -52.1498 	 11.0632 	 -13.9406 	 
H 	 -51.4089 	 10.6485 	 -15.5248 	 
C 	 -50.6444 	 9.78496 	 -13.5075 	 
H 	 -51.006 	 9.51997 	 -12.5211 	 
H 	 -49.7885 	 10.4559 	 -13.4887 	 
H 	 -50.231 	 8.8398 	 -13.7308 	 
H 	 -51.3038 	 6.33629 	 -20.4165 	 
H 	 -56.3972 	 11.3725 	 -16.8928 	 
*
