! wB97X-D3 SP def2-SVP
%pal
nprocs 24
end

* xyz 0 1
S 	 -54.9279 	 14.9816 	 -93.0179 	 
C 	 -53.2693 	 14.5822 	 -92.4952 	 
C 	 -53.1598 	 14.9439 	 -91.1523 	 
C 	 -54.0946 	 15.9441 	 -90.7557 	 
C 	 -54.9808 	 16.2406 	 -91.8036 	 
H 	 -54.0753 	 16.4526 	 -89.8165 	 
C 	 -51.9994 	 14.3367 	 -90.3537 	 
H 	 -51.2876 	 15.1321 	 -90.5292 	 
H 	 -51.5427 	 13.4124 	 -90.827 	 
C 	 -52.3054 	 14.1813 	 -88.8642 	 
H 	 -51.9008 	 15.0924 	 -88.3922 	 
H 	 -53.375 	 14.0725 	 -88.7025 	 
C 	 -51.5658 	 13.0625 	 -88.0537 	 
H 	 -50.4934 	 13.084 	 -88.0722 	 
H 	 -51.7542 	 13.152 	 -86.989 	 
H 	 -51.8217 	 12.0334 	 -88.3656 	 
S 	 -57.655 	 17.0853 	 -92.0568 	 
C 	 -57.9321 	 18.8375 	 -91.9824 	 
C 	 -56.7951 	 19.5496 	 -91.5975 	 
C 	 -55.6197 	 18.7041 	 -91.5765 	 
C 	 -55.9171 	 17.3599 	 -91.8812 	 
H 	 -56.8465 	 20.6406 	 -91.4996 	 
C 	 -54.2695 	 19.3239 	 -91.2852 	 
H 	 -53.5795 	 18.4978 	 -91.1162 	 
H 	 -54.363 	 19.9264 	 -90.3259 	 
C 	 -53.6822 	 20.0508 	 -92.4894 	 
H 	 -54.1806 	 21.0006 	 -92.7581 	 
H 	 -53.7181 	 19.43 	 -93.4296 	 
C 	 -52.1539 	 20.4052 	 -92.3067 	 
H 	 -51.559 	 19.5235 	 -92.0898 	 
H 	 -52.1174 	 21.0228 	 -91.4165 	 
H 	 -51.7384 	 20.8332 	 -93.1713 	 
H 	 -52.573 	 13.8825 	 -92.991 	 
H 	 -58.9449 	 19.2832 	 -91.9925 	 
*
