! wB97X-D3 SP def2-SVP
%pal
nprocs 24
end

* xyz 0 1
S 	 21.7155 	 -24.4578 	 -119.264 	 
C 	 20.9845 	 -25.8675 	 -120.066 	 
C 	 21.6865 	 -27.014 	 -119.723 	 
C 	 22.559 	 -26.8379 	 -118.579 	 
C 	 22.6411 	 -25.5026 	 -118.204 	 
H 	 23.0414 	 -27.6703 	 -118.036 	 
C 	 21.4181 	 -28.3419 	 -120.351 	 
H 	 20.5645 	 -28.7451 	 -119.864 	 
H 	 22.3166 	 -29.0149 	 -120.205 	 
C 	 21.0481 	 -28.2407 	 -121.855 	 
H 	 20.1151 	 -27.7033 	 -121.8 	 
H 	 21.8312 	 -27.644 	 -122.454 	 
C 	 20.9676 	 -29.5825 	 -122.546 	 
H 	 20.4328 	 -29.4399 	 -123.48 	 
H 	 22.0135 	 -29.9287 	 -122.75 	 
H 	 20.3687 	 -30.3158 	 -121.973 	 
S 	 25.0973 	 -25.1542 	 -117.196 	 
C 	 25.2375 	 -24.2895 	 -115.595 	 
C 	 24.0297 	 -23.9984 	 -114.963 	 
C 	 22.9539 	 -24.3553 	 -115.84 	 
C 	 23.364 	 -24.9485 	 -117.028 	 
H 	 23.8019 	 -23.5639 	 -114.034 	 
C 	 21.5365 	 -24.1189 	 -115.438 	 
H 	 20.9776 	 -24.0657 	 -116.367 	 
H 	 21.378 	 -23.1655 	 -114.99 	 
C 	 20.9634 	 -25.2816 	 -114.538 	 
H 	 21.522 	 -25.3406 	 -113.565 	 
H 	 21.0947 	 -26.1917 	 -115.173 	 
C 	 19.5226 	 -25.0363 	 -114.082 	 
H 	 19.2639 	 -25.6981 	 -113.322 	 
H 	 18.7791 	 -25.3033 	 -114.837 	 
H 	 19.3427 	 -24.0501 	 -113.855 	 
H 	 20.331 	 -25.8333 	 -120.92 	 
H 	 26.1529 	 -23.9438 	 -115.11 	 
*
