! wB97X-D3 SP def2-SVP
%pal
nprocs 24
end

* xyz 0 1
S 	 -103.701 	 -0.819665 	 -105.223 	 
C 	 -103.318 	 0.348716 	 -103.978 	 
C 	 -103.273 	 1.65581 	 -104.526 	 
C 	 -103.723 	 1.65095 	 -105.875 	 
C 	 -104.033 	 0.393767 	 -106.399 	 
H 	 -103.926 	 2.53503 	 -106.46 	 
C 	 -102.875 	 2.86084 	 -103.745 	 
H 	 -102.249 	 3.53693 	 -104.422 	 
H 	 -102.135 	 2.52921 	 -102.986 	 
C 	 -103.957 	 3.73221 	 -103.138 	 
H 	 -103.513 	 4.53824 	 -102.536 	 
H 	 -104.6 	 4.16136 	 -103.919 	 
C 	 -104.798 	 2.87861 	 -102.178 	 
H 	 -105.469 	 3.60859 	 -101.645 	 
H 	 -105.293 	 2.06355 	 -102.656 	 
H 	 -104.187 	 2.25835 	 -101.473 	 
S 	 -103.939 	 0.482811 	 -109.111 	 
C 	 -105.167 	 -0.315538 	 -110.082 	 
C 	 -106.137 	 -0.707222 	 -109.298 	 
C 	 -105.935 	 -0.5265 	 -107.917 	 
C 	 -104.733 	 0.0841575 	 -107.643 	 
H 	 -107.002 	 -1.22032 	 -109.725 	 
C 	 -106.916 	 -0.985196 	 -106.916 	 
H 	 -106.412 	 -1.63668 	 -106.222 	 
H 	 -107.651 	 -1.64106 	 -107.356 	 
C 	 -107.497 	 0.170043 	 -106.174 	 
H 	 -108.015 	 0.758083 	 -106.929 	 
H 	 -106.654 	 0.86414 	 -105.798 	 
C 	 -108.445 	 -0.0585658 	 -104.975 	 
H 	 -108.006 	 -0.748976 	 -104.238 	 
H 	 -109.4 	 -0.467147 	 -105.364 	 
H 	 -108.681 	 0.890337 	 -104.5 	 
H 	 -102.965 	 0.196702 	 -103.019 	 
H 	 -104.936 	 -0.596467 	 -111.129 	 
*
