! wB97X-D3 SP def2-SVP
%pal
nprocs 24
end

* xyz 0 1
S 	 -91.7145 	 53.299 	 -94.1826 	 
C 	 -92.5749 	 52.3005 	 -93.0384 	 
C 	 -92.9393 	 51.0859 	 -93.5285 	 
C 	 -92.6078 	 51.0516 	 -94.9694 	 
C 	 -92.0955 	 52.2257 	 -95.4713 	 
H 	 -93.0764 	 50.3884 	 -95.666 	 
C 	 -93.7208 	 50.0034 	 -92.805 	 
H 	 -93.6175 	 49.0736 	 -93.3807 	 
H 	 -94.7911 	 50.2484 	 -92.8159 	 
C 	 -93.3237 	 49.8321 	 -91.353 	 
H 	 -92.2984 	 49.4322 	 -91.3721 	 
H 	 -93.3718 	 50.8341 	 -90.9927 	 
C 	 -94.2961 	 48.7717 	 -90.7734 	 
H 	 -95.2272 	 49.2294 	 -90.5755 	 
H 	 -94.5997 	 47.9801 	 -91.375 	 
H 	 -93.907 	 48.19 	 -90.0253 	 
S 	 -90.1706 	 52.8705 	 -97.1692 	 
C 	 -90.6145 	 52.9594 	 -98.8856 	 
C 	 -91.9828 	 53.0466 	 -99.1107 	 
C 	 -92.6594 	 52.7261 	 -97.9033 	 
C 	 -91.8027 	 52.5488 	 -96.8436 	 
H 	 -92.4209 	 53.3412 	 -100.058 	 
C 	 -94.1956 	 52.6256 	 -97.8697 	 
H 	 -94.5934 	 52.4233 	 -96.8668 	 
H 	 -94.3507 	 51.6763 	 -98.355 	 
C 	 -95.0888 	 53.804 	 -98.3511 	 
H 	 -95.1609 	 53.6369 	 -99.4248 	 
H 	 -94.4815 	 54.7186 	 -98.3461 	 
C 	 -96.4357 	 54.0171 	 -97.6983 	 
H 	 -96.3973 	 54.0853 	 -96.6501 	 
H 	 -97.0089 	 53.0942 	 -97.713 	 
H 	 -97.0057 	 54.7448 	 -98.2296 	 
H 	 -92.9354 	 52.6387 	 -92.0862 	 
H 	 -89.9579 	 53.2596 	 -99.648 	 
*
