! wB97X-D3 SP def2-SVP
%pal
nprocs 24
end

* xyz 0 1
S 	 -94.0292 	 12.9904 	 -114.407 	 
C 	 -92.863 	 14.3065 	 -114.58 	 
C 	 -91.8484 	 14.0662 	 -115.558 	 
C 	 -91.9909 	 12.7773 	 -116.185 	 
C 	 -93.168 	 12.1763 	 -115.757 	 
H 	 -91.2578 	 12.2495 	 -116.784 	 
C 	 -90.7098 	 14.9642 	 -115.75 	 
H 	 -89.8051 	 14.4065 	 -115.819 	 
H 	 -90.6446 	 15.5745 	 -114.904 	 
C 	 -90.9538 	 15.8342 	 -117.002 	 
H 	 -90.0624 	 16.391 	 -117.382 	 
H 	 -91.2315 	 15.1929 	 -117.81 	 
C 	 -92.1301 	 16.8232 	 -116.825 	 
H 	 -93.1662 	 16.4447 	 -116.637 	 
H 	 -91.9021 	 17.4792 	 -115.959 	 
H 	 -92.2616 	 17.4451 	 -117.715 	 
S 	 -94.2901 	 9.67831 	 -115.116 	 
C 	 -94.4897 	 8.58163 	 -116.413 	 
C 	 -94.2252 	 9.10269 	 -117.692 	 
C 	 -93.7314 	 10.4257 	 -117.578 	 
C 	 -93.6276 	 10.8993 	 -116.255 	 
H 	 -94.3369 	 8.48209 	 -118.599 	 
C 	 -93.2708 	 11.2344 	 -118.827 	 
H 	 -92.175 	 11.2198 	 -118.902 	 
H 	 -93.5178 	 12.2834 	 -118.672 	 
C 	 -93.7661 	 10.8184 	 -120.228 	 
H 	 -94.9037 	 10.8432 	 -120.116 	 
H 	 -93.4906 	 9.77661 	 -120.259 	 
C 	 -93.1437 	 11.5077 	 -121.41 	 
H 	 -93.5049 	 11.0357 	 -122.416 	 
H 	 -92.0928 	 11.5205 	 -121.316 	 
H 	 -93.3854 	 12.5377 	 -121.399 	 
H 	 -92.6 	 15.0847 	 -113.826 	 
H 	 -94.9061 	 7.57081 	 -116.346 	 
*
