! wB97X-D3 SP def2-SVP
%pal
nprocs 24
end

* xyz 0 1
S 	 -100.08 	 -1.39961 	 -120.178 	 
C 	 -101.608 	 -0.809665 	 -120.68 	 
C 	 -102.343 	 -0.28189 	 -119.623 	 
C 	 -101.538 	 -0.087304 	 -118.471 	 
C 	 -100.312 	 -0.68042 	 -118.603 	 
H 	 -101.843 	 0.319062 	 -117.483 	 
C 	 -103.76 	 0.212367 	 -119.709 	 
H 	 -104.175 	 -0.223436 	 -120.569 	 
H 	 -103.69 	 1.24463 	 -119.933 	 
C 	 -104.814 	 0.11455 	 -118.54 	 
H 	 -105.032 	 -0.917531 	 -118.309 	 
H 	 -104.24 	 0.405006 	 -117.673 	 
C 	 -106.082 	 0.99508 	 -118.762 	 
H 	 -106.763 	 0.586742 	 -119.486 	 
H 	 -106.717 	 0.98159 	 -117.858 	 
H 	 -105.865 	 1.93951 	 -119.17 	 
S 	 -99.1919 	 0.705352 	 -116.485 	 
C 	 -97.9119 	 0.00625118 	 -115.615 	 
C 	 -97.704 	 -1.30785 	 -115.997 	 
C 	 -98.4784 	 -1.7276 	 -117.116 	 
C 	 -99.3876 	 -0.72737 	 -117.521 	 
H 	 -96.9846 	 -1.89135 	 -115.376 	 
C 	 -98.3273 	 -3.12702 	 -117.672 	 
H 	 -99.1974 	 -3.31391 	 -118.299 	 
H 	 -98.6503 	 -3.82546 	 -116.908 	 
C 	 -97.0382 	 -3.38607 	 -118.535 	 
H 	 -96.967 	 -2.51162 	 -119.233 	 
H 	 -97.1904 	 -4.34535 	 -119.123 	 
C 	 -95.6871 	 -3.59269 	 -117.837 	 
H 	 -95.3804 	 -2.83013 	 -117.178 	 
H 	 -94.8565 	 -3.71635 	 -118.494 	 
H 	 -95.8062 	 -4.5318 	 -117.179 	 
H 	 -101.881 	 -1.17807 	 -121.661 	 
H 	 -97.3849 	 0.410467 	 -114.728 	 
*
