! wB97X-D3 SP def2-SVP
%pal
nprocs 24
end

* xyz 0 1
S 	 -67.7011 	 16.1265 	 -70.9354 	 
C 	 -66.3575 	 15.5743 	 -69.9973 	 
C 	 -66.3698 	 16.0463 	 -68.7028 	 
C 	 -67.489 	 16.8652 	 -68.4671 	 
C 	 -68.2945 	 17.0597 	 -69.5558 	 
H 	 -67.6897 	 17.3962 	 -67.5572 	 
C 	 -65.3503 	 15.6865 	 -67.6082 	 
H 	 -65.927 	 15.1896 	 -66.8293 	 
H 	 -65.1589 	 16.7007 	 -67.2305 	 
C 	 -64.2278 	 14.7274 	 -67.9448 	 
H 	 -63.7779 	 14.388 	 -67.0403 	 
H 	 -64.6313 	 13.7637 	 -68.241 	 
C 	 -63.1905 	 15.4524 	 -68.8596 	 
H 	 -63.4711 	 15.4858 	 -69.8617 	 
H 	 -62.9599 	 16.4356 	 -68.5663 	 
H 	 -62.3885 	 14.753 	 -69.0785 	 
S 	 -70.5508 	 17.5853 	 -71.0699 	 
C 	 -71.477 	 19.036 	 -70.6314 	 
C 	 -70.9443 	 19.592 	 -69.4754 	 
C 	 -69.8923 	 18.884 	 -68.8241 	 
C 	 -69.4569 	 17.8553 	 -69.6754 	 
H 	 -71.3947 	 20.4597 	 -68.9951 	 
C 	 -69.4339 	 19.3786 	 -67.4297 	 
H 	 -69.7963 	 20.3109 	 -67.4183 	 
H 	 -68.3702 	 19.4109 	 -67.4201 	 
C 	 -69.8675 	 18.5299 	 -66.215 	 
H 	 -69.5159 	 18.8693 	 -65.2409 	 
H 	 -69.3626 	 17.6161 	 -66.2516 	 
C 	 -71.365 	 18.3147 	 -66.1469 	 
H 	 -71.8867 	 19.2643 	 -66.0054 	 
H 	 -71.6808 	 17.4695 	 -65.4351 	 
H 	 -71.7519 	 18.02 	 -67.0907 	 
H 	 -65.4854 	 15.0712 	 -70.445 	 
H 	 -72.4163 	 19.2865 	 -71.1558 	 
*
