! wB97X-D3 SP def2-SVP
%pal
nprocs 24
end

* xyz 0 1
S 	 -78.0333 	 -4.05564 	 3.25351 	 
C 	 -77.7247 	 -4.16719 	 1.52773 	 
C 	 -78.1795 	 -5.36238 	 0.999338 	 
C 	 -78.6343 	 -6.23655 	 2.09266 	 
C 	 -78.6079 	 -5.70695 	 3.34352 	 
H 	 -79.2224 	 -7.15859 	 1.96361 	 
C 	 -78.4044 	 -5.59065 	 -0.444288 	 
H 	 -78.8293 	 -4.65283 	 -0.833121 	 
H 	 -79.1282 	 -6.38105 	 -0.636506 	 
C 	 -77.1898 	 -6.13757 	 -1.26786 	 
H 	 -77.3676 	 -5.99294 	 -2.34028 	 
H 	 -76.4123 	 -5.36203 	 -1.15587 	 
C 	 -76.8267 	 -7.54669 	 -0.85003 	 
H 	 -77.588 	 -8.0466 	 -0.147287 	 
H 	 -76.9851 	 -8.19317 	 -1.67192 	 
H 	 -75.8874 	 -7.71299 	 -0.350118 	 
S 	 -80.7232 	 -5.70519 	 5.22842 	 
C 	 -80.6252 	 -6.87343 	 6.54682 	 
C 	 -79.6329 	 -7.76367 	 6.32336 	 
C 	 -78.8092 	 -7.44188 	 5.18774 	 
C 	 -79.189 	 -6.2538 	 4.57233 	 
H 	 -79.5138 	 -8.62009 	 7.04166 	 
C 	 -77.5946 	 -8.28884 	 4.86525 	 
H 	 -76.9053 	 -8.21292 	 5.62063 	 
H 	 -77.1935 	 -7.84119 	 4.02882 	 
C 	 -77.788 	 -9.76679 	 4.63375 	 
H 	 -78.4179 	 -9.81425 	 3.78022 	 
H 	 -78.2549 	 -10.2593 	 5.53565 	 
C 	 -76.5303 	 -10.5447 	 4.20066 	 
H 	 -76.7775 	 -11.575 	 3.89507 	 
H 	 -75.7399 	 -10.5837 	 4.88477 	 
H 	 -76.1889 	 -10.0208 	 3.27404 	 
H 	 -77.6732 	 -3.37963 	 0.832296 	 
H 	 -81.1878 	 -6.89907 	 7.37131 	 
*
