! wB97X-D3 SP def2-SVP
%pal
nprocs 24
end

* xyz 0 1
S 	 -77.8198 	 -5.46196 	 -61.3226 	 
C 	 -76.7472 	 -4.26253 	 -62.098 	 
C 	 -77.4857 	 -3.23145 	 -62.6037 	 
C 	 -78.8977 	 -3.5171 	 -62.6127 	 
C 	 -79.2046 	 -4.6407 	 -61.9326 	 
H 	 -79.6758 	 -2.92881 	 -63.0982 	 
C 	 -76.8871 	 -1.98944 	 -63.2264 	 
H 	 -76.2263 	 -1.45168 	 -62.5699 	 
H 	 -77.6564 	 -1.25284 	 -63.4503 	 
C 	 -76.2041 	 -2.32794 	 -64.5421 	 
H 	 -75.592 	 -3.15686 	 -64.4395 	 
H 	 -76.7934 	 -2.66523 	 -65.3785 	 
C 	 -75.478 	 -1.1041 	 -65.1199 	 
H 	 -74.732 	 -0.700571 	 -64.5343 	 
H 	 -75.0718 	 -1.30428 	 -66.1233 	 
H 	 -76.1613 	 -0.28702 	 -65.2803 	 
S 	 -80.5913 	 -6.68219 	 -63.1468 	 
C 	 -82.3076 	 -6.74085 	 -62.9343 	 
C 	 -82.727 	 -5.91478 	 -61.9133 	 
C 	 -81.6944 	 -5.06218 	 -61.4593 	 
C 	 -80.4807 	 -5.33208 	 -62.0952 	 
H 	 -83.7613 	 -5.9427 	 -61.754 	 
C 	 -81.9254 	 -3.86123 	 -60.5132 	 
H 	 -82.1126 	 -2.98598 	 -61.1341 	 
H 	 -80.9634 	 -3.81217 	 -60.025 	 
C 	 -83.0457 	 -4.01067 	 -59.4166 	 
H 	 -83.9598 	 -3.79055 	 -59.8979 	 
H 	 -82.7834 	 -3.31991 	 -58.7221 	 
C 	 -83.0644 	 -5.31187 	 -58.6312 	 
H 	 -83.4228 	 -6.17716 	 -59.2061 	 
H 	 -83.6328 	 -5.10731 	 -57.7403 	 
H 	 -82.0524 	 -5.546 	 -58.1964 	 
H 	 -75.7061 	 -4.3854 	 -62.0314 	 
H 	 -83.022 	 -7.29586 	 -63.4361 	 
*
