! wB97X-D3 SP def2-SVP
%pal
nprocs 24
end

* xyz 0 1
S 	 -86.7529 	 -0.830198 	 4.62965 	 
C 	 -85.4864 	 -1.28999 	 5.71239 	 
C 	 -84.3089 	 -0.683575 	 5.49454 	 
C 	 -84.3757 	 0.125253 	 4.27749 	 
C 	 -85.6133 	 0.159576 	 3.68402 	 
H 	 -83.5999 	 0.728064 	 3.8114 	 
C 	 -83.0619 	 -0.724437 	 6.35392 	 
H 	 -82.5686 	 -1.59365 	 5.99193 	 
H 	 -83.3898 	 -1.00785 	 7.33145 	 
C 	 -82.1892 	 0.538716 	 6.40814 	 
H 	 -81.2825 	 0.357977 	 6.91212 	 
H 	 -81.8903 	 0.75228 	 5.36487 	 
C 	 -82.7437 	 1.78645 	 7.08009 	 
H 	 -82.7254 	 1.61984 	 8.10948 	 
H 	 -82.0276 	 2.62132 	 6.90794 	 
H 	 -83.7453 	 2.05176 	 6.82241 	 
S 	 -87.2595 	 2.04112 	 2.54625 	 
C 	 -87.1532 	 2.20356 	 0.822961 	 
C 	 -86.2272 	 1.42801 	 0.218365 	 
C 	 -85.4479 	 0.668172 	 1.1246 	 
C 	 -85.9905 	 0.78478 	 2.422 	 
H 	 -86.1652 	 1.47278 	 -0.902178 	 
C 	 -84.3371 	 -0.245833 	 0.710714 	 
H 	 -83.8305 	 -0.577747 	 1.61255 	 
H 	 -83.6338 	 0.437277 	 0.128348 	 
C 	 -84.7466 	 -1.41548 	 -0.245318 	 
H 	 -85.0876 	 -1.04115 	 -1.21745 	 
H 	 -85.6206 	 -2.01014 	 0.111673 	 
C 	 -83.6347 	 -2.4565 	 -0.458021 	 
H 	 -83.171 	 -2.93472 	 0.409688 	 
H 	 -82.81 	 -1.93096 	 -0.877753 	 
H 	 -83.909 	 -3.36194 	 -1.03219 	 
H 	 -85.6398 	 -1.99156 	 6.49478 	 
H 	 -87.8897 	 2.65766 	 0.141478 	 
*
