! wB97X-D3 SP def2-SVP
%pal
nprocs 24
end

* xyz 0 1
S 	 -100.184 	 13.7432 	 -121.19 	 
C 	 -99.1848 	 14.4961 	 -120.015 	 
C 	 -99.7648 	 14.4435 	 -118.722 	 
C 	 -100.953 	 13.6907 	 -118.731 	 
C 	 -101.359 	 13.2174 	 -119.952 	 
H 	 -101.54 	 13.5365 	 -117.778 	 
C 	 -99.1119 	 14.9982 	 -117.418 	 
H 	 -98.0578 	 14.6005 	 -117.321 	 
H 	 -99.6558 	 14.6135 	 -116.592 	 
C 	 -99.1987 	 16.5463 	 -117.234 	 
H 	 -98.7395 	 17.0471 	 -118.062 	 
H 	 -100.3 	 16.7799 	 -117.267 	 
C 	 -98.5567 	 17.1728 	 -115.974 	 
H 	 -97.4118 	 17.2314 	 -115.998 	 
H 	 -98.9458 	 18.2335 	 -115.843 	 
H 	 -98.7164 	 16.681 	 -114.987 	 
S 	 -103.357 	 13.0994 	 -121.719 	 
C 	 -104.534 	 11.8076 	 -121.677 	 
C 	 -104.179 	 10.8402 	 -120.732 	 
C 	 -102.963 	 11.163 	 -120.028 	 
C 	 -102.482 	 12.4352 	 -120.386 	 
H 	 -104.774 	 9.95726 	 -120.647 	 
C 	 -102.498 	 10.266 	 -118.906 	 
H 	 -101.383 	 10.3007 	 -118.899 	 
H 	 -102.626 	 9.25835 	 -119.243 	 
C 	 -103.23 	 10.5878 	 -117.654 	 
H 	 -104.298 	 10.1922 	 -117.776 	 
H 	 -103.112 	 11.6308 	 -117.409 	 
C 	 -102.558 	 9.83034 	 -116.501 	 
H 	 -101.727 	 10.3633 	 -116.064 	 
H 	 -102.155 	 8.91329 	 -116.921 	 
H 	 -103.287 	 9.70858 	 -115.716 	 
H 	 -98.1689 	 14.8928 	 -120.162 	 
H 	 -105.351 	 11.7064 	 -122.386 	 
*
