! wB97X-D3 SP def2-SVP
%pal
nprocs 24
end

* xyz 0 1
S 	 -100.921 	 46.6 	 -84.9323 	 
C 	 -99.8868 	 45.6122 	 -85.9829 	 
C 	 -100.563 	 45.4592 	 -87.1839 	 
C 	 -101.772 	 46.2099 	 -87.301 	 
C 	 -102.131 	 46.8759 	 -86.1568 	 
H 	 -102.364 	 46.2251 	 -88.2378 	 
C 	 -99.9308 	 44.8274 	 -88.3649 	 
H 	 -98.866 	 45.1338 	 -88.2826 	 
H 	 -100.329 	 45.2614 	 -89.2581 	 
C 	 -100.161 	 43.3414 	 -88.5617 	 
H 	 -100.315 	 42.9281 	 -87.5783 	 
H 	 -101.123 	 43.1992 	 -89.0243 	 
C 	 -98.9977 	 42.6921 	 -89.4302 	 
H 	 -97.9512 	 42.945 	 -89.2086 	 
H 	 -99.1368 	 41.6359 	 -89.2856 	 
H 	 -99.2097 	 42.8634 	 -90.457 	 
S 	 -103.09 	 49.2543 	 -85.1091 	 
C 	 -104.81 	 49.5254 	 -85.0311 	 
C 	 -105.386 	 48.7637 	 -85.9899 	 
C 	 -104.611 	 47.6463 	 -86.5401 	 
C 	 -103.307 	 47.7375 	 -86.0315 	 
H 	 -106.443 	 48.9016 	 -86.2632 	 
C 	 -105.26 	 46.6226 	 -87.4736 	 
H 	 -104.636 	 45.8204 	 -87.8655 	 
H 	 -105.622 	 47.1923 	 -88.3628 	 
C 	 -106.592 	 45.8884 	 -86.9383 	 
H 	 -106.973 	 45.1425 	 -87.7019 	 
H 	 -107.359 	 46.6628 	 -86.7812 	 
C 	 -106.392 	 45.1337 	 -85.6133 	 
H 	 -105.642 	 44.3938 	 -85.7628 	 
H 	 -107.352 	 44.6615 	 -85.3234 	 
H 	 -106.056 	 45.7453 	 -84.8069 	 
H 	 -98.9366 	 45.1003 	 -85.6889 	 
H 	 -105.269 	 50.3781 	 -84.6233 	 
*
