! wB97X-D3 SP def2-SVP
%pal
nprocs 24
end

* xyz 0 1
S 	 -114.094 	 19.1899 	 -117.206 	 
C 	 -114.545 	 20.8654 	 -116.952 	 
C 	 -113.988 	 21.7425 	 -117.858 	 
C 	 -113.074 	 21.0666 	 -118.701 	 
C 	 -112.872 	 19.7021 	 -118.369 	 
H 	 -112.545 	 21.5414 	 -119.528 	 
C 	 -114.473 	 23.2317 	 -118.096 	 
H 	 -115.555 	 23.3522 	 -117.987 	 
H 	 -114.279 	 23.3804 	 -119.104 	 
C 	 -113.832 	 24.3751 	 -117.244 	 
H 	 -112.853 	 24.1372 	 -117.47 	 
H 	 -114.159 	 25.3803 	 -117.547 	 
C 	 -114.138 	 24.3622 	 -115.676 	 
H 	 -113.764 	 25.2774 	 -115.155 	 
H 	 -115.158 	 24.433 	 -115.466 	 
H 	 -113.759 	 23.4716 	 -115.259 	 
S 	 -112.525 	 17.1026 	 -119.221 	 
C 	 -111.023 	 16.6727 	 -120.023 	 
C 	 -110.164 	 17.7563 	 -120.143 	 
C 	 -110.642 	 18.9783 	 -119.564 	 
C 	 -111.95 	 18.7577 	 -119.026 	 
H 	 -109.218 	 17.6917 	 -120.617 	 
C 	 -109.83 	 20.2644 	 -119.501 	 
H 	 -109.071 	 20.0454 	 -118.69 	 
H 	 -110.462 	 21.0576 	 -119.199 	 
C 	 -109.006 	 20.7655 	 -120.734 	 
H 	 -108.278 	 20.0166 	 -121.002 	 
H 	 -108.379 	 21.641 	 -120.604 	 
C 	 -109.984 	 21.2251 	 -121.853 	 
H 	 -110.739 	 22.0391 	 -121.467 	 
H 	 -110.661 	 20.5503 	 -122.288 	 
H 	 -109.38 	 21.6543 	 -122.675 	 
H 	 -115.171 	 21.2069 	 -116.165 	 
H 	 -110.796 	 15.6247 	 -120.08 	 
*
