! wB97X-D3 SP def2-SVP
%pal
nprocs 24
end

* xyz 0 1
S 	 -53.5299 	 14.808 	 30.4193 	 
C 	 -54.9993 	 14.2526 	 29.6107 	 
C 	 -54.6912 	 13.6099 	 28.3933 	 
C 	 -53.3287 	 13.6303 	 28.0666 	 
C 	 -52.5476 	 14.3032 	 29.0431 	 
H 	 -52.8678 	 13.146 	 27.2226 	 
C 	 -55.7755 	 13.0809 	 27.4709 	 
H 	 -55.3259 	 13.1415 	 26.4369 	 
H 	 -56.4279 	 13.9206 	 27.3923 	 
C 	 -56.4549 	 11.7337 	 27.9113 	 
H 	 -55.6605 	 10.908 	 28.0077 	 
H 	 -56.7139 	 11.9171 	 28.9852 	 
C 	 -57.7135 	 11.3135 	 27.1366 	 
H 	 -57.9727 	 10.2704 	 27.1693 	 
H 	 -58.62 	 11.8281 	 27.3467 	 
H 	 -57.6576 	 11.5038 	 26.0882 	 
S 	 -50.3436 	 13.6638 	 30.5771 	 
C 	 -48.7183 	 13.9704 	 29.9159 	 
C 	 -48.7213 	 14.5372 	 28.6715 	 
C 	 -50.0607 	 14.6023 	 28.2073 	 
C 	 -51.1079 	 14.2978 	 29.1114 	 
H 	 -47.9098 	 14.9669 	 28.2478 	 
C 	 -50.3402 	 15.2114 	 26.8481 	 
H 	 -51.0923 	 14.59 	 26.4011 	 
H 	 -49.4981 	 15.3275 	 26.2163 	 
C 	 -50.956 	 16.6441 	 26.9178 	 
H 	 -51.8792 	 16.5203 	 27.5032 	 
H 	 -51.2617 	 17.0928 	 25.9351 	 
C 	 -50.1652 	 17.7387 	 27.5412 	 
H 	 -50.5712 	 18.7324 	 27.5806 	 
H 	 -49.1461 	 17.8921 	 26.9975 	 
H 	 -49.9411 	 17.5145 	 28.5518 	 
H 	 -56.0072 	 14.3082 	 30.0566 	 
H 	 -47.7544 	 14.1039 	 30.3982 	 
*
