! wB97X-D3 SP def2-SVP
%pal
nprocs 24
end

* xyz 0 1
S 	 -109.525 	 62.2957 	 -70.439 	 
C 	 -108.999 	 63.7882 	 -69.7305 	 
C 	 -109.876 	 64.8199 	 -70.0227 	 
C 	 -111.088 	 64.3005 	 -70.5136 	 
C 	 -111.087 	 62.9692 	 -70.8373 	 
H 	 -112.009 	 64.8613 	 -70.6336 	 
C 	 -109.61 	 66.3052 	 -69.8137 	 
H 	 -108.983 	 66.5212 	 -68.992 	 
H 	 -110.538 	 66.5535 	 -69.3312 	 
C 	 -109.393 	 67.2467 	 -70.9923 	 
H 	 -108.685 	 67.9619 	 -70.6754 	 
H 	 -108.768 	 66.77 	 -71.7135 	 
C 	 -110.673 	 67.6521 	 -71.6927 	 
H 	 -110.457 	 68.4216 	 -72.4603 	 
H 	 -111.09 	 66.7409 	 -72.1307 	 
H 	 -111.427 	 68.0126 	 -70.9783 	 
S 	 -111.869 	 60.2933 	 -70.7788 	 
C 	 -113.555 	 59.9012 	 -71.1267 	 
C 	 -114.07 	 60.9983 	 -71.83 	 
C 	 -113.286 	 62.185 	 -71.8113 	 
C 	 -112.138 	 62.0709 	 -71.1019 	 
H 	 -115.043 	 60.8715 	 -72.2469 	 
C 	 -113.84 	 63.5292 	 -72.4243 	 
H 	 -114.009 	 64.3154 	 -71.7443 	 
H 	 -114.792 	 63.3494 	 -72.8672 	 
C 	 -112.962 	 64.2275 	 -73.5521 	 
H 	 -111.892 	 64.2788 	 -73.2445 	 
H 	 -113.335 	 65.2113 	 -73.6443 	 
C 	 -113.159 	 63.5902 	 -74.9057 	 
H 	 -112.291 	 62.8561 	 -75.0443 	 
H 	 -112.93 	 64.2275 	 -75.7248 	 
H 	 -114.152 	 63.0956 	 -75.0688 	 
H 	 -107.946 	 64.0948 	 -69.481 	 
H 	 -113.927 	 58.8353 	 -71.1464 	 
*
