! wB97X-D3 SP def2-SVP
%pal
nprocs 24
end

* xyz 0 1
S 	 -130.018 	 25.3895 	 -17.7666 	 
C 	 -130.871 	 23.8535 	 -18.0532 	 
C 	 -131.533 	 23.4418 	 -16.931 	 
C 	 -131.329 	 24.3472 	 -15.8533 	 
C 	 -130.577 	 25.4269 	 -16.124 	 
H 	 -131.782 	 24.2116 	 -14.8875 	 
C 	 -132.374 	 22.1794 	 -16.8124 	 
H 	 -131.932 	 21.4315 	 -17.4547 	 
H 	 -133.299 	 22.3791 	 -17.3108 	 
C 	 -132.648 	 21.7031 	 -15.3705 	 
H 	 -133.405 	 22.3185 	 -14.8608 	 
H 	 -133.296 	 20.8601 	 -15.5173 	 
C 	 -131.489 	 21.3976 	 -14.3919 	 
H 	 -131.043 	 20.4742 	 -14.6763 	 
H 	 -130.705 	 22.0671 	 -14.5298 	 
H 	 -131.55 	 21.3593 	 -13.2232 	 
S 	 -128.909 	 27.4305 	 -15.1454 	 
C 	 -129.623 	 28.5844 	 -14.2043 	 
C 	 -130.853 	 28.2313 	 -13.7207 	 
C 	 -131.437 	 27.229 	 -14.5246 	 
C 	 -130.458 	 26.5539 	 -15.2581 	 
H 	 -131.446 	 28.9192 	 -13.1601 	 
C 	 -133.033 	 26.9193 	 -14.5682 	 
H 	 -133.4 	 27.0034 	 -13.4965 	 
H 	 -133.25 	 25.931 	 -14.8193 	 
C 	 -133.753 	 27.8592 	 -15.5702 	 
H 	 -133.56 	 27.3876 	 -16.5469 	 
H 	 -133.331 	 28.8559 	 -15.5723 	 
C 	 -135.272 	 27.7785 	 -15.3233 	 
H 	 -135.658 	 26.7525 	 -15.1889 	 
H 	 -135.894 	 28.3673 	 -15.9802 	 
H 	 -135.364 	 28.3036 	 -14.365 	 
H 	 -130.81 	 23.4492 	 -19.0268 	 
H 	 -129.168 	 29.4795 	 -13.9277 	 
*
