! wB97X-D3 SP def2-SVP
%pal
nprocs 24
end

* xyz 0 1
S 	 -132.712 	 25.6831 	 -27.7744 	 
C 	 -133.169 	 23.9822 	 -27.5836 	 
C 	 -132.442 	 23.3817 	 -26.61 	 
C 	 -131.658 	 24.3105 	 -25.9084 	 
C 	 -131.637 	 25.5929 	 -26.3951 	 
H 	 -131.04 	 24.0279 	 -25.0189 	 
C 	 -132.586 	 21.9087 	 -26.2585 	 
H 	 -131.723 	 21.5962 	 -25.6569 	 
H 	 -132.556 	 21.3918 	 -27.1948 	 
C 	 -133.833 	 21.5003 	 -25.5042 	 
H 	 -133.621 	 21.9799 	 -24.5438 	 
H 	 -134.747 	 21.9816 	 -25.9163 	 
C 	 -134.143 	 20.0303 	 -25.2594 	 
H 	 -134.528 	 19.6264 	 -26.2182 	 
H 	 -133.323 	 19.4187 	 -24.9169 	 
H 	 -135.013 	 19.9714 	 -24.6205 	 
S 	 -129.856 	 27.8001 	 -27.2169 	 
C 	 -128.916 	 28.5569 	 -25.8981 	 
C 	 -129.394 	 28.2558 	 -24.6509 	 
C 	 -130.362 	 27.1734 	 -24.7319 	 
C 	 -130.755 	 26.7306 	 -26.0131 	 
H 	 -128.947 	 28.6555 	 -23.7388 	 
C 	 -130.827 	 26.5702 	 -23.4186 	 
H 	 -131.823 	 26.0678 	 -23.5918 	 
H 	 -131.08 	 27.357 	 -22.7318 	 
C 	 -129.81 	 25.6622 	 -22.6739 	 
H 	 -128.925 	 26.2874 	 -22.5425 	 
H 	 -129.541 	 24.7787 	 -23.2726 	 
C 	 -130.261 	 25.2546 	 -21.2748 	 
H 	 -130.673 	 26.0395 	 -20.583 	 
H 	 -129.433 	 24.6569 	 -20.8104 	 
H 	 -131.046 	 24.5241 	 -21.4826 	 
H 	 -133.971 	 23.4708 	 -28.1638 	 
H 	 -128.305 	 29.4321 	 -26.1082 	 
*
