! wB97X-D3 SP def2-SVP
%pal
nprocs 24
end

* xyz 0 1
S 	 -118.446 	 59.1634 	 -41.5053 	 
C 	 -118.499 	 57.3994 	 -41.7776 	 
C 	 -119.027 	 56.7831 	 -40.6959 	 
C 	 -119.328 	 57.6536 	 -39.6237 	 
C 	 -119.159 	 59.0112 	 -39.913 	 
H 	 -119.716 	 57.4375 	 -38.615 	 
C 	 -119.158 	 55.2994 	 -40.5985 	 
H 	 -118.147 	 55.0201 	 -40.3871 	 
H 	 -119.386 	 54.9685 	 -41.5755 	 
C 	 -120.199 	 54.687 	 -39.5691 	 
H 	 -120.025 	 53.6378 	 -39.6236 	 
H 	 -119.943 	 54.9286 	 -38.5503 	 
C 	 -121.668 	 54.9187 	 -39.9315 	 
H 	 -121.858 	 54.4571 	 -40.9535 	 
H 	 -122.362 	 54.5889 	 -39.1523 	 
H 	 -121.762 	 56.0318 	 -40.129 	 
S 	 -118.054 	 61.392 	 -38.9438 	 
C 	 -118.824 	 62.1385 	 -37.5543 	 
C 	 -119.931 	 61.4718 	 -37.1435 	 
C 	 -120.308 	 60.372 	 -38.0541 	 
C 	 -119.369 	 60.1898 	 -39.0515 	 
H 	 -120.463 	 62.0262 	 -36.3063 	 
C 	 -121.53 	 59.542 	 -37.7002 	 
H 	 -121.51 	 58.6852 	 -38.2747 	 
H 	 -122.379 	 60.0507 	 -38.1394 	 
C 	 -121.713 	 59.094 	 -36.2272 	 
H 	 -121.473 	 59.8659 	 -35.5122 	 
H 	 -121.15 	 58.2596 	 -36.0063 	 
C 	 -123.198 	 58.6638 	 -35.9731 	 
H 	 -123.91 	 59.4679 	 -36.1323 	 
H 	 -123.158 	 58.2623 	 -34.9644 	 
H 	 -123.46 	 57.8836 	 -36.6564 	 
H 	 -118.092 	 56.9369 	 -42.66 	 
H 	 -118.477 	 63.1266 	 -37.1022 	 
*
