! wB97X-D3 SP def2-SVP
%pal
nprocs 24
end

* xyz 0 1
S 	 44.5514 	 -18.9524 	 -113.812 	 
C 	 43.7233 	 -17.5269 	 -114.389 	 
C 	 43.2994 	 -16.7743 	 -113.282 	 
C 	 43.5898 	 -17.3511 	 -112.015 	 
C 	 44.3335 	 -18.5601 	 -112.088 	 
H 	 43.5164 	 -16.8745 	 -111.045 	 
C 	 42.4885 	 -15.4568 	 -113.306 	 
H 	 41.9607 	 -15.389 	 -114.29 	 
H 	 43.29 	 -14.6648 	 -113.261 	 
C 	 41.3796 	 -15.3697 	 -112.209 	 
H 	 41.7884 	 -15.4574 	 -111.183 	 
H 	 40.936 	 -14.3532 	 -112.237 	 
C 	 40.2364 	 -16.4126 	 -112.528 	 
H 	 40.5082 	 -17.4289 	 -112.247 	 
H 	 39.3804 	 -16.1498 	 -111.797 	 
H 	 39.7682 	 -16.3814 	 -113.503 	 
S 	 46.5057 	 -19.8161 	 -111.01 	 
C 	 46.5325 	 -20.3569 	 -109.314 	 
C 	 45.291 	 -20.1703 	 -108.757 	 
C 	 44.4132 	 -19.4516 	 -109.619 	 
C 	 44.8501 	 -19.2785 	 -110.949 	 
H 	 45.0427 	 -20.5639 	 -107.791 	 
C 	 43.0325 	 -19.352 	 -109.085 	 
H 	 42.7589 	 -20.3077 	 -108.687 	 
H 	 42.314 	 -19.302 	 -109.867 	 
C 	 42.7782 	 -18.2408 	 -107.931 	 
H 	 43.1577 	 -17.2058 	 -108.33 	 
H 	 43.4772 	 -18.4622 	 -107.074 	 
C 	 41.4418 	 -18.2411 	 -107.351 	 
H 	 41.3886 	 -17.4823 	 -106.567 	 
H 	 41.1836 	 -19.1828 	 -106.743 	 
H 	 40.6584 	 -18.1614 	 -107.984 	 
H 	 43.6231 	 -17.2384 	 -115.42 	 
H 	 47.3711 	 -20.8412 	 -108.792 	 
*
