! wB97X-D3 SP def2-SVP
%pal
nprocs 24
end

* xyz 0 1
S 	 -35.3367 	 9.85371 	 1.53035 	 
C 	 -36.0718 	 9.12002 	 2.90162 	 
C 	 -35.09 	 8.53025 	 3.67876 	 
C 	 -33.7867 	 8.50168 	 3.0674 	 
C 	 -33.7295 	 9.32741 	 1.93682 	 
H 	 -32.9128 	 8.06446 	 3.41029 	 
C 	 -35.343 	 7.70705 	 4.93521 	 
H 	 -34.6846 	 6.92204 	 4.73349 	 
H 	 -36.3901 	 7.27589 	 4.86912 	 
C 	 -35.1947 	 8.37747 	 6.31929 	 
H 	 -36.1217 	 9.01091 	 6.53059 	 
H 	 -35.1284 	 7.58219 	 7.0772 	 
C 	 -33.975 	 9.35309 	 6.44493 	 
H 	 -33.008 	 8.89614 	 6.15082 	 
H 	 -34.0708 	 10.245 	 5.80277 	 
H 	 -33.8963 	 9.6498 	 7.42969 	 
S 	 -32.7073 	 9.05702 	 -0.607232 	 
C 	 -30.9777 	 8.90403 	 -0.866982 	 
C 	 -30.3605 	 9.32097 	 0.268171 	 
C 	 -31.1996 	 9.6408 	 1.36265 	 
C 	 -32.5356 	 9.44322 	 1.09541 	 
H 	 -29.2952 	 9.14555 	 0.368387 	 
C 	 -30.6507 	 9.92658 	 2.77817 	 
H 	 -31.4878 	 9.88859 	 3.42863 	 
H 	 -30.2432 	 10.9414 	 2.79247 	 
C 	 -29.518 	 9.04362 	 3.406 	 
H 	 -29.0907 	 9.564 	 4.25225 	 
H 	 -28.7227 	 8.89894 	 2.66143 	 
C 	 -30.0368 	 7.61127 	 3.9036 	 
H 	 -30.773 	 7.16022 	 3.28589 	 
H 	 -30.4662 	 7.76447 	 4.85786 	 
H 	 -29.2308 	 6.95944 	 4.04904 	 
H 	 -37.1209 	 9.21081 	 3.13725 	 
H 	 -30.4417 	 8.4525 	 -1.6892 	 
*
