! wB97X-D3 SP def2-SVP
%pal
nprocs 24
end

* xyz 0 1
S 	 36.2982 	 -4.3254 	 -120.396 	 
C 	 36.2328 	 -5.71898 	 -121.367 	 
C 	 37.4483 	 -6.01619 	 -121.915 	 
C 	 38.2544 	 -4.78152 	 -122 	 
C 	 37.6948 	 -3.79035 	 -121.195 	 
H 	 39.1268 	 -4.60484 	 -122.647 	 
C 	 37.8085 	 -7.36936 	 -122.583 	 
H 	 37.4626 	 -8.19283 	 -121.932 	 
H 	 38.8851 	 -7.65263 	 -122.574 	 
C 	 37.4701 	 -7.53137 	 -124.032 	 
H 	 36.405 	 -7.74891 	 -124.184 	 
H 	 37.7798 	 -6.66947 	 -124.587 	 
C 	 38.1243 	 -8.91133 	 -124.581 	 
H 	 37.7122 	 -9.00376 	 -125.613 	 
H 	 39.2033 	 -8.91774 	 -124.463 	 
H 	 37.7176 	 -9.79984 	 -124.08 	 
S 	 38.9729 	 -1.56531 	 -122.129 	 
C 	 39.2361 	 -0.16137 	 -121.091 	 
C 	 38.955 	 -0.551852 	 -119.808 	 
C 	 38.4605 	 -1.87239 	 -119.657 	 
C 	 38.4612 	 -2.60515 	 -120.856 	 
H 	 39.0074 	 0.241796 	 -119.038 	 
C 	 37.8994 	 -2.29429 	 -118.274 	 
H 	 38.3056 	 -3.26953 	 -118.104 	 
H 	 36.8418 	 -2.47804 	 -118.244 	 
C 	 38.2764 	 -1.3801 	 -117.098 	 
H 	 37.5648 	 -0.529576 	 -117.026 	 
H 	 39.2637 	 -0.977975 	 -117.229 	 
C 	 38.2241 	 -2.16255 	 -115.799 	 
H 	 38.6502 	 -1.67166 	 -114.949 	 
H 	 38.7965 	 -3.05161 	 -115.94 	 
H 	 37.2701 	 -2.63249 	 -115.618 	 
H 	 35.4829 	 -6.48186 	 -121.228 	 
H 	 39.7741 	 0.758495 	 -121.251 	 
*
