! wB97X-D3 SP def2-SVP
%pal
nprocs 24
end

* xyz 0 1
S 	 -89.1274 	 -2.88688 	 -113.097 	 
C 	 -87.8462 	 -3.21099 	 -114.357 	 
C 	 -88.0051 	 -4.44471 	 -114.959 	 
C 	 -89.162 	 -5.12106 	 -114.476 	 
C 	 -89.8345 	 -4.45006 	 -113.499 	 
H 	 -89.4753 	 -6.13703 	 -114.713 	 
C 	 -87.0809 	 -4.99919 	 -116.01 	 
H 	 -86.1213 	 -5.34825 	 -115.601 	 
H 	 -86.8447 	 -4.10928 	 -116.636 	 
C 	 -87.6173 	 -6.04171 	 -116.914 	 
H 	 -87.7334 	 -6.83045 	 -116.129 	 
H 	 -88.5369 	 -5.66947 	 -117.358 	 
C 	 -86.6448 	 -6.36805 	 -118.025 	 
H 	 -86.6167 	 -5.56175 	 -118.784 	 
H 	 -85.6596 	 -6.53634 	 -117.603 	 
H 	 -86.8848 	 -7.28024 	 -118.52 	 
S 	 -90.7852 	 -6.52654 	 -111.96 	 
C 	 -92.4364 	 -6.60723 	 -111.415 	 
C 	 -93.1042 	 -5.40798 	 -111.671 	 
C 	 -92.2671 	 -4.46257 	 -112.431 	 
C 	 -91.0003 	 -4.97381 	 -112.764 	 
H 	 -94.1289 	 -5.2962 	 -111.311 	 
C 	 -92.842 	 -3.15469 	 -112.902 	 
H 	 -92.0711 	 -2.44234 	 -112.727 	 
H 	 -93.6191 	 -2.93149 	 -112.141 	 
C 	 -93.561 	 -3.19611 	 -114.333 	 
H 	 -92.914 	 -2.66453 	 -115.054 	 
H 	 -94.4166 	 -2.57298 	 -114.249 	 
C 	 -93.8824 	 -4.5357 	 -114.996 	 
H 	 -94.3397 	 -4.25 	 -115.931 	 
H 	 -94.5404 	 -5.28679 	 -114.566 	 
H 	 -93.0331 	 -5.03903 	 -115.208 	 
H 	 -87.0504 	 -2.50447 	 -114.689 	 
H 	 -92.8543 	 -7.5046 	 -110.884 	 
*
