! wB97X-D3 SP def2-SVP
%pal
nprocs 24
end

* xyz 0 1
S 	 -42.0641 	 19.1722 	 -93.2996 	 
C 	 -40.3593 	 19.3386 	 -93.5882 	 
C 	 -39.8935 	 18.2242 	 -94.3526 	 
C 	 -40.9512 	 17.371 	 -94.8235 	 
C 	 -42.2053 	 17.8466 	 -94.4123 	 
H 	 -40.7975 	 16.5118 	 -95.5375 	 
C 	 -38.4533 	 18.0199 	 -94.8198 	 
H 	 -38.3461 	 16.9641 	 -94.67 	 
H 	 -37.8097 	 18.5863 	 -94.1501 	 
C 	 -38.0232 	 18.4788 	 -96.2219 	 
H 	 -38.9057 	 18.8735 	 -96.7629 	 
H 	 -37.2957 	 19.2774 	 -96.1533 	 
C 	 -37.5694 	 17.246 	 -96.9698 	 
H 	 -37.4061 	 17.3991 	 -98.0055 	 
H 	 -36.636 	 16.8998 	 -96.572 	 
H 	 -38.3887 	 16.549 	 -96.7882 	 
S 	 -44.2316 	 16.4301 	 -93.2268 	 
C 	 -45.2022 	 15.4218 	 -94.2232 	 
C 	 -45.0142 	 15.5916 	 -95.5602 	 
C 	 -43.9824 	 16.5697 	 -95.79 	 
C 	 -43.4863 	 17.1491 	 -94.6231 	 
H 	 -45.5827 	 15.0645 	 -96.3237 	 
C 	 -43.3779 	 16.8338 	 -97.1788 	 
H 	 -43.0282 	 15.8763 	 -97.5986 	 
H 	 -42.4508 	 17.3292 	 -97.0056 	 
C 	 -44.3389 	 17.4252 	 -98.2422 	 
H 	 -45.1912 	 16.7037 	 -98.5072 	 
H 	 -43.8363 	 17.5613 	 -99.1591 	 
C 	 -45.0127 	 18.6896 	 -97.7685 	 
H 	 -45.6708 	 18.5286 	 -96.9329 	 
H 	 -45.5812 	 19.0159 	 -98.5386 	 
H 	 -44.23 	 19.4084 	 -97.609 	 
H 	 -39.7898 	 20.2294 	 -93.2955 	 
H 	 -45.8731 	 14.6648 	 -93.8326 	 
*
