! wB97X-D3 SP def2-SVP
%pal
nprocs 24
end

* xyz 0 1
S 	 -101.688 	 -1.44679 	 -106.096 	 
C 	 -100.826 	 -0.71761 	 -107.469 	 
C 	 -100.587 	 0.603827 	 -107.297 	 
C 	 -100.954 	 1.05434 	 -106.01 	 
C 	 -101.544 	 0.0937635 	 -105.234 	 
H 	 -100.962 	 2.10146 	 -105.731 	 
C 	 -99.918 	 1.51586 	 -108.362 	 
H 	 -99.6806 	 0.884021 	 -109.191 	 
H 	 -98.9722 	 1.87054 	 -107.87 	 
C 	 -100.814 	 2.74675 	 -108.663 	 
H 	 -101.699 	 2.33978 	 -109.087 	 
H 	 -101.158 	 3.3358 	 -107.81 	 
C 	 -100.064 	 3.56388 	 -109.803 	 
H 	 -100.48 	 4.48263 	 -110.083 	 
H 	 -99.1071 	 3.87463 	 -109.355 	 
H 	 -99.8137 	 3.13971 	 -110.766 	 
S 	 -103.744 	 0.18424 	 -103.603 	 
C 	 -103.494 	 0.747002 	 -101.994 	 
C 	 -102.175 	 0.853399 	 -101.639 	 
C 	 -101.304 	 0.589694 	 -102.723 	 
C 	 -102 	 0.204919 	 -103.854 	 
H 	 -101.802 	 1.13365 	 -100.65 	 
C 	 -99.8302 	 0.83819 	 -102.726 	 
H 	 -99.3101 	 0.1198 	 -103.373 	 
H 	 -99.4841 	 0.380755 	 -101.806 	 
C 	 -99.2145 	 2.22745 	 -102.87 	 
H 	 -99.7185 	 3.00896 	 -102.353 	 
H 	 -99.1879 	 2.56624 	 -103.902 	 
C 	 -97.7375 	 2.01629 	 -102.523 	 
H 	 -97.1646 	 1.1562 	 -103.025 	 
H 	 -97.7258 	 1.81529 	 -101.448 	 
H 	 -97.1529 	 2.91395 	 -102.562 	 
H 	 -100.732 	 -1.14774 	 -108.484 	 
H 	 -104.325 	 0.946756 	 -101.366 	 
*
