! wB97X-D3 SP def2-SVP
%pal
nprocs 24
end

* xyz 0 1
S 	 39.3017 	 -26.4277 	 -124.637 	 
C 	 38.5744 	 -24.854 	 -124.357 	 
C 	 39.4627 	 -23.8062 	 -124.617 	 
C 	 40.766 	 -24.3197 	 -124.949 	 
C 	 40.874 	 -25.7423 	 -124.993 	 
H 	 41.5856 	 -23.713 	 -125.158 	 
C 	 39.1626 	 -22.3061 	 -124.438 	 
H 	 39.1221 	 -22.0482 	 -123.379 	 
H 	 38.0511 	 -22.1073 	 -124.597 	 
C 	 40.0867 	 -21.2403 	 -125.143 	 
H 	 40.2344 	 -21.6328 	 -126.168 	 
H 	 39.7412 	 -20.2898 	 -125.258 	 
C 	 41.4613 	 -21.0639 	 -124.494 	 
H 	 42.2171 	 -20.5974 	 -125.164 	 
H 	 41.3631 	 -20.3644 	 -123.686 	 
H 	 41.8461 	 -21.9467 	 -124.087 	 
S 	 41.7373 	 -27.6367 	 -126.653 	 
C 	 43.37 	 -28.2067 	 -126.557 	 
C 	 44.1315 	 -27.4412 	 -125.732 	 
C 	 43.3231 	 -26.4346 	 -125.063 	 
C 	 42.0015 	 -26.4337 	 -125.42 	 
H 	 45.1775 	 -27.4743 	 -125.653 	 
C 	 44.0118 	 -25.4909 	 -124.114 	 
H 	 43.2671 	 -24.9049 	 -123.652 	 
H 	 44.6943 	 -25.0085 	 -124.811 	 
C 	 44.9241 	 -26.0483 	 -122.965 	 
H 	 45.7148 	 -26.7905 	 -123.253 	 
H 	 44.2567 	 -26.6648 	 -122.312 	 
C 	 45.573 	 -24.8688 	 -122.135 	 
H 	 44.829 	 -24.1237 	 -121.9 	 
H 	 46.3108 	 -24.421 	 -122.774 	 
H 	 46.0475 	 -25.3255 	 -121.334 	 
H 	 37.5151 	 -24.7897 	 -124.014 	 
H 	 43.8163 	 -28.75 	 -127.379 	 
*
