! wB97X-D3 SP def2-SVP
%pal
nprocs 24
end

* xyz 0 1
S 	 -56.4664 	 18.5439 	 23.9801 	 
C 	 -56.9079 	 17.5185 	 25.4198 	 
C 	 -56.0276 	 17.7664 	 26.4286 	 
C 	 -54.8305 	 18.4853 	 25.9639 	 
C 	 -54.8487 	 18.8874 	 24.6418 	 
H 	 -53.9937 	 18.7421 	 26.5373 	 
C 	 -56.2527 	 17.3375 	 27.8356 	 
H 	 -55.341 	 17.4971 	 28.3827 	 
H 	 -56.3719 	 16.3004 	 27.6754 	 
C 	 -57.5096 	 17.9258 	 28.581 	 
H 	 -58.4175 	 17.9633 	 27.9013 	 
H 	 -57.8372 	 17.2577 	 29.4472 	 
C 	 -57.1641 	 19.2897 	 29.2432 	 
H 	 -56.7435 	 19.3726 	 30.2101 	 
H 	 -56.6586 	 19.9501 	 28.6459 	 
H 	 -58.1662 	 19.685 	 29.3477 	 
S 	 -53.7277 	 19.3986 	 22.117 	 
C 	 -52.657 	 20.7694 	 22.0122 	 
C 	 -52.3276 	 21.3096 	 23.2486 	 
C 	 -53.0103 	 20.6427 	 24.3503 	 
C 	 -53.902 	 19.6856 	 23.936 	 
H 	 -51.6166 	 22.0947 	 23.3677 	 
C 	 -52.6036 	 21.0203 	 25.7859 	 
H 	 -53.4527 	 21.0803 	 26.3606 	 
H 	 -52.2688 	 22.0737 	 25.7483 	 
C 	 -51.4573 	 20.1999 	 26.3754 	 
H 	 -51.6993 	 19.1275 	 26.4691 	 
H 	 -51.3706 	 20.5129 	 27.438 	 
C 	 -50.1573 	 20.195 	 25.5985 	 
H 	 -50.33 	 19.8175 	 24.5529 	 
H 	 -49.3999 	 19.4063 	 25.9311 	 
H 	 -49.7493 	 21.2269 	 25.4622 	 
H 	 -57.8104 	 16.9073 	 25.5522 	 
H 	 -52.2906 	 21.1552 	 21.0819 	 
*
