! wB97X-D3 SP def2-SVP
%pal
nprocs 24
end

* xyz 0 1
S 	 -42.6889 	 -49.7961 	 -70.071 	 
C 	 -40.9765 	 -49.5481 	 -70.0381 	 
C 	 -40.3593 	 -50.7955 	 -70.0397 	 
C 	 -41.2269 	 -51.9188 	 -70.0751 	 
C 	 -42.5668 	 -51.563 	 -70.0745 	 
H 	 -40.9079 	 -52.918 	 -69.955 	 
C 	 -38.8816 	 -50.977 	 -69.9808 	 
H 	 -38.4043 	 -50.0038 	 -69.9376 	 
H 	 -38.5403 	 -51.4169 	 -70.9191 	 
C 	 -38.3146 	 -51.7911 	 -68.8346 	 
H 	 -39.0059 	 -51.554 	 -68.0557 	 
H 	 -38.4411 	 -52.9252 	 -68.9867 	 
C 	 -36.9356 	 -51.5022 	 -68.2405 	 
H 	 -36.1526 	 -51.6652 	 -68.9644 	 
H 	 -36.799 	 -50.5344 	 -67.9173 	 
H 	 -36.7109 	 -52.1449 	 -67.4182 	 
S 	 -44.7826 	 -52.6981 	 -71.3731 	 
C 	 -45.785 	 -53.8485 	 -70.4865 	 
C 	 -45.2904 	 -54.1437 	 -69.2583 	 
C 	 -44.1317 	 -53.3253 	 -68.9257 	 
C 	 -43.7454 	 -52.4741 	 -69.9686 	 
H 	 -45.7316 	 -54.8678 	 -68.6217 	 
C 	 -43.5857 	 -53.3547 	 -67.5372 	 
H 	 -42.5782 	 -52.9033 	 -67.5095 	 
H 	 -43.3904 	 -54.386 	 -67.3436 	 
C 	 -44.4837 	 -52.8641 	 -66.3818 	 
H 	 -45.363 	 -53.501 	 -66.3827 	 
H 	 -44.7094 	 -51.8282 	 -66.648 	 
C 	 -43.8702 	 -52.948 	 -64.9902 	 
H 	 -44.6575 	 -52.7992 	 -64.4106 	 
H 	 -43.0915 	 -52.2076 	 -64.8754 	 
H 	 -43.5111 	 -53.9533 	 -64.6585 	 
H 	 -40.4894 	 -48.6176 	 -70.1383 	 
H 	 -46.7123 	 -54.2764 	 -70.8394 	 
*
