! wB97X-D3 SP def2-SVP
%pal
nprocs 24
end

* xyz 0 1
S 	 -38.1091 	 21.621 	 14.4075 	 
C 	 -39.7246 	 21.2567 	 14.7571 	 
C 	 -39.9715 	 21.4071 	 16.1473 	 
C 	 -38.7898 	 21.852 	 16.8391 	 
C 	 -37.6915 	 21.9978 	 16.0424 	 
H 	 -38.6711 	 22.0905 	 17.8828 	 
C 	 -41.2797 	 21.2138 	 16.8986 	 
H 	 -42.0766 	 21.8983 	 16.5862 	 
H 	 -41.2452 	 21.3788 	 17.9544 	 
C 	 -41.8101 	 19.7908 	 16.6876 	 
H 	 -41.9672 	 19.5686 	 15.6136 	 
H 	 -41.0362 	 19.1589 	 16.9958 	 
C 	 -43.1872 	 19.3847 	 17.3449 	 
H 	 -44.0718 	 19.8811 	 16.902 	 
H 	 -43.2865 	 18.295 	 17.1976 	 
H 	 -43.2608 	 19.494 	 18.4167 	 
S 	 -35.4658 	 21.613 	 17.6371 	 
C 	 -34.2559 	 22.8184 	 17.611 	 
C 	 -34.5019 	 23.7795 	 16.6833 	 
C 	 -35.7375 	 23.6521 	 15.9991 	 
C 	 -36.3971 	 22.4986 	 16.4077 	 
H 	 -33.8277 	 24.5765 	 16.5338 	 
C 	 -36.2793 	 24.7091 	 15.0188 	 
H 	 -36.471 	 25.6304 	 15.6346 	 
H 	 -37.2753 	 24.3956 	 14.692 	 
C 	 -35.3689 	 25.0264 	 13.8367 	 
H 	 -34.3795 	 25.365 	 14.2469 	 
H 	 -35.8669 	 25.806 	 13.2922 	 
C 	 -35.287 	 23.7891 	 12.9115 	 
H 	 -36.3022 	 23.4482 	 12.7211 	 
H 	 -34.5416 	 23.1418 	 13.4091 	 
H 	 -34.881 	 24.0936 	 12.0007 	 
H 	 -40.4358 	 21.0271 	 14.005 	 
H 	 -33.2511 	 22.7005 	 18.1045 	 
*
