! wB97X-D3 SP def2-SVP
%pal
nprocs 24
end

* xyz 0 1
S 	 -101.589 	 22.9359 	 -115.676 	 
C 	 -102.67 	 21.5241 	 -115.696 	 
C 	 -103.486 	 21.5366 	 -116.778 	 
C 	 -103.306 	 22.684 	 -117.621 	 
C 	 -102.165 	 23.4145 	 -117.343 	 
H 	 -103.928 	 22.9271 	 -118.465 	 
C 	 -104.54 	 20.4084 	 -117 	 
H 	 -105.4 	 20.8302 	 -117.541 	 
H 	 -104.964 	 20.021 	 -116.063 	 
C 	 -104.07 	 19.1684 	 -117.848 	 
H 	 -103.684 	 19.6725 	 -118.769 	 
H 	 -103.112 	 18.7783 	 -117.441 	 
C 	 -105.118 	 18.0809 	 -118.071 	 
H 	 -104.8 	 17.4266 	 -118.912 	 
H 	 -105.546 	 17.5173 	 -117.24 	 
H 	 -105.984 	 18.629 	 -118.526 	 
S 	 -102.775 	 25.8796 	 -118.524 	 
C 	 -101.566 	 26.9756 	 -119.055 	 
C 	 -100.331 	 26.3587 	 -118.771 	 
C 	 -100.405 	 25.0628 	 -118.202 	 
C 	 -101.689 	 24.5943 	 -118.031 	 
H 	 -99.3954 	 26.8367 	 -118.892 	 
C 	 -99.1582 	 24.3272 	 -117.864 	 
H 	 -99.2984 	 23.9667 	 -116.825 	 
H 	 -98.3359 	 25.0153 	 -117.836 	 
C 	 -98.8242 	 23.2192 	 -118.807 	 
H 	 -98.6052 	 23.7109 	 -119.748 	 
H 	 -99.6792 	 22.5596 	 -118.894 	 
C 	 -97.6413 	 22.3581 	 -118.291 	 
H 	 -97.2488 	 21.8242 	 -119.121 	 
H 	 -98.043 	 21.5797 	 -117.609 	 
H 	 -96.8723 	 23.0113 	 -117.964 	 
H 	 -102.807 	 20.8764 	 -114.82 	 
H 	 -101.679 	 28.0524 	 -119.326 	 
*
