! wB97X-D3 SP def2-SVP
%pal
nprocs 24
end

* xyz 0 1
S 	 -123.394 	 66.8869 	 -59.5096 	 
C 	 -125.143 	 66.8905 	 -59.5269 	 
C 	 -125.687 	 65.6581 	 -59.2125 	 
C 	 -124.652 	 64.7874 	 -58.6824 	 
C 	 -123.378 	 65.3161 	 -58.7777 	 
H 	 -124.919 	 63.835 	 -58.186 	 
C 	 -127.097 	 65.2804 	 -59.3168 	 
H 	 -127.631 	 66.1087 	 -58.9842 	 
H 	 -127.126 	 64.5462 	 -58.5486 	 
C 	 -127.711 	 64.821 	 -60.5738 	 
H 	 -128.754 	 64.5737 	 -60.4007 	 
H 	 -127.711 	 65.5892 	 -61.3341 	 
C 	 -127.037 	 63.4903 	 -60.9313 	 
H 	 -127.132 	 62.8508 	 -60.0832 	 
H 	 -127.42 	 62.9674 	 -61.8275 	 
H 	 -125.983 	 63.6747 	 -61.1494 	 
S 	 -120.871 	 65.6994 	 -57.7801 	 
C 	 -119.893 	 64.3947 	 -57.2359 	 
C 	 -120.489 	 63.2215 	 -57.5417 	 
C 	 -121.776 	 63.3273 	 -58.1621 	 
C 	 -122.156 	 64.6465 	 -58.3458 	 
H 	 -119.951 	 62.3153 	 -57.308 	 
C 	 -122.446 	 62.0517 	 -58.4947 	 
H 	 -123.314 	 62.0816 	 -57.8693 	 
H 	 -121.933 	 61.1278 	 -58.0355 	 
C 	 -122.661 	 61.854 	 -60.0334 	 
H 	 -123.193 	 62.7627 	 -60.4052 	 
H 	 -123.386 	 61.0811 	 -60.1165 	 
C 	 -121.439 	 61.5158 	 -60.9085 	 
H 	 -121.716 	 60.9693 	 -61.7666 	 
H 	 -120.715 	 60.8599 	 -60.3688 	 
H 	 -120.996 	 62.4392 	 -61.2833 	 
H 	 -125.844 	 67.5344 	 -59.9899 	 
H 	 -118.886 	 64.5285 	 -56.7668 	 
*
