! wB97X-D3 SP def2-SVP
%pal
nprocs 24
end

* xyz 0 1
S 	 -101.45 	 14.2819 	 -123.868 	 
C 	 -102.83 	 14.3895 	 -122.757 	 
C 	 -102.424 	 14.1659 	 -121.443 	 
C 	 -100.999 	 13.8331 	 -121.344 	 
C 	 -100.408 	 13.7269 	 -122.581 	 
H 	 -100.355 	 13.8457 	 -120.448 	 
C 	 -103.366 	 14.5109 	 -120.309 	 
H 	 -102.799 	 14.4694 	 -119.389 	 
H 	 -104.041 	 13.6516 	 -120.161 	 
C 	 -104.111 	 15.799 	 -120.335 	 
H 	 -104.732 	 15.9229 	 -121.306 	 
H 	 -104.954 	 15.7944 	 -119.679 	 
C 	 -103.183 	 17.0352 	 -120.206 	 
H 	 -102.527 	 16.9035 	 -119.306 	 
H 	 -102.576 	 17.0519 	 -121.106 	 
H 	 -103.725 	 17.9708 	 -120.017 	 
S 	 -98.2118 	 14.3165 	 -124.091 	 
C 	 -96.7071 	 13.5056 	 -123.896 	 
C 	 -96.8461 	 12.5087 	 -122.919 	 
C 	 -98.2013 	 12.388 	 -122.402 	 
C 	 -99.0519 	 13.3886 	 -122.875 	 
H 	 -95.9807 	 12.1083 	 -122.509 	 
C 	 -98.5784 	 11.1363 	 -121.478 	 
H 	 -98.1018 	 10.2894 	 -122.037 	 
H 	 -99.7613 	 11.0488 	 -121.561 	 
C 	 -98.2721 	 11.1486 	 -119.982 	 
H 	 -98.572 	 10.1336 	 -119.653 	 
H 	 -98.8637 	 11.7805 	 -119.355 	 
C 	 -96.8188 	 11.4823 	 -119.699 	 
H 	 -96.6215 	 12.5705 	 -119.739 	 
H 	 -96.0271 	 11.0247 	 -120.371 	 
H 	 -96.6345 	 11.1572 	 -118.693 	 
H 	 -103.821 	 14.8626 	 -123.028 	 
H 	 -95.6631 	 13.8356 	 -124.1 	 
*
