! wB97X-D3 SP def2-SVP
%pal
nprocs 24
end

* xyz 0 1
S 	 -40.7578 	 8.68794 	 29.0363 	 
C 	 -42.0684 	 9.15279 	 30.0936 	 
C 	 -43.2867 	 9.20397 	 29.4162 	 
C 	 -43.1551 	 8.7401 	 28.0944 	 
C 	 -41.8667 	 8.41654 	 27.7537 	 
H 	 -43.9375 	 8.43272 	 27.4337 	 
C 	 -44.6046 	 9.68542 	 30.0375 	 
H 	 -44.3769 	 9.72317 	 31.0934 	 
H 	 -45.4664 	 8.99233 	 29.925 	 
C 	 -45.042 	 11.0983 	 29.7273 	 
H 	 -46.059 	 11.3501 	 30.1203 	 
H 	 -44.3483 	 11.7165 	 30.2793 	 
C 	 -44.8984 	 11.5551 	 28.2754 	 
H 	 -45.5735 	 11.0746 	 27.5959 	 
H 	 -45.0714 	 12.691 	 28.0648 	 
H 	 -43.8601 	 11.4624 	 27.9486 	 
S 	 -40.5266 	 6.27659 	 26.602 	 
C 	 -40.0842 	 6.40331 	 24.941 	 
C 	 -40.708 	 7.49329 	 24.3023 	 
C 	 -41.4942 	 8.34949 	 25.2209 	 
C 	 -41.4086 	 7.78406 	 26.5389 	 
H 	 -40.5555 	 7.5507 	 23.2256 	 
C 	 -42.1924 	 9.7595 	 24.8573 	 
H 	 -41.3529 	 10.4782 	 24.6634 	 
H 	 -42.6508 	 10.2259 	 25.7428 	 
C 	 -43.3282 	 9.80386 	 23.7975 	 
H 	 -42.8494 	 9.67628 	 22.8404 	 
H 	 -43.6159 	 10.8926 	 23.6538 	 
C 	 -44.4911 	 8.86098 	 23.9902 	 
H 	 -44.954 	 8.94728 	 23.0417 	 
H 	 -45.2393 	 9.27424 	 24.6975 	 
H 	 -44.3044 	 7.81891 	 24.3465 	 
H 	 -41.917 	 9.4943 	 31.1245 	 
H 	 -39.3492 	 5.73748 	 24.551 	 
*
