! wB97X-D3 SP def2-SVP
%pal
nprocs 24
end

* xyz 0 1
S 	 -31.4421 	 13.5297 	 -0.772991 	 
C 	 -31.2095 	 11.7575 	 -0.928403 	 
C 	 -32.3082 	 11.097 	 -0.429011 	 
C 	 -33.3166 	 12.0024 	 0.0484089 	 
C 	 -33.0825 	 13.3295 	 -0.125228 	 
H 	 -34.1334 	 11.6518 	 0.518205 	 
C 	 -32.4132 	 9.63082 	 -0.262022 	 
H 	 -33.3488 	 9.31845 	 -0.821404 	 
H 	 -32.6641 	 9.39115 	 0.782283 	 
C 	 -31.2508 	 8.68212 	 -0.714415 	 
H 	 -30.8907 	 8.92452 	 -1.69225 	 
H 	 -30.4242 	 8.89656 	 0.0531557 	 
C 	 -31.783 	 7.26604 	 -0.738154 	 
H 	 -31.077 	 6.48592 	 -0.645825 	 
H 	 -32.4524 	 7.10497 	 0.176373 	 
H 	 -32.409 	 7.05178 	 -1.58745 	 
S 	 -33.2372 	 15.2271 	 1.91118 	 
C 	 -34.6308 	 16.253 	 1.89945 	 
C 	 -35.4323 	 16.0497 	 0.851734 	 
C 	 -34.975 	 15.0342 	 -0.0367001 	 
C 	 -33.7916 	 14.4943 	 0.399786 	 
H 	 -36.3798 	 16.5691 	 0.830111 	 
C 	 -35.7553 	 14.7392 	 -1.29771 	 
H 	 -36.5197 	 14.0232 	 -0.983214 	 
H 	 -35.0948 	 14.201 	 -2.04231 	 
C 	 -36.3429 	 15.9368 	 -2.05961 	 
H 	 -37.112 	 16.5184 	 -1.51373 	 
H 	 -36.8194 	 15.3647 	 -2.84307 	 
C 	 -35.3153 	 16.8958 	 -2.72289 	 
H 	 -34.499 	 16.4123 	 -3.17729 	 
H 	 -34.7907 	 17.4389 	 -1.93556 	 
H 	 -35.6911 	 17.6792 	 -3.37004 	 
H 	 -30.3246 	 11.3646 	 -1.23704 	 
H 	 -34.8299 	 17.0321 	 2.58604 	 
*
