! wB97X-D3 SP def2-SVP
%pal
nprocs 24
end

* xyz 0 1
S 	 -66.716 	 19.4093 	 -71.9292 	 
C 	 -65.4247 	 18.3204 	 -72.4708 	 
C 	 -65.9334 	 17.4199 	 -73.3484 	 
C 	 -67.3012 	 17.5554 	 -73.6371 	 
C 	 -67.8695 	 18.5653 	 -72.8712 	 
H 	 -67.8728 	 16.9937 	 -74.3627 	 
C 	 -65.0933 	 16.3548 	 -73.9757 	 
H 	 -64.3351 	 16.7967 	 -74.6165 	 
H 	 -65.7164 	 15.7031 	 -74.5742 	 
C 	 -64.2134 	 15.5254 	 -73.0471 	 
H 	 -63.5021 	 16.1999 	 -72.5845 	 
H 	 -64.8546 	 15.0681 	 -72.2199 	 
C 	 -63.4377 	 14.4773 	 -73.8745 	 
H 	 -62.6961 	 13.9702 	 -73.3165 	 
H 	 -64.1466 	 13.7885 	 -74.3167 	 
H 	 -62.8473 	 14.8938 	 -74.6873 	 
S 	 -70.4775 	 17.8524 	 -72.428 	 
C 	 -71.7876 	 19.0804 	 -72.4029 	 
C 	 -71.2614 	 20.2643 	 -72.8144 	 
C 	 -69.8286 	 20.2463 	 -73.0496 	 
C 	 -69.2733 	 19.0039 	 -72.8725 	 
H 	 -71.9113 	 21.0933 	 -72.8236 	 
C 	 -69.0178 	 21.5008 	 -73.329 	 
H 	 -68.0439 	 21.1276 	 -73.6622 	 
H 	 -68.7424 	 22.0181 	 -72.3772 	 
C 	 -69.5285 	 22.5442 	 -74.2805 	 
H 	 -68.9072 	 23.4142 	 -74.3287 	 
H 	 -70.4699 	 22.9046 	 -73.9314 	 
C 	 -69.7762 	 22.1218 	 -75.7516 	 
H 	 -69.9262 	 22.9772 	 -76.3929 	 
H 	 -70.5445 	 21.3508 	 -75.8916 	 
H 	 -68.9357 	 21.5889 	 -76.0857 	 
H 	 -64.42 	 18.4591 	 -72.3506 	 
H 	 -72.8405 	 18.9057 	 -72.1385 	 
*
