! wB97X-D3 SP def2-SVP
%pal
nprocs 24
end

* xyz 0 1
S 	 31.1771 	 -31.0125 	 -115.574 	 
C 	 31.8452 	 -30.163 	 -114.177 	 
C 	 33.087 	 -30.6034 	 -113.885 	 
C 	 33.4336 	 -31.7277 	 -114.637 	 
C 	 32.4904 	 -32.1334 	 -115.578 	 
H 	 34.374 	 -32.2138 	 -114.58 	 
C 	 34.1006 	 -30.0033 	 -112.827 	 
H 	 33.824 	 -28.9521 	 -112.617 	 
H 	 35.158 	 -29.8544 	 -113.192 	 
C 	 34.2681 	 -30.8027 	 -111.563 	 
H 	 34.3846 	 -31.8729 	 -111.845 	 
H 	 35.0973 	 -30.4101 	 -110.936 	 
C 	 32.9451 	 -30.8402 	 -110.805 	 
H 	 32.785 	 -29.8424 	 -110.367 	 
H 	 32.2023 	 -31.0811 	 -111.547 	 
H 	 32.8531 	 -31.6618 	 -110.033 	 
S 	 31.8821 	 -32.8701 	 -118.181 	 
C 	 32.4758 	 -34.4153 	 -118.8 	 
C 	 33.2727 	 -35.0632 	 -117.894 	 
C 	 33.3905 	 -34.382 	 -116.652 	 
C 	 32.6915 	 -33.1353 	 -116.619 	 
H 	 33.5825 	 -36.0492 	 -118.079 	 
C 	 34.0019 	 -35.0355 	 -115.422 	 
H 	 33.7289 	 -36.0969 	 -115.544 	 
H 	 33.5217 	 -34.6555 	 -114.577 	 
C 	 35.5246 	 -34.8974 	 -115.327 	 
H 	 35.7935 	 -33.815 	 -115.339 	 
H 	 36.0247 	 -35.3916 	 -116.197 	 
C 	 36.2007 	 -35.5532 	 -114.049 	 
H 	 35.6662 	 -35.2491 	 -113.205 	 
H 	 37.2971 	 -35.3794 	 -113.899 	 
H 	 36.0631 	 -36.5977 	 -113.999 	 
H 	 31.5401 	 -29.1237 	 -113.815 	 
H 	 32.01 	 -34.8464 	 -119.704 	 
*
