! wB97X-D3 SP def2-SVP
%pal
nprocs 24
end

* xyz 0 1
S 	 -103.014 	 40.8414 	 -94.9934 	 
C 	 -103.347 	 39.5693 	 -93.8665 	 
C 	 -102.145 	 39.1726 	 -93.2248 	 
C 	 -100.989 	 39.7147 	 -93.9325 	 
C 	 -101.264 	 40.6752 	 -94.8664 	 
H 	 -99.9921 	 39.4844 	 -93.6159 	 
C 	 -101.956 	 38.1225 	 -92.1817 	 
H 	 -101.102 	 37.5201 	 -92.3912 	 
H 	 -102.813 	 37.466 	 -92.1642 	 
C 	 -101.614 	 38.4833 	 -90.693 	 
H 	 -100.667 	 38.903 	 -90.5431 	 
H 	 -102.233 	 39.2947 	 -90.3777 	 
C 	 -101.599 	 37.3521 	 -89.6278 	 
H 	 -102.658 	 37.1587 	 -89.3525 	 
H 	 -101.124 	 36.4208 	 -90.0244 	 
H 	 -101.072 	 37.6128 	 -88.7125 	 
S 	 -100.482 	 43.4035 	 -94.8262 	 
C 	 -99.0349 	 43.8872 	 -95.704 	 
C 	 -98.4471 	 42.8374 	 -96.2781 	 
C 	 -99.0953 	 41.5806 	 -96.1186 	 
C 	 -100.254 	 41.6682 	 -95.2934 	 
H 	 -97.545 	 42.8875 	 -96.85 	 
C 	 -98.6872 	 40.329 	 -96.8227 	 
H 	 -98.7161 	 39.5342 	 -96.0565 	 
H 	 -97.6878 	 40.3056 	 -97.3089 	 
C 	 -99.6883 	 39.8464 	 -97.8754 	 
H 	 -100.672 	 39.8109 	 -97.4091 	 
H 	 -99.5733 	 38.8371 	 -98.2632 	 
C 	 -99.8015 	 41.0085 	 -98.9121 	 
H 	 -100.706 	 40.7348 	 -99.5054 	 
H 	 -98.9531 	 41.1895 	 -99.6105 	 
H 	 -100.095 	 41.9947 	 -98.4332 	 
H 	 -104.366 	 39.1661 	 -93.6511 	 
H 	 -98.5514 	 44.8795 	 -95.6897 	 
*
