! wB97X-D3 SP def2-SVP
%pal
nprocs 24
end

* xyz 0 1
S 	 -52.5491 	 -42.5166 	 -75.794 	 
C 	 -53.0388 	 -41.4291 	 -77.1236 	 
C 	 -52.6804 	 -42.0536 	 -78.319 	 
C 	 -52.0626 	 -43.3197 	 -78.1563 	 
C 	 -51.872 	 -43.7082 	 -76.8302 	 
H 	 -51.8042 	 -44.0104 	 -78.9837 	 
C 	 -52.9872 	 -41.3976 	 -79.6748 	 
H 	 -52.1314 	 -41.5252 	 -80.2825 	 
H 	 -53.2179 	 -40.3011 	 -79.6805 	 
C 	 -54.0932 	 -42.0562 	 -80.4594 	 
H 	 -54.1603 	 -43.0677 	 -80.1258 	 
H 	 -54.9904 	 -41.6215 	 -80.0438 	 
C 	 -54.1556 	 -41.7044 	 -81.9799 	 
H 	 -54.3111 	 -40.5863 	 -82.1294 	 
H 	 -53.2656 	 -42.1083 	 -82.4957 	 
H 	 -55.014 	 -42.2023 	 -82.503 	 
S 	 -52.5043 	 -45.8398 	 -75.1075 	 
C 	 -51.4908 	 -47.2372 	 -75.1146 	 
C 	 -50.5294 	 -47.1298 	 -76.0715 	 
C 	 -50.481 	 -45.8858 	 -76.765 	 
C 	 -51.4761 	 -45.0303 	 -76.3253 	 
H 	 -49.9399 	 -48.0658 	 -76.1974 	 
C 	 -49.4509 	 -45.584 	 -77.7832 	 
H 	 -48.5309 	 -45.8999 	 -77.3913 	 
H 	 -49.4253 	 -44.588 	 -78.0045 	 
C 	 -49.6148 	 -46.3917 	 -79.0779 	 
H 	 -50.6727 	 -46.3364 	 -79.4458 	 
H 	 -49.3643 	 -47.4542 	 -78.9081 	 
C 	 -48.7468 	 -45.7841 	 -80.1554 	 
H 	 -49.2024 	 -44.7514 	 -80.4324 	 
H 	 -48.8812 	 -46.2633 	 -81.0884 	 
H 	 -47.6669 	 -45.8158 	 -79.8542 	 
H 	 -53.544 	 -40.4983 	 -76.9759 	 
H 	 -51.6349 	 -48.0278 	 -74.454 	 
*
