! wB97X-D3 SP def2-SVP
%pal
nprocs 24
end

* xyz 0 1
S 	 -145.22 	 25.9316 	 -16.9116 	 
C 	 -145.42 	 24.3311 	 -17.6389 	 
C 	 -144.23 	 23.5971 	 -17.6167 	 
C 	 -143.105 	 24.4477 	 -17.1952 	 
C 	 -143.524 	 25.7071 	 -16.8618 	 
H 	 -142.068 	 24.2447 	 -17.133 	 
C 	 -144.038 	 22.2303 	 -18.2514 	 
H 	 -144.886 	 22.0554 	 -18.9011 	 
H 	 -144.02 	 21.5057 	 -17.4564 	 
C 	 -142.793 	 21.9753 	 -19.1686 	 
H 	 -142.501 	 22.7845 	 -19.7185 	 
H 	 -141.95 	 21.7943 	 -18.4575 	 
C 	 -143.047 	 20.7209 	 -20.1212 	 
H 	 -143.893 	 20.8809 	 -20.8149 	 
H 	 -142.198 	 20.6367 	 -20.765 	 
H 	 -143.2 	 19.7862 	 -19.6113 	 
S 	 -143.038 	 27.4041 	 -14.7626 	 
C 	 -141.544 	 28.3287 	 -14.7823 	 
C 	 -140.871 	 28.2729 	 -16.0034 	 
C 	 -141.496 	 27.2431 	 -16.8628 	 
C 	 -142.634 	 26.744 	 -16.3183 	 
H 	 -139.987 	 28.8493 	 -16.2348 	 
C 	 -140.985 	 26.9258 	 -18.1932 	 
H 	 -140.817 	 27.8481 	 -18.77 	 
H 	 -141.797 	 26.4615 	 -18.8029 	 
C 	 -139.756 	 26.0186 	 -18.2382 	 
H 	 -140.048 	 25.1408 	 -17.5893 	 
H 	 -139 	 26.5724 	 -17.631 	 
C 	 -139.231 	 25.4916 	 -19.5635 	 
H 	 -138.793 	 26.2989 	 -20.043 	 
H 	 -140.046 	 25.1392 	 -20.1416 	 
H 	 -138.467 	 24.6791 	 -19.4529 	 
H 	 -146.434 	 23.9793 	 -17.9513 	 
H 	 -141.041 	 28.8104 	 -13.9748 	 
*
