! wB97X-D3 SP def2-SVP
%pal
nprocs 24
end

* xyz 0 1
S 	 -111.357 	 72.0123 	 -10.3883 	 
C 	 -110.184 	 73.2704 	 -10.3807 	 
C 	 -108.955 	 72.8134 	 -10.0316 	 
C 	 -108.949 	 71.3976 	 -9.94137 	 
C 	 -110.187 	 70.8199 	 -10.1616 	 
H 	 -108.046 	 70.8574 	 -9.71677 	 
C 	 -107.783 	 73.6707 	 -9.67392 	 
H 	 -106.948 	 73.1173 	 -9.46432 	 
H 	 -108.047 	 74.1238 	 -8.68039 	 
C 	 -107.437 	 74.8043 	 -10.7711 	 
H 	 -107.054 	 74.3251 	 -11.7415 	 
H 	 -108.323 	 75.3792 	 -11.0554 	 
C 	 -106.335 	 75.8165 	 -10.4308 	 
H 	 -105.391 	 75.3704 	 -9.94317 	 
H 	 -106.016 	 76.376 	 -11.3183 	 
H 	 -106.59 	 76.5523 	 -9.69301 	 
S 	 -111.671 	 68.739 	 -8.98523 	 
C 	 -111.407 	 67.1326 	 -9.36247 	 
C 	 -110.44 	 67.0229 	 -10.3263 	 
C 	 -109.818 	 68.2628 	 -10.653 	 
C 	 -110.458 	 69.3732 	 -10.074 	 
H 	 -110.179 	 66.0379 	 -10.7975 	 
C 	 -108.68 	 68.3933 	 -11.6366 	 
H 	 -108.086 	 67.5083 	 -11.6155 	 
H 	 -108.149 	 69.2164 	 -11.3344 	 
C 	 -109.149 	 68.4919 	 -13.1252 	 
H 	 -108.19 	 68.6875 	 -13.6391 	 
H 	 -109.777 	 69.3536 	 -13.2928 	 
C 	 -109.739 	 67.2034 	 -13.6757 	 
H 	 -109.031 	 66.3681 	 -13.7606 	 
H 	 -110.194 	 67.3316 	 -14.6486 	 
H 	 -110.61 	 66.8986 	 -13.0387 	 
H 	 -110.4 	 74.2977 	 -10.5647 	 
H 	 -112.01 	 66.3505 	 -8.96193 	 
*
