! wB97X-D3 SP def2-SVP
%pal
nprocs 24
end

* xyz 0 1
S 	 -146.35 	 26.5825 	 -14.3858 	 
C 	 -145.429 	 26.7394 	 -15.8507 	 
C 	 -144.513 	 27.7978 	 -15.7518 	 
C 	 -144.621 	 28.4595 	 -14.4858 	 
C 	 -145.684 	 28.039 	 -13.709 	 
H 	 -143.962 	 29.3557 	 -14.2225 	 
C 	 -143.474 	 28.2187 	 -16.7486 	 
H 	 -143.472 	 27.566 	 -17.5524 	 
H 	 -142.597 	 28.1488 	 -16.2114 	 
C 	 -143.747 	 29.6133 	 -17.2794 	 
H 	 -144.709 	 29.7526 	 -17.7461 	 
H 	 -143.788 	 30.3265 	 -16.4608 	 
C 	 -142.654 	 29.8887 	 -18.3414 	 
H 	 -142.864 	 30.8994 	 -18.7217 	 
H 	 -141.64 	 29.838 	 -17.8938 	 
H 	 -142.746 	 29.28 	 -19.1924 	 
S 	 -145.567 	 27.6771 	 -10.9937 	 
C 	 -146.246 	 28.8188 	 -9.90252 	 
C 	 -146.893 	 29.8087 	 -10.5588 	 
C 	 -146.954 	 29.5541 	 -12.0049 	 
C 	 -146.117 	 28.5309 	 -12.4175 	 
H 	 -147.455 	 30.5864 	 -10.0993 	 
C 	 -147.74 	 30.5034 	 -12.9527 	 
H 	 -148.8 	 30.5191 	 -12.6609 	 
H 	 -147.661 	 30.0212 	 -13.937 	 
C 	 -147.121 	 31.8868 	 -13.2363 	 
H 	 -147.637 	 32.4575 	 -13.9951 	 
H 	 -146.049 	 31.7711 	 -13.5027 	 
C 	 -147.088 	 32.8018 	 -11.9729 	 
H 	 -146.316 	 32.3004 	 -11.3257 	 
H 	 -148.012 	 32.8761 	 -11.4175 	 
H 	 -146.819 	 33.7727 	 -12.3397 	 
H 	 -145.554 	 26.0726 	 -16.673 	 
H 	 -146.162 	 28.7681 	 -8.83075 	 
*
