! wB97X-D3 SP def2-SVP
%pal
nprocs 24
end

* xyz 0 1
S 	 -43.4969 	 -52.4227 	 -74.8712 	 
C 	 -43.0363 	 -50.9663 	 -75.528 	 
C 	 -41.8919 	 -50.504 	 -74.9127 	 
C 	 -41.3135 	 -51.43 	 -73.9703 	 
C 	 -42.1564 	 -52.4792 	 -73.7631 	 
H 	 -40.4358 	 -51.4134 	 -73.3274 	 
C 	 -41.2813 	 -49.148 	 -75.3838 	 
H 	 -41.9769 	 -48.3141 	 -75.3122 	 
H 	 -41.0025 	 -49.3169 	 -76.4262 	 
C 	 -39.9298 	 -48.753 	 -74.7232 	 
H 	 -39.147 	 -49.5085 	 -74.5682 	 
H 	 -39.4517 	 -48.0248 	 -75.4344 	 
C 	 -40.0925 	 -48.1121 	 -73.2611 	 
H 	 -40.7612 	 -47.3543 	 -73.2769 	 
H 	 -40.4849 	 -48.6818 	 -72.4515 	 
H 	 -39.1351 	 -47.8667 	 -72.8071 	 
S 	 -42.4052 	 -55.188 	 -73.4275 	 
C 	 -41.8927 	 -55.9407 	 -71.9279 	 
C 	 -41.5215 	 -54.9839 	 -71.0235 	 
C 	 -41.4473 	 -53.6217 	 -71.5205 	 
C 	 -41.9835 	 -53.5526 	 -72.8011 	 
H 	 -41.216 	 -55.3197 	 -70.0457 	 
C 	 -40.8836 	 -52.559 	 -70.5549 	 
H 	 -40.2779 	 -51.9069 	 -71.1103 	 
H 	 -40.2062 	 -53.1521 	 -69.9447 	 
C 	 -42.0079 	 -51.9351 	 -69.7165 	 
H 	 -42.3522 	 -52.6393 	 -68.9623 	 
H 	 -42.8052 	 -51.6713 	 -70.3739 	 
C 	 -41.5702 	 -50.7019 	 -68.9077 	 
H 	 -41.0979 	 -51.0229 	 -68.0172 	 
H 	 -42.3025 	 -49.9854 	 -68.5738 	 
H 	 -40.8418 	 -50.0842 	 -69.4602 	 
H 	 -43.3611 	 -50.5916 	 -76.4707 	 
H 	 -41.9477 	 -56.9918 	 -71.7838 	 
*
