! wB97X-D3 SP def2-SVP
%pal
nprocs 24
end

* xyz 0 1
S 	 -89.1542 	 -39.2161 	 -61.7262 	 
C 	 -90.0869 	 -39.1019 	 -63.237 	 
C 	 -91.3848 	 -38.6668 	 -63.0045 	 
C 	 -91.6588 	 -38.4542 	 -61.5775 	 
C 	 -90.5805 	 -38.7592 	 -60.7915 	 
H 	 -92.6033 	 -38.1563 	 -61.1689 	 
C 	 -92.4807 	 -38.4193 	 -64.0491 	 
H 	 -92.2199 	 -38.9702 	 -64.9558 	 
H 	 -92.5014 	 -37.3578 	 -64.3729 	 
C 	 -93.8433 	 -38.9247 	 -63.5465 	 
H 	 -93.7579 	 -39.9514 	 -63.1192 	 
H 	 -94.1519 	 -38.2869 	 -62.7131 	 
C 	 -94.9038 	 -38.9693 	 -64.6362 	 
H 	 -95.8692 	 -39.4376 	 -64.317 	 
H 	 -95.1147 	 -38.0551 	 -65.1516 	 
H 	 -94.5881 	 -39.6127 	 -65.4118 	 
S 	 -90.1757 	 -39.7923 	 -58.3188 	 
C 	 -90.1626 	 -38.7044 	 -56.9779 	 
C 	 -90.7623 	 -37.4699 	 -57.2533 	 
C 	 -90.9396 	 -37.3215 	 -58.6903 	 
C 	 -90.5146 	 -38.4693 	 -59.3928 	 
H 	 -91.0038 	 -36.7078 	 -56.5639 	 
C 	 -91.3573 	 -35.9783 	 -59.2523 	 
H 	 -91.347 	 -35.9546 	 -60.3599 	 
H 	 -90.6722 	 -35.2614 	 -58.9517 	 
C 	 -92.755 	 -35.5754 	 -58.8013 	 
H 	 -93.0853 	 -34.8062 	 -59.4356 	 
H 	 -92.9253 	 -35.1742 	 -57.7697 	 
C 	 -93.7515 	 -36.6428 	 -58.9963 	 
H 	 -93.4996 	 -37.6138 	 -58.6314 	 
H 	 -94.0264 	 -36.8295 	 -59.9941 	 
H 	 -94.6196 	 -36.2761 	 -58.5571 	 
H 	 -89.7429 	 -39.3148 	 -64.1888 	 
H 	 -89.7441 	 -38.9101 	 -55.9933 	 
*
