! wB97X-D3 SP def2-SVP
%pal
nprocs 24
end

* xyz 0 1
S 	 -49.6578 	 19.3864 	 25.3848 	 
C 	 -49.4107 	 17.6721 	 25.436 	 
C 	 -50.1364 	 17.1389 	 26.4567 	 
C 	 -50.9797 	 18.099 	 27.0979 	 
C 	 -50.893 	 19.4002 	 26.5965 	 
H 	 -51.4782 	 17.8669 	 27.9869 	 
C 	 -50.0697 	 15.6733 	 26.8703 	 
H 	 -50.5763 	 15.6407 	 27.8554 	 
H 	 -48.9536 	 15.4382 	 27.1072 	 
C 	 -50.7517 	 14.6769 	 25.9915 	 
H 	 -50.5489 	 14.7797 	 24.899 	 
H 	 -50.5344 	 13.6236 	 26.2591 	 
C 	 -52.252 	 14.9215 	 26.1287 	 
H 	 -52.7368 	 14.1897 	 25.5053 	 
H 	 -52.5526 	 14.8182 	 27.1797 	 
H 	 -52.4987 	 15.8159 	 25.6837 	 
S 	 -49.821 	 21.6734 	 27.8372 	 
C 	 -50.9292 	 22.84 	 28.538 	 
C 	 -52.2244 	 22.5922 	 28.1963 	 
C 	 -52.3665 	 21.3603 	 27.4425 	 
C 	 -51.1666 	 20.6854 	 27.304 	 
H 	 -52.984 	 23.3483 	 28.4654 	 
C 	 -53.6413 	 20.9534 	 26.7091 	 
H 	 -53.6837 	 21.0186 	 25.6087 	 
H 	 -54.3125 	 21.7583 	 26.938 	 
C 	 -54.3329 	 19.6763 	 27.302 	 
H 	 -54.4878 	 19.7493 	 28.3791 	 
H 	 -53.6577 	 18.8231 	 27.0513 	 
C 	 -55.7227 	 19.4532 	 26.6553 	 
H 	 -55.6571 	 18.7358 	 25.8705 	 
H 	 -56.3174 	 20.3317 	 26.328 	 
H 	 -56.382 	 18.9658 	 27.3724 	 
H 	 -48.781 	 17.0918 	 24.7424 	 
H 	 -50.7425 	 23.7591 	 28.923 	 
*
