! wB97X-D3 SP def2-SVP
%pal
nprocs 24
end

* xyz 0 1
S 	 -46.9382 	 12.4429 	 -19.2393 	 
C 	 -47.63 	 12.0647 	 -17.6748 	 
C 	 -47.0915 	 12.7533 	 -16.6223 	 
C 	 -46.032 	 13.5883 	 -17.0983 	 
C 	 -45.7727 	 13.51 	 -18.4838 	 
H 	 -45.617 	 14.2634 	 -16.4175 	 
C 	 -47.5904 	 12.7242 	 -15.2079 	 
H 	 -46.8232 	 12.4128 	 -14.4194 	 
H 	 -48.239 	 11.8981 	 -15.1071 	 
C 	 -48.2898 	 14.0038 	 -14.7656 	 
H 	 -47.5452 	 14.8078 	 -14.9384 	 
H 	 -49.1939 	 14.2725 	 -15.3934 	 
C 	 -48.6513 	 14.0127 	 -13.2264 	 
H 	 -48.834 	 15.0575 	 -12.8885 	 
H 	 -49.5525 	 13.4253 	 -12.9415 	 
H 	 -47.6903 	 13.7104 	 -12.6852 	 
S 	 -45.3011 	 14.6477 	 -20.9055 	 
C 	 -43.7757 	 15.5246 	 -21.1473 	 
C 	 -43.0488 	 15.5227 	 -19.9402 	 
C 	 -43.6286 	 14.8204 	 -18.8613 	 
C 	 -44.8291 	 14.2468 	 -19.2549 	 
H 	 -42.0896 	 16.0391 	 -20.1019 	 
C 	 -42.8586 	 14.5365 	 -17.6043 	 
H 	 -43.4038 	 15.0479 	 -16.8541 	 
H 	 -41.8928 	 14.8851 	 -17.7679 	 
C 	 -42.6643 	 13.0844 	 -17.1492 	 
H 	 -43.6178 	 12.5322 	 -17.1111 	 
H 	 -42.3463 	 13.0285 	 -16.141 	 
C 	 -41.6288 	 12.3667 	 -18.0653 	 
H 	 -40.8685 	 13.0665 	 -18.4123 	 
H 	 -42.2025 	 12.0415 	 -18.9614 	 
H 	 -41.2534 	 11.481 	 -17.6445 	 
H 	 -48.6063 	 11.6076 	 -17.5311 	 
H 	 -43.476 	 16.1108 	 -21.9957 	 
*
