! wB97X-D3 SP def2-SVP
%pal
nprocs 24
end

* xyz 0 1
S 	 -37.9815 	 -46.1173 	 -80.4792 	 
C 	 -37.9085 	 -47.3424 	 -81.7513 	 
C 	 -39.0327 	 -48.1282 	 -81.8497 	 
C 	 -40.099 	 -47.6142 	 -81.0117 	 
C 	 -39.6339 	 -46.576 	 -80.1866 	 
H 	 -41.088 	 -47.9695 	 -80.8595 	 
C 	 -39.2826 	 -49.2697 	 -82.8512 	 
H 	 -38.5335 	 -49.3588 	 -83.6003 	 
H 	 -40.2698 	 -49.1424 	 -83.3076 	 
C 	 -39.4489 	 -50.638 	 -82.2086 	 
H 	 -38.5627 	 -50.8559 	 -81.598 	 
H 	 -40.2747 	 -50.7264 	 -81.555 	 
C 	 -39.7881 	 -51.661 	 -83.3389 	 
H 	 -39.6707 	 -52.6089 	 -82.8926 	 
H 	 -40.8389 	 -51.5629 	 -83.6198 	 
H 	 -39.1694 	 -51.6299 	 -84.2387 	 
S 	 -40.393 	 -44.0191 	 -79.2958 	 
C 	 -41.873 	 -43.9255 	 -78.3526 	 
C 	 -42.2824 	 -45.138 	 -77.8775 	 
C 	 -41.5307 	 -46.2013 	 -78.4597 	 
C 	 -40.4983 	 -45.7703 	 -79.2874 	 
H 	 -43.0388 	 -45.2063 	 -77.1758 	 
C 	 -41.8492 	 -47.6584 	 -78.064 	 
H 	 -41.6894 	 -47.7691 	 -76.988 	 
H 	 -41.0241 	 -48.2549 	 -78.4565 	 
C 	 -43.1215 	 -48.2597 	 -78.5542 	 
H 	 -42.9846 	 -49.3401 	 -78.5879 	 
H 	 -43.3351 	 -48.0022 	 -79.5548 	 
C 	 -44.4874 	 -48.1256 	 -77.8392 	 
H 	 -45.1279 	 -49.0037 	 -77.9052 	 
H 	 -45.1023 	 -47.2352 	 -78.1438 	 
H 	 -44.338 	 -48.0893 	 -76.7323 	 
H 	 -37.074 	 -47.6581 	 -82.3378 	 
H 	 -42.2622 	 -42.9679 	 -78.0625 	 
*
