! wB97X-D3 SP def2-SVP
%pal
nprocs 24
end

* xyz 0 1
S 	 -136.783 	 9.70995 	 6.03839 	 
C 	 -136.258 	 9.94491 	 4.39597 	 
C 	 -137.071 	 9.36899 	 3.46711 	 
C 	 -138.21 	 8.81085 	 4.08764 	 
C 	 -138.304 	 9.01404 	 5.46767 	 
H 	 -139.058 	 8.36004 	 3.5609 	 
C 	 -136.826 	 9.48409 	 1.93499 	 
H 	 -136.349 	 8.53685 	 1.59781 	 
H 	 -136.038 	 10.1684 	 1.76353 	 
C 	 -138.045 	 9.95715 	 1.1214 	 
H 	 -138.852 	 9.22398 	 0.987232 	 
H 	 -138.522 	 10.7333 	 1.65094 	 
C 	 -137.686 	 10.4984 	 -0.27963 	 
H 	 -136.853 	 11.2448 	 -0.355446 	 
H 	 -137.356 	 9.6809 	 -0.912081 	 
H 	 -138.554 	 10.9477 	 -0.80614 	 
S 	 -139.395 	 7.21841 	 7.2103 	 
C 	 -140.938 	 7.65834 	 7.92386 	 
C 	 -141.492 	 8.69279 	 7.24395 	 
C 	 -140.596 	 9.38499 	 6.42947 	 
C 	 -139.418 	 8.69078 	 6.28873 	 
H 	 -142.555 	 9.00774 	 7.42987 	 
C 	 -140.969 	 10.6623 	 5.74006 	 
H 	 -140.63 	 10.5377 	 4.6884 	 
H 	 -140.488 	 11.5012 	 6.20215 	 
C 	 -142.52 	 10.8085 	 5.4644 	 
H 	 -142.999 	 10.7715 	 6.43804 	 
H 	 -142.93 	 10.0423 	 4.84455 	 
C 	 -142.975 	 12.1648 	 4.94847 	 
H 	 -142.404 	 12.4118 	 4.01321 	 
H 	 -142.741 	 13.0465 	 5.55896 	 
H 	 -144.025 	 12.1876 	 4.81071 	 
H 	 -135.279 	 10.3529 	 4.13608 	 
H 	 -141.566 	 7.10989 	 8.62858 	 
*
