! wB97X-D3 SP def2-SVP
%pal
nprocs 24
end

* xyz 0 1
S 	 -65.9767 	 -43.6842 	 -90.2802 	 
C 	 -64.4791 	 -44.6207 	 -89.974 	 
C 	 -64.7259 	 -45.9367 	 -90.2891 	 
C 	 -65.9504 	 -46.0856 	 -90.9771 	 
C 	 -66.7937 	 -44.9779 	 -90.9842 	 
H 	 -66.2734 	 -47.0662 	 -91.253 	 
C 	 -63.8295 	 -47.1111 	 -89.9392 	 
H 	 -62.7876 	 -46.8499 	 -90.0815 	 
H 	 -64.0074 	 -47.9931 	 -90.6266 	 
C 	 -64.0047 	 -47.6495 	 -88.4906 	 
H 	 -63.2296 	 -48.396 	 -88.2135 	 
H 	 -63.923 	 -46.7745 	 -87.798 	 
C 	 -65.262 	 -48.4354 	 -88.164 	 
H 	 -66.1914 	 -47.8755 	 -88.2792 	 
H 	 -65.3183 	 -49.3542 	 -88.7583 	 
H 	 -65.1212 	 -48.6669 	 -87.1536 	 
S 	 -69.2628 	 -43.7796 	 -90.7405 	 
C 	 -70.4352 	 -43.9557 	 -91.9999 	 
C 	 -69.8842 	 -44.6574 	 -93.0371 	 
C 	 -68.613 	 -45.1765 	 -92.8049 	 
C 	 -68.1098 	 -44.7905 	 -91.6056 	 
H 	 -70.4698 	 -44.8246 	 -93.9217 	 
C 	 -67.9574 	 -45.9834 	 -93.8409 	 
H 	 -68.7616 	 -46.1452 	 -94.5782 	 
H 	 -67.5561 	 -46.8872 	 -93.4405 	 
C 	 -66.7204 	 -45.3536 	 -94.5085 	 
H 	 -66.025 	 -46.0059 	 -95.0636 	 
H 	 -66.1 	 -45.2014 	 -93.6188 	 
C 	 -66.9548 	 -43.974 	 -95.1236 	 
H 	 -67.2802 	 -44.0045 	 -96.1334 	 
H 	 -65.9796 	 -43.3513 	 -95.0884 	 
H 	 -67.8633 	 -43.5596 	 -94.6549 	 
H 	 -63.6159 	 -44.289 	 -89.378 	 
H 	 -71.4296 	 -43.5983 	 -91.9926 	 
*
