! wB97X-D3 SP def2-SVP
%pal
nprocs 24
end

* xyz 0 1
S 	 -68.094 	 9.00473 	 -81.2798 	 
C 	 -68.6525 	 8.30486 	 -82.7171 	 
C 	 -69.613 	 7.37072 	 -82.4673 	 
C 	 -69.771 	 7.06363 	 -81.0471 	 
C 	 -68.9228 	 7.85558 	 -80.2668 	 
H 	 -70.5287 	 6.45691 	 -80.5748 	 
C 	 -70.6327 	 6.86603 	 -83.5071 	 
H 	 -70.4248 	 5.83507 	 -83.5305 	 
H 	 -70.4574 	 7.2158 	 -84.4673 	 
C 	 -72.145 	 7.19857 	 -83.2576 	 
H 	 -72.7625 	 6.64464 	 -83.999 	 
H 	 -72.4375 	 6.68633 	 -82.3076 	 
C 	 -72.5687 	 8.68276 	 -83.2528 	 
H 	 -71.9739 	 9.47509 	 -82.8185 	 
H 	 -72.6055 	 9.0064 	 -84.372 	 
H 	 -73.6469 	 8.79267 	 -82.9064 	 
S 	 -69.4866 	 9.42108 	 -77.9931 	 
C 	 -69.0666 	 8.78534 	 -76.4636 	 
C 	 -68.5586 	 7.48252 	 -76.5593 	 
C 	 -68.6042 	 6.96805 	 -77.9019 	 
C 	 -68.9458 	 7.94537 	 -78.7765 	 
H 	 -68.0198 	 7.09544 	 -75.7509 	 
C 	 -68.0337 	 5.56678 	 -78.2312 	 
H 	 -68.2155 	 5.29999 	 -79.2722 	 
H 	 -68.5989 	 4.85917 	 -77.6776 	 
C 	 -66.5374 	 5.35887 	 -78.0419 	 
H 	 -66.2872 	 5.81895 	 -77.1578 	 
H 	 -66.0045 	 5.84533 	 -78.8639 	 
C 	 -66.3127 	 3.91885 	 -77.9446 	 
H 	 -66.662 	 3.47773 	 -77.0329 	 
H 	 -65.2828 	 3.68632 	 -77.7248 	 
H 	 -66.6444 	 3.45441 	 -78.7482 	 
H 	 -68.6005 	 8.79237 	 -83.688 	 
H 	 -69.0596 	 9.44543 	 -75.6203 	 
*
