! wB97X-D3 SP def2-SVP
%pal
nprocs 24
end

* xyz 0 1
S 	 -38.7939 	 -1.52909 	 13.5587 	 
C 	 -39.1386 	 -1.07664 	 15.224 	 
C 	 -40.5148 	 -0.879215 	 15.4109 	 
C 	 -41.2532 	 -1.1316 	 14.1883 	 
C 	 -40.4931 	 -1.33645 	 13.0427 	 
H 	 -42.2998 	 -0.961303 	 14.0711 	 
C 	 -41.0992 	 -0.577039 	 16.7045 	 
H 	 -41.1678 	 -1.54677 	 17.2836 	 
H 	 -42.1626 	 -0.362884 	 16.5872 	 
C 	 -40.4492 	 0.624634 	 17.485 	 
H 	 -40.8373 	 0.766839 	 18.5172 	 
H 	 -39.331 	 0.427455 	 17.5719 	 
C 	 -40.5312 	 1.97742 	 16.769 	 
H 	 -39.7336 	 2.51536 	 17.2264 	 
H 	 -40.3394 	 2.12563 	 15.72 	 
H 	 -41.4971 	 2.40132 	 16.929 	 
S 	 -40.4453 	 -3.02121 	 10.9432 	 
C 	 -41.427 	 -2.77713 	 9.58309 	 
C 	 -42.1949 	 -1.61496 	 9.72019 	 
C 	 -41.9419 	 -0.913204 	 10.9507 	 
C 	 -41.0147 	 -1.57382 	 11.7278 	 
H 	 -42.8577 	 -1.26106 	 8.98463 	 
C 	 -42.5926 	 0.38071 	 11.3611 	 
H 	 -42.0125 	 0.794435 	 12.1194 	 
H 	 -43.5162 	 -0.0705056 	 11.7527 	 
C 	 -42.8833 	 1.30207 	 10.2163 	 
H 	 -43.8631 	 1.10119 	 9.77843 	 
H 	 -42.0989 	 1.22481 	 9.48831 	 
C 	 -43.0967 	 2.71389 	 10.7203 	 
H 	 -43.3843 	 3.32346 	 9.97263 	 
H 	 -42.0621 	 3.11081 	 10.9657 	 
H 	 -43.7177 	 2.82891 	 11.566 	 
H 	 -38.3799 	 -1.01126 	 15.9878 	 
H 	 -41.5072 	 -3.46606 	 8.72289 	 
*
