! wB97X-D3 SP def2-SVP
%pal
nprocs 24
end

* xyz 0 1
S 	 12.4761 	 -16.2205 	 -116.88 	 
C 	 11.3937 	 -14.8812 	 -116.527 	 
C 	 10.1326 	 -15.4002 	 -116.099 	 
C 	 10.1732 	 -16.8118 	 -115.936 	 
C 	 11.3592 	 -17.4355 	 -116.333 	 
H 	 9.50905 	 -17.5412 	 -115.456 	 
C 	 9.01839 	 -14.5213 	 -115.619 	 
H 	 9.34171 	 -13.4756 	 -115.281 	 
H 	 8.59218 	 -14.8779 	 -114.712 	 
C 	 7.92431 	 -14.3845 	 -116.638 	 
H 	 8.23601 	 -13.907 	 -117.493 	 
H 	 7.52937 	 -15.2943 	 -117.018 	 
C 	 6.69069 	 -13.5422 	 -116.22 	 
H 	 5.74772 	 -13.7727 	 -116.71 	 
H 	 6.51963 	 -13.7331 	 -115.14 	 
H 	 6.82294 	 -12.4652 	 -116.361 	 
S 	 10.4311 	 -20.0243 	 -116.426 	 
C 	 11.4296 	 -21.3826 	 -115.871 	 
C 	 12.7344 	 -20.9314 	 -115.932 	 
C 	 12.8726 	 -19.5099 	 -116.172 	 
C 	 11.6829 	 -18.8361 	 -116.223 	 
H 	 13.5843 	 -21.5135 	 -115.612 	 
C 	 14.2368 	 -18.9505 	 -115.874 	 
H 	 14.3112 	 -17.9858 	 -116.351 	 
H 	 15.0229 	 -19.6291 	 -116.226 	 
C 	 14.5681 	 -18.8043 	 -114.425 	 
H 	 15.6144 	 -18.4792 	 -114.3 	 
H 	 14.4281 	 -19.764 	 -113.967 	 
C 	 13.7261 	 -17.7164 	 -113.68 	 
H 	 12.7074 	 -17.9729 	 -113.362 	 
H 	 13.6006 	 -16.9105 	 -114.313 	 
H 	 14.0887 	 -17.5047 	 -112.672 	 
H 	 11.6157 	 -13.8809 	 -116.722 	 
H 	 11.0558 	 -22.3938 	 -115.704 	 
*
