! wB97X-D3 SP def2-SVP
%pal
nprocs 24
end

* xyz 0 1
S 	 -75.5733 	 -2.22101 	 5.14258 	 
C 	 -74.0774 	 -1.29156 	 5.08281 	 
C 	 -73.0256 	 -2.17253 	 4.85994 	 
C 	 -73.2792 	 -3.54005 	 5.06811 	 
C 	 -74.6167 	 -3.73525 	 5.26891 	 
H 	 -72.6927 	 -4.3709 	 5.13471 	 
C 	 -71.5924 	 -1.71272 	 4.57162 	 
H 	 -71.6142 	 -0.974016 	 3.68885 	 
H 	 -71.0245 	 -2.52536 	 4.19913 	 
C 	 -70.9426 	 -1.21238 	 5.84294 	 
H 	 -70.0104 	 -0.678133 	 5.63187 	 
H 	 -71.5579 	 -0.41552 	 6.26776 	 
C 	 -70.7187 	 -2.17933 	 6.93652 	 
H 	 -70.039 	 -1.84084 	 7.70976 	 
H 	 -71.6733 	 -2.43629 	 7.407 	 
H 	 -70.3834 	 -3.13519 	 6.52929 	 
S 	 -76.0048 	 -5.65176 	 6.70331 	 
C 	 -76.4911 	 -7.11275 	 6.0063 	 
C 	 -76.0847 	 -7.15025 	 4.66752 	 
C 	 -75.3673 	 -5.99477 	 4.25178 	 
C 	 -75.2299 	 -5.08984 	 5.26691 	 
H 	 -76.2282 	 -8.00697 	 4.07033 	 
C 	 -75.0505 	 -5.76053 	 2.80819 	 
H 	 -73.9524 	 -5.57719 	 2.71307 	 
H 	 -75.4139 	 -4.70898 	 2.7454 	 
C 	 -75.7635 	 -6.66892 	 1.72035 	 
H 	 -76.8561 	 -6.6606 	 1.91852 	 
H 	 -75.3911 	 -7.66883 	 2.00895 	 
C 	 -75.452 	 -6.28003 	 0.280719 	 
H 	 -74.3836 	 -6.47021 	 0.0208265 	 
H 	 -75.8679 	 -5.30541 	 0.168025 	 
H 	 -76.006 	 -7.00654 	 -0.263503 	 
H 	 -73.9052 	 -0.189504 	 5.01575 	 
H 	 -77.1253 	 -7.85608 	 6.53333 	 
*
