! wB97X-D3 SP def2-SVP
%pal
nprocs 24
end

* xyz 0 1
S 	 -44.0005 	 13.9318 	 33.323 	 
C 	 -42.7793 	 13.0449 	 34.0662 	 
C 	 -41.5338 	 13.4314 	 33.6825 	 
C 	 -41.595 	 14.6166 	 32.8567 	 
C 	 -42.8924 	 15.052 	 32.5494 	 
H 	 -40.7202 	 15.1913 	 32.4758 	 
C 	 -40.2688 	 12.8986 	 34.2427 	 
H 	 -39.5482 	 12.9738 	 33.4363 	 
H 	 -40.3488 	 11.8145 	 34.4652 	 
C 	 -39.5773 	 13.7726 	 35.3335 	 
H 	 -38.5404 	 13.3366 	 35.5549 	 
H 	 -39.3808 	 14.8225 	 34.9942 	 
C 	 -40.3622 	 13.7927 	 36.6379 	 
H 	 -41.2815 	 14.307 	 36.5561 	 
H 	 -40.645 	 12.7976 	 37.0709 	 
H 	 -39.8304 	 14.3794 	 37.3735 	 
S 	 -43.7792 	 15.5392 	 30.0073 	 
C 	 -44.0281 	 17.1819 	 29.5001 	 
C 	 -43.6829 	 18.0777 	 30.4717 	 
C 	 -43.1188 	 17.4934 	 31.6557 	 
C 	 -43.2002 	 16.0907 	 31.5793 	 
H 	 -43.581 	 19.1424 	 30.2749 	 
C 	 -42.5993 	 18.3639 	 32.7497 	 
H 	 -42.5766 	 17.7687 	 33.6547 	 
H 	 -43.4445 	 19.1248 	 32.9988 	 
C 	 -41.2739 	 19.2203 	 32.4994 	 
H 	 -41.0943 	 19.933 	 33.2008 	 
H 	 -41.4572 	 19.8431 	 31.6201 	 
C 	 -40.0291 	 18.2431 	 32.3464 	 
H 	 -40.0342 	 17.5265 	 33.0965 	 
H 	 -39.1031 	 18.767 	 32.325 	 
H 	 -40.0639 	 17.7673 	 31.4095 	 
H 	 -42.9428 	 12.2177 	 34.758 	 
H 	 -44.4348 	 17.591 	 28.5826 	 
*
