! wB97X-D3 SP def2-SVP
%pal
nprocs 24
end

* xyz 0 1
S 	 -60.7013 	 -56.5274 	 -88.2583 	 
C 	 -62.2103 	 -55.6457 	 -88.6179 	 
C 	 -63.2517 	 -56.1395 	 -87.8206 	 
C 	 -62.8206 	 -57.1943 	 -86.9148 	 
C 	 -61.4674 	 -57.4978 	 -87.0164 	 
H 	 -63.4764 	 -57.7429 	 -86.2474 	 
C 	 -64.651 	 -55.6403 	 -88.1091 	 
H 	 -65.1546 	 -56.4512 	 -88.5601 	 
H 	 -64.6054 	 -54.875 	 -88.8858 	 
C 	 -65.4355 	 -55.0452 	 -86.8311 	 
H 	 -65.3245 	 -55.5568 	 -85.8872 	 
H 	 -64.9299 	 -54.0956 	 -86.7806 	 
C 	 -66.9103 	 -54.6726 	 -87.1621 	 
H 	 -67.4241 	 -54.0805 	 -86.4488 	 
H 	 -66.8452 	 -54.0847 	 -88.0734 	 
H 	 -67.5859 	 -55.4769 	 -87.4782 	 
S 	 -59.0369 	 -57.8842 	 -85.7402 	 
C 	 -58.6954 	 -59.3397 	 -84.8709 	 
C 	 -59.8337 	 -60.1228 	 -84.8537 	 
C 	 -60.937 	 -59.5974 	 -85.5624 	 
C 	 -60.6585 	 -58.4404 	 -86.2466 	 
H 	 -59.8104 	 -61.0272 	 -84.231 	 
C 	 -62.2685 	 -60.3995 	 -85.5483 	 
H 	 -62.9719 	 -59.8496 	 -86.2112 	 
H 	 -62.6798 	 -60.3873 	 -84.443 	 
C 	 -62.1249 	 -61.8855 	 -86.0483 	 
H 	 -63.1043 	 -62.3187 	 -86.2029 	 
H 	 -61.6952 	 -62.4872 	 -85.2044 	 
C 	 -61.3081 	 -62.1673 	 -87.3309 	 
H 	 -61.8136 	 -61.6336 	 -88.1411 	 
H 	 -61.3158 	 -63.3127 	 -87.4874 	 
H 	 -60.2749 	 -61.7578 	 -87.302 	 
H 	 -62.2966 	 -54.7887 	 -89.2541 	 
H 	 -57.7973 	 -59.5877 	 -84.3298 	 
*
