! wB97X-D3 SP def2-SVP
%pal
nprocs 24
end

* xyz 0 1
S 	 -33.1195 	 -7.02307 	 16.367 	 
C 	 -31.7149 	 -7.97932 	 17.0406 	 
C 	 -32.1424 	 -8.88564 	 17.9751 	 
C 	 -33.4841 	 -9.19349 	 17.7973 	 
C 	 -34.1553 	 -8.3456 	 16.857 	 
H 	 -34.0206 	 -10.0132 	 18.259 	 
C 	 -31.2671 	 -9.63468 	 18.99 	 
H 	 -31.8065 	 -9.85261 	 19.8831 	 
H 	 -30.5184 	 -9.01242 	 19.4127 	 
C 	 -30.6917 	 -10.9404 	 18.4604 	 
H 	 -30.2603 	 -11.3704 	 19.3165 	 
H 	 -31.5613 	 -11.5846 	 18.2905 	 
C 	 -29.8506 	 -10.9509 	 17.1504 	 
H 	 -30.3318 	 -10.3535 	 16.3779 	 
H 	 -28.9291 	 -10.4457 	 17.4163 	 
H 	 -29.6854 	 -11.9545 	 16.6492 	 
S 	 -36.5983 	 -8.62874 	 17.9909 	 
C 	 -38.0211 	 -8.0915 	 17.121 	 
C 	 -37.7334 	 -7.77164 	 15.8345 	 
C 	 -36.3443 	 -7.866 	 15.5059 	 
C 	 -35.5971 	 -8.32784 	 16.5823 	 
H 	 -38.502 	 -7.51456 	 15.1736 	 
C 	 -35.8056 	 -7.35775 	 14.1124 	 
H 	 -34.8764 	 -6.8096 	 14.293 	 
H 	 -36.3826 	 -6.55124 	 13.7233 	 
C 	 -35.7009 	 -8.45603 	 13.0135 	 
H 	 -34.9961 	 -8.23532 	 12.1583 	 
H 	 -36.6716 	 -8.56816 	 12.6028 	 
C 	 -35.1409 	 -9.82654 	 13.4587 	 
H 	 -35.9752 	 -10.3003 	 13.945 	 
H 	 -34.3347 	 -9.80547 	 14.2148 	 
H 	 -34.8551 	 -10.3916 	 12.5749 	 
H 	 -30.6357 	 -7.74853 	 16.8532 	 
H 	 -39.0848 	 -8.09454 	 17.4458 	 
*
