! wB97X-D3 SP def2-SVP
%pal
nprocs 24
end

* xyz 0 1
S 	 -133.65 	 61.3027 	 -58.706 	 
C 	 -133.546 	 62.3022 	 -60.1656 	 
C 	 -133.203 	 63.6069 	 -59.816 	 
C 	 -133.105 	 63.8467 	 -58.3907 	 
C 	 -133.197 	 62.6791 	 -57.679 	 
H 	 -132.966 	 64.8044 	 -57.9648 	 
C 	 -133.416 	 64.6843 	 -60.7745 	 
H 	 -133.44 	 64.2944 	 -61.7676 	 
H 	 -132.48 	 65.2392 	 -60.5922 	 
C 	 -134.499 	 65.7815 	 -60.5064 	 
H 	 -135.438 	 65.2352 	 -60.3433 	 
H 	 -134.242 	 66.3297 	 -59.6256 	 
C 	 -134.527 	 66.8098 	 -61.614 	 
H 	 -133.689 	 67.4659 	 -61.5854 	 
H 	 -134.58 	 66.3441 	 -62.5927 	 
H 	 -135.418 	 67.3899 	 -61.48 	 
S 	 -134.327 	 61.5539 	 -55.4064 	 
C 	 -133.64 	 61.9325 	 -53.858 	 
C 	 -132.582 	 62.776 	 -53.9327 	 
C 	 -132.184 	 63.0674 	 -55.3458 	 
C 	 -133.143 	 62.5862 	 -56.2394 	 
H 	 -132.237 	 63.1459 	 -52.9865 	 
C 	 -130.898 	 63.8439 	 -55.6918 	 
H 	 -130.555 	 63.3879 	 -56.7119 	 
H 	 -130.203 	 63.6587 	 -54.9116 	 
C 	 -131.079 	 65.3558 	 -55.7742 	 
H 	 -131.653 	 65.7306 	 -54.9061 	 
H 	 -131.698 	 65.4909 	 -56.6196 	 
C 	 -129.818 	 66.1204 	 -55.7863 	 
H 	 -129.18 	 65.6675 	 -56.5805 	 
H 	 -129.283 	 66.0215 	 -54.8425 	 
H 	 -130.045 	 67.1432 	 -56.0086 	 
H 	 -133.875 	 62.0284 	 -61.0708 	 
H 	 -134.028 	 61.6488 	 -52.8675 	 
*
