! wB97X-D3 SP def2-SVP
%pal
nprocs 24
end

* xyz 0 1
S 	 -98.952 	 7.58155 	 2.04377 	 
C 	 -98.9087 	 6.31737 	 0.821346 	 
C 	 -97.7966 	 5.54394 	 1.0102 	 
C 	 -97.0674 	 5.95338 	 2.16963 	 
C 	 -97.4722 	 7.09248 	 2.78523 	 
H 	 -96.3039 	 5.35612 	 2.66072 	 
C 	 -97.3876 	 4.34912 	 0.197469 	 
H 	 -98.1163 	 4.29962 	 -0.590996 	 
H 	 -97.432 	 3.44942 	 0.875877 	 
C 	 -95.9004 	 4.46747 	 -0.390371 	 
H 	 -95.941 	 5.28196 	 -1.08999 	 
H 	 -95.2084 	 4.87272 	 0.431255 	 
C 	 -95.3078 	 3.1817 	 -0.984705 	 
H 	 -94.3308 	 3.38446 	 -1.41149 	 
H 	 -95.177 	 2.42981 	 -0.190671 	 
H 	 -95.9188 	 2.8853 	 -1.88351 	 
S 	 -98.021 	 8.10047 	 5.34126 	 
C 	 -96.6955 	 8.08179 	 6.49898 	 
C 	 -95.5186 	 8.1961 	 5.84493 	 
C 	 -95.6506 	 7.88671 	 4.43644 	 
C 	 -96.9311 	 7.66028 	 4.05058 	 
H 	 -94.6403 	 8.49043 	 6.41485 	 
C 	 -94.3646 	 7.74422 	 3.55353 	 
H 	 -93.9138 	 8.68744 	 3.68679 	 
H 	 -94.5587 	 7.66638 	 2.49644 	 
C 	 -93.4338 	 6.61722 	 4.09654 	 
H 	 -93.9804 	 5.67631 	 3.76477 	 
H 	 -93.3304 	 6.52245 	 5.17725 	 
C 	 -92.1325 	 6.75602 	 3.41831 	 
H 	 -92.2143 	 6.82146 	 2.33474 	 
H 	 -91.6806 	 5.87313 	 3.66158 	 
H 	 -91.7514 	 7.63431 	 3.91238 	 
H 	 -99.7365 	 6.14238 	 0.140961 	 
H 	 -96.8786 	 8.2292 	 7.50821 	 
*
