! wB97X-D3 SP def2-SVP
%pal
nprocs 24
end

* xyz 0 1
S 	 34.0063 	 -30.8611 	 -116.984 	 
C 	 35.2856 	 -30.1953 	 -115.924 	 
C 	 36.4623 	 -29.8325 	 -116.648 	 
C 	 36.2564 	 -30.1319 	 -118.032 	 
C 	 34.9798 	 -30.5766 	 -118.402 	 
H 	 36.8834 	 -29.9667 	 -118.836 	 
C 	 37.7709 	 -29.2199 	 -116.15 	 
H 	 37.6285 	 -28.2618 	 -115.709 	 
H 	 38.2422 	 -28.7907 	 -117.023 	 
C 	 38.655 	 -30.1336 	 -115.333 	 
H 	 38.62 	 -31.0897 	 -115.76 	 
H 	 39.6807 	 -29.8033 	 -115.332 	 
C 	 38.1989 	 -30.2537 	 -113.887 	 
H 	 38.7944 	 -30.9967 	 -113.259 	 
H 	 38.3588 	 -29.3183 	 -113.417 	 
H 	 37.1265 	 -30.5135 	 -113.808 	 
S 	 34.2072 	 -29.4725 	 -120.719 	 
C 	 33.8283 	 -30.4976 	 -122.107 	 
C 	 33.9482 	 -31.7891 	 -121.844 	 
C 	 34.3431 	 -32.0219 	 -120.48 	 
C 	 34.5599 	 -30.8091 	 -119.752 	 
H 	 33.7664 	 -32.5221 	 -122.628 	 
C 	 34.4299 	 -33.4441 	 -119.918 	 
H 	 35.1971 	 -33.3987 	 -119.149 	 
H 	 34.7292 	 -34.1094 	 -120.714 	 
C 	 33.1944 	 -34.0032 	 -119.35 	 
H 	 32.3849 	 -33.8715 	 -120.126 	 
H 	 32.9658 	 -33.6623 	 -118.327 	 
C 	 33.2813 	 -35.587 	 -119.091 	 
H 	 33.6592 	 -36.1385 	 -119.94 	 
H 	 32.3149 	 -36.0299 	 -118.866 	 
H 	 34.0252 	 -35.8521 	 -118.364 	 
H 	 35.2165 	 -30.2453 	 -114.859 	 
H 	 33.7797 	 -30.1668 	 -123.112 	 
*
