! wB97X-D3 SP def2-SVP
%pal
nprocs 24
end

* xyz 0 1
S 	 -91.7038 	 -26.1001 	 -66.3987 	 
C 	 -93.3793 	 -26.0593 	 -66.3928 	 
C 	 -93.9681 	 -26.8111 	 -65.4521 	 
C 	 -93.0794 	 -27.2899 	 -64.505 	 
C 	 -91.7763 	 -27.2441 	 -65.0598 	 
H 	 -93.2735 	 -27.8951 	 -63.6735 	 
C 	 -95.495 	 -26.9704 	 -65.3318 	 
H 	 -95.7846 	 -27.684 	 -64.5407 	 
H 	 -95.7755 	 -27.4425 	 -66.2586 	 
C 	 -96.3088 	 -25.6403 	 -65.1331 	 
H 	 -95.9412 	 -24.8675 	 -65.781 	 
H 	 -97.3312 	 -25.9125 	 -65.3594 	 
C 	 -96.1392 	 -25.095 	 -63.7038 	 
H 	 -96.7804 	 -24.2788 	 -63.4446 	 
H 	 -96.4174 	 -25.9353 	 -63.0561 	 
H 	 -95.1105 	 -24.9638 	 -63.4279 	 
S 	 -90.2604 	 -29.6157 	 -65.2362 	 
C 	 -88.8377 	 -29.7535 	 -64.3026 	 
C 	 -88.6147 	 -28.6204 	 -63.552 	 
C 	 -89.4928 	 -27.5426 	 -63.8666 	 
C 	 -90.6037 	 -28.0136 	 -64.6246 	 
H 	 -87.7782 	 -28.6325 	 -62.8501 	 
C 	 -89.3153 	 -26.1176 	 -63.3834 	 
H 	 -89.9238 	 -25.4058 	 -63.9776 	 
H 	 -88.3313 	 -25.8166 	 -63.69 	 
C 	 -89.3086 	 -25.9446 	 -61.8954 	 
H 	 -88.3471 	 -26.2468 	 -61.3745 	 
H 	 -90.1783 	 -26.5625 	 -61.4935 	 
C 	 -89.2888 	 -24.4471 	 -61.5458 	 
H 	 -90.2394 	 -23.9005 	 -61.6179 	 
H 	 -88.6106 	 -23.8351 	 -62.0906 	 
H 	 -88.9355 	 -24.3538 	 -60.4839 	 
H 	 -93.9083 	 -25.4483 	 -67.098 	 
H 	 -88.144 	 -30.5547 	 -64.3633 	 
*
