! wB97X-D3 SP def2-SVP
%pal
nprocs 24
end

* xyz 0 1
S 	 -128.125 	 26.4083 	 -22.8478 	 
C 	 -129.582 	 25.3985 	 -22.7778 	 
C 	 -130.783 	 25.9903 	 -23.2436 	 
C 	 -130.429 	 27.2979 	 -23.7168 	 
C 	 -129.105 	 27.698 	 -23.5598 	 
H 	 -131.036 	 28.0067 	 -24.1519 	 
C 	 -132.238 	 25.5278 	 -23.2816 	 
H 	 -132.313 	 24.5283 	 -22.7544 	 
H 	 -132.51 	 25.3958 	 -24.2897 	 
C 	 -133.211 	 26.476 	 -22.5563 	 
H 	 -132.653 	 26.8477 	 -21.639 	 
H 	 -133.441 	 27.4137 	 -23.1147 	 
C 	 -134.513 	 25.7283 	 -22.1174 	 
H 	 -134.695 	 24.7609 	 -22.5594 	 
H 	 -134.447 	 25.5466 	 -21.0562 	 
H 	 -135.342 	 26.4516 	 -22.3147 	 
S 	 -127.36 	 29.5675 	 -22.5307 	 
C 	 -127.333 	 31.1573 	 -23.1368 	 
C 	 -128 	 31.3252 	 -24.3245 	 
C 	 -128.737 	 30.0433 	 -24.6903 	 
C 	 -128.529 	 29.0345 	 -23.687 	 
H 	 -127.859 	 32.2568 	 -24.8515 	 
C 	 -129.48 	 29.9147 	 -26.0469 	 
H 	 -130.076 	 29.0033 	 -26.1581 	 
H 	 -128.772 	 29.8984 	 -26.8505 	 
C 	 -130.504 	 31.0356 	 -26.29 	 
H 	 -131.004 	 30.8895 	 -27.2504 	 
H 	 -129.959 	 31.9883 	 -26.3308 	 
C 	 -131.634 	 31.2027 	 -25.198 	 
H 	 -132.27 	 30.3899 	 -25.024 	 
H 	 -132.358 	 31.911 	 -25.6062 	 
H 	 -131.267 	 31.6206 	 -24.2898 	 
H 	 -129.532 	 24.3609 	 -22.5554 	 
H 	 -126.813 	 32.0124 	 -22.6957 	 
*
