! wB97X-D3 SP def2-SVP
%pal
nprocs 24
end

* xyz 0 1
S 	 -62.6325 	 13.9948 	 -90.9778 	 
C 	 -63.2243 	 15.5635 	 -91.4548 	 
C 	 -62.7395 	 16.5583 	 -90.6015 	 
C 	 -62.0096 	 16.016 	 -89.5358 	 
C 	 -61.7165 	 14.6973 	 -89.7068 	 
H 	 -61.5477 	 16.5242 	 -88.7443 	 
C 	 -63.1784 	 17.9915 	 -90.5574 	 
H 	 -62.9176 	 18.378 	 -89.6083 	 
H 	 -64.2668 	 17.9752 	 -90.5044 	 
C 	 -62.5898 	 18.8941 	 -91.6864 	 
H 	 -62.1432 	 18.2693 	 -92.496 	 
H 	 -63.4082 	 19.4323 	 -92.1682 	 
C 	 -61.5446 	 19.907 	 -91.1894 	 
H 	 -60.9297 	 20.2686 	 -92.0456 	 
H 	 -61.8967 	 20.6787 	 -90.4685 	 
H 	 -60.9099 	 19.2116 	 -90.5584 	 
S 	 -61.8397 	 12.6467 	 -87.9431 	 
C 	 -60.273 	 12.1087 	 -87.3155 	 
C 	 -59.2317 	 12.9381 	 -87.598 	 
C 	 -59.5831 	 14.0146 	 -88.4435 	 
C 	 -60.963 	 13.9526 	 -88.7463 	 
H 	 -58.2772 	 12.7057 	 -87.1864 	 
C 	 -58.5032 	 14.8668 	 -89.0677 	 
H 	 -58.6353 	 14.7493 	 -90.106 	 
H 	 -57.5719 	 14.2813 	 -88.9622 	 
C 	 -58.2157 	 16.2716 	 -88.4389 	 
H 	 -58.3725 	 16.2309 	 -87.3275 	 
H 	 -58.9596 	 16.9825 	 -88.8064 	 
C 	 -56.8405 	 16.6948 	 -88.8441 	 
H 	 -56.6629 	 16.4716 	 -89.9059 	 
H 	 -56.0485 	 15.9986 	 -88.4476 	 
H 	 -56.5757 	 17.7401 	 -88.6362 	 
H 	 -64.0716 	 15.7722 	 -92.0902 	 
H 	 -60.1354 	 11.2871 	 -86.6656 	 
*
