! wB97X-D3 SP def2-SVP
%pal
nprocs 24
end

* xyz 0 1
S 	 -88.7896 	 -8.69604 	 -116.249 	 
C 	 -88.1809 	 -10.2213 	 -116.758 	 
C 	 -89.0786 	 -10.9277 	 -117.477 	 
C 	 -90.3415 	 -10.2863 	 -117.599 	 
C 	 -90.4015 	 -9.14614 	 -116.841 	 
H 	 -91.1736 	 -10.676 	 -118.163 	 
C 	 -88.6972 	 -12.2477 	 -118.13 	 
H 	 -88.0889 	 -11.9923 	 -118.964 	 
H 	 -89.612 	 -12.7909 	 -118.377 	 
C 	 -87.8325 	 -13.1631 	 -117.302 	 
H 	 -86.8892 	 -12.704 	 -116.981 	 
H 	 -88.5013 	 -13.4065 	 -116.397 	 
C 	 -87.4386 	 -14.4611 	 -117.912 	 
H 	 -86.8516 	 -14.9982 	 -117.145 	 
H 	 -88.4043 	 -14.9998 	 -118.177 	 
H 	 -86.7823 	 -14.5563 	 -118.749 	 
S 	 -91.0769 	 -6.581 	 -115.952 	 
C 	 -92.7848 	 -6.17698 	 -116.062 	 
C 	 -93.5582 	 -7.17532 	 -116.581 	 
C 	 -92.8014 	 -8.28569 	 -117.07 	 
C 	 -91.4545 	 -8.14949 	 -116.76 	 
H 	 -94.6306 	 -7.02968 	 -116.565 	 
C 	 -93.5797 	 -9.39992 	 -117.62 	 
H 	 -94.5511 	 -9.39039 	 -117.135 	 
H 	 -93.043 	 -10.2545 	 -117.399 	 
C 	 -93.7564 	 -9.4208 	 -119.192 	 
H 	 -92.8239 	 -9.19159 	 -119.707 	 
H 	 -94.4274 	 -8.75591 	 -119.639 	 
C 	 -94.3156 	 -10.6355 	 -119.798 	 
H 	 -94.4113 	 -10.4358 	 -120.864 	 
H 	 -95.2257 	 -10.9518 	 -119.312 	 
H 	 -93.6368 	 -11.4109 	 -119.649 	 
H 	 -87.2328 	 -10.4187 	 -116.334 	 
H 	 -93.3282 	 -5.39668 	 -115.452 	 
*
