! wB97X-D3 SP def2-SVP
%pal
nprocs 24
end

* xyz 0 1
S 	 -90.1251 	 0.919349 	 -0.335829 	 
C 	 -88.6926 	 0.227834 	 0.442325 	 
C 	 -89.0385 	 -0.547142 	 1.57058 	 
C 	 -90.4869 	 -0.593503 	 1.75239 	 
C 	 -91.2217 	 0.228154 	 0.873891 	 
H 	 -90.9996 	 -1.23922 	 2.48043 	 
C 	 -88.0741 	 -1.57231 	 2.23491 	 
H 	 -87.1743 	 -1.66819 	 1.63022 	 
H 	 -88.4749 	 -2.56403 	 2.23324 	 
C 	 -87.5607 	 -1.10984 	 3.61766 	 
H 	 -86.6832 	 -1.70386 	 4.01745 	 
H 	 -87.0942 	 -0.120179 	 3.56176 	 
C 	 -88.6307 	 -1.19173 	 4.75656 	 
H 	 -89.3224 	 -0.329591 	 4.52986 	 
H 	 -89.1293 	 -2.15744 	 4.80645 	 
H 	 -88.0611 	 -1.06901 	 5.71039 	 
S 	 -93.51 	 -0.499277 	 -0.407663 	 
C 	 -95.0382 	 0.000885169 	 0.242464 	 
C 	 -94.9326 	 0.7963 	 1.33776 	 
C 	 -93.566 	 1.1373 	 1.6804 	 
C 	 -92.6834 	 0.369775 	 0.891472 	 
H 	 -95.8643 	 1.2552 	 1.80387 	 
C 	 -93.2448 	 2.24393 	 2.69524 	 
H 	 -92.4286 	 1.88617 	 3.40112 	 
H 	 -94.0818 	 2.45737 	 3.38386 	 
C 	 -92.7079 	 3.54809 	 2.15155 	 
H 	 -91.8601 	 3.38433 	 1.51977 	 
H 	 -92.3065 	 4.2456 	 2.89694 	 
C 	 -93.8031 	 4.223 	 1.20416 	 
H 	 -94.0415 	 3.57017 	 0.398922 	 
H 	 -93.45 	 5.22739 	 0.824463 	 
H 	 -94.6957 	 4.58225 	 1.70706 	 
H 	 -87.6612 	 0.325301 	 0.15971 	 
H 	 -95.971 	 -0.340989 	 -0.211887 	 
*
