! wB97X-D3 SP def2-SVP
%pal
nprocs 24
end

* xyz 0 1
S 	 -117.517 	 25.3603 	 -15.4547 	 
C 	 -118.181 	 24.9618 	 -17.0389 	 
C 	 -117.592 	 25.7449 	 -18.0688 	 
C 	 -116.923 	 26.8609 	 -17.5041 	 
C 	 -116.877 	 26.8446 	 -16.1353 	 
H 	 -116.504 	 27.7299 	 -17.9823 	 
C 	 -117.5 	 25.4286 	 -19.4923 	 
H 	 -117.085 	 24.4637 	 -19.6977 	 
H 	 -116.742 	 26.1305 	 -19.8197 	 
C 	 -118.875 	 25.3724 	 -20.2825 	 
H 	 -119.581 	 24.815 	 -19.6984 	 
H 	 -119.364 	 26.2971 	 -20.1101 	 
C 	 -118.719 	 24.9749 	 -21.7849 	 
H 	 -119.712 	 24.9064 	 -22.1924 	 
H 	 -118.15 	 25.7205 	 -22.421 	 
H 	 -118.209 	 23.9974 	 -21.9111 	 
S 	 -114.872 	 27.2393 	 -14.265 	 
C 	 -114.446 	 28.791 	 -13.6435 	 
C 	 -115.162 	 29.7682 	 -14.3613 	 
C 	 -116.127 	 29.1827 	 -15.2213 	 
C 	 -116.111 	 27.8261 	 -15.3002 	 
H 	 -115.033 	 30.8294 	 -14.1912 	 
C 	 -116.99 	 30.0916 	 -16.0594 	 
H 	 -117.016 	 29.9219 	 -17.2103 	 
H 	 -116.576 	 31.0791 	 -16.0889 	 
C 	 -118.409 	 30.4301 	 -15.4614 	 
H 	 -118.976 	 31.3688 	 -15.7327 	 
H 	 -118.368 	 30.4486 	 -14.3651 	 
C 	 -119.467 	 29.399 	 -15.6955 	 
H 	 -119.813 	 29.5156 	 -16.7632 	 
H 	 -120.335 	 29.5269 	 -15.0562 	 
H 	 -119.048 	 28.3933 	 -15.6749 	 
H 	 -118.68 	 24.0567 	 -17.2221 	 
H 	 -113.672 	 29.026 	 -12.9778 	 
*
