! wB97X-D3 SP def2-SVP
%pal
nprocs 24
end

* xyz 0 1
S 	 -65.7423 	 6.57973 	 -101.602 	 
C 	 -64.7799 	 7.88032 	 -100.965 	 
C 	 -65.5191 	 9.065 	 -100.881 	 
C 	 -66.9086 	 8.8969 	 -101.237 	 
C 	 -67.1622 	 7.62592 	 -101.693 	 
H 	 -67.6475 	 9.69461 	 -101.268 	 
C 	 -64.9533 	 10.335 	 -100.26 	 
H 	 -63.9459 	 10.4574 	 -100.53 	 
H 	 -65.1192 	 10.1804 	 -99.2002 	 
C 	 -65.6819 	 11.6614 	 -100.495 	 
H 	 -66.7217 	 11.8489 	 -100.133 	 
H 	 -65.0601 	 12.3657 	 -99.9152 	 
C 	 -65.5576 	 12.2761 	 -101.918 	 
H 	 -66.468 	 11.9673 	 -102.54 	 
H 	 -65.8279 	 13.2837 	 -101.797 	 
H 	 -64.5197 	 12.3036 	 -102.432 	 
S 	 -68.3654 	 6.76849 	 -103.956 	 
C 	 -70.0982 	 6.42069 	 -104.001 	 
C 	 -70.6074 	 6.68447 	 -102.702 	 
C 	 -69.6738 	 7.18414 	 -101.725 	 
C 	 -68.3942 	 7.12034 	 -102.221 	 
H 	 -71.7026 	 6.66991 	 -102.538 	 
C 	 -70.0349 	 7.63253 	 -100.309 	 
H 	 -69.6095 	 8.60201 	 -100.099 	 
H 	 -69.5057 	 6.98558 	 -99.6242 	 
C 	 -71.507 	 7.73099 	 -99.9703 	 
H 	 -71.9786 	 6.79236 	 -100.214 	 
H 	 -72.1222 	 8.47049 	 -100.574 	 
C 	 -71.8385 	 8.00499 	 -98.4567 	 
H 	 -72.8565 	 7.7409 	 -98.2185 	 
H 	 -71.5852 	 8.9996 	 -98.2455 	 
H 	 -71.3454 	 7.34592 	 -97.7345 	 
H 	 -63.7281 	 7.7502 	 -100.793 	 
H 	 -70.6965 	 6.04339 	 -104.844 	 
*
