! wB97X-D3 SP def2-SVP
%pal
nprocs 24
end

* xyz 0 1
S 	 -53.9608 	 17.4096 	 26.5011 	 
C 	 -55.4888 	 16.5632 	 26.4522 	 
C 	 -55.913 	 16.2285 	 27.7703 	 
C 	 -54.9853 	 16.7469 	 28.7632 	 
C 	 -53.8293 	 17.4075 	 28.3007 	 
H 	 -55.2734 	 16.7569 	 29.7309 	 
C 	 -57.2452 	 15.6531 	 28.2453 	 
H 	 -58.0309 	 16.3117 	 27.9162 	 
H 	 -57.2649 	 15.7458 	 29.3014 	 
C 	 -57.6177 	 14.2052 	 27.9282 	 
H 	 -57.6586 	 14.0281 	 26.8729 	 
H 	 -56.8518 	 13.5325 	 28.3531 	 
C 	 -59.0104 	 13.8527 	 28.4854 	 
H 	 -59.6966 	 14.6695 	 28.1567 	 
H 	 -59.2775 	 12.7546 	 28.2949 	 
H 	 -59.0721 	 13.8484 	 29.5523 	 
S 	 -51.2625 	 16.7209 	 29.1188 	 
C 	 -50.4818 	 17.7967 	 30.269 	 
C 	 -51.2052 	 18.9405 	 30.5384 	 
C 	 -52.412 	 19.0651 	 29.7294 	 
C 	 -52.6482 	 17.9073 	 29.0436 	 
H 	 -50.878 	 19.7234 	 31.1959 	 
C 	 -53.2121 	 20.3351 	 29.9318 	 
H 	 -53.6089 	 20.649 	 28.9485 	 
H 	 -52.4973 	 21.0883 	 30.2085 	 
C 	 -54.3747 	 20.2571 	 30.9472 	 
H 	 -53.9613 	 19.7602 	 31.8108 	 
H 	 -55.1491 	 19.6658 	 30.4758 	 
C 	 -54.9613 	 21.6189 	 31.2294 	 
H 	 -54.2516 	 22.2715 	 31.6206 	 
H 	 -55.8317 	 21.5194 	 31.8726 	 
H 	 -55.293 	 22.0511 	 30.2532 	 
H 	 -56.0964 	 16.4908 	 25.5888 	 
H 	 -49.6343 	 17.4808 	 30.9028 	 
*
