! wB97X-D3 SP def2-SVP
%pal
nprocs 24
end

* xyz 0 1
S 	 -89.4949 	 -2.7939 	 -118.542 	 
C 	 -89.7805 	 -4.18571 	 -119.526 	 
C 	 -91.1729 	 -4.48017 	 -119.478 	 
C 	 -91.9366 	 -3.48103 	 -118.931 	 
C 	 -91.184 	 -2.40132 	 -118.435 	 
H 	 -93.0382 	 -3.45052 	 -118.899 	 
C 	 -91.6755 	 -5.71601 	 -120.216 	 
H 	 -91.5406 	 -5.45686 	 -121.287 	 
H 	 -92.7562 	 -5.75507 	 -120.069 	 
C 	 -90.9744 	 -7.03683 	 -119.833 	 
H 	 -89.8925 	 -6.99254 	 -119.883 	 
H 	 -91.2746 	 -7.31765 	 -118.826 	 
C 	 -91.4915 	 -8.13501 	 -120.754 	 
H 	 -91.1074 	 -7.76507 	 -121.713 	 
H 	 -90.9704 	 -8.95086 	 -120.395 	 
H 	 -92.5321 	 -8.40092 	 -120.881 	 
S 	 -91.0931 	 -0.989273 	 -116.088 	 
C 	 -92.228 	 0.308573 	 -115.841 	 
C 	 -93.0685 	 0.469225 	 -116.913 	 
C 	 -92.8264 	 -0.426253 	 -117.999 	 
C 	 -91.7132 	 -1.25797 	 -117.724 	 
H 	 -93.7414 	 1.32793 	 -116.837 	 
C 	 -93.6679 	 -0.538758 	 -119.248 	 
H 	 -93.298 	 -1.3623 	 -119.873 	 
H 	 -93.452 	 0.447065 	 -119.825 	 
C 	 -95.1212 	 -0.472579 	 -119.018 	 
H 	 -95.5529 	 0.561238 	 -118.875 	 
H 	 -95.2826 	 -0.777292 	 -118.034 	 
C 	 -95.8963 	 -1.26517 	 -120.068 	 
H 	 -96.9684 	 -1.1603 	 -119.964 	 
H 	 -95.7122 	 -2.34605 	 -119.999 	 
H 	 -95.7041 	 -0.85746 	 -121.072 	 
H 	 -88.9672 	 -4.82224 	 -120.016 	 
H 	 -92.2998 	 1.0476 	 -115.044 	 
*
