! wB97X-D3 SP def2-SVP
%pal
nprocs 24
end

* xyz 0 1
S 	 -106.591 	 2.21381 	 -111.718 	 
C 	 -108.262 	 2.42396 	 -111.202 	 
C 	 -109.079 	 1.38987 	 -111.656 	 
C 	 -108.367 	 0.30706 	 -112.207 	 
C 	 -107.052 	 0.661798 	 -112.391 	 
H 	 -108.738 	 -0.56639 	 -112.593 	 
C 	 -110.585 	 1.36658 	 -111.501 	 
H 	 -110.812 	 2.0209 	 -110.645 	 
H 	 -110.888 	 0.393262 	 -111.344 	 
C 	 -111.394 	 1.94149 	 -112.68 	 
H 	 -112.409 	 1.98197 	 -112.401 	 
H 	 -111.139 	 2.98284 	 -112.933 	 
C 	 -111.264 	 1.06483 	 -113.975 	 
H 	 -110.265 	 1.12597 	 -114.317 	 
H 	 -111.568 	 -0.00167674 	 -113.934 	 
H 	 -111.83 	 1.45066 	 -114.811 	 
S 	 -105.666 	 0.473657 	 -114.843 	 
C 	 -105.267 	 -1.13068 	 -115.313 	 
C 	 -105.108 	 -1.93139 	 -114.237 	 
C 	 -105.766 	 -1.46484 	 -113.076 	 
C 	 -106.144 	 -0.121913 	 -113.223 	 
H 	 -104.758 	 -2.95906 	 -114.425 	 
C 	 -106.094 	 -2.31759 	 -111.82 	 
H 	 -106.5 	 -1.57176 	 -111.1 	 
H 	 -105.217 	 -2.83521 	 -111.46 	 
C 	 -107.142 	 -3.42257 	 -112.008 	 
H 	 -108.047 	 -3.12518 	 -112.509 	 
H 	 -107.355 	 -3.70756 	 -110.972 	 
C 	 -106.701 	 -4.66455 	 -112.724 	 
H 	 -105.634 	 -4.81706 	 -112.653 	 
H 	 -106.926 	 -4.73849 	 -113.807 	 
H 	 -107.191 	 -5.50594 	 -112.141 	 
H 	 -108.626 	 3.33669 	 -110.71 	 
H 	 -104.885 	 -1.49072 	 -116.293 	 
*
