! wB97X-D3 SP def2-SVP
%pal
nprocs 24
end

* xyz 0 1
S 	 -103.794 	 23.3847 	 -111.723 	 
C 	 -103.095 	 21.9172 	 -111.125 	 
C 	 -101.826 	 22.1495 	 -110.574 	 
C 	 -101.53 	 23.5231 	 -110.468 	 
C 	 -102.53 	 24.3515 	 -111.014 	 
H 	 -100.716 	 23.9453 	 -109.938 	 
C 	 -100.961 	 21.1329 	 -109.902 	 
H 	 -100.052 	 21.554 	 -109.519 	 
H 	 -100.698 	 20.3916 	 -110.632 	 
C 	 -101.581 	 20.384 	 -108.709 	 
H 	 -101.854 	 21.103 	 -107.928 	 
H 	 -102.511 	 19.8988 	 -109.025 	 
C 	 -100.638 	 19.3999 	 -108.044 	 
H 	 -101.2 	 18.6255 	 -107.491 	 
H 	 -99.9848 	 18.9205 	 -108.764 	 
H 	 -100.041 	 19.9779 	 -107.343 	 
S 	 -101.475 	 26.2949 	 -112.603 	 
C 	 -101.739 	 27.9049 	 -112.045 	 
C 	 -102.79 	 28.0229 	 -111.186 	 
C 	 -103.181 	 26.7559 	 -110.651 	 
C 	 -102.454 	 25.7437 	 -111.191 	 
H 	 -103.118 	 29.0127 	 -110.812 	 
C 	 -104.22 	 26.5963 	 -109.569 	 
H 	 -104.323 	 25.5292 	 -109.176 	 
H 	 -105.219 	 26.7049 	 -110.024 	 
C 	 -104.117 	 27.4451 	 -108.284 	 
H 	 -103.169 	 27.7299 	 -107.995 	 
H 	 -104.626 	 26.8886 	 -107.534 	 
C 	 -104.886 	 28.8059 	 -108.329 	 
H 	 -105.999 	 28.6732 	 -108.612 	 
H 	 -104.43 	 29.2982 	 -109.191 	 
H 	 -104.804 	 29.4125 	 -107.465 	 
H 	 -103.544 	 20.9404 	 -111.201 	 
H 	 -101.346 	 28.8085 	 -112.586 	 
*
