! wB97X-D3 SP def2-SVP
%pal
nprocs 24
end

* xyz 0 1
S 	 -66.0004 	 21.5346 	 -73.9593 	 
C 	 -65.4008 	 19.9863 	 -74.4834 	 
C 	 -65.4218 	 18.9731 	 -73.5043 	 
C 	 -65.9445 	 19.5625 	 -72.2521 	 
C 	 -66.2053 	 20.9129 	 -72.2992 	 
H 	 -66.0325 	 19.0703 	 -71.2861 	 
C 	 -65.0083 	 17.4375 	 -73.6268 	 
H 	 -64.1668 	 17.2626 	 -72.9218 	 
H 	 -64.5825 	 17.2165 	 -74.5583 	 
C 	 -66.2064 	 16.4535 	 -73.461 	 
H 	 -66.6367 	 16.622 	 -72.4256 	 
H 	 -67.0133 	 16.6962 	 -74.1497 	 
C 	 -65.8871 	 14.9589 	 -73.4573 	 
H 	 -65.1393 	 14.7732 	 -72.6892 	 
H 	 -66.8567 	 14.4696 	 -73.1909 	 
H 	 -65.6154 	 14.6324 	 -74.4819 	 
S 	 -66.6106 	 21.5568 	 -69.6134 	 
C 	 -67.8016 	 22.7569 	 -69.2446 	 
C 	 -68.6554 	 22.8692 	 -70.3188 	 
C 	 -68.2756 	 22.2187 	 -71.5486 	 
C 	 -67.0466 	 21.6012 	 -71.3334 	 
H 	 -69.6308 	 23.4704 	 -70.2766 	 
C 	 -69.1203 	 22.1255 	 -72.8287 	 
H 	 -68.7864 	 21.4892 	 -73.7175 	 
H 	 -69.035 	 23.1056 	 -73.1377 	 
C 	 -70.5625 	 21.6768 	 -72.4822 	 
H 	 -71.1241 	 21.6851 	 -73.4342 	 
H 	 -71.1403 	 22.3789 	 -71.8471 	 
C 	 -70.5617 	 20.2861 	 -71.8602 	 
H 	 -71.5497 	 20.0903 	 -71.5725 	 
H 	 -69.9452 	 20.2425 	 -70.9716 	 
H 	 -70.0841 	 19.5523 	 -72.5563 	 
H 	 -65.0587 	 19.8719 	 -75.4528 	 
H 	 -67.9534 	 23.2338 	 -68.2774 	 
*
