! wB97X-D3 SP def2-SVP
%pal
nprocs 24
end

* xyz 0 1
S 	 -86.9148 	 -7.11434 	 -62.8472 	 
C 	 -88.6663 	 -6.85726 	 -62.9084 	 
C 	 -89.178 	 -5.90028 	 -62.0647 	 
C 	 -88.1558 	 -5.48705 	 -61.1573 	 
C 	 -86.8763 	 -6.07505 	 -61.3675 	 
H 	 -88.2721 	 -4.99636 	 -60.2138 	 
C 	 -90.5582 	 -5.31752 	 -62.0633 	 
H 	 -90.8176 	 -5.11388 	 -61.0489 	 
H 	 -91.3292 	 -6.03317 	 -62.351 	 
C 	 -90.7833 	 -4.05164 	 -62.8151 	 
H 	 -90.0343 	 -3.31986 	 -62.3893 	 
H 	 -90.6889 	 -4.21907 	 -63.9042 	 
C 	 -92.1838 	 -3.36293 	 -62.7002 	 
H 	 -92.8643 	 -4.02167 	 -63.2215 	 
H 	 -92.4189 	 -3.22584 	 -61.6444 	 
H 	 -92.0545 	 -2.44433 	 -63.2332 	 
S 	 -85.1539 	 -7.15109 	 -59.4808 	 
C 	 -83.6669 	 -6.33575 	 -59.1696 	 
C 	 -83.7282 	 -5.04783 	 -59.5863 	 
C 	 -84.8154 	 -4.8176 	 -60.4757 	 
C 	 -85.6392 	 -5.91761 	 -60.5975 	 
H 	 -82.8932 	 -4.41826 	 -59.3675 	 
C 	 -85.0981 	 -3.49654 	 -61.1518 	 
H 	 -85.824 	 -3.55357 	 -61.9283 	 
H 	 -84.117 	 -3.25624 	 -61.6477 	 
C 	 -85.5711 	 -2.41221 	 -60.2522 	 
H 	 -84.7722 	 -2.43502 	 -59.4537 	 
H 	 -86.4484 	 -2.74971 	 -59.8658 	 
C 	 -85.7852 	 -0.998877 	 -60.8097 	 
H 	 -86.2591 	 -0.39537 	 -60.0531 	 
H 	 -86.4169 	 -1.03331 	 -61.7084 	 
H 	 -84.8663 	 -0.495188 	 -61.141 	 
H 	 -89.221 	 -7.12167 	 -63.8053 	 
H 	 -82.8371 	 -6.66625 	 -58.5076 	 
*
