! wB97X-D3 SP def2-SVP
%pal
nprocs 24
end

* xyz 0 1
S 	 -102.396 	 15.488 	 -120.493 	 
C 	 -102.27 	 17.1215 	 -119.866 	 
C 	 -100.992 	 17.7114 	 -120.183 	 
C 	 -100.113 	 16.7533 	 -120.868 	 
C 	 -100.812 	 15.6104 	 -121.169 	 
H 	 -99.11 	 16.9439 	 -121.245 	 
C 	 -100.548 	 19.0813 	 -119.6 	 
H 	 -100.778 	 19.7773 	 -120.363 	 
H 	 -99.4871 	 19.1281 	 -119.578 	 
C 	 -101.13 	 19.4915 	 -118.303 	 
H 	 -102.225 	 19.4129 	 -118.39 	 
H 	 -100.754 	 18.7111 	 -117.632 	 
C 	 -100.548 	 20.8342 	 -117.861 	 
H 	 -100.942 	 21.2332 	 -116.903 	 
H 	 -99.4658 	 20.7197 	 -117.564 	 
H 	 -100.541 	 21.5435 	 -118.638 	 
S 	 -99.7632 	 13.0302 	 -121.144 	 
C 	 -99.4019 	 12.3168 	 -122.687 	 
C 	 -99.5313 	 13.1783 	 -123.76 	 
C 	 -99.9392 	 14.497 	 -123.329 	 
C 	 -100.305 	 14.5333 	 -121.958 	 
H 	 -99.1913 	 12.8075 	 -124.737 	 
C 	 -100.109 	 15.5706 	 -124.332 	 
H 	 -99.9074 	 15.3169 	 -125.401 	 
H 	 -99.297 	 16.3449 	 -124.214 	 
C 	 -101.514 	 16.3038 	 -124.174 	 
H 	 -101.492 	 16.9605 	 -123.326 	 
H 	 -102.339 	 15.5792 	 -124.038 	 
C 	 -101.841 	 17.1504 	 -125.418 	 
H 	 -101.227 	 17.9945 	 -125.609 	 
H 	 -102.882 	 17.6204 	 -125.284 	 
H 	 -101.681 	 16.5497 	 -126.31 	 
H 	 -103.022 	 17.7467 	 -119.481 	 
H 	 -98.8415 	 11.3712 	 -122.767 	 
*
