! wB97X-D3 SP def2-SVP
%pal
nprocs 24
end

* xyz 0 1
S 	 -34.4635 	 11.0927 	 7.44563 	 
C 	 -35.2048 	 12.6221 	 6.87585 	 
C 	 -34.4419 	 13.7347 	 7.28907 	 
C 	 -33.2298 	 13.3096 	 7.94751 	 
C 	 -33.0967 	 11.9391 	 8.08815 	 
H 	 -32.3608 	 13.9438 	 8.14764 	 
C 	 -34.8815 	 15.1279 	 7.08278 	 
H 	 -34.7281 	 15.8462 	 7.87625 	 
H 	 -35.9106 	 15.202 	 6.95413 	 
C 	 -34.2114 	 15.744 	 5.88112 	 
H 	 -33.1403 	 15.574 	 6.08907 	 
H 	 -34.4814 	 15.3147 	 4.90921 	 
C 	 -34.4152 	 17.2491 	 5.7411 	 
H 	 -33.8284 	 17.6463 	 4.96577 	 
H 	 -35.4162 	 17.4504 	 5.46384 	 
H 	 -34.1041 	 17.7664 	 6.65354 	 
S 	 -32.4923 	 9.55819 	 9.27874 	 
C 	 -30.8756 	 9.22388 	 9.80282 	 
C 	 -30.0245 	 10.2131 	 9.3649 	 
C 	 -30.6395 	 11.321 	 8.67151 	 
C 	 -32.042 	 11.1833 	 8.6918 	 
H 	 -29.0089 	 9.90306 	 9.54092 	 
C 	 -29.8039 	 12.4418 	 8.06168 	 
H 	 -28.9352 	 12.4965 	 8.67387 	 
H 	 -30.2949 	 13.3637 	 8.23408 	 
C 	 -29.3497 	 12.2114 	 6.59479 	 
H 	 -28.8671 	 13.0264 	 6.12586 	 
H 	 -30.2621 	 11.9738 	 5.98452 	 
C 	 -28.4878 	 10.9202 	 6.50431 	 
H 	 -28.9888 	 10.0592 	 6.88832 	 
H 	 -27.5016 	 11.0616 	 6.97046 	 
H 	 -28.1417 	 10.7607 	 5.47124 	 
H 	 -36.1721 	 12.6992 	 6.5549 	 
H 	 -30.6069 	 8.35698 	 10.263 	 
*
