! wB97X-D3 SP def2-SVP
%pal
nprocs 24
end

* xyz 0 1
S 	 -80.8793 	 -5.16766 	 4.13517 	 
C 	 -79.5863 	 -4.15538 	 3.50666 	 
C 	 -78.7272 	 -4.93161 	 2.72726 	 
C 	 -78.9949 	 -6.32471 	 2.81924 	 
C 	 -80.0503 	 -6.64888 	 3.64171 	 
H 	 -78.4025 	 -7.10442 	 2.35003 	 
C 	 -77.7842 	 -4.36468 	 1.6932 	 
H 	 -78.3396 	 -3.81097 	 0.901842 	 
H 	 -77.2582 	 -5.18132 	 1.1868 	 
C 	 -76.6852 	 -3.39195 	 2.1519 	 
H 	 -76.5457 	 -2.84117 	 1.21134 	 
H 	 -77.151 	 -2.75681 	 2.8671 	 
C 	 -75.5013 	 -4.13451 	 2.71134 	 
H 	 -75.0101 	 -4.67159 	 1.90696 	 
H 	 -74.7952 	 -3.4722 	 3.21636 	 
H 	 -75.9348 	 -4.88494 	 3.36615 	 
S 	 -82.3143 	 -7.94964 	 3.04136 	 
C 	 -82.3945 	 -9.642 	 3.365 	 
C 	 -81.2336 	 -10.0908 	 3.93889 	 
C 	 -80.2611 	 -9.11639 	 4.2396 	 
C 	 -80.7177 	 -7.87161 	 3.78258 	 
H 	 -80.9392 	 -11.1271 	 4.13294 	 
C 	 -78.8933 	 -9.35067 	 4.96395 	 
H 	 -79.0619 	 -9.93377 	 5.84631 	 
H 	 -78.3401 	 -8.46098 	 5.34941 	 
C 	 -77.8848 	 -10.0223 	 4.01065 	 
H 	 -77.8212 	 -9.5937 	 2.97197 	 
H 	 -78.3314 	 -10.945 	 3.78876 	 
C 	 -76.5116 	 -10.4642 	 4.55866 	 
H 	 -76.6254 	 -10.9891 	 5.53951 	 
H 	 -75.9792 	 -9.57658 	 4.8967 	 
H 	 -75.9645 	 -11.1149 	 3.9255 	 
H 	 -79.5653 	 -3.06849 	 3.56987 	 
H 	 -83.2633 	 -10.27 	 3.18863 	 
*
