! wB97X-D3 SP def2-SVP
%pal
nprocs 24
end

* xyz 0 1
S 	 -53.5469 	 14.8508 	 24.9845 	 
C 	 -55.2348 	 15.0525 	 24.5034 	 
C 	 -56.1405 	 14.9148 	 25.5857 	 
C 	 -55.451 	 14.728 	 26.8335 	 
C 	 -54.0851 	 14.6056 	 26.6466 	 
H 	 -55.8723 	 14.6182 	 27.7981 	 
C 	 -57.6897 	 14.9408 	 25.4495 	 
H 	 -58.0507 	 15.934 	 25.3072 	 
H 	 -58.1516 	 14.6826 	 26.4456 	 
C 	 -58.3848 	 13.914 	 24.4687 	 
H 	 -57.8765 	 14.055 	 23.4697 	 
H 	 -58.2632 	 12.8248 	 24.7677 	 
C 	 -59.8769 	 14.2136 	 24.1648 	 
H 	 -60.2592 	 13.3799 	 23.5743 	 
H 	 -60.4829 	 14.1438 	 25.0679 	 
H 	 -60.0892 	 15.1815 	 23.7597 	 
S 	 -51.5696 	 13.7804 	 27.3453 	 
C 	 -50.8284 	 14.2293 	 28.7998 	 
C 	 -51.5925 	 15.1926 	 29.5221 	 
C 	 -52.9487 	 15.207 	 28.9583 	 
C 	 -53.0517 	 14.5816 	 27.6983 	 
H 	 -51.1774 	 15.6865 	 30.3825 	 
C 	 -53.9506 	 16.1834 	 29.5937 	 
H 	 -54.5522 	 16.6834 	 28.8351 	 
H 	 -53.4022 	 16.9838 	 30.1005 	 
C 	 -54.8062 	 15.6107 	 30.6966 	 
H 	 -54.1655 	 15.287 	 31.539 	 
H 	 -55.3587 	 14.787 	 30.3721 	 
C 	 -55.9358 	 16.5786 	 31.1042 	 
H 	 -55.627 	 17.5426 	 31.5752 	 
H 	 -56.6319 	 16.0916 	 31.8266 	 
H 	 -56.5526 	 16.6925 	 30.1821 	 
H 	 -55.4699 	 15.3502 	 23.4915 	 
H 	 -49.8175 	 14.1996 	 29.0865 	 
*
