! wB97X-D3 SP def2-SVP
%pal
nprocs 24
end

* xyz 0 1
S 	 -67.5438 	 19.213 	 -105.746 	 
C 	 -69.0025 	 18.9386 	 -106.793 	 
C 	 -68.7454 	 17.8946 	 -107.678 	 
C 	 -67.4257 	 17.2788 	 -107.5 	 
C 	 -66.667 	 17.8554 	 -106.506 	 
H 	 -67.0319 	 16.3774 	 -107.932 	 
C 	 -69.59 	 17.5055 	 -108.836 	 
H 	 -68.8898 	 17.2894 	 -109.602 	 
H 	 -70.0871 	 18.3733 	 -109.27 	 
C 	 -70.5818 	 16.4012 	 -108.657 	 
H 	 -70.1141 	 15.4602 	 -108.213 	 
H 	 -71.3214 	 16.7956 	 -107.943 	 
C 	 -71.3265 	 15.8981 	 -109.918 	 
H 	 -72.235 	 15.3803 	 -109.57 	 
H 	 -71.5997 	 16.8285 	 -110.435 	 
H 	 -70.706 	 15.2461 	 -110.582 	 
S 	 -65.1909 	 16.1044 	 -105.185 	 
C 	 -63.4473 	 16.0834 	 -105.306 	 
C 	 -62.9994 	 17.2315 	 -105.907 	 
C 	 -64.0758 	 18.0221 	 -106.393 	 
C 	 -65.3267 	 17.5581 	 -106.056 	 
H 	 -61.9908 	 17.4565 	 -105.946 	 
C 	 -63.7504 	 19.2059 	 -107.29 	 
H 	 -62.981 	 19.7948 	 -106.821 	 
H 	 -64.5709 	 19.8323 	 -107.378 	 
C 	 -63.2237 	 18.8964 	 -108.675 	 
H 	 -62.3785 	 18.1949 	 -108.662 	 
H 	 -62.8363 	 19.8728 	 -109.022 	 
C 	 -64.2778 	 18.3943 	 -109.692 	 
H 	 -63.7614 	 17.986 	 -110.594 	 
H 	 -64.96 	 19.1355 	 -109.973 	 
H 	 -64.8839 	 17.6414 	 -109.179 	 
H 	 -69.8471 	 19.5707 	 -106.867 	 
H 	 -62.8086 	 15.2576 	 -104.99 	 
*
