! wB97X-D3 SP def2-SVP
%pal
nprocs 24
end

* xyz 0 1
S 	 -66.3203 	 15.4023 	 -71.8025 	 
C 	 -65.7028 	 13.9227 	 -71.1557 	 
C 	 -65.1544 	 14.1551 	 -69.9272 	 
C 	 -65.5043 	 15.4302 	 -69.357 	 
C 	 -66.3502 	 16.093 	 -70.2206 	 
H 	 -65.3893 	 15.8043 	 -68.3567 	 
C 	 -64.3023 	 13.2438 	 -69.0665 	 
H 	 -64.9614 	 12.3588 	 -68.9258 	 
H 	 -64.1309 	 13.7089 	 -68.1002 	 
C 	 -63.039 	 12.7911 	 -69.6265 	 
H 	 -62.6076 	 11.9823 	 -68.9876 	 
H 	 -63.187 	 12.2095 	 -70.5024 	 
C 	 -61.8513 	 13.7972 	 -69.8051 	 
H 	 -61.7223 	 14.4554 	 -68.9193 	 
H 	 -60.9015 	 13.2803 	 -69.8899 	 
H 	 -62.1008 	 14.564 	 -70.6342 	 
S 	 -65.7019 	 18.8076 	 -70.7247 	 
C 	 -66.7572 	 20.126 	 -70.0968 	 
C 	 -67.8169 	 19.5512 	 -69.3893 	 
C 	 -67.7581 	 18.1291 	 -69.2633 	 
C 	 -66.6861 	 17.5392 	 -69.9778 	 
H 	 -68.5581 	 20.2276 	 -69.0643 	 
C 	 -68.8245 	 17.2639 	 -68.645 	 
H 	 -69.3185 	 17.9006 	 -67.9499 	 
H 	 -68.3687 	 16.5432 	 -68.0441 	 
C 	 -69.7213 	 16.5024 	 -69.6177 	 
H 	 -70.3505 	 15.965 	 -68.8999 	 
H 	 -69.1397 	 15.8275 	 -70.2114 	 
C 	 -70.5145 	 17.4283 	 -70.5241 	 
H 	 -69.9677 	 18.2214 	 -70.9953 	 
H 	 -71.2596 	 17.965 	 -69.9205 	 
H 	 -70.9849 	 16.8263 	 -71.3298 	 
H 	 -65.5837 	 12.9779 	 -71.7507 	 
H 	 -66.4465 	 21.1807 	 -70.2875 	 
*
