! wB97X-D3 SP def2-SVP
%pal
nprocs 24
end

* xyz 0 1
S 	 -66.1849 	 18.9769 	 -117.309 	 
C 	 -64.789 	 19.6644 	 -118.043 	 
C 	 -63.8097 	 19.753 	 -117.002 	 
C 	 -64.405 	 19.6851 	 -115.684 	 
C 	 -65.7012 	 19.331 	 -115.741 	 
H 	 -63.8668 	 19.814 	 -114.759 	 
C 	 -62.3272 	 20.1489 	 -117.126 	 
H 	 -62.3501 	 21.1362 	 -117.5 	 
H 	 -61.8261 	 19.592 	 -117.916 	 
C 	 -61.4216 	 20.0428 	 -115.801 	 
H 	 -61.7658 	 20.8435 	 -115.108 	 
H 	 -61.5627 	 19.056 	 -115.27 	 
C 	 -59.9289 	 20.1807 	 -116.017 	 
H 	 -59.4813 	 20.2288 	 -115.062 	 
H 	 -59.6118 	 19.3063 	 -116.657 	 
H 	 -59.7543 	 21.126 	 -116.53 	 
S 	 -67.6476 	 17.654 	 -114.551 	 
C 	 -68.2578 	 18.0491 	 -112.979 	 
C 	 -67.612 	 19.1822 	 -112.433 	 
C 	 -66.6604 	 19.8023 	 -113.306 	 
C 	 -66.5935 	 19.1183 	 -114.566 	 
H 	 -67.8356 	 19.3939 	 -111.365 	 
C 	 -65.8711 	 21.0333 	 -112.9 	 
H 	 -64.8634 	 20.7082 	 -112.719 	 
H 	 -66.2208 	 21.3735 	 -111.931 	 
C 	 -66.0194 	 22.1854 	 -113.906 	 
H 	 -66.9521 	 22.7538 	 -113.749 	 
H 	 -65.9171 	 21.8508 	 -114.907 	 
C 	 -64.9287 	 23.2328 	 -113.787 	 
H 	 -63.9717 	 22.7517 	 -114.026 	 
H 	 -64.7638 	 23.6117 	 -112.72 	 
H 	 -65.1563 	 24.0352 	 -114.45 	 
H 	 -64.6253 	 19.8992 	 -119.065 	 
H 	 -68.9018 	 17.4419 	 -112.362 	 
*
