! wB97X-D3 SP def2-SVP
%pal
nprocs 24
end

* xyz 0 1
S 	 -92.199 	 14.1259 	 -116.1 	 
C 	 -90.8602 	 13.3985 	 -115.351 	 
C 	 -90.1012 	 12.6292 	 -116.26 	 
C 	 -90.7738 	 12.5469 	 -117.52 	 
C 	 -91.7915 	 13.475 	 -117.59 	 
H 	 -90.465 	 12.0584 	 -118.413 	 
C 	 -88.9226 	 11.7166 	 -115.874 	 
H 	 -88.4445 	 12.1362 	 -114.945 	 
H 	 -88.3071 	 11.5947 	 -116.685 	 
C 	 -89.227 	 10.2813 	 -115.424 	 
H 	 -88.3034 	 9.69955 	 -115.053 	 
H 	 -90.0682 	 10.3974 	 -114.791 	 
C 	 -89.8252 	 9.43872 	 -116.512 	 
H 	 -90.4786 	 8.59759 	 -116.118 	 
H 	 -90.4258 	 9.98531 	 -117.296 	 
H 	 -89.074 	 8.851 	 -117.074 	 
S 	 -94.3233 	 12.9497 	 -118.501 	 
C 	 -94.6473 	 13.2481 	 -120.205 	 
C 	 -93.5719 	 13.7274 	 -120.859 	 
C 	 -92.426 	 13.9245 	 -120.066 	 
C 	 -92.6607 	 13.5864 	 -118.754 	 
H 	 -93.6347 	 14.1143 	 -121.88 	 
C 	 -91.1226 	 14.5219 	 -120.595 	 
H 	 -90.6451 	 14.9431 	 -119.708 	 
H 	 -91.3072 	 15.3658 	 -121.286 	 
C 	 -90.2417 	 13.5184 	 -121.285 	 
H 	 -90.7098 	 13.2532 	 -122.241 	 
H 	 -90.1241 	 12.6045 	 -120.597 	 
C 	 -88.8616 	 14.1799 	 -121.638 	 
H 	 -88.9032 	 14.9812 	 -122.383 	 
H 	 -88.1539 	 13.4275 	 -122.044 	 
H 	 -88.2875 	 14.5222 	 -120.812 	 
H 	 -90.6675 	 13.365 	 -114.2 	 
H 	 -95.5994 	 13.0413 	 -120.7 	 
*
