! wB97X-D3 SP def2-SVP
%pal
nprocs 24
end

* xyz 0 1
S 	 -62.1336 	 10.1968 	 -76.0988 	 
C 	 -61.4689 	 11.8053 	 -76.4082 	 
C 	 -61.8356 	 12.2579 	 -77.6624 	 
C 	 -62.8335 	 11.3939 	 -78.2292 	 
C 	 -63.2805 	 10.3858 	 -77.3869 	 
H 	 -63.3427 	 11.6161 	 -79.1853 	 
C 	 -61.361 	 13.5139 	 -78.2407 	 
H 	 -60.9669 	 13.3532 	 -79.199 	 
H 	 -60.5347 	 13.9032 	 -77.6604 	 
C 	 -62.4864 	 14.5824 	 -78.462 	 
H 	 -62.0534 	 15.6172 	 -78.4994 	 
H 	 -62.9228 	 14.4922 	 -79.4173 	 
C 	 -63.4187 	 14.622 	 -77.2766 	 
H 	 -62.9271 	 14.5379 	 -76.33 	 
H 	 -63.8496 	 15.5753 	 -77.2658 	 
H 	 -64.1548 	 13.7771 	 -77.479 	 
S 	 -63.7525 	 7.89607 	 -78.3066 	 
C 	 -65.2776 	 7.33281 	 -78.6999 	 
C 	 -66.2238 	 8.31674 	 -78.4516 	 
C 	 -65.6861 	 9.54267 	 -77.9274 	 
C 	 -64.3133 	 9.46312 	 -77.7122 	 
H 	 -67.2611 	 8.18418 	 -78.738 	 
C 	 -66.5139 	 10.7732 	 -77.7418 	 
H 	 -67.1628 	 10.8558 	 -78.5761 	 
H 	 -65.8653 	 11.6266 	 -77.9592 	 
C 	 -67.3268 	 10.9234 	 -76.3751 	 
H 	 -67.8967 	 11.8854 	 -76.4444 	 
H 	 -66.5369 	 11.0851 	 -75.6718 	 
C 	 -68.265 	 9.6817 	 -76.0227 	 
H 	 -67.7982 	 8.71533 	 -75.8961 	 
H 	 -68.8923 	 9.58052 	 -76.9231 	 
H 	 -68.9301 	 9.97394 	 -75.1479 	 
H 	 -60.6543 	 12.1882 	 -75.9216 	 
H 	 -65.5918 	 6.31761 	 -78.9146 	 
*
