! wB97X-D3 SP def2-SVP
%pal
nprocs 24
end

* xyz 0 1
S 	 -96.3235 	 48.8399 	 -89.8918 	 
C 	 -96.364 	 47.5802 	 -88.7126 	 
C 	 -96.5416 	 46.3178 	 -89.2548 	 
C 	 -96.8569 	 46.4667 	 -90.6518 	 
C 	 -96.7387 	 47.7568 	 -91.162 	 
H 	 -96.9658 	 45.6304 	 -91.3285 	 
C 	 -96.3707 	 45.0529 	 -88.4585 	 
H 	 -97.0466 	 44.2776 	 -88.8262 	 
H 	 -96.8137 	 45.2239 	 -87.5025 	 
C 	 -94.8679 	 44.6619 	 -88.3707 	 
H 	 -94.2083 	 45.3787 	 -87.9013 	 
H 	 -94.844 	 43.7438 	 -87.7732 	 
C 	 -94.207 	 44.3232 	 -89.7066 	 
H 	 -93.1229 	 44.0531 	 -89.5834 	 
H 	 -94.6692 	 43.4789 	 -90.235 	 
H 	 -94.1989 	 45.1544 	 -90.3657 	 
S 	 -98.0739 	 49.5292 	 -92.7212 	 
C 	 -97.8423 	 49.5801 	 -94.4193 	 
C 	 -96.9428 	 48.6267 	 -94.793 	 
C 	 -96.4522 	 47.8337 	 -93.7047 	 
C 	 -96.9495 	 48.2334 	 -92.5007 	 
H 	 -96.6873 	 48.5668 	 -95.8161 	 
C 	 -95.4075 	 46.7232 	 -93.854 	 
H 	 -94.8275 	 46.7251 	 -92.8983 	 
H 	 -94.7454 	 46.8724 	 -94.6489 	 
C 	 -96.0362 	 45.2747 	 -94.0491 	 
H 	 -96.6405 	 45.23 	 -95.0161 	 
H 	 -96.8071 	 45.1144 	 -93.3257 	 
C 	 -94.9628 	 44.1181 	 -94.4064 	 
H 	 -94.2743 	 44.5577 	 -95.0942 	 
H 	 -95.4476 	 43.3556 	 -94.9063 	 
H 	 -94.4259 	 43.8171 	 -93.4736 	 
H 	 -96.0286 	 47.8012 	 -87.7284 	 
H 	 -98.3711 	 50.0874 	 -95.1776 	 
*
