! wB97X-D3 SP def2-SVP
%pal
nprocs 24
end

* xyz 0 1
S 	 -67.4457 	 1.65728 	 -71.8106 	 
C 	 -67.4421 	 2.97358 	 -73.0085 	 
C 	 -68.5838 	 2.95575 	 -73.7592 	 
C 	 -69.4919 	 1.92007 	 -73.3528 	 
C 	 -69.028 	 1.13725 	 -72.2934 	 
H 	 -70.3721 	 1.62595 	 -73.8316 	 
C 	 -68.7262 	 3.73169 	 -75.0642 	 
H 	 -67.9935 	 4.53483 	 -75.0527 	 
H 	 -69.6827 	 4.27289 	 -75.1721 	 
C 	 -68.5697 	 2.96622 	 -76.3309 	 
H 	 -67.526 	 2.46474 	 -76.3253 	 
H 	 -69.3878 	 2.1697 	 -76.3855 	 
C 	 -68.682 	 3.76179 	 -77.613 	 
H 	 -67.9583 	 4.58999 	 -77.612 	 
H 	 -68.4253 	 3.11856 	 -78.4346 	 
H 	 -69.7212 	 4.09463 	 -77.6779 	 
S 	 -68.5757 	 -1.40841 	 -71.5516 	 
C 	 -69.8795 	 -2.39135 	 -70.8742 	 
C 	 -71.052 	 -1.68347 	 -70.8138 	 
C 	 -70.9269 	 -0.347976 	 -71.2073 	 
C 	 -69.6578 	 0.0094676 	 -71.6483 	 
H 	 -71.9662 	 -2.16965 	 -70.5254 	 
C 	 -72.1442 	 0.456785 	 -71.1827 	 
H 	 -73.0738 	 -0.0995882 	 -71.035 	 
H 	 -72.2166 	 0.770697 	 -72.2481 	 
C 	 -72.2345 	 1.71511 	 -70.3952 	 
H 	 -73.0464 	 2.37466 	 -70.6637 	 
H 	 -71.3357 	 2.25402 	 -70.5862 	 
C 	 -72.3242 	 1.48141 	 -68.8369 	 
H 	 -72.3956 	 2.45279 	 -68.3952 	 
H 	 -71.5183 	 0.89408 	 -68.3932 	 
H 	 -73.274 	 1.09684 	 -68.6085 	 
H 	 -66.525 	 3.60893 	 -73.0408 	 
H 	 -69.7681 	 -3.41819 	 -70.7098 	 
*
