! wB97X-D3 SP def2-SVP
%pal
nprocs 24
end

* xyz 0 1
S 	 -101.765 	 15.816 	 -123.001 	 
C 	 -100.887 	 16.859 	 -124.087 	 
C 	 -100.199 	 16.1535 	 -125.062 	 
C 	 -100.325 	 14.7244 	 -124.861 	 
C 	 -101.201 	 14.3624 	 -123.835 	 
H 	 -99.9425 	 13.8602 	 -125.476 	 
C 	 -99.4463 	 16.8088 	 -126.2 	 
H 	 -98.3494 	 16.6286 	 -126.399 	 
H 	 -99.5697 	 17.8414 	 -126.077 	 
C 	 -100.093 	 16.5763 	 -127.519 	 
H 	 -100.201 	 15.5452 	 -127.709 	 
H 	 -101.114 	 16.9014 	 -127.491 	 
C 	 -99.3977 	 17.2357 	 -128.626 	 
H 	 -98.3696 	 16.9839 	 -128.652 	 
H 	 -99.8286 	 16.861 	 -129.589 	 
H 	 -99.5568 	 18.3523 	 -128.556 	 
S 	 -103.294 	 12.5319 	 -123.68 	 
C 	 -102.838 	 10.8954 	 -123.165 	 
C 	 -101.616 	 10.9552 	 -122.485 	 
C 	 -100.779 	 12.069 	 -122.812 	 
C 	 -101.581 	 13.0093 	 -123.453 	 
H 	 -101.305 	 10.0082 	 -122.022 	 
C 	 -99.294 	 12.2932 	 -122.418 	 
H 	 -98.802 	 12.975 	 -123.111 	 
H 	 -98.9048 	 11.2883 	 -122.401 	 
C 	 -99.0857 	 12.7936 	 -120.979 	 
H 	 -97.9896 	 13.0531 	 -120.826 	 
H 	 -99.3124 	 11.9724 	 -120.332 	 
C 	 -99.7764 	 14.0792 	 -120.614 	 
H 	 -99.4402 	 14.7732 	 -121.332 	 
H 	 -99.4793 	 14.3763 	 -119.591 	 
H 	 -100.823 	 14.1379 	 -120.661 	 
H 	 -100.977 	 17.9382 	 -124.075 	 
H 	 -103.522 	 10.0834 	 -123.058 	 
*
