! wB97X-D3 SP def2-SVP
%pal
nprocs 24
end

* xyz 0 1
S 	 -67.8608 	 8.95632 	 -68.2197 	 
C 	 -68.0268 	 8.93639 	 -69.9609 	 
C 	 -67.4204 	 7.83062 	 -70.5363 	 
C 	 -66.9538 	 6.89359 	 -69.5686 	 
C 	 -67.3275 	 7.2149 	 -68.2989 	 
H 	 -66.4802 	 5.95776 	 -69.733 	 
C 	 -67.1276 	 7.76167 	 -72.012 	 
H 	 -66.3506 	 7.00477 	 -72.2328 	 
H 	 -66.7938 	 8.8245 	 -72.3121 	 
C 	 -68.3103 	 7.27774 	 -72.9054 	 
H 	 -69.2351 	 7.80878 	 -72.6425 	 
H 	 -67.9694 	 7.54005 	 -73.8935 	 
C 	 -68.6162 	 5.81536 	 -72.8978 	 
H 	 -68.9408 	 5.6206 	 -71.9517 	 
H 	 -69.4106 	 5.56221 	 -73.5777 	 
H 	 -67.8142 	 5.18026 	 -73.2197 	 
S 	 -66.02 	 7.09253 	 -65.8961 	 
C 	 -65.8775 	 5.6035 	 -65.0517 	 
C 	 -66.5952 	 4.57341 	 -65.7999 	 
C 	 -67.0778 	 5.03156 	 -67.0086 	 
C 	 -66.9937 	 6.39075 	 -67.1351 	 
H 	 -66.6554 	 3.55826 	 -65.4054 	 
C 	 -67.9351 	 4.10406 	 -67.8534 	 
H 	 -68.7063 	 4.7421 	 -68.3046 	 
H 	 -68.4495 	 3.38457 	 -67.2325 	 
C 	 -67.0281 	 3.35014 	 -68.9319 	 
H 	 -66.395 	 2.73067 	 -68.3475 	 
H 	 -66.2149 	 3.8335 	 -69.4047 	 
C 	 -67.963 	 2.65681 	 -69.8709 	 
H 	 -67.3672 	 2.28599 	 -70.6431 	 
H 	 -68.6146 	 3.42749 	 -70.3541 	 
H 	 -68.4864 	 1.90556 	 -69.2396 	 
H 	 -68.5058 	 9.69688 	 -70.5156 	 
H 	 -65.3166 	 5.44478 	 -64.1707 	 
*
