! wB97X-D3 SP def2-SVP
%pal
nprocs 24
end

* xyz 0 1
S 	 -64.1966 	 16.881 	 -115.921 	 
C 	 -63.1934 	 16.7982 	 -117.374 	 
C 	 -63.0717 	 18.0248 	 -117.97 	 
C 	 -63.7466 	 19.0369 	 -117.238 	 
C 	 -64.5019 	 18.6099 	 -116.138 	 
H 	 -63.6662 	 20.082 	 -117.466 	 
C 	 -62.3664 	 18.2867 	 -119.306 	 
H 	 -63.0529 	 18.8174 	 -120.002 	 
H 	 -62.1182 	 17.2498 	 -119.764 	 
C 	 -61.047 	 19.1439 	 -119.215 	 
H 	 -61.2637 	 20.0081 	 -118.631 	 
H 	 -60.3553 	 18.5194 	 -118.615 	 
C 	 -60.5193 	 19.5396 	 -120.578 	 
H 	 -61.1962 	 19.8844 	 -121.318 	 
H 	 -59.847 	 20.3737 	 -120.571 	 
H 	 -59.9127 	 18.7084 	 -120.886 	 
S 	 -65.3616 	 18.8433 	 -113.537 	 
C 	 -65.8449 	 20.3604 	 -112.867 	 
C 	 -65.8392 	 21.3428 	 -113.796 	 
C 	 -65.6266 	 20.7969 	 -115.129 	 
C 	 -65.1563 	 19.4791 	 -115.107 	 
H 	 -66.1309 	 22.3536 	 -113.539 	 
C 	 -65.6219 	 21.7253 	 -116.35 	 
H 	 -66.5248 	 22.3133 	 -116.512 	 
H 	 -65.618 	 21.124 	 -117.288 	 
C 	 -64.398 	 22.6717 	 -116.401 	 
H 	 -63.4511 	 22.107 	 -116.302 	 
H 	 -64.4198 	 23.2876 	 -115.502 	 
C 	 -64.3557 	 23.4715 	 -117.691 	 
H 	 -64.2368 	 22.7402 	 -118.522 	 
H 	 -63.4064 	 24.0048 	 -117.778 	 
H 	 -65.2744 	 24.0579 	 -117.861 	 
H 	 -62.8826 	 15.9127 	 -117.906 	 
H 	 -65.8341 	 20.5485 	 -111.782 	 
*
