! wB97X-D3 SP def2-SVP
%pal
nprocs 24
end

* xyz 0 1
S 	 -118.867 	 63.9522 	 -33.9466 	 
C 	 -118.855 	 63.6204 	 -32.2382 	 
C 	 -118.512 	 64.7461 	 -31.5343 	 
C 	 -118.465 	 65.9275 	 -32.3098 	 
C 	 -118.763 	 65.7059 	 -33.6623 	 
H 	 -118.231 	 66.9098 	 -31.9944 	 
C 	 -118.245 	 64.7234 	 -30.0225 	 
H 	 -117.342 	 65.2364 	 -29.7711 	 
H 	 -118.167 	 63.709 	 -29.749 	 
C 	 -119.262 	 65.4951 	 -29.217 	 
H 	 -118.761 	 65.6836 	 -28.2815 	 
H 	 -119.565 	 66.4741 	 -29.648 	 
C 	 -120.506 	 64.6741 	 -28.8908 	 
H 	 -121.112 	 64.3953 	 -29.775 	 
H 	 -120.172 	 63.859 	 -28.2548 	 
H 	 -121.197 	 65.2358 	 -28.2013 	 
S 	 -117.455 	 66.6018 	 -35.8802 	 
C 	 -117.99 	 68.1565 	 -36.6223 	 
C 	 -119.083 	 68.6548 	 -35.9554 	 
C 	 -119.587 	 67.8044 	 -34.9336 	 
C 	 -118.837 	 66.6307 	 -34.7566 	 
H 	 -119.442 	 69.6765 	 -36.0709 	 
C 	 -120.626 	 68.3992 	 -33.9214 	 
H 	 -120.796 	 67.7731 	 -33.0151 	 
H 	 -121.54 	 68.3769 	 -34.5597 	 
C 	 -120.385 	 69.7767 	 -33.3871 	 
H 	 -121.255 	 70.1617 	 -32.8383 	 
H 	 -120.268 	 70.4812 	 -34.2578 	 
C 	 -119.154 	 69.9102 	 -32.4287 	 
H 	 -118.406 	 69.1833 	 -32.7373 	 
H 	 -119.309 	 69.651 	 -31.3965 	 
H 	 -118.743 	 70.9441 	 -32.4742 	 
H 	 -118.749 	 62.6805 	 -31.6856 	 
H 	 -117.456 	 68.767 	 -37.2932 	 
*
