! wB97X-D3 SP def2-SVP
%pal
nprocs 24
end

* xyz 0 1
S 	 38.7602 	 -32.6281 	 -121.194 	 
C 	 39.4742 	 -31.4585 	 -122.257 	 
C 	 40.8474 	 -31.573 	 -122.308 	 
C 	 41.308 	 -32.6623 	 -121.602 	 
C 	 40.3475 	 -33.2957 	 -120.832 	 
H 	 42.3765 	 -33.0272 	 -121.551 	 
C 	 41.6789 	 -30.5722 	 -123.092 	 
H 	 41.326 	 -30.6438 	 -124.136 	 
H 	 42.626 	 -31.0626 	 -123.068 	 
C 	 41.7115 	 -29.0616 	 -122.743 	 
H 	 42.3322 	 -28.4521 	 -123.348 	 
H 	 40.7508 	 -28.6628 	 -122.784 	 
C 	 42.0866 	 -29.0118 	 -121.247 	 
H 	 43.0756 	 -29.4681 	 -121.023 	 
H 	 42.2555 	 -28.0086 	 -120.85 	 
H 	 41.3214 	 -29.3398 	 -120.59 	 
S 	 42.2012 	 -34.8787 	 -119.783 	 
C 	 41.8891 	 -36.2148 	 -118.728 	 
C 	 40.5243 	 -36.2232 	 -118.433 	 
C 	 39.795 	 -35.2988 	 -119.192 	 
C 	 40.5381 	 -34.5089 	 -120.047 	 
H 	 40.1104 	 -36.9669 	 -117.724 	 
C 	 38.2973 	 -35.2686 	 -119.156 	 
H 	 38.117 	 -34.1862 	 -119.317 	 
H 	 37.8622 	 -35.6232 	 -118.242 	 
C 	 37.7696 	 -36.0599 	 -120.314 	 
H 	 38.1999 	 -35.7106 	 -121.257 	 
H 	 36.665 	 -35.8359 	 -120.362 	 
C 	 38.0525 	 -37.583 	 -120.18 	 
H 	 37.6861 	 -37.904 	 -119.186 	 
H 	 39.0663 	 -37.8041 	 -120.43 	 
H 	 37.5412 	 -38.2262 	 -120.933 	 
H 	 38.9627 	 -30.5722 	 -122.572 	 
H 	 42.6722 	 -36.7939 	 -118.208 	 
*
