! wB97X-D3 SP def2-SVP
%pal
nprocs 24
end

* xyz 0 1
S 	 -119.566 	 29.5871 	 -21.5311 	 
C 	 -119.765 	 28.7109 	 -23.0226 	 
C 	 -121.06 	 28.8015 	 -23.4659 	 
C 	 -121.934 	 29.4886 	 -22.5595 	 
C 	 -121.316 	 29.8919 	 -21.3665 	 
H 	 -122.939 	 29.7835 	 -22.737 	 
C 	 -121.507 	 28.3653 	 -24.8637 	 
H 	 -122.602 	 28.2513 	 -24.8879 	 
H 	 -121.061 	 27.4393 	 -25.1373 	 
C 	 -121.221 	 29.436 	 -25.9555 	 
H 	 -121.732 	 29.0756 	 -26.8199 	 
H 	 -121.841 	 30.2959 	 -25.8536 	 
C 	 -119.81 	 29.7532 	 -26.2525 	 
H 	 -119.792 	 30.6752 	 -26.8104 	 
H 	 -119.158 	 29.9364 	 -25.397 	 
H 	 -119.359 	 29.0075 	 -26.8538 	 
S 	 -121.01 	 31.8643 	 -19.3796 	 
C 	 -122.286 	 32.0373 	 -18.2163 	 
C 	 -123.227 	 31.0726 	 -18.3576 	 
C 	 -123.035 	 30.2439 	 -19.4639 	 
C 	 -121.915 	 30.5392 	 -20.2435 	 
H 	 -124.057 	 31.0648 	 -17.6395 	 
C 	 -123.968 	 29.0969 	 -19.7661 	 
H 	 -123.46 	 28.5045 	 -20.516 	 
H 	 -124.889 	 29.5463 	 -20.1003 	 
C 	 -124.274 	 28.1263 	 -18.5657 	 
H 	 -125.1 	 27.6137 	 -18.8882 	 
H 	 -124.769 	 28.6837 	 -17.7051 	 
C 	 -123.192 	 27.1481 	 -18.1531 	 
H 	 -122.25 	 27.6746 	 -17.8579 	 
H 	 -122.941 	 26.6175 	 -19.1075 	 
H 	 -123.508 	 26.6318 	 -17.2587 	 
H 	 -118.973 	 28.3924 	 -23.6537 	 
H 	 -122.218 	 32.7652 	 -17.41 	 
*
