! wB97X-D3 SP def2-SVP
%pal
nprocs 24
end

* xyz 0 1
S 	 -58.6088 	 16.8499 	 -92.0594 	 
C 	 -56.9423 	 17.3498 	 -91.8981 	 
C 	 -56.0514 	 16.2395 	 -92.0132 	 
C 	 -56.7358 	 15.0232 	 -91.8097 	 
C 	 -58.1696 	 15.1576 	 -91.9207 	 
H 	 -56.2535 	 14.0782 	 -91.7999 	 
C 	 -54.5623 	 16.3329 	 -92.195 	 
H 	 -54.1417 	 15.4767 	 -91.6003 	 
H 	 -54.2262 	 17.2225 	 -91.6457 	 
C 	 -53.9645 	 16.3355 	 -93.6134 	 
H 	 -54.2803 	 17.1646 	 -94.2031 	 
H 	 -52.8359 	 16.4444 	 -93.4615 	 
C 	 -54.2365 	 14.965 	 -94.3328 	 
H 	 -55.3153 	 14.9494 	 -94.5415 	 
H 	 -53.7824 	 14.9945 	 -95.3223 	 
H 	 -54.0312 	 14.1028 	 -93.6952 	 
S 	 -60.7516 	 14.37 	 -92.6587 	 
C 	 -61.3223 	 12.7305 	 -92.4822 	 
C 	 -60.4065 	 12.0186 	 -91.7608 	 
C 	 -59.2262 	 12.7976 	 -91.3989 	 
C 	 -59.1499 	 14.074 	 -91.9647 	 
H 	 -60.5891 	 10.978 	 -91.5182 	 
C 	 -58.0513 	 12.038 	 -90.7274 	 
H 	 -58.4454 	 11.271 	 -90.0266 	 
H 	 -57.3824 	 12.6363 	 -90.1832 	 
C 	 -57.2268 	 11.4381 	 -91.8777 	 
H 	 -56.8713 	 12.2651 	 -92.4895 	 
H 	 -57.8886 	 10.7975 	 -92.5001 	 
C 	 -56.1198 	 10.4981 	 -91.3259 	 
H 	 -55.4223 	 11.1631 	 -90.7785 	 
H 	 -55.678 	 9.92575 	 -92.1047 	 
H 	 -56.5547 	 9.79782 	 -90.5985 	 
H 	 -56.4342 	 18.309 	 -91.8638 	 
H 	 -62.3845 	 12.385 	 -92.5694 	 
*
