! wB97X-D3 SP def2-SVP
%pal
nprocs 24
end

* xyz 0 1
S 	 -108.039 	 25.8849 	 -114.683 	 
C 	 -108.173 	 27.5866 	 -114.268 	 
C 	 -109.366 	 28.1908 	 -114.782 	 
C 	 -110.015 	 27.2915 	 -115.729 	 
C 	 -109.363 	 26.0291 	 -115.811 	 
H 	 -110.866 	 27.4041 	 -116.407 	 
C 	 -109.71 	 29.6883 	 -114.692 	 
H 	 -110.739 	 29.7014 	 -114.914 	 
H 	 -109.248 	 30.3233 	 -115.435 	 
C 	 -109.539 	 30.2773 	 -113.219 	 
H 	 -108.493 	 30.3429 	 -112.86 	 
H 	 -109.865 	 31.3623 	 -113.272 	 
C 	 -110.434 	 29.6277 	 -112.183 	 
H 	 -110.375 	 28.5751 	 -112.395 	 
H 	 -109.972 	 29.7055 	 -111.159 	 
H 	 -111.397 	 30.0216 	 -112.06 	 
S 	 -108.433 	 24.4731 	 -117.93 	 
C 	 -109.464 	 23.2196 	 -118.574 	 
C 	 -110.769 	 23.3614 	 -118.165 	 
C 	 -110.886 	 24.4064 	 -117.196 	 
C 	 -109.669 	 24.9719 	 -116.816 	 
H 	 -111.48 	 22.6127 	 -118.452 	 
C 	 -112.238 	 24.5917 	 -116.543 	 
H 	 -112.841 	 25.0026 	 -117.322 	 
H 	 -112.124 	 25.1994 	 -115.69 	 
C 	 -112.87 	 23.2778 	 -116.008 	 
H 	 -113.071 	 22.6279 	 -116.893 	 
H 	 -113.904 	 23.3861 	 -115.542 	 
C 	 -112.05 	 22.6509 	 -114.838 	 
H 	 -111.51 	 23.3202 	 -114.24 	 
H 	 -111.26 	 22.0226 	 -115.282 	 
H 	 -112.602 	 22.072 	 -114.09 	 
H 	 -107.387 	 28.2756 	 -113.866 	 
H 	 -109.162 	 22.4972 	 -119.289 	 
*
