! wB97X-D3 SP def2-SVP
%pal
nprocs 24
end

* xyz 0 1
S 	 -70.2006 	 10.754 	 -75.0222 	 
C 	 -69.7305 	 12.1845 	 -76.0265 	 
C 	 -69.7105 	 13.3566 	 -75.2903 	 
C 	 -69.9197 	 12.9976 	 -73.9811 	 
C 	 -70.0429 	 11.6732 	 -73.6016 	 
H 	 -69.7954 	 13.7135 	 -73.2019 	 
C 	 -69.4954 	 14.7307 	 -75.8868 	 
H 	 -69.281 	 14.6904 	 -76.9771 	 
H 	 -68.6439 	 15.1804 	 -75.4365 	 
C 	 -70.6555 	 15.712 	 -75.5255 	 
H 	 -70.6836 	 15.9883 	 -74.4965 	 
H 	 -70.4879 	 16.6128 	 -76.1147 	 
C 	 -71.9994 	 15.1235 	 -75.9364 	 
H 	 -72.6328 	 15.9374 	 -76.3889 	 
H 	 -71.9139 	 14.1486 	 -76.4949 	 
H 	 -72.5088 	 14.9141 	 -74.996 	 
S 	 -69.8658 	 9.41949 	 -72.039 	 
C 	 -69.8395 	 9.52585 	 -70.2706 	 
C 	 -70.0158 	 10.8261 	 -69.917 	 
C 	 -70.0896 	 11.7474 	 -70.995 	 
C 	 -69.921 	 11.1781 	 -72.2626 	 
H 	 -69.9685 	 10.996 	 -68.8599 	 
C 	 -70.424 	 13.2138 	 -70.6545 	 
H 	 -71.0581 	 13.1651 	 -69.8056 	 
H 	 -71.0681 	 13.5289 	 -71.4438 	 
C 	 -69.1744 	 14.0943 	 -70.3298 	 
H 	 -68.3549 	 13.859 	 -71.0349 	 
H 	 -68.8721 	 13.9447 	 -69.3134 	 
C 	 -69.3816 	 15.653 	 -70.5628 	 
H 	 -69.8511 	 15.8946 	 -71.5457 	 
H 	 -68.4841 	 16.2841 	 -70.4759 	 
H 	 -70.0277 	 16.0736 	 -69.8412 	 
H 	 -69.5151 	 12.1174 	 -77.1049 	 
H 	 -69.4968 	 8.70922 	 -69.644 	 
*
