! wB97X-D3 SP def2-SVP
%pal
nprocs 24
end

* xyz 0 1
S 	 40.4752 	 -26.4946 	 -111.33 	 
C 	 42.0649 	 -25.9984 	 -110.84 	 
C 	 42.174 	 -24.5801 	 -110.745 	 
C 	 41.0114 	 -23.9667 	 -111.355 	 
C 	 39.9467 	 -24.8494 	 -111.569 	 
H 	 40.7285 	 -22.9305 	 -111.556 	 
C 	 43.4958 	 -23.8328 	 -110.587 	 
H 	 43.3621 	 -22.9913 	 -111.225 	 
H 	 44.3403 	 -24.4014 	 -111.043 	 
C 	 43.8409 	 -23.4417 	 -109.197 	 
H 	 44.732 	 -22.8866 	 -109.181 	 
H 	 43.0773 	 -22.8255 	 -108.692 	 
C 	 44.0495 	 -24.7247 	 -108.382 	 
H 	 43.1868 	 -25.408 	 -108.412 	 
H 	 44.7422 	 -25.4239 	 -108.756 	 
H 	 44.2206 	 -24.593 	 -107.24 	 
S 	 37.9848 	 -25.5298 	 -113.333 	 
C 	 36.4755 	 -24.6094 	 -113.355 	 
C 	 36.5534 	 -23.5206 	 -112.463 	 
C 	 37.7096 	 -23.4967 	 -111.664 	 
C 	 38.629 	 -24.4566 	 -112.041 	 
H 	 35.5945 	 -22.9482 	 -112.376 	 
C 	 37.7198 	 -22.5011 	 -110.406 	 
H 	 38.6042 	 -22.6492 	 -109.747 	 
H 	 36.7596 	 -22.7017 	 -109.846 	 
C 	 37.8779 	 -21.0042 	 -110.894 	 
H 	 37.2345 	 -20.7601 	 -111.794 	 
H 	 38.8738 	 -20.7384 	 -111.103 	 
C 	 37.5275 	 -19.9477 	 -109.896 	 
H 	 37.6582 	 -18.9328 	 -110.308 	 
H 	 38.1615 	 -20.049 	 -109.08 	 
H 	 36.5108 	 -20.0591 	 -109.596 	 
H 	 42.6952 	 -26.6216 	 -110.279 	 
H 	 35.6243 	 -24.8883 	 -113.891 	 
*
