! wB97X-D3 SP def2-SVP
%pal
nprocs 24
end

* xyz 0 1
S 	 -45.3896 	 29.3983 	 28.651 	 
C 	 -46.5697 	 28.7268 	 27.5359 	 
C 	 -47.6392 	 28.0961 	 28.1652 	 
C 	 -47.4996 	 28.2578 	 29.6131 	 
C 	 -46.3435 	 28.9487 	 30.0167 	 
H 	 -48.2193 	 27.9246 	 30.3534 	 
C 	 -48.8772 	 27.4233 	 27.5498 	 
H 	 -49.637 	 28.1237 	 27.0965 	 
H 	 -49.3671 	 26.8787 	 28.3715 	 
C 	 -48.5606 	 26.3907 	 26.432 	 
H 	 -47.8664 	 26.7305 	 25.6348 	 
H 	 -47.9728 	 25.5178 	 26.8139 	 
C 	 -49.8482 	 25.855 	 25.7752 	 
H 	 -50.3776 	 25.3099 	 26.5927 	 
H 	 -50.5116 	 26.5978 	 25.456 	 
H 	 -49.7918 	 25.1498 	 24.9013 	 
S 	 -45.0422 	 30.7641 	 31.593 	 
C 	 -44.9324 	 30.4959 	 33.2687 	 
C 	 -45.5772 	 29.3584 	 33.6539 	 
C 	 -46.0442 	 28.5704 	 32.5983 	 
C 	 -45.8276 	 29.1875 	 31.3512 	 
H 	 -45.6391 	 28.9951 	 34.6534 	 
C 	 -46.7337 	 27.2233 	 32.9056 	 
H 	 -47.2867 	 26.8451 	 32.0865 	 
H 	 -47.4566 	 27.3438 	 33.6193 	 
C 	 -45.9029 	 26.0181 	 33.4172 	 
H 	 -45.1972 	 26.3985 	 34.17 	 
H 	 -45.3499 	 25.6669 	 32.6321 	 
C 	 -46.7013 	 24.7824 	 33.9733 	 
H 	 -47.5266 	 24.5122 	 33.2533 	 
H 	 -47.2019 	 24.8543 	 34.9972 	 
H 	 -46.1282 	 23.8838 	 33.9345 	 
H 	 -46.424 	 28.764 	 26.4535 	 
H 	 -44.4286 	 31.0812 	 33.972 	 
*
