! wB97X-D3 SP def2-SVP
%pal
nprocs 24
end

* xyz 0 1
S 	 -48.7176 	 13.668 	 25.18 	 
C 	 -50.109 	 12.6496 	 25.0144 	 
C 	 -50.3142 	 12.3625 	 23.6843 	 
C 	 -49.4235 	 13.0735 	 22.826 	 
C 	 -48.5125 	 13.9654 	 23.4791 	 
H 	 -49.4113 	 12.9682 	 21.7776 	 
C 	 -51.3752 	 11.4107 	 23.265 	 
H 	 -51.9147 	 10.9476 	 24.1046 	 
H 	 -50.8631 	 10.5287 	 23.0058 	 
C 	 -52.2984 	 11.8673 	 22.1605 	 
H 	 -53.0496 	 12.5138 	 22.5791 	 
H 	 -51.6874 	 12.4727 	 21.4497 	 
C 	 -52.9321 	 10.6615 	 21.3908 	 
H 	 -53.7725 	 10.3236 	 22.0526 	 
H 	 -53.2429 	 10.8306 	 20.3205 	 
H 	 -52.2236 	 9.9177 	 21.2945 	 
S 	 -47.6369 	 16.0461 	 21.8344 	 
C 	 -45.9912 	 16.2432 	 21.5522 	 
C 	 -45.1773 	 15.327 	 22.2463 	 
C 	 -45.9511 	 14.4222 	 23.0574 	 
C 	 -47.3458 	 14.6532 	 22.8852 	 
H 	 -44.1251 	 15.2923 	 22.1753 	 
C 	 -45.2708 	 13.247 	 23.7457 	 
H 	 -44.4698 	 12.9301 	 23.131 	 
H 	 -45.9093 	 12.4097 	 23.5758 	 
C 	 -45.0296 	 13.4047 	 25.2732 	 
H 	 -44.8438 	 12.3763 	 25.5207 	 
H 	 -45.9823 	 13.6115 	 25.85 	 
C 	 -43.7782 	 14.2092 	 25.7096 	 
H 	 -43.7331 	 15.1349 	 25.1462 	 
H 	 -42.967 	 13.5699 	 25.4379 	 
H 	 -43.6562 	 14.4368 	 26.8052 	 
H 	 -50.5627 	 12.0029 	 25.7035 	 
H 	 -45.4982 	 16.8843 	 20.7926 	 
*
