! wB97X-D3 SP def2-SVP
%pal
nprocs 24
end

* xyz 0 1
S 	 -35.4192 	 -8.64802 	 11.96 	 
C 	 -34.6143 	 -7.85859 	 13.3158 	 
C 	 -34.5309 	 -8.71453 	 14.4059 	 
C 	 -34.8634 	 -10.0632 	 14.0268 	 
C 	 -35.2695 	 -10.2581 	 12.7163 	 
H 	 -34.6641 	 -10.9036 	 14.6411 	 
C 	 -33.9508 	 -8.36653 	 15.8187 	 
H 	 -33.1273 	 -7.69089 	 15.6851 	 
H 	 -33.4688 	 -9.29633 	 16.1219 	 
C 	 -35.036 	 -7.86807 	 16.8272 	 
H 	 -34.6554 	 -8.03997 	 17.7952 	 
H 	 -35.1668 	 -6.78614 	 16.8134 	 
C 	 -36.3463 	 -8.65869 	 16.5778 	 
H 	 -36.1569 	 -9.67453 	 16.7014 	 
H 	 -37.0178 	 -8.37902 	 17.4148 	 
H 	 -36.8321 	 -8.39225 	 15.6448 	 
S 	 -34.42 	 -12.8472 	 12.1322 	 
C 	 -35.5942 	 -13.8747 	 11.3008 	 
C 	 -36.6631 	 -13.1279 	 10.822 	 
C 	 -36.7528 	 -11.8621 	 11.387 	 
C 	 -35.6025 	 -11.5031 	 12.0709 	 
H 	 -37.4076 	 -13.6248 	 10.2325 	 
C 	 -37.9361 	 -10.95 	 11.2029 	 
H 	 -37.9697 	 -10.1677 	 11.9348 	 
H 	 -38.7857 	 -11.5888 	 11.2242 	 
C 	 -37.9904 	 -10.3076 	 9.81819 	 
H 	 -37.9231 	 -11.0319 	 9.06372 	 
H 	 -37.0669 	 -9.70073 	 9.8642 	 
C 	 -39.2699 	 -9.4547 	 9.54405 	 
H 	 -39.0991 	 -8.79704 	 8.72836 	 
H 	 -39.707 	 -8.89521 	 10.4031 	 
H 	 -40.1999 	 -10.0614 	 9.35466 	 
H 	 -34.2449 	 -6.82408 	 13.4715 	 
H 	 -35.4179 	 -14.8759 	 11.0324 	 
*
