! wB97X-D3 SP def2-SVP
%pal
nprocs 24
end

* xyz 0 1
S 	 -78.4198 	 -18.7466 	 -53.4461 	 
C 	 -79.9859 	 -19.1166 	 -52.8195 	 
C 	 -80.926 	 -19.2586 	 -53.7987 	 
C 	 -80.3063 	 -19.2052 	 -55.0903 	 
C 	 -79.008 	 -18.9778 	 -55.061 	 
H 	 -80.8431 	 -19.4087 	 -55.9556 	 
C 	 -82.4255 	 -19.5311 	 -53.6331 	 
H 	 -82.5323 	 -20.2743 	 -52.9229 	 
H 	 -82.8513 	 -19.907 	 -54.5641 	 
C 	 -83.2705 	 -18.3016 	 -53.2802 	 
H 	 -82.7566 	 -17.6811 	 -52.5193 	 
H 	 -83.3425 	 -17.721 	 -54.1974 	 
C 	 -84.653 	 -18.7564 	 -52.6793 	 
H 	 -85.0717 	 -17.907 	 -52.0839 	 
H 	 -85.4714 	 -19.0849 	 -53.4106 	 
H 	 -84.5132 	 -19.5128 	 -51.9864 	 
S 	 -76.7497 	 -19.8017 	 -56.507 	 
C 	 -76.4028 	 -18.9795 	 -57.9537 	 
C 	 -77.2046 	 -17.8738 	 -58.0914 	 
C 	 -78.2673 	 -17.8313 	 -57.2118 	 
C 	 -78.1223 	 -18.806 	 -56.2342 	 
H 	 -77.0765 	 -17.1301 	 -58.8194 	 
C 	 -79.2239 	 -16.6306 	 -57.1992 	 
H 	 -78.5496 	 -15.805 	 -57.1151 	 
H 	 -79.8088 	 -16.6317 	 -56.2639 	 
C 	 -80.23 	 -16.5143 	 -58.385 	 
H 	 -79.7539 	 -16.108 	 -59.2295 	 
H 	 -81.1186 	 -15.9816 	 -58.0191 	 
C 	 -80.818 	 -17.9265 	 -58.8104 	 
H 	 -80.2298 	 -18.6849 	 -59.268 	 
H 	 -81.6234 	 -17.667 	 -59.4842 	 
H 	 -81.3676 	 -18.3138 	 -57.9094 	 
H 	 -80.2399 	 -19.2961 	 -51.7988 	 
H 	 -75.5952 	 -19.3107 	 -58.5982 	 
*
