! wB97X-D3 SP def2-SVP
%pal
nprocs 24
end

* xyz 0 1
S 	 -70.0977 	 -42.0567 	 -94.6553 	 
C 	 -68.473 	 -41.8345 	 -95.4035 	 
C 	 -67.8062 	 -43.027 	 -95.3912 	 
C 	 -68.644 	 -44.1388 	 -95.1359 	 
C 	 -69.9743 	 -43.7553 	 -94.9532 	 
H 	 -68.3441 	 -45.1471 	 -95.0139 	 
C 	 -66.3178 	 -43.2552 	 -95.7232 	 
H 	 -65.9887 	 -43.0411 	 -96.7154 	 
H 	 -66.2239 	 -44.293 	 -95.7255 	 
C 	 -65.3819 	 -42.7139 	 -94.6268 	 
H 	 -64.3213 	 -42.6751 	 -95.0271 	 
H 	 -65.658 	 -41.5932 	 -94.5757 	 
C 	 -65.4716 	 -43.4525 	 -93.207 	 
H 	 -66.5025 	 -43.3957 	 -92.8916 	 
H 	 -65.2223 	 -44.525 	 -93.1282 	 
H 	 -64.8331 	 -42.9613 	 -92.5404 	 
S 	 -71.7036 	 -44.7132 	 -93.0152 	 
C 	 -72.8597 	 -45.947 	 -93.4658 	 
C 	 -72.8125 	 -46.1768 	 -94.8284 	 
C 	 -71.6604 	 -45.5907 	 -95.4794 	 
C 	 -71.0811 	 -44.6379 	 -94.6566 	 
H 	 -73.5508 	 -46.8768 	 -95.2275 	 
C 	 -71.3899 	 -45.7781 	 -96.9507 	 
H 	 -70.3818 	 -45.3781 	 -97.2994 	 
H 	 -72.1689 	 -45.273 	 -97.5943 	 
C 	 -71.2681 	 -47.2595 	 -97.324 	 
H 	 -72.15 	 -47.8629 	 -97.0357 	 
H 	 -70.4324 	 -47.7322 	 -96.6672 	 
C 	 -71.0041 	 -47.4647 	 -98.8202 	 
H 	 -71.7581 	 -47.0228 	 -99.4945 	 
H 	 -70.9084 	 -48.5125 	 -99.0375 	 
H 	 -70.0626 	 -47.0319 	 -99.0302 	 
H 	 -68.0407 	 -40.8664 	 -95.4094 	 
H 	 -73.5488 	 -46.5939 	 -92.8731 	 
*
