! wB97X-D3 SP def2-SVP
%pal
nprocs 24
end

* xyz 0 1
S 	 -126.869 	 27.5239 	 -19.2767 	 
C 	 -128.057 	 28.7489 	 -18.8794 	 
C 	 -129.086 	 28.639 	 -19.8052 	 
C 	 -128.837 	 27.6265 	 -20.8785 	 
C 	 -127.643 	 27.0122 	 -20.7711 	 
H 	 -129.337 	 27.4183 	 -21.7952 	 
C 	 -130.182 	 29.6162 	 -19.888 	 
H 	 -130.199 	 30.1233 	 -20.8157 	 
H 	 -130.059 	 30.4862 	 -19.1611 	 
C 	 -131.541 	 29.097 	 -19.571 	 
H 	 -131.405 	 28.619 	 -18.5283 	 
H 	 -132.222 	 29.9823 	 -19.4833 	 
C 	 -132.127 	 28.0116 	 -20.4977 	 
H 	 -132.993 	 27.596 	 -19.9117 	 
H 	 -132.404 	 28.3514 	 -21.5171 	 
H 	 -131.366 	 27.2238 	 -20.6164 	 
S 	 -126.032 	 27.172 	 -22.9358 	 
C 	 -125.222 	 25.7208 	 -23.4346 	 
C 	 -125.792 	 24.6083 	 -22.9261 	 
C 	 -126.714 	 24.8986 	 -21.8931 	 
C 	 -126.925 	 26.2305 	 -21.7969 	 
H 	 -125.424 	 23.7072 	 -23.3457 	 
C 	 -127.432 	 23.8305 	 -21.0962 	 
H 	 -127.122 	 22.8014 	 -21.3128 	 
H 	 -128.563 	 23.8708 	 -21.1871 	 
C 	 -127.241 	 23.9239 	 -19.5468 	 
H 	 -127.505 	 24.9131 	 -19.1538 	 
H 	 -126.15 	 23.9426 	 -19.4442 	 
C 	 -127.597 	 22.7609 	 -18.6239 	 
H 	 -127.237 	 21.796 	 -18.932 	 
H 	 -128.707 	 22.7283 	 -18.508 	 
H 	 -127.334 	 22.9914 	 -17.5818 	 
H 	 -127.999 	 29.5316 	 -18.1464 	 
H 	 -124.584 	 25.688 	 -24.2849 	 
*
