! wB97X-D3 SP def2-SVP
%pal
nprocs 24
end

* xyz 0 1
S 	 17.1514 	 -13.6678 	 -119.747 	 
C 	 16.0418 	 -13.2785 	 -121.002 	 
C 	 15.1433 	 -12.2926 	 -120.647 	 
C 	 15.2545 	 -11.9224 	 -119.303 	 
C 	 16.2546 	 -12.6549 	 -118.663 	 
H 	 14.6598 	 -11.2487 	 -118.706 	 
C 	 14.2157 	 -11.551 	 -121.534 	 
H 	 14.7856 	 -11.2561 	 -122.347 	 
H 	 13.8903 	 -10.6269 	 -121.141 	 
C 	 13.0906 	 -12.4173 	 -122.086 	 
H 	 13.5325 	 -13.2805 	 -122.588 	 
H 	 12.386 	 -12.7907 	 -121.313 	 
C 	 12.3526 	 -11.5657 	 -123.169 	 
H 	 11.6122 	 -12.1586 	 -123.652 	 
H 	 11.8532 	 -10.7784 	 -122.583 	 
H 	 12.9077 	 -11.1573 	 -124.005 	 
S 	 17.9786 	 -11.9307 	 -116.664 	 
C 	 17.6739 	 -12.3147 	 -115.005 	 
C 	 16.5109 	 -13.0592 	 -114.845 	 
C 	 15.839 	 -13.3585 	 -116.104 	 
C 	 16.4977 	 -12.7069 	 -117.193 	 
H 	 16.1714 	 -13.5606 	 -113.925 	 
C 	 14.5242 	 -14.0488 	 -116.071 	 
H 	 14.0002 	 -13.7466 	 -116.89 	 
H 	 13.972 	 -13.6987 	 -115.255 	 
C 	 14.5457 	 -15.5658 	 -116.004 	 
H 	 14.988 	 -15.9429 	 -115.063 	 
H 	 15.1772 	 -15.8543 	 -116.853 	 
C 	 13.1306 	 -16.1655 	 -116.104 	 
H 	 13.1762 	 -17.2316 	 -116.244 	 
H 	 12.7425 	 -15.8457 	 -117.047 	 
H 	 12.538 	 -15.8565 	 -115.276 	 
H 	 16.1124 	 -13.6458 	 -121.957 	 
H 	 18.31 	 -12.0107 	 -114.241 	 
*
