! wB97X-D3 SP def2-SVP
%pal
nprocs 24
end

* xyz 0 1
S 	 -62.8085 	 8.47039 	 -76.8582 	 
C 	 -62.5141 	 6.8396 	 -76.3661 	 
C 	 -62.9772 	 5.85621 	 -77.2133 	 
C 	 -63.5666 	 6.48638 	 -78.3802 	 
C 	 -63.724 	 7.83281 	 -78.2345 	 
H 	 -64.107 	 5.92559 	 -79.1506 	 
C 	 -62.8153 	 4.32372 	 -77.0102 	 
H 	 -63.8187 	 3.85004 	 -77.2775 	 
H 	 -62.7104 	 4.13603 	 -75.9181 	 
C 	 -61.7047 	 3.6796 	 -77.9448 	 
H 	 -61.9407 	 2.60472 	 -78.1377 	 
H 	 -61.788 	 4.07771 	 -78.9707 	 
C 	 -60.3669 	 3.93893 	 -77.3244 	 
H 	 -60.016 	 4.974 	 -77.3152 	 
H 	 -60.3733 	 3.71746 	 -76.2823 	 
H 	 -59.5032 	 3.47864 	 -77.7621 	 
S 	 -65.4632 	 9.99093 	 -78.2916 	 
C 	 -65.9408 	 10.6495 	 -79.8058 	 
C 	 -65.4246 	 9.91833 	 -80.8614 	 
C 	 -64.6147 	 8.78824 	 -80.4915 	 
C 	 -64.4973 	 8.7401 	 -79.1 	 
H 	 -65.6452 	 10.1778 	 -81.8795 	 
C 	 -63.9438 	 7.86393 	 -81.5022 	 
H 	 -63.4522 	 6.97177 	 -81.0626 	 
H 	 -63.0177 	 8.39344 	 -81.7559 	 
C 	 -64.7696 	 7.61475 	 -82.7663 	 
H 	 -65.0262 	 8.56059 	 -83.255 	 
H 	 -65.7037 	 7.08751 	 -82.3958 	 
C 	 -64.0891 	 6.7816 	 -83.823 	 
H 	 -63.8427 	 5.81152 	 -83.3606 	 
H 	 -63.3258 	 7.40895 	 -84.1585 	 
H 	 -64.7946 	 6.57009 	 -84.6953 	 
H 	 -61.8904 	 6.45127 	 -75.6073 	 
H 	 -66.4742 	 11.5988 	 -80.012 	 
*
