! wB97X-D3 SP def2-SVP
%pal
nprocs 24
end

* xyz 0 1
S 	 -86.8323 	 -5.72143 	 8.06134 	 
C 	 -86.9337 	 -5.23833 	 6.50514 	 
C 	 -85.6621 	 -4.94899 	 5.9717 	 
C 	 -84.6241 	 -5.07541 	 6.97859 	 
C 	 -85.1557 	 -5.52024 	 8.14811 	 
H 	 -83.5774 	 -4.88501 	 6.85349 	 
C 	 -85.4222 	 -4.71537 	 4.51479 	 
H 	 -86.3464 	 -5.0166 	 3.94027 	 
H 	 -84.5916 	 -5.35445 	 4.17919 	 
C 	 -85.0975 	 -3.28547 	 4.03323 	 
H 	 -84.9199 	 -3.32327 	 2.98746 	 
H 	 -85.9518 	 -2.62982 	 4.06383 	 
C 	 -83.9997 	 -2.53334 	 4.79847 	 
H 	 -83.8291 	 -1.5951 	 4.33408 	 
H 	 -84.3534 	 -2.39109 	 5.84635 	 
H 	 -83.0287 	 -3.03717 	 4.92578 	 
S 	 -84.7425 	 -6.99902 	 10.3716 	 
C 	 -83.7394 	 -6.37167 	 11.621 	 
C 	 -83.2657 	 -5.12256 	 11.3674 	 
C 	 -83.5831 	 -4.68093 	 10.0177 	 
C 	 -84.4742 	 -5.53088 	 9.44951 	 
H 	 -82.6997 	 -4.56825 	 12.0962 	 
C 	 -83.301 	 -3.25635 	 9.52499 	 
H 	 -83.2886 	 -2.59715 	 10.3744 	 
H 	 -84.0602 	 -2.88 	 8.90439 	 
C 	 -81.9557 	 -3.06938 	 8.87328 	 
H 	 -82.1034 	 -3.64961 	 7.98879 	 
H 	 -81.247 	 -3.59787 	 9.59154 	 
C 	 -81.6858 	 -1.59425 	 8.40993 	 
H 	 -81.8763 	 -0.806659 	 9.14813 	 
H 	 -82.2939 	 -1.33313 	 7.55474 	 
H 	 -80.6651 	 -1.40309 	 8.17634 	 
H 	 -87.8225 	 -5.33971 	 5.91008 	 
H 	 -83.7483 	 -6.79466 	 12.6135 	 
*
