! wB97X-D3 SP def2-SVP
%pal
nprocs 24
end

* xyz 0 1
S 	 -123.768 	 55.7925 	 -33.0572 	 
C 	 -122.429 	 55.6982 	 -31.9477 	 
C 	 -121.208 	 55.5236 	 -32.6476 	 
C 	 -121.378 	 55.6533 	 -34.0618 	 
C 	 -122.668 	 55.8427 	 -34.4322 	 
H 	 -120.583 	 55.5688 	 -34.8196 	 
C 	 -119.838 	 55.3709 	 -31.9306 	 
H 	 -120.115 	 55.1799 	 -30.8894 	 
H 	 -119.274 	 56.3104 	 -31.8094 	 
C 	 -118.948 	 54.228 	 -32.4178 	 
H 	 -118.76 	 54.4192 	 -33.4591 	 
H 	 -117.968 	 54.2252 	 -31.866 	 
C 	 -119.618 	 52.8496 	 -32.1326 	 
H 	 -119.425 	 52.5292 	 -31.0515 	 
H 	 -120.701 	 52.8866 	 -32.2566 	 
H 	 -119.297 	 52.149 	 -32.8961 	 
S 	 -124.567 	 57.0804 	 -35.958 	 
C 	 -124.491 	 56.8987 	 -37.7209 	 
C 	 -123.479 	 56.0176 	 -38.1213 	 
C 	 -122.727 	 55.5579 	 -37.0008 	 
C 	 -123.174 	 56.0601 	 -35.781 	 
H 	 -123.27 	 55.8546 	 -39.1613 	 
C 	 -121.485 	 54.6586 	 -37.1635 	 
H 	 -120.626 	 55.2599 	 -36.8801 	 
H 	 -121.289 	 54.6494 	 -38.2912 	 
C 	 -121.564 	 53.3177 	 -36.5056 	 
H 	 -122.289 	 52.6645 	 -36.9306 	 
H 	 -121.883 	 53.4648 	 -35.4769 	 
C 	 -120.063 	 52.7498 	 -36.5942 	 
H 	 -119.998 	 51.6999 	 -36.1807 	 
H 	 -119.431 	 53.37 	 -35.9712 	 
H 	 -119.633 	 52.8633 	 -37.6116 	 
H 	 -122.554 	 55.4909 	 -30.9429 	 
H 	 -125.106 	 57.3773 	 -38.4812 	 
*
