! wB97X-D3 SP def2-SVP
%pal
nprocs 24
end

* xyz 0 1
S 	 -105.173 	 56.3223 	 -79.5844 	 
C 	 -104.602 	 56.003 	 -81.1749 	 
C 	 -105.537 	 55.2209 	 -81.8353 	 
C 	 -106.764 	 55.0221 	 -81.0859 	 
C 	 -106.75 	 55.5678 	 -79.8297 	 
H 	 -107.755 	 54.6473 	 -81.4003 	 
C 	 -105.554 	 54.7686 	 -83.2694 	 
H 	 -105.925 	 53.7585 	 -83.24 	 
H 	 -104.507 	 54.7363 	 -83.6413 	 
C 	 -106.398 	 55.7074 	 -84.1182 	 
H 	 -107.462 	 55.5609 	 -83.8253 	 
H 	 -106.152 	 56.6698 	 -83.9139 	 
C 	 -106.284 	 55.2728 	 -85.6088 	 
H 	 -106.797 	 55.9258 	 -86.26 	 
H 	 -105.304 	 55.3941 	 -86.0724 	 
H 	 -106.609 	 54.2221 	 -85.7378 	 
S 	 -108.281 	 57.4988 	 -78.7313 	 
C 	 -109.829 	 57.0147 	 -77.9954 	 
C 	 -109.856 	 55.6639 	 -77.7862 	 
C 	 -108.749 	 54.9534 	 -78.3406 	 
C 	 -107.893 	 55.8097 	 -78.9777 	 
H 	 -110.64 	 55.2595 	 -77.1638 	 
C 	 -108.609 	 53.4513 	 -78.0433 	 
H 	 -108.473 	 53.3243 	 -76.9788 	 
H 	 -107.545 	 53.234 	 -78.2142 	 
C 	 -109.703 	 52.5319 	 -78.6176 	 
H 	 -110.681 	 52.7713 	 -78.2435 	 
H 	 -109.679 	 51.5964 	 -78.0976 	 
C 	 -109.688 	 52.3264 	 -80.1298 	 
H 	 -109.626 	 53.146 	 -80.7624 	 
H 	 -110.547 	 51.6902 	 -80.3124 	 
H 	 -108.828 	 51.7996 	 -80.384 	 
H 	 -103.743 	 56.405 	 -81.6531 	 
H 	 -110.657 	 57.6147 	 -77.7282 	 
*
