! wB97X-D3 SP def2-SVP
%pal
nprocs 24
end

* xyz 0 1
S 	 -62.8457 	 13.1133 	 -94.6391 	 
C 	 -63.4876 	 14.6194 	 -95.0051 	 
C 	 -63.0021 	 15.5302 	 -94.1531 	 
C 	 -62.1565 	 14.9573 	 -93.1099 	 
C 	 -61.9669 	 13.6318 	 -93.2578 	 
H 	 -61.6951 	 15.5654 	 -92.3072 	 
C 	 -63.5004 	 16.9441 	 -94.0317 	 
H 	 -63.7559 	 16.9755 	 -92.9761 	 
H 	 -64.3903 	 17.0027 	 -94.6613 	 
C 	 -62.4754 	 18.1469 	 -94.3367 	 
H 	 -62.9699 	 19.1159 	 -94.242 	 
H 	 -61.6183 	 18.2094 	 -93.7008 	 
C 	 -61.896 	 18.1554 	 -95.7897 	 
H 	 -61.0877 	 18.9312 	 -96.0419 	 
H 	 -61.465 	 17.2193 	 -95.8932 	 
H 	 -62.6254 	 18.3427 	 -96.5338 	 
S 	 -62.0523 	 10.9957 	 -92.1996 	 
C 	 -60.8921 	 10.5633 	 -91.0434 	 
C 	 -60.0004 	 11.6157 	 -90.6996 	 
C 	 -60.232 	 12.7911 	 -91.5126 	 
C 	 -61.3643 	 12.6513 	 -92.2995 	 
H 	 -59.2562 	 11.5138 	 -89.9216 	 
C 	 -59.3899 	 14.0231 	 -91.2451 	 
H 	 -59.6445 	 14.6711 	 -92.0667 	 
H 	 -58.2672 	 13.6996 	 -91.4294 	 
C 	 -59.5192 	 14.7144 	 -89.895 	 
H 	 -59.0102 	 14.0262 	 -89.2332 	 
H 	 -60.6045 	 14.7037 	 -89.5232 	 
C 	 -58.8593 	 16.0969 	 -89.7972 	 
H 	 -59.2553 	 16.7236 	 -90.5535 	 
H 	 -57.8099 	 16.0794 	 -90.0902 	 
H 	 -58.8981 	 16.5459 	 -88.8035 	 
H 	 -64.171 	 14.8113 	 -95.8231 	 
H 	 -60.7861 	 9.61434 	 -90.5544 	 
*
