! wB97X-D3 SP def2-SVP
%pal
nprocs 24
end

* xyz 0 1
S 	 -50.1701 	 -49.6469 	 -78.829 	 
C 	 -51.1761 	 -49.0826 	 -77.5617 	 
C 	 -51.1244 	 -47.7173 	 -77.4981 	 
C 	 -50.4003 	 -47.0435 	 -78.5639 	 
C 	 -49.7546 	 -48.0122 	 -79.2819 	 
H 	 -50.2439 	 -45.9462 	 -78.6798 	 
C 	 -51.9137 	 -46.8597 	 -76.4983 	 
H 	 -51.3507 	 -46.1315 	 -76.008 	 
H 	 -52.1199 	 -47.506 	 -75.7008 	 
C 	 -53.1247 	 -46.2335 	 -77.1653 	 
H 	 -52.7386 	 -45.3321 	 -77.6862 	 
H 	 -53.769 	 -46.8549 	 -77.8562 	 
C 	 -53.972 	 -45.6161 	 -76.096 	 
H 	 -53.4393 	 -44.872 	 -75.5102 	 
H 	 -54.8063 	 -45.0719 	 -76.5854 	 
H 	 -54.3541 	 -46.3158 	 -75.3702 	 
S 	 -47.5106 	 -46.5698 	 -80.1511 	 
C 	 -47.0561 	 -46.6144 	 -81.8088 	 
C 	 -47.8455 	 -47.478 	 -82.5266 	 
C 	 -48.9104 	 -48.1099 	 -81.7759 	 
C 	 -48.8817 	 -47.709 	 -80.4273 	 
H 	 -47.653 	 -47.6618 	 -83.5993 	 
C 	 -49.9935 	 -48.9048 	 -82.4087 	 
H 	 -50.8426 	 -48.4117 	 -82.002 	 
H 	 -49.9343 	 -49.9672 	 -82.0723 	 
C 	 -50.2048 	 -48.8186 	 -83.9559 	 
H 	 -49.7987 	 -47.8497 	 -84.3133 	 
H 	 -51.2052 	 -48.959 	 -84.186 	 
C 	 -49.3518 	 -49.9868 	 -84.585 	 
H 	 -49.6833 	 -50.9925 	 -84.2517 	 
H 	 -48.2438 	 -49.8619 	 -84.366 	 
H 	 -49.515 	 -49.9504 	 -85.6938 	 
H 	 -51.7955 	 -49.6518 	 -76.9382 	 
H 	 -46.269 	 -45.9462 	 -82.2455 	 
*
