! wB97X-D3 SP def2-SVP
%pal
nprocs 24
end

* xyz 0 1
S 	 24.7048 	 -2.28509 	 -107.845 	 
C 	 25.8769 	 -1.99246 	 -109.149 	 
C 	 25.2526 	 -1.81949 	 -110.384 	 
C 	 23.8722 	 -1.95901 	 -110.265 	 
C 	 23.3987 	 -2.24064 	 -108.979 	 
H 	 23.0909 	 -1.90459 	 -110.985 	 
C 	 25.9775 	 -1.7219 	 -111.661 	 
H 	 26.8869 	 -2.36322 	 -111.539 	 
H 	 26.4069 	 -0.69267 	 -111.729 	 
C 	 25.2197 	 -1.97185 	 -112.98 	 
H 	 24.3227 	 -1.42126 	 -113.092 	 
H 	 25.8271 	 -1.50562 	 -113.776 	 
C 	 24.9116 	 -3.44753 	 -113.271 	 
H 	 24.4032 	 -3.44938 	 -114.231 	 
H 	 25.8042 	 -4.04281 	 -113.251 	 
H 	 24.2577 	 -3.88641 	 -112.507 	 
S 	 21.4723 	 -1.40704 	 -107.245 	 
C 	 19.8451 	 -1.78552 	 -107.512 	 
C 	 19.7208 	 -2.79977 	 -108.453 	 
C 	 20.9566 	 -3.15477 	 -109.061 	 
C 	 22.0102 	 -2.42825 	 -108.593 	 
H 	 18.665 	 -3.2058 	 -108.497 	 
C 	 21.2212 	 -4.34293 	 -110.1 	 
H 	 22.0827 	 -3.97085 	 -110.639 	 
H 	 20.3447 	 -4.46978 	 -110.735 	 
C 	 21.6599 	 -5.76396 	 -109.515 	 
H 	 20.9086 	 -6.1962 	 -108.88 	 
H 	 22.5346 	 -5.53951 	 -108.912 	 
C 	 22.1847 	 -6.61019 	 -110.697 	 
H 	 22.5801 	 -7.54574 	 -110.423 	 
H 	 23.0354 	 -6.13096 	 -111.169 	 
H 	 21.3903 	 -6.78126 	 -111.54 	 
H 	 26.8949 	 -1.66955 	 -108.959 	 
H 	 19.0211 	 -1.65096 	 -106.824 	 
*
