! wB97X-D3 SP def2-SVP
%pal
nprocs 24
end

* xyz 0 1
S 	 -106.64 	 50.1375 	 -71.6938 	 
C 	 -107.606 	 49.8334 	 -73.137 	 
C 	 -108.682 	 50.6691 	 -73.1638 	 
C 	 -108.693 	 51.7131 	 -72.1397 	 
C 	 -107.683 	 51.5406 	 -71.2907 	 
H 	 -109.409 	 52.5279 	 -72.0502 	 
C 	 -109.671 	 50.7278 	 -74.3189 	 
H 	 -110.669 	 50.893 	 -74.0448 	 
H 	 -109.785 	 49.783 	 -74.8676 	 
C 	 -109.422 	 51.8047 	 -75.38 	 
H 	 -109.326 	 52.7918 	 -74.9862 	 
H 	 -108.545 	 51.6069 	 -75.8991 	 
C 	 -110.513 	 51.8717 	 -76.4259 	 
H 	 -111.394 	 52.3928 	 -75.9726 	 
H 	 -110.321 	 52.5148 	 -77.2894 	 
H 	 -110.918 	 50.93 	 -76.7398 	 
S 	 -106.637 	 51.4731 	 -68.7465 	 
C 	 -106.522 	 53.0635 	 -67.9219 	 
C 	 -106.943 	 54.1529 	 -68.6494 	 
C 	 -107.465 	 53.7149 	 -69.8985 	 
C 	 -107.264 	 52.3627 	 -70.1562 	 
H 	 -106.911 	 55.2229 	 -68.3493 	 
C 	 -108.04 	 54.7966 	 -70.8464 	 
H 	 -108.3 	 55.7221 	 -70.3017 	 
H 	 -108.907 	 54.4846 	 -71.3312 	 
C 	 -107.05 	 55.1846 	 -71.9546 	 
H 	 -106.792 	 54.268 	 -72.5575 	 
H 	 -106.128 	 55.6054 	 -71.5513 	 
C 	 -107.708 	 56.178 	 -72.8109 	 
H 	 -108.704 	 55.8692 	 -73.0358 	 
H 	 -107.165 	 56.3321 	 -73.687 	 
H 	 -107.635 	 57.0726 	 -72.3199 	 
H 	 -107.426 	 48.984 	 -73.7986 	 
H 	 -106.187 	 53.1878 	 -66.9472 	 
*
