! wB97X-D3 SP def2-SVP
%pal
nprocs 24
end

* xyz 0 1
S 	 -108.241 	 55.6614 	 -102.322 	 
C 	 -109.832 	 55.4697 	 -102.97 	 
C 	 -110.223 	 56.6819 	 -103.505 	 
C 	 -109.271 	 57.752 	 -103.411 	 
C 	 -108.066 	 57.3333 	 -103.004 	 
H 	 -109.528 	 58.8042 	 -103.608 	 
C 	 -111.628 	 56.9003 	 -104.017 	 
H 	 -112.295 	 57.269 	 -103.195 	 
H 	 -112.155 	 55.8857 	 -104.064 	 
C 	 -111.748 	 57.683 	 -105.318 	 
H 	 -112.822 	 57.8307 	 -105.525 	 
H 	 -111.207 	 58.6254 	 -105.273 	 
C 	 -111.003 	 56.9228 	 -106.525 	 
H 	 -110.109 	 56.451 	 -106.054 	 
H 	 -111.51 	 56.0945 	 -106.921 	 
H 	 -110.706 	 57.6979 	 -107.209 	 
S 	 -106.015 	 57.8955 	 -101.396 	 
C 	 -104.794 	 59.0533 	 -101.805 	 
C 	 -104.933 	 59.4641 	 -103.145 	 
C 	 -106.151 	 59.0024 	 -103.709 	 
C 	 -106.769 	 58.0204 	 -102.972 	 
H 	 -104.23 	 60.2864 	 -103.501 	 
C 	 -106.704 	 59.4727 	 -105.087 	 
H 	 -107.577 	 58.9333 	 -105.51 	 
H 	 -105.911 	 59.1893 	 -105.78 	 
C 	 -107.072 	 60.9819 	 -105.142 	 
H 	 -107.275 	 61.2489 	 -106.179 	 
H 	 -106.21 	 61.6247 	 -104.821 	 
C 	 -108.352 	 61.2767 	 -104.222 	 
H 	 -109.183 	 60.741 	 -104.578 	 
H 	 -108.707 	 62.3379 	 -104.239 	 
H 	 -108.243 	 60.9888 	 -103.097 	 
H 	 -110.538 	 54.6293 	 -102.918 	 
H 	 -103.921 	 59.3829 	 -101.291 	 
*
