! wB97X-D3 SP def2-SVP
%pal
nprocs 24
end

* xyz 0 1
S 	 -72.9397 	 0.603571 	 13.1655 	 
C 	 -72.3997 	 2.25777 	 13.51 	 
C 	 -72.9795 	 2.70085 	 14.7209 	 
C 	 -73.7018 	 1.68004 	 15.3248 	 
C 	 -73.8735 	 0.512387 	 14.6055 	 
H 	 -74.0719 	 1.68855 	 16.3439 	 
C 	 -72.7968 	 4.05703 	 15.3326 	 
H 	 -71.9162 	 4.10601 	 15.9278 	 
H 	 -73.5957 	 4.13559 	 16.0935 	 
C 	 -72.874 	 5.22029 	 14.4236 	 
H 	 -72.3883 	 6.05302 	 14.9295 	 
H 	 -72.2978 	 5.10912 	 13.5484 	 
C 	 -74.3266 	 5.52949 	 14.1797 	 
H 	 -74.8397 	 4.6997 	 13.7055 	 
H 	 -74.8899 	 5.73026 	 15.0746 	 
H 	 -74.495 	 6.43822 	 13.6228 	 
S 	 -76.0163 	 -1.19253 	 14.7021 	 
C 	 -76.2918 	 -2.34448 	 15.9529 	 
C 	 -75.1572 	 -2.43535 	 16.7139 	 
C 	 -74.174 	 -1.37114 	 16.4448 	 
C 	 -74.418 	 -0.675144 	 15.2466 	 
H 	 -75.0564 	 -3.14674 	 17.5161 	 
C 	 -72.884 	 -1.19918 	 17.2366 	 
H 	 -72.2197 	 -0.514592 	 16.6654 	 
H 	 -72.339 	 -2.1601 	 17.0999 	 
C 	 -73.0821 	 -0.754447 	 18.6769 	 
H 	 -73.6808 	 -1.5028 	 19.1833 	 
H 	 -73.4854 	 0.217741 	 18.8769 	 
C 	 -71.636 	 -0.821819 	 19.2884 	 
H 	 -71.0218 	 -0.0403654 	 18.9269 	 
H 	 -71.1995 	 -1.82789 	 19.0176 	 
H 	 -71.5547 	 -0.671617 	 20.4118 	 
H 	 -71.6133 	 2.81548 	 13.112 	 
H 	 -77.2124 	 -2.91868 	 16.0199 	 
*
