! wB97X-D3 SP def2-SVP
%pal
nprocs 24
end

* xyz 0 1
S 	 24.7928 	 -1.8751 	 -110.778 	 
C 	 24.3596 	 -1.84518 	 -112.515 	 
C 	 23.9168 	 -0.618697 	 -112.831 	 
C 	 23.7724 	 0.241045 	 -111.699 	 
C 	 24.4349 	 -0.228894 	 -110.624 	 
H 	 23.4842 	 1.27669 	 -111.652 	 
C 	 23.5175 	 -0.18105 	 -114.18 	 
H 	 23.77 	 -1.0857 	 -114.79 	 
H 	 24.2046 	 0.592187 	 -114.394 	 
C 	 22.0739 	 0.27121 	 -114.412 	 
H 	 21.3296 	 -0.444627 	 -114.215 	 
H 	 21.8542 	 1.04996 	 -113.685 	 
C 	 21.8392 	 0.808006 	 -115.833 	 
H 	 20.9249 	 1.39004 	 -115.901 	 
H 	 22.7357 	 1.44757 	 -116.209 	 
H 	 21.7937 	 -0.00555864 	 -116.606 	 
S 	 24.71 	 -0.476372 	 -107.846 	 
C 	 25.0917 	 0.989889 	 -106.929 	 
C 	 25.1961 	 2.09967 	 -107.713 	 
C 	 24.822 	 1.83622 	 -109.061 	 
C 	 24.5752 	 0.472257 	 -109.348 	 
H 	 25.5271 	 3.04014 	 -107.311 	 
C 	 24.794 	 2.97282 	 -109.96 	 
H 	 24.8359 	 2.70813 	 -111.023 	 
H 	 25.7254 	 3.4805 	 -109.684 	 
C 	 23.6069 	 3.9356 	 -109.704 	 
H 	 23.6846 	 4.39123 	 -108.687 	 
H 	 22.6159 	 3.39537 	 -109.716 	 
C 	 23.5152 	 5.19498 	 -110.648 	 
H 	 24.3357 	 5.913 	 -110.654 	 
H 	 22.6317 	 5.80885 	 -110.459 	 
H 	 23.4019 	 4.89277 	 -111.689 	 
H 	 24.5948 	 -2.61085 	 -113.25 	 
H 	 25.0817 	 1.13534 	 -105.873 	 
*
