! wB97X-D3 SP def2-SVP
%pal
nprocs 24
end

* xyz 0 1
S 	 -42.408 	 -42.5171 	 -77.1371 	 
C 	 -43.6841 	 -42.8741 	 -75.9018 	 
C 	 -43.2968 	 -42.6316 	 -74.6321 	 
C 	 -41.9203 	 -42.1915 	 -74.5892 	 
C 	 -41.2993 	 -42.0886 	 -75.8444 	 
H 	 -41.3954 	 -42.1148 	 -73.6635 	 
C 	 -44.0931 	 -42.9348 	 -73.3543 	 
H 	 -43.5443 	 -43.6599 	 -72.7732 	 
H 	 -44.9775 	 -43.4504 	 -73.7404 	 
C 	 -44.5008 	 -41.8448 	 -72.4445 	 
H 	 -43.6827 	 -41.4169 	 -71.8041 	 
H 	 -44.9622 	 -41.0398 	 -73.0435 	 
C 	 -45.6488 	 -42.3276 	 -71.4701 	 
H 	 -46.4965 	 -42.6378 	 -72.1301 	 
H 	 -45.4129 	 -43.1223 	 -70.8076 	 
H 	 -45.9648 	 -41.511 	 -70.8405 	 
S 	 -38.8164 	 -42.7593 	 -74.8366 	 
C 	 -37.3865 	 -42.1782 	 -75.7735 	 
C 	 -37.7468 	 -41.6615 	 -76.9775 	 
C 	 -39.1332 	 -41.4894 	 -77.1052 	 
C 	 -39.8768 	 -42.0172 	 -76.0545 	 
H 	 -37.0482 	 -41.2768 	 -77.6884 	 
C 	 -39.7965 	 -40.973 	 -78.3574 	 
H 	 -39.321 	 -39.9614 	 -78.4358 	 
H 	 -40.8109 	 -40.6159 	 -78.2171 	 
C 	 -39.5753 	 -41.9305 	 -79.5695 	 
H 	 -40.1031 	 -42.8708 	 -79.2867 	 
H 	 -38.5437 	 -42.2524 	 -79.5146 	 
C 	 -39.9219 	 -41.3863 	 -81.0093 	 
H 	 -39.9026 	 -40.2966 	 -81.0871 	 
H 	 -40.8701 	 -41.7777 	 -81.3569 	 
H 	 -39.2011 	 -41.7674 	 -81.6975 	 
H 	 -44.6597 	 -43.1916 	 -76.184 	 
H 	 -36.3394 	 -42.2504 	 -75.4847 	 
*
