! wB97X-D3 SP def2-SVP
%pal
nprocs 24
end

* xyz 0 1
S 	 -73.3821 	 3.67274 	 13.929 	 
C 	 -72.3546 	 4.6127 	 12.8232 	 
C 	 -71.6862 	 5.62305 	 13.4675 	 
C 	 -72.138 	 5.75732 	 14.8158 	 
C 	 -73.0613 	 4.77285 	 15.2114 	 
H 	 -71.7841 	 6.47243 	 15.5706 	 
C 	 -70.6016 	 6.45548 	 12.7909 	 
H 	 -70.9424 	 7.50908 	 12.7565 	 
H 	 -70.5192 	 6.2122 	 11.7057 	 
C 	 -69.2 	 6.29441 	 13.3973 	 
H 	 -68.5066 	 7.09402 	 13.1577 	 
H 	 -69.4324 	 6.38168 	 14.4165 	 
C 	 -68.6749 	 4.86757 	 13.1298 	 
H 	 -67.779 	 4.64633 	 13.783 	 
H 	 -69.4592 	 4.02703 	 13.3956 	 
H 	 -68.3226 	 4.74193 	 12.0786 	 
S 	 -75.285 	 4.28324 	 16.6226 	 
C 	 -75.24 	 3.94717 	 18.2872 	 
C 	 -73.9826 	 4.12596 	 18.7984 	 
C 	 -73.0559 	 4.53681 	 17.7795 	 
C 	 -73.619 	 4.58989 	 16.5353 	 
H 	 -73.7853 	 3.8217 	 19.8504 	 
C 	 -71.61 	 4.5888 	 18.2312 	 
H 	 -70.9961 	 4.62052 	 17.3359 	 
H 	 -71.4973 	 3.67222 	 18.8363 	 
C 	 -71.1971 	 5.74599 	 19.1994 	 
H 	 -71.8612 	 5.6845 	 20.0763 	 
H 	 -71.2787 	 6.69367 	 18.714 	 
C 	 -69.7123 	 5.71117 	 19.659 	 
H 	 -69.0934 	 5.67488 	 18.7994 	 
H 	 -69.435 	 4.83602 	 20.3402 	 
H 	 -69.4462 	 6.615 	 20.1288 	 
H 	 -72.2711 	 4.5424 	 11.7366 	 
H 	 -76.09 	 3.4582 	 18.7544 	 
*
