! wB97X-D3 SP def2-SVP
%pal
nprocs 24
end

* xyz 0 1
S 	 -100.588 	 3.85998 	 -123.04 	 
C 	 -101.975 	 2.97686 	 -123.707 	 
C 	 -102.102 	 1.79681 	 -122.967 	 
C 	 -101.211 	 1.77394 	 -121.847 	 
C 	 -100.366 	 2.80699 	 -121.719 	 
H 	 -101.254 	 1.10445 	 -120.965 	 
C 	 -103.245 	 0.781267 	 -123.097 	 
H 	 -103.875 	 1.36969 	 -123.769 	 
H 	 -103.726 	 0.843589 	 -122.133 	 
C 	 -102.891 	 -0.639074 	 -123.527 	 
H 	 -102.379 	 -0.550024 	 -124.547 	 
H 	 -102.003 	 -1.00456 	 -123.049 	 
C 	 -104.054 	 -1.67211 	 -123.722 	 
H 	 -104.334 	 -2.02929 	 -122.718 	 
H 	 -104.872 	 -1.19829 	 -124.175 	 
H 	 -103.669 	 -2.51809 	 -124.246 	 
S 	 -99.4151 	 4.67052 	 -119.986 	 
C 	 -98.1987 	 4.20538 	 -118.742 	 
C 	 -97.7456 	 2.93242 	 -119.043 	 
C 	 -98.492 	 2.23041 	 -120.033 	 
C 	 -99.4522 	 3.0654 	 -120.639 	 
H 	 -97.0549 	 2.38076 	 -118.366 	 
C 	 -98.1484 	 0.840182 	 -120.514 	 
H 	 -98.737 	 0.502661 	 -121.396 	 
H 	 -98.4251 	 0.183825 	 -119.765 	 
C 	 -96.6145 	 0.546069 	 -120.807 	 
H 	 -96.0116 	 0.864638 	 -119.909 	 
H 	 -96.3643 	 1.21716 	 -121.684 	 
C 	 -96.2124 	 -0.96767 	 -120.975 	 
H 	 -96.029 	 -1.42727 	 -120.004 	 
H 	 -95.2621 	 -0.94379 	 -121.465 	 
H 	 -97.0684 	 -1.49245 	 -121.529 	 
H 	 -102.42 	 3.23625 	 -124.673 	 
H 	 -97.873 	 4.83977 	 -117.943 	 
*
