! wB97X-D3 SP def2-SVP
%pal
nprocs 24
end

* xyz 0 1
S 	 -70.7546 	 2.84987 	 -69.6704 	 
C 	 -70.6336 	 4.46221 	 -68.9191 	 
C 	 -71.5855 	 4.67824 	 -67.8949 	 
C 	 -72.5838 	 3.70017 	 -67.9113 	 
C 	 -72.259 	 2.59892 	 -68.7857 	 
H 	 -73.4337 	 3.64118 	 -67.2707 	 
C 	 -71.6178 	 6.06621 	 -67.1444 	 
H 	 -70.7686 	 6.70915 	 -67.4591 	 
H 	 -71.2775 	 5.80461 	 -66.1637 	 
C 	 -72.968 	 6.88676 	 -67.2615 	 
H 	 -73.2342 	 7.21525 	 -68.2764 	 
H 	 -73.8428 	 6.2534 	 -66.9684 	 
C 	 -72.9951 	 8.02877 	 -66.202 	 
H 	 -72.768 	 7.80549 	 -65.1709 	 
H 	 -72.2537 	 8.84506 	 -66.4005 	 
H 	 -74.0199 	 8.49123 	 -66.235 	 
S 	 -72.3092 	 -0.0927325 	 -68.9692 	 
C 	 -73.6073 	 -0.879114 	 -69.7747 	 
C 	 -74.755 	 -0.124648 	 -69.5087 	 
C 	 -74.4713 	 1.23103 	 -69.0912 	 
C 	 -73.097 	 1.44737 	 -69.0003 	 
H 	 -75.7177 	 -0.582662 	 -69.6066 	 
C 	 -75.5952 	 2.32391 	 -68.9807 	 
H 	 -75.0045 	 3.2441 	 -69.0693 	 
H 	 -76.0328 	 2.31497 	 -67.9532 	 
C 	 -76.7573 	 2.28653 	 -70.0047 	 
H 	 -77.2618 	 1.33674 	 -69.9472 	 
H 	 -76.3264 	 2.40163 	 -70.98 	 
C 	 -77.846 	 3.35629 	 -69.8581 	 
H 	 -78.1426 	 3.46369 	 -68.7794 	 
H 	 -78.7115 	 3.1877 	 -70.5483 	 
H 	 -77.5488 	 4.29842 	 -70.229 	 
H 	 -69.8231 	 5.10811 	 -69.0138 	 
H 	 -73.6316 	 -1.93325 	 -69.8861 	 
*
