! wB97X-D3 SP def2-SVP
%pal
nprocs 24
end

* xyz 0 1
S 	 -90.7803 	 -30.5018 	 -73.488 	 
C 	 -89.0985 	 -30.7118 	 -73.6106 	 
C 	 -88.4054 	 -29.6553 	 -74.1344 	 
C 	 -89.3589 	 -28.688 	 -74.7135 	 
C 	 -90.6831 	 -29.0314 	 -74.5557 	 
H 	 -89.0899 	 -27.753 	 -75.2518 	 
C 	 -86.9093 	 -29.5337 	 -74.3795 	 
H 	 -86.3943 	 -30.2635 	 -73.7579 	 
H 	 -86.6376 	 -28.5423 	 -74.0598 	 
C 	 -86.4652 	 -29.768 	 -75.9076 	 
H 	 -85.3908 	 -29.4583 	 -75.9424 	 
H 	 -86.6113 	 -30.8158 	 -76.0865 	 
C 	 -87.0726 	 -28.8828 	 -76.9592 	 
H 	 -86.4969 	 -28.8492 	 -77.8879 	 
H 	 -88.0996 	 -29.2182 	 -77.3672 	 
H 	 -87.138 	 -27.8635 	 -76.5503 	 
S 	 -92.9989 	 -27.8081 	 -73.5495 	 
C 	 -93.8633 	 -26.7236 	 -74.6272 	 
C 	 -93.4016 	 -26.774 	 -75.9031 	 
C 	 -92.2516 	 -27.6445 	 -76.0581 	 
C 	 -91.8317 	 -28.1664 	 -74.8121 	 
H 	 -93.9825 	 -26.2023 	 -76.5999 	 
C 	 -91.7161 	 -27.991 	 -77.4582 	 
H 	 -92.4363 	 -28.269 	 -78.1817 	 
H 	 -91.0272 	 -28.8008 	 -77.2477 	 
C 	 -90.9401 	 -26.8498 	 -78.127 	 
H 	 -90.3086 	 -26.4067 	 -77.3876 	 
H 	 -91.6778 	 -26.1329 	 -78.4485 	 
C 	 -89.8913 	 -27.2988 	 -79.197 	 
H 	 -89.5555 	 -28.3513 	 -78.9914 	 
H 	 -89.045 	 -26.5642 	 -79.15 	 
H 	 -90.3003 	 -27.193 	 -80.2414 	 
H 	 -88.7018 	 -31.6449 	 -73.2499 	 
H 	 -94.6547 	 -26.1432 	 -74.2563 	 
*
