! wB97X-D3 SP def2-SVP
%pal
nprocs 24
end

* xyz 0 1
S 	 -103.145 	 42.4528 	 -84.8767 	 
C 	 -102.684 	 41.9534 	 -86.4997 	 
C 	 -103.051 	 42.9796 	 -87.4284 	 
C 	 -103.682 	 44.075 	 -86.818 	 
C 	 -103.805 	 43.9711 	 -85.4352 	 
H 	 -103.968 	 44.9753 	 -87.3109 	 
C 	 -102.726 	 43.0057 	 -88.8379 	 
H 	 -101.879 	 43.5652 	 -88.9793 	 
H 	 -103.578 	 43.4469 	 -89.261 	 
C 	 -102.442 	 41.716 	 -89.583 	 
H 	 -102.314 	 41.9262 	 -90.7423 	 
H 	 -101.632 	 41.0941 	 -89.0936 	 
C 	 -103.518 	 40.6808 	 -89.6618 	 
H 	 -103.605 	 40.1583 	 -90.5993 	 
H 	 -103.63 	 40.0648 	 -88.7182 	 
H 	 -104.421 	 41.2387 	 -89.7114 	 
S 	 -104.358 	 46.5491 	 -84.9664 	 
C 	 -105.267 	 47.0407 	 -83.6091 	 
C 	 -105.506 	 45.9598 	 -82.7499 	 
C 	 -104.899 	 44.7865 	 -83.2517 	 
C 	 -104.367 	 44.8996 	 -84.5395 	 
H 	 -106.059 	 46.0402 	 -81.8313 	 
C 	 -105.073 	 43.4318 	 -82.3833 	 
H 	 -105.67 	 43.725 	 -81.5171 	 
H 	 -104.095 	 43.0385 	 -82.0498 	 
C 	 -106 	 42.3739 	 -82.9904 	 
H 	 -105.796 	 42.1136 	 -84.0067 	 
H 	 -107.039 	 42.7484 	 -82.8965 	 
C 	 -105.896 	 41.0438 	 -82.2494 	 
H 	 -106.46 	 40.2929 	 -82.7701 	 
H 	 -106.242 	 40.9565 	 -81.2376 	 
H 	 -104.825 	 40.8593 	 -82.1436 	 
H 	 -102.126 	 41.102 	 -86.7117 	 
H 	 -105.686 	 48.0633 	 -83.4318 	 
*
