! wB97X-D3 SP def2-SVP
%pal
nprocs 24
end

* xyz 0 1
S 	 -107.53 	 54.7315 	 -88.4117 	 
C 	 -109.192 	 55.2056 	 -87.8864 	 
C 	 -109.48 	 56.5249 	 -88.0815 	 
C 	 -108.309 	 57.2404 	 -88.5551 	 
C 	 -107.166 	 56.454 	 -88.6094 	 
H 	 -108.348 	 58.3012 	 -88.809 	 
C 	 -110.724 	 57.2623 	 -87.8788 	 
H 	 -111.508 	 56.5162 	 -87.5783 	 
H 	 -111.073 	 57.7339 	 -88.7866 	 
C 	 -110.724 	 58.2871 	 -86.6651 	 
H 	 -109.934 	 59.0485 	 -86.7435 	 
H 	 -111.615 	 58.8924 	 -86.5952 	 
C 	 -110.597 	 57.4587 	 -85.3387 	 
H 	 -111.437 	 56.8293 	 -85.0848 	 
H 	 -109.783 	 56.7922 	 -85.312 	 
H 	 -110.484 	 58.1749 	 -84.546 	 
S 	 -105.225 	 56.746 	 -90.5794 	 
C 	 -103.894 	 57.8805 	 -90.2911 	 
C 	 -104.06 	 58.4992 	 -89.0643 	 
C 	 -105.195 	 58.0543 	 -88.3616 	 
C 	 -105.85 	 57.0236 	 -88.9378 	 
H 	 -103.341 	 59.3058 	 -88.9023 	 
C 	 -105.592 	 58.6483 	 -87.0284 	 
H 	 -106.522 	 58.2999 	 -86.8581 	 
H 	 -105.575 	 59.7403 	 -87.0265 	 
C 	 -104.699 	 58.1746 	 -85.8598 	 
H 	 -103.672 	 58.5862 	 -86.1095 	 
H 	 -104.608 	 57.0718 	 -85.7231 	 
C 	 -105.037 	 58.8655 	 -84.5069 	 
H 	 -104.405 	 58.5889 	 -83.6752 	 
H 	 -105.932 	 58.5254 	 -84.0679 	 
H 	 -105.026 	 59.9864 	 -84.4509 	 
H 	 -109.89 	 54.4748 	 -87.4441 	 
H 	 -103.189 	 58.3294 	 -90.9248 	 
*
