! wB97X-D3 SP def2-SVP
%pal
nprocs 24
end

* xyz 0 1
S 	 -117.286 	 30.7363 	 -17.6777 	 
C 	 -118.943 	 30.4486 	 -18.1559 	 
C 	 -119.522 	 31.5664 	 -18.6788 	 
C 	 -118.603 	 32.6853 	 -18.6058 	 
C 	 -117.288 	 32.3757 	 -18.2193 	 
H 	 -118.907 	 33.6721 	 -18.8345 	 
C 	 -121.013 	 31.7938 	 -19.085 	 
H 	 -121.484 	 30.8242 	 -19.3625 	 
H 	 -120.932 	 32.3347 	 -19.9763 	 
C 	 -122.003 	 32.5581 	 -18.1137 	 
H 	 -121.674 	 33.5398 	 -17.7492 	 
H 	 -122.899 	 32.7923 	 -18.6349 	 
C 	 -122.345 	 31.7796 	 -16.8356 	 
H 	 -123.011 	 32.4692 	 -16.2523 	 
H 	 -122.945 	 30.9088 	 -17.2256 	 
H 	 -121.486 	 31.3806 	 -16.4016 	 
S 	 -115.354 	 33.225 	 -16.4567 	 
C 	 -114.422 	 34.6546 	 -16.8122 	 
C 	 -114.505 	 34.9486 	 -18.1293 	 
C 	 -115.472 	 34.1361 	 -18.8047 	 
C 	 -116.111 	 33.2214 	 -18.0205 	 
H 	 -113.871 	 35.7152 	 -18.5072 	 
C 	 -115.804 	 34.3291 	 -20.3281 	 
H 	 -115.751 	 35.4012 	 -20.4811 	 
H 	 -116.822 	 33.9398 	 -20.5553 	 
C 	 -114.913 	 33.421 	 -21.2792 	 
H 	 -115.399 	 33.3607 	 -22.2531 	 
H 	 -114.91 	 32.3196 	 -21.1232 	 
C 	 -113.52 	 33.9647 	 -21.5453 	 
H 	 -112.912 	 33.75 	 -20.5899 	 
H 	 -113.492 	 34.9956 	 -21.8328 	 
H 	 -112.98 	 33.4574 	 -22.3905 	 
H 	 -119.466 	 29.5431 	 -17.87 	 
H 	 -113.65 	 35.0819 	 -16.1471 	 
*
