! wB97X-D3 SP def2-SVP
%pal
nprocs 24
end

* xyz 0 1
S 	 -55.0419 	 13.5652 	 24.6411 	 
C 	 -54.0522 	 12.1481 	 24.2838 	 
C 	 -52.7599 	 12.5162 	 23.8725 	 
C 	 -52.5051 	 13.9433 	 24.0876 	 
C 	 -53.6737 	 14.6386 	 24.3971 	 
H 	 -51.5596 	 14.443 	 23.9423 	 
C 	 -51.7141 	 11.4865 	 23.5379 	 
H 	 -51.9722 	 10.5376 	 23.9191 	 
H 	 -50.7981 	 11.6775 	 24.0512 	 
C 	 -51.3726 	 11.4318 	 22.044 	 
H 	 -50.669 	 10.6746 	 21.9451 	 
H 	 -52.2072 	 11.0672 	 21.5036 	 
C 	 -50.8449 	 12.8029 	 21.5195 	 
H 	 -49.9867 	 13.1101 	 22.1953 	 
H 	 -50.3771 	 12.7249 	 20.559 	 
H 	 -51.4934 	 13.6529 	 21.6164 	 
S 	 -55.2224 	 16.9414 	 23.8564 	 
C 	 -54.5747 	 18.4672 	 24.4572 	 
C 	 -53.4126 	 18.3032 	 25.1868 	 
C 	 -52.9009 	 16.9697 	 25.1261 	 
C 	 -53.8091 	 16.0791 	 24.5647 	 
H 	 -52.9924 	 19.1912 	 25.7276 	 
C 	 -51.6073 	 16.5768 	 25.8658 	 
H 	 -51.7603 	 15.6031 	 26.215 	 
H 	 -51.7243 	 17.2066 	 26.7823 	 
C 	 -50.2173 	 16.8733 	 25.2241 	 
H 	 -50.2344 	 17.9396 	 25.0174 	 
H 	 -50.1115 	 16.2908 	 24.3265 	 
C 	 -49.0107 	 16.5902 	 26.1375 	 
H 	 -48.9848 	 17.2726 	 27.0073 	 
H 	 -48.0409 	 16.7302 	 25.7269 	 
H 	 -49.1578 	 15.7019 	 26.7383 	 
H 	 -54.3859 	 11.1295 	 24.1844 	 
H 	 -55.0725 	 19.421 	 24.5645 	 
*
