! wB97X-D3 SP def2-SVP
%pal
nprocs 24
end

* xyz 0 1
S 	 -79.213 	 -22.4236 	 -54.1773 	 
C 	 -79.6192 	 -21.4676 	 -52.7752 	 
C 	 -79.2452 	 -22.2039 	 -51.5999 	 
C 	 -78.4491 	 -23.3511 	 -51.884 	 
C 	 -78.4394 	 -23.6628 	 -53.2084 	 
H 	 -77.8928 	 -24.0052 	 -51.1873 	 
C 	 -79.4847 	 -21.8088 	 -50.2055 	 
H 	 -79.6399 	 -20.75 	 -50.1839 	 
H 	 -78.5584 	 -21.9134 	 -49.6693 	 
C 	 -80.5605 	 -22.3931 	 -49.3724 	 
H 	 -80.1582 	 -23.2708 	 -48.7776 	 
H 	 -80.8119 	 -21.6386 	 -48.6582 	 
C 	 -81.9201 	 -22.7404 	 -50.1346 	 
H 	 -82.7782 	 -22.6774 	 -49.5744 	 
H 	 -82.0887 	 -22.0421 	 -50.919 	 
H 	 -81.8602 	 -23.7105 	 -50.6321 	 
S 	 -78.6521 	 -26.3941 	 -53.6734 	 
C 	 -77.3639 	 -27.2331 	 -54.5839 	 
C 	 -76.455 	 -26.291 	 -55.0023 	 
C 	 -76.7581 	 -24.9758 	 -54.6181 	 
C 	 -77.812 	 -24.8348 	 -53.7437 	 
H 	 -75.6413 	 -26.5458 	 -55.6167 	 
C 	 -75.9021 	 -23.8129 	 -55.0948 	 
H 	 -75.1137 	 -23.7176 	 -54.3649 	 
H 	 -76.3882 	 -22.8351 	 -55.1094 	 
C 	 -75.2876 	 -23.7881 	 -56.4843 	 
H 	 -74.57 	 -24.5907 	 -56.4355 	 
H 	 -74.4883 	 -23.0267 	 -56.6092 	 
C 	 -76.2524 	 -24.0115 	 -57.668 	 
H 	 -75.8777 	 -24.8518 	 -58.3174 	 
H 	 -76.3415 	 -23.0189 	 -58.1858 	 
H 	 -77.2864 	 -24.334 	 -57.3199 	 
H 	 -80.1704 	 -20.5359 	 -52.7717 	 
H 	 -77.423 	 -28.2521 	 -54.9546 	 
*
