! wB97X-D3 SP def2-SVP
%pal
nprocs 24
end

* xyz 0 1
S 	 -106.601 	 33.7672 	 -16.1149 	 
C 	 -105.516 	 35.1488 	 -15.828 	 
C 	 -105.467 	 36.0042 	 -16.9094 	 
C 	 -106.209 	 35.4744 	 -18.0176 	 
C 	 -106.863 	 34.2679 	 -17.786 	 
H 	 -106.276 	 35.8976 	 -19.0219 	 
C 	 -104.621 	 37.2655 	 -16.8656 	 
H 	 -104.87 	 37.7357 	 -15.9486 	 
H 	 -104.949 	 37.8522 	 -17.7265 	 
C 	 -103.164 	 37.0639 	 -16.8189 	 
H 	 -102.723 	 36.4585 	 -16.0378 	 
H 	 -102.92 	 36.6832 	 -17.8337 	 
C 	 -102.37 	 38.4312 	 -16.7659 	 
H 	 -101.352 	 38.4184 	 -16.93 	 
H 	 -102.747 	 39.1422 	 -17.4671 	 
H 	 -102.643 	 38.778 	 -15.7856 	 
S 	 -108.646 	 34.6131 	 -19.8497 	 
C 	 -109.39 	 33.1911 	 -20.6743 	 
C 	 -109.031 	 32.0436 	 -20.0394 	 
C 	 -108.108 	 32.2106 	 -18.9153 	 
C 	 -107.67 	 33.5551 	 -18.7895 	 
H 	 -109.454 	 31.1104 	 -20.42 	 
C 	 -107.56 	 31.0438 	 -18.101 	 
H 	 -106.736 	 31.332 	 -17.4332 	 
H 	 -107.092 	 30.3718 	 -18.8101 	 
C 	 -108.709 	 30.4578 	 -17.134 	 
H 	 -109.525 	 29.8312 	 -17.5857 	 
H 	 -109.281 	 31.2592 	 -16.6368 	 
C 	 -108.024 	 29.639 	 -15.9872 	 
H 	 -107.614 	 28.6467 	 -16.3505 	 
H 	 -108.714 	 29.3302 	 -15.2104 	 
H 	 -107.242 	 30.1823 	 -15.4074 	 
H 	 -105.057 	 35.5175 	 -14.8525 	 
H 	 -110.091 	 33.1541 	 -21.4576 	 
*
