! wB97X-D3 SP def2-SVP
%pal
nprocs 24
end

* xyz 0 1
S 	 -42.9279 	 -2.007 	 -27.3667 	 
C 	 -43.7956 	 -0.801283 	 -26.526 	 
C 	 -44.3986 	 -1.30163 	 -25.3523 	 
C 	 -44.1647 	 -2.6828 	 -25.2541 	 
C 	 -43.4052 	 -3.203 	 -26.2172 	 
H 	 -44.6229 	 -3.29868 	 -24.4544 	 
C 	 -45.206 	 -0.507483 	 -24.3345 	 
H 	 -44.4337 	 -0.374518 	 -23.6162 	 
H 	 -46.0104 	 -1.13414 	 -23.8901 	 
C 	 -45.7753 	 0.836329 	 -24.7974 	 
H 	 -46.3313 	 1.12938 	 -23.9084 	 
H 	 -45.076 	 1.59806 	 -25.0644 	 
C 	 -46.9215 	 0.837146 	 -25.8396 	 
H 	 -46.5768 	 0.350557 	 -26.7458 	 
H 	 -47.7936 	 0.35387 	 -25.4446 	 
H 	 -47.2283 	 1.85656 	 -26.0763 	 
S 	 -42.3248 	 -4.95074 	 -27.9963 	 
C 	 -42.3164 	 -6.69141 	 -27.6356 	 
C 	 -42.6423 	 -6.90509 	 -26.3904 	 
C 	 -42.8776 	 -5.70002 	 -25.6339 	 
C 	 -43.0432 	 -4.59073 	 -26.4432 	 
H 	 -42.6707 	 -7.92689 	 -26.0615 	 
C 	 -43.0838 	 -5.78545 	 -24.2049 	 
H 	 -44.0874 	 -5.48944 	 -24.0706 	 
H 	 -42.638 	 -4.94689 	 -23.7014 	 
C 	 -42.648 	 -7.02545 	 -23.4869 	 
H 	 -41.5917 	 -7.12267 	 -23.7159 	 
H 	 -43.1603 	 -7.92909 	 -23.8155 	 
C 	 -42.7687 	 -6.812 	 -21.9484 	 
H 	 -43.827 	 -6.61175 	 -21.6229 	 
H 	 -42.2611 	 -5.92896 	 -21.7071 	 
H 	 -42.3068 	 -7.72758 	 -21.4438 	 
H 	 -43.8943 	 0.254018 	 -26.8106 	 
H 	 -41.8172 	 -7.30446 	 -28.3185 	 
*
