! wB97X-D3 SP def2-SVP
%pal
nprocs 24
end

* xyz 0 1
S 	 -134.141 	 30.2862 	 -19.7763 	 
C 	 -133.514 	 28.9476 	 -18.7729 	 
C 	 -133.446 	 27.7933 	 -19.5877 	 
C 	 -133.856 	 28.0744 	 -20.9396 	 
C 	 -134.372 	 29.3258 	 -21.1458 	 
H 	 -133.93 	 27.3307 	 -21.6918 	 
C 	 -132.986 	 26.4409 	 -19.2776 	 
H 	 -133.753 	 25.7308 	 -19.7483 	 
H 	 -133.079 	 26.304 	 -18.222 	 
C 	 -131.593 	 26.0443 	 -19.7509 	 
H 	 -131.5 	 24.9776 	 -19.9154 	 
H 	 -131.577 	 26.3626 	 -20.8177 	 
C 	 -130.411 	 26.509 	 -18.8609 	 
H 	 -129.666 	 25.7366 	 -18.7742 	 
H 	 -129.883 	 27.4357 	 -19.0672 	 
H 	 -130.847 	 26.6493 	 -17.9427 	 
S 	 -136.414 	 29.3391 	 -22.9497 	 
C 	 -136.388 	 30.36 	 -24.3402 	 
C 	 -135.338 	 31.2147 	 -24.3282 	 
C 	 -134.506 	 30.9921 	 -23.1751 	 
C 	 -134.901 	 29.8898 	 -22.3912 	 
H 	 -135.33 	 31.7899 	 -25.2364 	 
C 	 -133.293 	 31.8541 	 -22.9451 	 
H 	 -133.562 	 32.3338 	 -21.9803 	 
H 	 -133.458 	 32.7458 	 -23.5295 	 
C 	 -131.91 	 31.1373 	 -23.0603 	 
H 	 -131.899 	 30.3105 	 -23.7606 	 
H 	 -131.615 	 30.5263 	 -22.1722 	 
C 	 -130.914 	 32.2327 	 -23.4452 	 
H 	 -129.856 	 31.9917 	 -23.4492 	 
H 	 -130.997 	 33.1937 	 -22.9539 	 
H 	 -130.965 	 32.403 	 -24.4982 	 
H 	 -133.307 	 29.0228 	 -17.7631 	 
H 	 -136.997 	 30.2846 	 -25.1596 	 
*
