! wB97X-D3 SP def2-SVP
%pal
nprocs 24
end

* xyz 0 1
S 	 -45.3818 	 29.4159 	 31.3105 	 
C 	 -47.0496 	 29.4859 	 31.7539 	 
C 	 -47.7365 	 28.3713 	 31.3842 	 
C 	 -46.9039 	 27.3879 	 30.7391 	 
C 	 -45.6134 	 27.8418 	 30.5776 	 
H 	 -47.2152 	 26.4905 	 30.2925 	 
C 	 -49.1796 	 28.0713 	 31.6279 	 
H 	 -49.3326 	 28.6318 	 32.5537 	 
H 	 -49.2535 	 26.9431 	 31.7632 	 
C 	 -50.233 	 28.6658 	 30.7126 	 
H 	 -51.2173 	 28.5424 	 31.1449 	 
H 	 -50.0395 	 29.7378 	 30.7062 	 
C 	 -50.2445 	 28.0188 	 29.2938 	 
H 	 -50.4388 	 26.9219 	 29.2913 	 
H 	 -51.1433 	 28.445 	 28.7849 	 
H 	 -49.2365 	 27.9986 	 28.9159 	 
S 	 -44.5243 	 27.8028 	 28.1156 	 
C 	 -43.3392 	 26.635 	 27.6459 	 
C 	 -43.0164 	 25.8033 	 28.7212 	 
C 	 -43.8225 	 26.0657 	 29.8657 	 
C 	 -44.6353 	 27.2029 	 29.711 	 
H 	 -42.2313 	 25.0526 	 28.4677 	 
C 	 -43.832 	 25.2139 	 31.0982 	 
H 	 -43.1989 	 24.4079 	 30.9404 	 
H 	 -44.888 	 24.8111 	 31.3475 	 
C 	 -43.2061 	 25.8797 	 32.2889 	 
H 	 -43.6789 	 26.8861 	 32.2617 	 
H 	 -42.1205 	 26.0669 	 32.1153 	 
C 	 -43.5689 	 25.4804 	 33.6611 	 
H 	 -44.6483 	 25.4522 	 33.9365 	 
H 	 -43.0453 	 26.099 	 34.4123 	 
H 	 -43.3069 	 24.4639 	 33.6639 	 
H 	 -47.4394 	 30.3108 	 32.3528 	 
H 	 -42.978 	 26.6089 	 26.6671 	 
*
