! wB97X-D3 SP def2-SVP
%pal
nprocs 24
end

* xyz 0 1
S 	 -140.488 	 22.5393 	 -19.9316 	 
C 	 -142.036 	 21.6235 	 -19.7773 	 
C 	 -142.963 	 22.2746 	 -19.0496 	 
C 	 -142.367 	 23.3827 	 -18.4068 	 
C 	 -141.068 	 23.6398 	 -18.7267 	 
H 	 -142.866 	 24.1241 	 -17.8881 	 
C 	 -144.432 	 21.9518 	 -19.0787 	 
H 	 -144.619 	 21.0805 	 -18.3848 	 
H 	 -144.685 	 21.5548 	 -20.0509 	 
C 	 -145.461 	 23.0524 	 -18.7634 	 
H 	 -145.446 	 23.1235 	 -17.7196 	 
H 	 -145.144 	 24.004 	 -19.193 	 
C 	 -146.871 	 22.8165 	 -19.2088 	 
H 	 -147.278 	 21.8187 	 -19.1313 	 
H 	 -147.532 	 23.4341 	 -18.6234 	 
H 	 -147.022 	 23.1875 	 -20.2289 	 
S 	 -140.004 	 25.9134 	 -19.8864 	 
C 	 -139.139 	 27.024 	 -18.8715 	 
C 	 -139.133 	 26.6362 	 -17.5884 	 
C 	 -139.807 	 25.4475 	 -17.3473 	 
C 	 -140.311 	 24.8674 	 -18.5026 	 
H 	 -138.695 	 27.2461 	 -16.7982 	 
C 	 -139.827 	 24.7313 	 -15.9795 	 
H 	 -138.779 	 24.363 	 -15.7352 	 
H 	 -140.42 	 23.8038 	 -15.913 	 
C 	 -140.394 	 25.6957 	 -14.85 	 
H 	 -141.425 	 25.8888 	 -15.0938 	 
H 	 -139.921 	 26.6404 	 -14.8492 	 
C 	 -140.497 	 24.9736 	 -13.4801 	 
H 	 -139.504 	 24.5061 	 -13.2259 	 
H 	 -141.178 	 24.1429 	 -13.5582 	 
H 	 -140.77 	 25.6006 	 -12.67 	 
H 	 -142.265 	 20.7454 	 -20.4098 	 
H 	 -138.417 	 27.7053 	 -19.2871 	 
*
