! wB97X-D3 SP def2-SVP
%pal
nprocs 24
end

* xyz 0 1
S 	 -58.5297 	 -0.221593 	 -28.0107 	 
C 	 -59.8967 	 0.891177 	 -27.8612 	 
C 	 -60.0622 	 1.6533 	 -29.0094 	 
C 	 -59.0253 	 1.53126 	 -29.9315 	 
C 	 -58.1017 	 0.606419 	 -29.5483 	 
H 	 -58.8858 	 2.10362 	 -30.8266 	 
C 	 -61.1848 	 2.62048 	 -29.2602 	 
H 	 -60.8328 	 3.54017 	 -29.0587 	 
H 	 -61.9704 	 2.52452 	 -28.496 	 
C 	 -61.8714 	 2.5856 	 -30.6852 	 
H 	 -61.0519 	 2.4835 	 -31.4438 	 
H 	 -62.4644 	 1.69789 	 -30.8093 	 
C 	 -62.923 	 3.71797 	 -30.9834 	 
H 	 -63.6641 	 3.66299 	 -30.1948 	 
H 	 -62.4869 	 4.69586 	 -30.9679 	 
H 	 -63.1589 	 3.60633 	 -32.0033 	 
S 	 -55.4309 	 0.173615 	 -29.4421 	 
C 	 -54.5735 	 -0.263909 	 -30.8465 	 
C 	 -55.3599 	 -0.349173 	 -31.9531 	 
C 	 -56.7464 	 -0.180952 	 -31.6453 	 
C 	 -56.9544 	 0.231312 	 -30.3118 	 
H 	 -54.9207 	 -0.512738 	 -32.9349 	 
C 	 -57.7555 	 -0.488478 	 -32.6649 	 
H 	 -58.5264 	 0.324758 	 -32.6431 	 
H 	 -58.4093 	 -1.28922 	 -32.3152 	 
C 	 -57.3732 	 -0.746814 	 -34.1676 	 
H 	 -56.7306 	 -1.65725 	 -34.1904 	 
H 	 -56.8371 	 0.0337282 	 -34.5577 	 
C 	 -58.5776 	 -0.966571 	 -35.1691 	 
H 	 -59.0274 	 -0.00212986 	 -35.359 	 
H 	 -59.2921 	 -1.70913 	 -34.8602 	 
H 	 -58.2595 	 -1.29373 	 -36.1757 	 
H 	 -60.6267 	 0.743678 	 -27.0757 	 
H 	 -53.5171 	 -0.406761 	 -30.8178 	 
*
