! wB97X-D3 SP def2-SVP
%pal
nprocs 24
end

* xyz 0 1
S 	 8.94109 	 -17.1567 	 -111.986 	 
C 	 7.85234 	 -16.8796 	 -113.299 	 
C 	 6.53601 	 -17.0642 	 -112.903 	 
C 	 6.3911 	 -17.4676 	 -111.508 	 
C 	 7.66051 	 -17.4375 	 -110.866 	 
H 	 5.44584 	 -17.6457 	 -110.947 	 
C 	 5.37729 	 -17.2907 	 -113.785 	 
H 	 5.41313 	 -16.3528 	 -114.401 	 
H 	 4.43048 	 -17.1564 	 -113.254 	 
C 	 5.21029 	 -18.633 	 -114.636 	 
H 	 5.93023 	 -18.5316 	 -115.401 	 
H 	 5.50183 	 -19.3719 	 -113.909 	 
C 	 3.82314 	 -18.8269 	 -115.152 	 
H 	 3.83993 	 -19.8174 	 -115.687 	 
H 	 3.0613 	 -18.7267 	 -114.392 	 
H 	 3.63758 	 -18.0847 	 -115.956 	 
S 	 8.72023 	 -19.4267 	 -109.318 	 
C 	 8.60422 	 -19.3201 	 -107.545 	 
C 	 8.26459 	 -18.0108 	 -107.215 	 
C 	 7.95319 	 -17.1855 	 -108.284 	 
C 	 8.03456 	 -17.8178 	 -109.512 	 
H 	 8.09316 	 -17.6343 	 -106.222 	 
C 	 7.48092 	 -15.7842 	 -108.002 	 
H 	 7.17222 	 -15.1482 	 -108.89 	 
H 	 8.29028 	 -15.2938 	 -107.444 	 
C 	 6.31999 	 -15.6574 	 -106.916 	 
H 	 6.21786 	 -14.6853 	 -106.487 	 
H 	 6.43909 	 -16.4141 	 -106.159 	 
C 	 4.96236 	 -15.9649 	 -107.459 	 
H 	 4.27039 	 -15.8282 	 -106.665 	 
H 	 4.9701 	 -16.9898 	 -107.801 	 
H 	 4.63996 	 -15.3738 	 -108.36 	 
H 	 8.18254 	 -17.0702 	 -114.333 	 
H 	 8.84579 	 -20.1568 	 -106.794 	 
*
