! wB97X-D3 SP def2-SVP
%pal
nprocs 24
end

* xyz 0 1
S 	 -80.4276 	 3.48761 	 -113.659 	 
C 	 -80.6056 	 1.74817 	 -113.421 	 
C 	 -81.5851 	 1.23588 	 -114.267 	 
C 	 -82.149 	 2.24423 	 -115.13 	 
C 	 -81.6247 	 3.49398 	 -114.893 	 
H 	 -82.9005 	 1.96296 	 -115.862 	 
C 	 -81.8328 	 -0.240913 	 -114.515 	 
H 	 -81.4302 	 -0.409521 	 -115.527 	 
H 	 -82.9371 	 -0.394181 	 -114.457 	 
C 	 -81.1398 	 -1.26133 	 -113.623 	 
H 	 -81.2979 	 -2.21622 	 -114.145 	 
H 	 -80.0475 	 -1.06753 	 -113.697 	 
C 	 -81.8475 	 -1.28811 	 -112.286 	 
H 	 -82.9034 	 -1.44994 	 -112.473 	 
H 	 -81.5152 	 -2.03257 	 -111.556 	 
H 	 -81.8039 	 -0.345464 	 -111.841 	 
S 	 -80.6792 	 5.534 	 -116.601 	 
C 	 -81.6969 	 6.73399 	 -117.237 	 
C 	 -82.9439 	 6.52444 	 -116.685 	 
C 	 -83.1122 	 5.39675 	 -115.827 	 
C 	 -81.9169 	 4.71363 	 -115.611 	 
H 	 -83.8122 	 7.11314 	 -117.132 	 
C 	 -84.4884 	 4.99025 	 -115.339 	 
H 	 -84.7008 	 3.93173 	 -115.646 	 
H 	 -85.2168 	 5.44583 	 -116.002 	 
C 	 -84.818 	 5.25397 	 -113.923 	 
H 	 -84.1245 	 4.77083 	 -113.202 	 
H 	 -85.7288 	 4.70139 	 -113.642 	 
C 	 -84.988 	 6.76185 	 -113.585 	 
H 	 -85.6238 	 7.2285 	 -114.279 	 
H 	 -84.0416 	 7.27972 	 -113.512 	 
H 	 -85.4892 	 6.88056 	 -112.549 	 
H 	 -79.9922 	 1.12062 	 -112.816 	 
H 	 -81.3458 	 7.5167 	 -117.899 	 
*
