! wB97X-D3 SP def2-SVP
%pal
nprocs 24
end

* xyz 0 1
S 	 45.9965 	 -19.8524 	 -110.787 	 
C 	 47.1698 	 -20.757 	 -109.826 	 
C 	 46.7275 	 -22.0322 	 -109.712 	 
C 	 45.5574 	 -22.3168 	 -110.393 	 
C 	 45.0233 	 -21.2762 	 -111.111 	 
H 	 45.0697 	 -23.2257 	 -110.305 	 
C 	 47.442 	 -23.1024 	 -108.906 	 
H 	 47.0817 	 -24.0736 	 -109.339 	 
H 	 47.0975 	 -22.9891 	 -107.85 	 
C 	 48.9899 	 -23.1264 	 -109.036 	 
H 	 49.2426 	 -22.1211 	 -108.732 	 
H 	 49.4452 	 -23.8257 	 -108.363 	 
C 	 49.5436 	 -23.339 	 -110.407 	 
H 	 50.5277 	 -23.7614 	 -110.525 	 
H 	 48.9481 	 -24.0506 	 -110.96 	 
H 	 49.5941 	 -22.4671 	 -111.154 	 
S 	 42.5683 	 -19.8615 	 -111.112 	 
C 	 41.1835 	 -20.7266 	 -111.845 	 
C 	 41.5409 	 -21.9542 	 -112.338 	 
C 	 42.9264 	 -22.2062 	 -112.243 	 
C 	 43.6578 	 -21.1645 	 -111.629 	 
H 	 40.7146 	 -22.5532 	 -112.711 	 
C 	 43.5014 	 -23.5242 	 -112.79 	 
H 	 43.2485 	 -24.2698 	 -112.077 	 
H 	 44.6203 	 -23.4364 	 -112.772 	 
C 	 43.1957 	 -23.957 	 -114.258 	 
H 	 42.2008 	 -24.3895 	 -114.197 	 
H 	 43.8254 	 -24.8497 	 -114.482 	 
C 	 43.1575 	 -22.954 	 -115.413 	 
H 	 42.8193 	 -23.4759 	 -116.262 	 
H 	 44.1213 	 -22.5026 	 -115.525 	 
H 	 42.5226 	 -22.1557 	 -115.151 	 
H 	 48.127 	 -20.3578 	 -109.563 	 
H 	 40.159 	 -20.3882 	 -111.858 	 
*
