! wB97X-D3 SP def2-SVP
%pal
nprocs 24
end

* xyz 0 1
S 	 -52.4319 	 -49.5333 	 -74.0874 	 
C 	 -53.0838 	 -48.1965 	 -74.9872 	 
C 	 -52.1101 	 -47.3993 	 -75.4486 	 
C 	 -50.8144 	 -47.9729 	 -75.176 	 
C 	 -50.7744 	 -49.068 	 -74.3732 	 
H 	 -49.8575 	 -47.4251 	 -75.4097 	 
C 	 -52.4302 	 -46.1211 	 -76.2214 	 
H 	 -51.4919 	 -45.5178 	 -76.3159 	 
H 	 -53.0107 	 -45.496 	 -75.5632 	 
C 	 -53.2336 	 -46.1809 	 -77.5216 	 
H 	 -54.1849 	 -46.7031 	 -77.3508 	 
H 	 -53.683 	 -45.1921 	 -77.6961 	 
C 	 -52.4042 	 -46.6477 	 -78.6623 	 
H 	 -53.0771 	 -46.8155 	 -79.5244 	 
H 	 -51.6761 	 -45.8548 	 -78.7619 	 
H 	 -51.9555 	 -47.5933 	 -78.4375 	 
S 	 -49.5414 	 -51.4734 	 -75.0641 	 
C 	 -47.8674 	 -51.7763 	 -74.687 	 
C 	 -47.448 	 -50.8087 	 -73.8064 	 
C 	 -48.4521 	 -49.8836 	 -73.387 	 
C 	 -49.649 	 -50.0308 	 -74.1126 	 
H 	 -46.4062 	 -50.7324 	 -73.428 	 
C 	 -48.1215 	 -48.799 	 -72.4041 	 
H 	 -48.2446 	 -47.7802 	 -72.8309 	 
H 	 -47.058 	 -48.8841 	 -72.1173 	 
C 	 -49.109 	 -48.7169 	 -71.1879 	 
H 	 -49.1465 	 -49.6368 	 -70.6337 	 
H 	 -50.136 	 -48.5564 	 -71.6017 	 
C 	 -48.7404 	 -47.6366 	 -70.0939 	 
H 	 -48.9782 	 -46.6586 	 -70.4916 	 
H 	 -47.7163 	 -47.5879 	 -69.8496 	 
H 	 -49.3715 	 -47.8446 	 -69.1866 	 
H 	 -54.0834 	 -47.9161 	 -75.079 	 
H 	 -47.2897 	 -52.5984 	 -75.1646 	 
*
