! wB97X-D3 SP def2-SVP
%pal
nprocs 24
end

* xyz 0 1
S 	 -52.0046 	 24.2678 	 -92.49 	 
C 	 -50.4929 	 24.8182 	 -93.16 	 
C 	 -49.935 	 24.0507 	 -94.134 	 
C 	 -50.7267 	 22.883 	 -94.35 	 
C 	 -51.7818 	 22.7487 	 -93.4221 	 
H 	 -50.6302 	 22.1513 	 -95.1152 	 
C 	 -48.7341 	 24.375 	 -94.9032 	 
H 	 -48.8545 	 25.4019 	 -95.2035 	 
H 	 -48.7562 	 23.7938 	 -95.8801 	 
C 	 -47.3875 	 24.1255 	 -94.201 	 
H 	 -47.4642 	 23.1484 	 -93.699 	 
H 	 -46.6342 	 24.1501 	 -94.966 	 
C 	 -47.0526 	 25.1967 	 -93.1333 	 
H 	 -47.759 	 25.273 	 -92.3651 	 
H 	 -46.1445 	 24.8821 	 -92.6859 	 
H 	 -47.0042 	 26.2208 	 -93.4556 	 
S 	 -54.4328 	 22.1058 	 -93.7213 	 
C 	 -54.9044 	 20.4573 	 -93.6273 	 
C 	 -53.821 	 19.6237 	 -93.3226 	 
C 	 -52.5346 	 20.3204 	 -93.2489 	 
C 	 -52.7146 	 21.6949 	 -93.4209 	 
H 	 -53.9934 	 18.5565 	 -93.3209 	 
C 	 -51.2668 	 19.5481 	 -92.9239 	 
H 	 -51.2893 	 19.391 	 -91.8264 	 
H 	 -50.4142 	 20.1524 	 -93.2334 	 
C 	 -51.0883 	 18.1721 	 -93.6166 	 
H 	 -51.8293 	 17.4516 	 -93.238 	 
H 	 -50.1727 	 17.6865 	 -93.3102 	 
C 	 -51.0974 	 18.2189 	 -95.1424 	 
H 	 -52.1245 	 18.2804 	 -95.4323 	 
H 	 -50.7151 	 17.3936 	 -95.6921 	 
H 	 -50.7049 	 19.2101 	 -95.48 	 
H 	 -50.0831 	 25.7602 	 -92.7343 	 
H 	 -55.8741 	 20.0453 	 -93.7384 	 
*
