! wB97X-D3 SP def2-SVP
%pal
nprocs 24
end

* xyz 0 1
S 	 -85.0524 	 -19.003 	 -48.3784 	 
C 	 -85.1949 	 -17.295 	 -48.3849 	 
C 	 -84.1488 	 -16.6503 	 -49.0478 	 
C 	 -83.0898 	 -17.5603 	 -49.3879 	 
C 	 -83.3888 	 -18.892 	 -48.9468 	 
H 	 -82.1482 	 -17.3395 	 -49.8932 	 
C 	 -84.0494 	 -15.145 	 -49.4067 	 
H 	 -83.4916 	 -15.1134 	 -50.2296 	 
H 	 -83.4686 	 -14.6528 	 -48.6493 	 
C 	 -85.4123 	 -14.4834 	 -49.7838 	 
H 	 -86.0129 	 -15.0051 	 -50.5132 	 
H 	 -85.9743 	 -14.4421 	 -48.7987 	 
C 	 -85.1908 	 -13.0836 	 -50.2545 	 
H 	 -84.3078 	 -12.6058 	 -49.9034 	 
H 	 -85.1104 	 -13.1043 	 -51.33 	 
H 	 -85.9334 	 -12.3778 	 -50.0433 	 
S 	 -82.4481 	 -20.9938 	 -47.3582 	 
C 	 -81.2429 	 -22.0693 	 -47.9351 	 
C 	 -80.7115 	 -21.5575 	 -49.0852 	 
C 	 -81.3453 	 -20.3869 	 -49.7215 	 
C 	 -82.4712 	 -20.0453 	 -48.9315 	 
H 	 -79.8158 	 -21.9644 	 -49.4514 	 
C 	 -80.7976 	 -19.7231 	 -50.9663 	 
H 	 -79.8312 	 -20.1958 	 -51.1398 	 
H 	 -80.6932 	 -18.5998 	 -50.8516 	 
C 	 -81.7021 	 -19.891 	 -52.1095 	 
H 	 -82.5604 	 -19.2904 	 -52.07 	 
H 	 -82.0084 	 -20.9415 	 -52.0088 	 
C 	 -81.0079 	 -19.7123 	 -53.4726 	 
H 	 -80.1094 	 -20.2836 	 -53.6313 	 
H 	 -80.7142 	 -18.6402 	 -53.5562 	 
H 	 -81.7261 	 -20.0569 	 -54.2172 	 
H 	 -85.9782 	 -16.6901 	 -47.8832 	 
H 	 -80.8386 	 -22.958 	 -47.3828 	 
*
