! wB97X-D3 SP def2-SVP
%pal
nprocs 24
end

* xyz 0 1
S 	 29.6395 	 1.84116 	 -115.936 	 
C 	 27.9897 	 2.47746 	 -115.771 	 
C 	 27.2882 	 1.88171 	 -114.744 	 
C 	 28.0893 	 0.966124 	 -114.017 	 
C 	 29.3981 	 0.898297 	 -114.487 	 
H 	 27.7602 	 0.393294 	 -113.148 	 
C 	 25.7884 	 2.17869 	 -114.447 	 
H 	 25.1499 	 1.48526 	 -114.934 	 
H 	 25.487 	 3.13902 	 -114.917 	 
C 	 25.5353 	 2.12293 	 -112.954 	 
H 	 26.1387 	 1.47804 	 -112.396 	 
H 	 25.8315 	 3.04391 	 -112.55 	 
C 	 24.0103 	 1.92233 	 -112.549 	 
H 	 23.3143 	 1.55398 	 -113.361 	 
H 	 23.9462 	 1.17994 	 -111.799 	 
H 	 23.5405 	 2.83932 	 -112.101 	 
S 	 31.2904 	 -1.11119 	 -114.665 	 
C 	 32.1731 	 -1.53197 	 -113.173 	 
C 	 31.8068 	 -0.821588 	 -112.069 	 
C 	 30.7656 	 0.134433 	 -112.39 	 
C 	 30.3924 	 0.10481 	 -113.744 	 
H 	 32.3538 	 -1.04746 	 -111.247 	 
C 	 30.2192 	 0.923284 	 -111.3 	 
H 	 29.964 	 0.234588 	 -110.572 	 
H 	 29.2903 	 1.39867 	 -111.66 	 
C 	 31.1767 	 1.97943 	 -110.649 	 
H 	 31.4288 	 2.84004 	 -111.29 	 
H 	 32.1553 	 1.48854 	 -110.397 	 
C 	 30.7063 	 2.51125 	 -109.321 	 
H 	 30.2817 	 1.70205 	 -108.817 	 
H 	 29.7903 	 3.06268 	 -109.505 	 
H 	 31.4553 	 3.00396 	 -108.653 	 
H 	 27.4709 	 3.13802 	 -116.52 	 
H 	 32.7945 	 -2.45099 	 -113.13 	 
*
