! wB97X-D3 SP def2-SVP
%pal
nprocs 24
end

* xyz 0 1
S 	 -41.5765 	 -52.6223 	 -71.8375 	 
C 	 -39.8296 	 -52.4543 	 -71.6366 	 
C 	 -39.2611 	 -53.4238 	 -72.4855 	 
C 	 -40.2003 	 -54.084 	 -73.3818 	 
C 	 -41.4472 	 -53.5697 	 -73.2928 	 
H 	 -39.9233 	 -54.6748 	 -74.2613 	 
C 	 -37.7815 	 -53.7583 	 -72.4735 	 
H 	 -37.1326 	 -52.9227 	 -72.1693 	 
H 	 -37.5747 	 -53.9045 	 -73.5934 	 
C 	 -37.3876 	 -55.0628 	 -71.7531 	 
H 	 -37.8974 	 -55.9372 	 -72.1724 	 
H 	 -36.3429 	 -55.2915 	 -71.8298 	 
C 	 -37.64 	 -55.0939 	 -70.2312 	 
H 	 -37.3069 	 -56.013 	 -69.68 	 
H 	 -37.0818 	 -54.3612 	 -69.6744 	 
H 	 -38.7034 	 -54.794 	 -70.0598 	 
S 	 -43.3184 	 -52.3668 	 -74.7696 	 
C 	 -44.5335 	 -53.3625 	 -75.5757 	 
C 	 -44.3276 	 -54.7091 	 -75.3974 	 
C 	 -43.1233 	 -54.9893 	 -74.6441 	 
C 	 -42.4933 	 -53.8015 	 -74.2199 	 
H 	 -44.9795 	 -55.3865 	 -75.9269 	 
C 	 -42.7161 	 -56.3964 	 -74.3755 	 
H 	 -41.7362 	 -56.5295 	 -74.7688 	 
H 	 -43.271 	 -57.1599 	 -74.9452 	 
C 	 -42.7158 	 -56.8417 	 -72.8985 	 
H 	 -43.6835 	 -56.6729 	 -72.4062 	 
H 	 -42.061 	 -56.2291 	 -72.3189 	 
C 	 -42.3599 	 -58.3281 	 -72.5793 	 
H 	 -42.7162 	 -58.5354 	 -71.5406 	 
H 	 -41.2626 	 -58.4232 	 -72.4347 	 
H 	 -42.8926 	 -59.0533 	 -73.2121 	 
H 	 -39.333 	 -51.982 	 -70.7795 	 
H 	 -45.2347 	 -52.9889 	 -76.3528 	 
*
