! wB97X-D3 SP def2-SVP
%pal
nprocs 24
end

* xyz 0 1
S 	 -120.412 	 34.9209 	 -123.179 	 
C 	 -119.677 	 33.3987 	 -123.369 	 
C 	 -119.685 	 32.6452 	 -122.221 	 
C 	 -120.198 	 33.3723 	 -121.092 	 
C 	 -120.667 	 34.5734 	 -121.527 	 
H 	 -120.267 	 32.9839 	 -120.113 	 
C 	 -119.272 	 31.2333 	 -122.185 	 
H 	 -119.806 	 30.7287 	 -122.958 	 
H 	 -119.494 	 30.849 	 -121.156 	 
C 	 -117.795 	 30.9317 	 -122.556 	 
H 	 -117.594 	 29.8112 	 -122.495 	 
H 	 -117.438 	 31.3618 	 -123.529 	 
C 	 -116.71 	 31.3218 	 -121.435 	 
H 	 -117.003 	 31.2791 	 -120.386 	 
H 	 -115.791 	 30.8398 	 -121.587 	 
H 	 -116.417 	 32.3207 	 -121.481 	 
S 	 -122.91 	 35.7024 	 -120.586 	 
C 	 -122.833 	 37.2043 	 -119.826 	 
C 	 -121.548 	 37.4722 	 -119.364 	 
C 	 -120.606 	 36.5319 	 -119.855 	 
C 	 -121.224 	 35.59 	 -120.675 	 
H 	 -121.285 	 38.2649 	 -118.72 	 
C 	 -119.161 	 36.6579 	 -119.531 	 
H 	 -119.021 	 37.4256 	 -118.777 	 
H 	 -118.517 	 37.001 	 -120.385 	 
C 	 -118.477 	 35.4244 	 -118.932 	 
H 	 -117.578 	 35.8025 	 -118.436 	 
H 	 -118.099 	 34.6963 	 -119.588 	 
C 	 -119.225 	 34.7303 	 -117.772 	 
H 	 -120.045 	 34.2398 	 -118.262 	 
H 	 -119.559 	 35.4368 	 -117.013 	 
H 	 -118.576 	 34.0498 	 -117.239 	 
H 	 -119.503 	 32.9392 	 -124.284 	 
H 	 -123.696 	 37.8426 	 -119.597 	 
*
