! wB97X-D3 SP def2-SVP
%pal
nprocs 24
end

* xyz 0 1
S 	 -68.228 	 15.6261 	 -75.3905 	 
C 	 -66.7802 	 15.6737 	 -76.3775 	 
C 	 -65.7101 	 15.1104 	 -75.7231 	 
C 	 -66.0003 	 14.8131 	 -74.302 	 
C 	 -67.3602 	 14.9734 	 -74.0273 	 
H 	 -65.2626 	 14.5016 	 -73.5997 	 
C 	 -64.3048 	 14.9798 	 -76.3154 	 
H 	 -64.2687 	 14.2094 	 -77.1179 	 
H 	 -63.7103 	 14.5728 	 -75.4546 	 
C 	 -63.6778 	 16.329 	 -76.6317 	 
H 	 -62.639 	 16.1032 	 -76.8508 	 
H 	 -64.1716 	 16.6888 	 -77.5554 	 
C 	 -63.7953 	 17.4292 	 -75.548 	 
H 	 -64.7835 	 17.7505 	 -75.326 	 
H 	 -63.2835 	 17.13 	 -74.5795 	 
H 	 -63.3526 	 18.3811 	 -75.8665 	 
S 	 -69.5006 	 13.5768 	 -72.8975 	 
C 	 -69.6199 	 13.5607 	 -71.0945 	 
C 	 -68.5511 	 14.2193 	 -70.5185 	 
C 	 -67.6324 	 14.7703 	 -71.4943 	 
C 	 -67.9949 	 14.5645 	 -72.7928 	 
H 	 -68.3591 	 14.2596 	 -69.478 	 
C 	 -66.4061 	 15.6099 	 -71.1272 	 
H 	 -66.7024 	 16.3966 	 -70.3802 	 
H 	 -66.0999 	 16.1574 	 -71.9513 	 
C 	 -65.2866 	 14.6453 	 -70.7238 	 
H 	 -65.112 	 13.7199 	 -71.3001 	 
H 	 -65.4815 	 14.3791 	 -69.6931 	 
C 	 -63.9089 	 15.2805 	 -70.6522 	 
H 	 -64.0324 	 16.1538 	 -70.0231 	 
H 	 -63.6816 	 15.6217 	 -71.6378 	 
H 	 -63.1513 	 14.5873 	 -70.2772 	 
H 	 -66.8034 	 15.8736 	 -77.4697 	 
H 	 -70.4506 	 13.0601 	 -70.481 	 
*
