! wB97X-D3 SP def2-SVP
%pal
nprocs 24
end

* xyz 0 1
S 	 -47.452 	 9.04535 	 29.5671 	 
C 	 -47.5256 	 8.5837 	 27.9444 	 
C 	 -46.9807 	 9.5754 	 27.1497 	 
C 	 -46.6505 	 10.7463 	 27.8401 	 
C 	 -47.1292 	 10.7437 	 29.1292 	 
H 	 -46.0568 	 11.6003 	 27.4633 	 
C 	 -46.4397 	 9.37349 	 25.7337 	 
H 	 -46.3618 	 8.3265 	 25.5594 	 
H 	 -45.3967 	 9.68006 	 25.8562 	 
C 	 -47.335 	 9.9851 	 24.5214 	 
H 	 -46.7685 	 10.0598 	 23.5767 	 
H 	 -48.2477 	 9.47112 	 24.5337 	 
C 	 -47.6465 	 11.4353 	 24.7274 	 
H 	 -48.2456 	 11.6084 	 25.6081 	 
H 	 -46.7506 	 11.9302 	 24.7292 	 
H 	 -48.2621 	 11.7444 	 23.8466 	 
S 	 -45.7372 	 11.6147 	 31.4396 	 
C 	 -45.8627 	 13.2572 	 31.9762 	 
C 	 -46.6938 	 13.9372 	 31.0892 	 
C 	 -47.2003 	 13.1718 	 29.9903 	 
C 	 -46.9202 	 11.8328 	 30.095 	 
H 	 -46.7228 	 14.9936 	 31.2992 	 
C 	 -47.8547 	 13.7562 	 28.802 	 
H 	 -48.7862 	 14.144 	 29.2552 	 
H 	 -48.1754 	 12.9399 	 28.1051 	 
C 	 -47.1464 	 14.9381 	 28.0426 	 
H 	 -47.2185 	 15.8147 	 28.6963 	 
H 	 -47.7806 	 15.092 	 27.2287 	 
C 	 -45.8289 	 14.6744 	 27.3122 	 
H 	 -45.0721 	 14.2338 	 27.9185 	 
H 	 -45.3746 	 15.5627 	 26.9912 	 
H 	 -46.0404 	 14.0049 	 26.5174 	 
H 	 -47.7816 	 7.5717 	 27.6372 	 
H 	 -45.3905 	 13.6886 	 32.8754 	 
*
