! wB97X-D3 SP def2-SVP
%pal
nprocs 24
end

* xyz 0 1
S 	 -112.329 	 35.9502 	 -116.706 	 
C 	 -113.101 	 34.6476 	 -117.458 	 
C 	 -113.343 	 33.6672 	 -116.503 	 
C 	 -112.918 	 33.9586 	 -115.202 	 
C 	 -112.278 	 35.1734 	 -115.126 	 
H 	 -112.862 	 33.3876 	 -114.261 	 
C 	 -113.796 	 32.2628 	 -116.827 	 
H 	 -114.596 	 32.3204 	 -117.449 	 
H 	 -114.176 	 31.8029 	 -115.964 	 
C 	 -112.804 	 31.2174 	 -117.457 	 
H 	 -112.46 	 31.5424 	 -118.419 	 
H 	 -111.91 	 31.0469 	 -116.822 	 
C 	 -113.489 	 29.8803 	 -117.71 	 
H 	 -113.915 	 29.4784 	 -116.759 	 
H 	 -114.361 	 29.9859 	 -118.387 	 
H 	 -112.777 	 29.1983 	 -118.127 	 
S 	 -109.759 	 35.6038 	 -114.174 	 
C 	 -109.562 	 36.2506 	 -112.521 	 
C 	 -110.772 	 36.7018 	 -112.011 	 
C 	 -111.88 	 36.3623 	 -112.859 	 
C 	 -111.502 	 35.6692 	 -113.995 	 
H 	 -110.808 	 37.1915 	 -111.035 	 
C 	 -113.315 	 36.6962 	 -112.7 	 
H 	 -113.883 	 36.7371 	 -113.555 	 
H 	 -113.3 	 37.6827 	 -112.352 	 
C 	 -113.994 	 35.7939 	 -111.6 	 
H 	 -113.516 	 35.8358 	 -110.562 	 
H 	 -113.967 	 34.7685 	 -112.026 	 
C 	 -115.433 	 36.0984 	 -111.233 	 
H 	 -115.753 	 35.3808 	 -110.563 	 
H 	 -116.046 	 36.1381 	 -112.212 	 
H 	 -115.536 	 37.045 	 -110.717 	 
H 	 -113.574 	 34.5989 	 -118.428 	 
H 	 -108.624 	 36.4692 	 -112.053 	 
*
