! wB97X-D3 SP def2-SVP
%pal
nprocs 24
end

* xyz 0 1
S 	 -86.8698 	 -47.151 	 -80.5068 	 
C 	 -88.5629 	 -46.6292 	 -80.2669 	 
C 	 -89.4085 	 -47.7091 	 -80.3299 	 
C 	 -88.7778 	 -48.987 	 -80.3916 	 
C 	 -87.4305 	 -48.8813 	 -80.5586 	 
H 	 -89.3034 	 -49.9095 	 -80.4891 	 
C 	 -90.9402 	 -47.5833 	 -80.3117 	 
H 	 -91.3538 	 -47.9324 	 -81.2467 	 
H 	 -91.2151 	 -46.533 	 -80.2893 	 
C 	 -91.4892 	 -48.3317 	 -79.0465 	 
H 	 -91.0778 	 -49.3234 	 -78.9402 	 
H 	 -91.2947 	 -47.8988 	 -78.0721 	 
C 	 -92.998 	 -48.6815 	 -78.9894 	 
H 	 -93.2482 	 -49.3074 	 -79.857 	 
H 	 -93.2748 	 -49.3403 	 -78.1426 	 
H 	 -93.6237 	 -47.7938 	 -79.0311 	 
S 	 -85.1328 	 -49.6797 	 -81.8762 	 
C 	 -84.6865 	 -51.3262 	 -81.8052 	 
C 	 -85.4102 	 -52.1155 	 -80.984 	 
C 	 -86.4389 	 -51.3569 	 -80.3711 	 
C 	 -86.4443 	 -50.0027 	 -80.7246 	 
H 	 -85.2571 	 -53.1467 	 -80.9909 	 
C 	 -87.3733 	 -52.0089 	 -79.3496 	 
H 	 -87.8769 	 -52.89 	 -79.7475 	 
H 	 -88.2174 	 -51.3175 	 -79.0704 	 
C 	 -86.572 	 -52.5818 	 -78.1117 	 
H 	 -85.7437 	 -53.2111 	 -78.4177 	 
H 	 -87.2532 	 -53.2442 	 -77.5039 	 
C 	 -86.0323 	 -51.5403 	 -77.2141 	 
H 	 -85.178 	 -51.0714 	 -77.6889 	 
H 	 -85.4903 	 -51.9438 	 -76.4622 	 
H 	 -86.8154 	 -50.9863 	 -76.7459 	 
H 	 -88.8399 	 -45.6594 	 -80.3767 	 
H 	 -83.8826 	 -51.7992 	 -82.3432 	 
*
