! wB97X-D3 SP def2-SVP
%pal
nprocs 24
end

* xyz 0 1
S 	 -146.989 	 14.8353 	 -4.027 	 
C 	 -146.974 	 15.1286 	 -5.80579 	 
C 	 -146.111 	 14.2954 	 -6.40745 	 
C 	 -145.531 	 13.3158 	 -5.53175 	 
C 	 -146.165 	 13.3157 	 -4.25721 	 
H 	 -144.757 	 12.5818 	 -5.70976 	 
C 	 -145.665 	 14.4993 	 -7.81939 	 
H 	 -146.505 	 14.7046 	 -8.51067 	 
H 	 -145.475 	 13.5273 	 -8.1876 	 
C 	 -144.462 	 15.4049 	 -7.94449 	 
H 	 -144.679 	 16.4392 	 -7.58333 	 
H 	 -143.707 	 14.885 	 -7.32684 	 
C 	 -143.94 	 15.5968 	 -9.34141 	 
H 	 -144.701 	 15.8746 	 -10.0667 	 
H 	 -143.147 	 16.3556 	 -9.34994 	 
H 	 -143.541 	 14.6104 	 -9.71891 	 
S 	 -145.752 	 12.6281 	 -1.55336 	 
C 	 -145.746 	 10.9553 	 -1.15459 	 
C 	 -146.208 	 10.1947 	 -2.20009 	 
C 	 -146.339 	 10.8945 	 -3.43121 	 
C 	 -146.188 	 12.2826 	 -3.27262 	 
H 	 -146.505 	 9.12421 	 -2.12111 	 
C 	 -146.496 	 10.1942 	 -4.7874 	 
H 	 -146.231 	 10.7805 	 -5.57977 	 
H 	 -147.51 	 9.99158 	 -4.93418 	 
C 	 -145.671 	 8.96178 	 -5.06446 	 
H 	 -145.87 	 8.06679 	 -4.55149 	 
H 	 -144.564 	 9.17257 	 -4.98553 	 
C 	 -145.933 	 8.47884 	 -6.46098 	 
H 	 -146.978 	 8.14658 	 -6.68273 	 
H 	 -145.359 	 7.61517 	 -6.65299 	 
H 	 -145.71 	 9.24029 	 -7.19155 	 
H 	 -147.385 	 15.9893 	 -6.37553 	 
H 	 -145.714 	 10.6073 	 -0.0985953 	 
*
