! wB97X-D3 SP def2-SVP
%pal
nprocs 24
end

* xyz 0 1
S 	 -141.49 	 7.67123 	 9.83286 	 
C 	 -142.397 	 7.74717 	 8.3428 	 
C 	 -143.594 	 8.37438 	 8.49891 	 
C 	 -143.908 	 8.80687 	 9.85996 	 
C 	 -142.816 	 8.48806 	 10.7047 	 
H 	 -144.794 	 9.23566 	 10.3039 	 
C 	 -144.637 	 8.39508 	 7.41904 	 
H 	 -144.153 	 8.57706 	 6.48645 	 
H 	 -145.249 	 9.32684 	 7.53045 	 
C 	 -145.601 	 7.2671 	 7.28629 	 
H 	 -145.132 	 6.35046 	 7.06961 	 
H 	 -146.086 	 6.97241 	 8.20303 	 
C 	 -146.772 	 7.54773 	 6.32035 	 
H 	 -147.376 	 8.39848 	 6.51274 	 
H 	 -146.474 	 7.60231 	 5.28472 	 
H 	 -147.473 	 6.6987 	 6.37689 	 
S 	 -143.061 	 7.05104 	 12.9454 	 
C 	 -142.815 	 7.81822 	 14.4992 	 
C 	 -142.681 	 9.17735 	 14.3795 	 
C 	 -142.65 	 9.60729 	 13.0159 	 
C 	 -142.863 	 8.58887 	 12.1717 	 
H 	 -142.558 	 9.70137 	 15.3008 	 
C 	 -142.423 	 11.0071 	 12.6086 	 
H 	 -143.183 	 11.6519 	 13.0708 	 
H 	 -142.649 	 11.071 	 11.4775 	 
C 	 -141.048 	 11.6557 	 12.9406 	 
H 	 -140.251 	 11.0365 	 12.5439 	 
H 	 -141.014 	 11.7756 	 14.0187 	 
C 	 -140.933 	 13.052 	 12.3414 	 
H 	 -140.593 	 13.6862 	 13.1062 	 
H 	 -141.845 	 13.6134 	 11.9364 	 
H 	 -140.233 	 13.1162 	 11.516 	 
H 	 -142.156 	 7.30047 	 7.3737 	 
H 	 -142.838 	 7.29813 	 15.4552 	 
*
