! wB97X-D3 SP def2-SVP
%pal
nprocs 24
end

* xyz 0 1
S 	 -125.865 	 63.8408 	 -56.0767 	 
C 	 -124.38 	 64.2703 	 -55.2974 	 
C 	 -124.15 	 63.6138 	 -54.1244 	 
C 	 -125.256 	 62.6744 	 -53.858 	 
C 	 -126.218 	 62.653 	 -54.8739 	 
H 	 -125.462 	 61.9693 	 -53.069 	 
C 	 -123.007 	 63.8084 	 -53.202 	 
H 	 -122.428 	 64.725 	 -53.4697 	 
H 	 -122.329 	 62.9497 	 -53.4196 	 
C 	 -123.218 	 63.8678 	 -51.7043 	 
H 	 -123.613 	 62.8324 	 -51.5368 	 
H 	 -122.352 	 64.1689 	 -51.011 	 
C 	 -124.362 	 64.8688 	 -51.3938 	 
H 	 -125.319 	 64.55 	 -51.862 	 
H 	 -124.485 	 64.9689 	 -50.3102 	 
H 	 -123.997 	 65.8523 	 -51.813 	 
S 	 -127.956 	 61.1509 	 -56.3564 	 
C 	 -129.444 	 60.4777 	 -55.6458 	 
C 	 -129.467 	 60.7747 	 -54.3066 	 
C 	 -128.416 	 61.661 	 -53.8522 	 
C 	 -127.481 	 61.956 	 -54.8812 	 
H 	 -130.285 	 60.3071 	 -53.7017 	 
C 	 -128.43 	 62.1022 	 -52.4036 	 
H 	 -129.363 	 62.6478 	 -52.2462 	 
H 	 -127.696 	 62.9031 	 -52.1696 	 
C 	 -128.487 	 61.0087 	 -51.3913 	 
H 	 -127.83 	 60.1812 	 -51.6507 	 
H 	 -129.533 	 60.628 	 -51.4328 	 
C 	 -128.163 	 61.462 	 -49.9184 	 
H 	 -127.502 	 62.2918 	 -49.9495 	 
H 	 -127.637 	 60.7212 	 -49.3817 	 
H 	 -129.046 	 61.6454 	 -49.3497 	 
H 	 -123.672 	 65.032 	 -55.551 	 
H 	 -130.111 	 59.7572 	 -56.1887 	 
*
