! wB97X-D3 SP def2-SVP
%pal
nprocs 24
end

* xyz 0 1
S 	 -80.1602 	 5.29947 	 -109.027 	 
C 	 -80.6376 	 5.35533 	 -110.696 	 
C 	 -80.6298 	 6.66055 	 -111.132 	 
C 	 -79.9415 	 7.53203 	 -110.211 	 
C 	 -79.4274 	 6.90717 	 -109.166 	 
H 	 -79.5937 	 8.50785 	 -110.454 	 
C 	 -81.2296 	 7.1102 	 -112.523 	 
H 	 -82.1897 	 7.52364 	 -112.26 	 
H 	 -81.3449 	 6.20785 	 -113.084 	 
C 	 -80.2766 	 7.95277 	 -113.372 	 
H 	 -80.7831 	 8.15929 	 -114.378 	 
H 	 -80.0255 	 8.89831 	 -112.878 	 
C 	 -78.8259 	 7.3725 	 -113.597 	 
H 	 -78.4618 	 6.83015 	 -112.74 	 
H 	 -78.7002 	 6.68761 	 -114.439 	 
H 	 -78.0241 	 8.04427 	 -113.838 	 
S 	 -77.066 	 6.52037 	 -107.946 	 
C 	 -76.5665 	 7.7003 	 -106.678 	 
C 	 -77.4458 	 8.73848 	 -106.554 	 
C 	 -78.554 	 8.70811 	 -107.478 	 
C 	 -78.5458 	 7.43903 	 -108.148 	 
H 	 -77.3107 	 9.49088 	 -105.769 	 
C 	 -79.6415 	 9.77867 	 -107.519 	 
H 	 -80.0484 	 10.0105 	 -106.643 	 
H 	 -80.424 	 9.41345 	 -108.145 	 
C 	 -79.1115 	 11.0896 	 -108.099 	 
H 	 -78.6306 	 10.8358 	 -109.016 	 
H 	 -78.3226 	 11.6312 	 -107.444 	 
C 	 -80.2355 	 12.0617 	 -108.376 	 
H 	 -79.7882 	 12.7945 	 -108.973 	 
H 	 -80.6091 	 12.5867 	 -107.466 	 
H 	 -81.1048 	 11.7175 	 -108.842 	 
H 	 -81.0367 	 4.5167 	 -111.313 	 
H 	 -75.7778 	 7.53481 	 -106.009 	 
*
