! wB97X-D3 SP def2-SVP
%pal
nprocs 24
end

* xyz 0 1
S 	 -70.4341 	 11.6311 	 -74.272 	 
C 	 -70.2226 	 12.7153 	 -75.6049 	 
C 	 -69.2746 	 13.6505 	 -75.4342 	 
C 	 -68.8409 	 13.6291 	 -74.0522 	 
C 	 -69.2543 	 12.4954 	 -73.3623 	 
H 	 -68.286 	 14.3898 	 -73.5969 	 
C 	 -69.0208 	 14.6953 	 -76.4997 	 
H 	 -69.942 	 14.9432 	 -77.1333 	 
H 	 -68.3213 	 14.2894 	 -77.1838 	 
C 	 -68.4172 	 16.0959 	 -75.996 	 
H 	 -67.7061 	 15.9345 	 -75.2512 	 
H 	 -67.9008 	 16.6847 	 -76.7581 	 
C 	 -69.5037 	 16.9825 	 -75.4256 	 
H 	 -69.0984 	 17.8546 	 -74.8826 	 
H 	 -70.271 	 17.5656 	 -75.9901 	 
H 	 -69.9729 	 16.4123 	 -74.6266 	 
S 	 -67.7019 	 10.9891 	 -71.6749 	 
C 	 -67.8736 	 11.2285 	 -69.9278 	 
C 	 -68.8338 	 12.2267 	 -69.6575 	 
C 	 -69.4238 	 12.8234 	 -70.8154 	 
C 	 -68.9578 	 12.2018 	 -71.9818 	 
H 	 -68.9893 	 12.4629 	 -68.6133 	 
C 	 -70.6099 	 13.7557 	 -70.7386 	 
H 	 -71.3581 	 13.2191 	 -70.1889 	 
H 	 -71.1062 	 13.8911 	 -71.6874 	 
C 	 -70.33 	 15.12 	 -70.1474 	 
H 	 -69.4616 	 15.5766 	 -70.6916 	 
H 	 -69.9521 	 14.9783 	 -69.1158 	 
C 	 -71.3768 	 16.1901 	 -70.2173 	 
H 	 -71.6873 	 16.4924 	 -71.2366 	 
H 	 -70.9736 	 17.1623 	 -69.9122 	 
H 	 -72.2486 	 15.9435 	 -69.5799 	 
H 	 -70.7642 	 12.7508 	 -76.5333 	 
H 	 -67.3429 	 10.7909 	 -69.0725 	 
*
