! wB97X-D3 SP def2-SVP
%pal
nprocs 24
end

* xyz 0 1
S 	 -91.1481 	 -35.4572 	 -58.2985 	 
C 	 -91.8631 	 -36.8285 	 -57.489 	 
C 	 -92.9709 	 -36.4396 	 -56.8172 	 
C 	 -93.2702 	 -35.044 	 -56.9954 	 
C 	 -92.4157 	 -34.3323 	 -57.8268 	 
H 	 -94.0837 	 -34.5806 	 -56.5054 	 
C 	 -93.8078 	 -37.2916 	 -56.0104 	 
H 	 -94.1907 	 -36.6617 	 -55.2325 	 
H 	 -93.1736 	 -37.9749 	 -55.474 	 
C 	 -95.0007 	 -37.8047 	 -56.7861 	 
H 	 -95.2908 	 -37.1745 	 -57.6061 	 
H 	 -94.5377 	 -38.6493 	 -57.2593 	 
C 	 -96.2496 	 -38.274 	 -55.9236 	 
H 	 -97.1526 	 -38.5792 	 -56.453 	 
H 	 -95.9521 	 -39.1629 	 -55.3439 	 
H 	 -96.6034 	 -37.5664 	 -55.1437 	 
S 	 -90.9324 	 -32.0431 	 -58.5282 	 
C 	 -91.791 	 -30.4912 	 -58.8318 	 
C 	 -93.0651 	 -30.6228 	 -58.424 	 
C 	 -93.4508 	 -31.9509 	 -58.0792 	 
C 	 -92.4241 	 -32.8703 	 -58.1244 	 
H 	 -93.7464 	 -29.8213 	 -58.5041 	 
C 	 -94.8938 	 -32.2868 	 -57.8876 	 
H 	 -95.0283 	 -33.2942 	 -58.0715 	 
H 	 -95.4619 	 -31.801 	 -58.6574 	 
C 	 -95.5679 	 -31.8915 	 -56.5526 	 
H 	 -95.3165 	 -30.8596 	 -56.2559 	 
H 	 -95.3258 	 -32.6672 	 -55.7653 	 
C 	 -97.0895 	 -31.872 	 -56.391 	 
H 	 -97.4437 	 -32.9356 	 -56.3085 	 
H 	 -97.7346 	 -31.368 	 -57.188 	 
H 	 -97.2217 	 -31.4032 	 -55.4156 	 
H 	 -91.4307 	 -37.8542 	 -57.478 	 
H 	 -91.2875 	 -29.5951 	 -59.2284 	 
*
