! wB97X-D3 SP def2-SVP
%pal
nprocs 24
end

* xyz 0 1
S 	 -69.3127 	 -0.474042 	 -106.79 	 
C 	 -69.7619 	 0.22117 	 -105.251 	 
C 	 -69.0154 	 1.36561 	 -104.902 	 
C 	 -68.1149 	 1.74876 	 -105.971 	 
C 	 -68.0996 	 0.83816 	 -107.014 	 
H 	 -67.4716 	 2.63821 	 -105.899 	 
C 	 -69.1832 	 2.05847 	 -103.541 	 
H 	 -68.4032 	 2.76087 	 -103.561 	 
H 	 -68.8827 	 1.32522 	 -102.862 	 
C 	 -70.5594 	 2.62973 	 -103.217 	 
H 	 -70.8941 	 3.34362 	 -103.941 	 
H 	 -71.2787 	 1.80271 	 -103.337 	 
C 	 -70.685 	 3.13544 	 -101.806 	 
H 	 -71.7194 	 3.47473 	 -101.822 	 
H 	 -70.5426 	 2.4179 	 -101.045 	 
H 	 -70.0495 	 4.00665 	 -101.563 	 
S 	 -68.0647 	 0.352526 	 -109.705 	 
C 	 -66.6131 	 0.778258 	 -110.628 	 
C 	 -65.5408 	 0.934844 	 -109.793 	 
C 	 -65.8956 	 0.901108 	 -108.379 	 
C 	 -67.2683 	 0.819648 	 -108.183 	 
H 	 -64.5735 	 1.18016 	 -110.229 	 
C 	 -64.8472 	 1.30917 	 -107.372 	 
H 	 -65.3347 	 1.8863 	 -106.605 	 
H 	 -64.134 	 1.91606 	 -107.903 	 
C 	 -64.0005 	 0.167172 	 -106.726 	 
H 	 -63.8902 	 -0.666902 	 -107.457 	 
H 	 -64.6998 	 -0.294976 	 -106.025 	 
C 	 -62.6297 	 0.657755 	 -106.111 	 
H 	 -62.7281 	 1.50055 	 -105.36 	 
H 	 -61.843 	 0.937343 	 -106.848 	 
H 	 -62.108 	 -0.12817 	 -105.598 	 
H 	 -70.5427 	 -0.240431 	 -104.704 	 
H 	 -66.5046 	 0.633168 	 -111.724 	 
*
