! wB97X-D3 SP def2-SVP
%pal
nprocs 24
end

* xyz 0 1
S 	 -61.6398 	 12.5917 	 -99.0287 	 
C 	 -62.9266 	 12.7922 	 -100.151 	 
C 	 -62.5315 	 12.3138 	 -101.405 	 
C 	 -61.1941 	 11.8869 	 -101.508 	 
C 	 -60.4965 	 12.1674 	 -100.277 	 
H 	 -60.67 	 11.4075 	 -102.341 	 
C 	 -63.5511 	 12.1875 	 -102.541 	 
H 	 -63.2882 	 12.6081 	 -103.546 	 
H 	 -64.3922 	 12.7959 	 -102.189 	 
C 	 -64.2287 	 10.819 	 -102.77 	 
H 	 -63.3934 	 10.0813 	 -103.053 	 
H 	 -64.6696 	 10.4701 	 -101.762 	 
C 	 -65.1782 	 10.8945 	 -103.92 	 
H 	 -64.836 	 11.6636 	 -104.588 	 
H 	 -65.1839 	 10.0355 	 -104.55 	 
H 	 -66.1627 	 11.1525 	 -103.529 	 
S 	 -58.2612 	 13.6638 	 -99.6377 	 
C 	 -56.6975 	 12.9642 	 -99.9531 	 
C 	 -56.754 	 11.5842 	 -100.122 	 
C 	 -58.1454 	 11.125 	 -100.163 	 
C 	 -59.0796 	 12.1133 	 -99.9987 	 
H 	 -55.7841 	 11.0636 	 -100.267 	 
C 	 -58.5392 	 9.60319 	 -100.336 	 
H 	 -59.5813 	 9.52824 	 -100.496 	 
H 	 -58.319 	 8.96226 	 -99.4357 	 
C 	 -57.9053 	 8.97744 	 -101.562 	 
H 	 -56.8108 	 9.08879 	 -101.64 	 
H 	 -58.3877 	 9.38623 	 -102.438 	 
C 	 -58.2979 	 7.47835 	 -101.512 	 
H 	 -57.9953 	 6.97796 	 -102.393 	 
H 	 -59.3499 	 7.35478 	 -101.49 	 
H 	 -58.0522 	 6.93131 	 -100.637 	 
H 	 -63.9204 	 13.1722 	 -100.042 	 
H 	 -55.7755 	 13.6198 	 -99.8587 	 
*
