! wB97X-D3 SP def2-SVP
%pal
nprocs 24
end

* xyz 0 1
S 	 -42.2527 	 -50.999 	 -70.6452 	 
C 	 -42.4471 	 -52.6539 	 -71.2371 	 
C 	 -41.3473 	 -53.4587 	 -71.0045 	 
C 	 -40.3294 	 -52.7373 	 -70.3243 	 
C 	 -40.6291 	 -51.3906 	 -70.0881 	 
H 	 -39.4281 	 -53.2013 	 -69.9854 	 
C 	 -41.1933 	 -54.9899 	 -71.2241 	 
H 	 -40.6515 	 -55.2117 	 -70.2396 	 
H 	 -40.5527 	 -55.2386 	 -72.0414 	 
C 	 -42.4312 	 -55.7911 	 -71.1205 	 
H 	 -43.09 	 -55.5518 	 -71.926 	 
H 	 -42.0874 	 -56.7841 	 -71.3427 	 
C 	 -43.0954 	 -55.5866 	 -69.773 	 
H 	 -43.5048 	 -54.5507 	 -69.6698 	 
H 	 -43.8158 	 -56.4188 	 -69.7286 	 
H 	 -42.4435 	 -55.81 	 -68.8811 	 
S 	 -39.4212 	 -50.348 	 -67.9013 	 
C 	 -38.2937 	 -49.0308 	 -68.1714 	 
C 	 -38.3191 	 -48.5323 	 -69.4911 	 
C 	 -39.1285 	 -49.342 	 -70.3173 	 
C 	 -39.7429 	 -50.3762 	 -69.6179 	 
H 	 -37.697 	 -47.5716 	 -69.6584 	 
C 	 -39.2394 	 -49.126 	 -71.8157 	 
H 	 -39.9951 	 -49.813 	 -72.1731 	 
H 	 -38.2559 	 -49.4868 	 -72.2181 	 
C 	 -39.3634 	 -47.6283 	 -72.328 	 
H 	 -38.4294 	 -47.208 	 -71.9545 	 
H 	 -40.155 	 -47.1857 	 -71.7041 	 
C 	 -39.5718 	 -47.5395 	 -73.9256 	 
H 	 -39.4805 	 -46.5171 	 -74.2858 	 
H 	 -40.5748 	 -47.8062 	 -74.2128 	 
H 	 -38.9283 	 -48.1321 	 -74.4881 	 
H 	 -43.3185 	 -52.9521 	 -71.6898 	 
H 	 -37.7441 	 -48.4748 	 -67.3861 	 
*
