! wB97X-D3 SP def2-SVP
%pal
nprocs 24
end

* xyz 0 1
S 	 -105.664 	 2.08814 	 -113.75 	 
C 	 -107.194 	 2.8159 	 -114.025 	 
C 	 -108.21 	 1.96939 	 -113.889 	 
C 	 -107.758 	 0.674371 	 -113.44 	 
C 	 -106.338 	 0.497531 	 -113.35 	 
H 	 -108.362 	 -0.121166 	 -113.184 	 
C 	 -109.622 	 2.26884 	 -114.201 	 
H 	 -109.808 	 3.24809 	 -113.794 	 
H 	 -110.206 	 1.52861 	 -113.751 	 
C 	 -109.97 	 2.35025 	 -115.722 	 
H 	 -110.995 	 2.68272 	 -115.62 	 
H 	 -109.3 	 3.12227 	 -116.143 	 
C 	 -109.878 	 1.04822 	 -116.453 	 
H 	 -108.82 	 0.603019 	 -116.294 	 
H 	 -110.567 	 0.463403 	 -115.98 	 
H 	 -110.004 	 1.05102 	 -117.558 	 
S 	 -104.273 	 -1.1036 	 -114.337 	 
C 	 -104.219 	 -2.75758 	 -113.701 	 
C 	 -104.997 	 -2.91469 	 -112.584 	 
C 	 -105.86 	 -1.81133 	 -112.338 	 
C 	 -105.553 	 -0.710794 	 -113.136 	 
H 	 -104.943 	 -3.84072 	 -112.026 	 
C 	 -106.983 	 -1.91397 	 -111.316 	 
H 	 -107.201 	 -0.870547 	 -110.915 	 
H 	 -106.522 	 -2.42547 	 -110.422 	 
C 	 -108.233 	 -2.72025 	 -111.708 	 
H 	 -108.804 	 -2.2077 	 -112.486 	 
H 	 -108.839 	 -2.64391 	 -110.81 	 
C 	 -108.051 	 -4.24719 	 -111.992 	 
H 	 -109.032 	 -4.62554 	 -112.143 	 
H 	 -107.552 	 -4.75464 	 -111.216 	 
H 	 -107.401 	 -4.43716 	 -112.833 	 
H 	 -107.389 	 3.83527 	 -114.292 	 
H 	 -103.649 	 -3.57237 	 -114.07 	 
*
