! wB97X-D3 SP def2-SVP
%pal
nprocs 24
end

* xyz 0 1
S 	 23.7192 	 -23.9211 	 -124.489 	 
C 	 24.799 	 -24.1172 	 -125.812 	 
C 	 26.1079 	 -23.9432 	 -125.452 	 
C 	 26.2441 	 -23.7662 	 -124.031 	 
C 	 25.0549 	 -24.0066 	 -123.361 	 
H 	 27.1951 	 -23.7437 	 -123.58 	 
C 	 27.2355 	 -23.877 	 -126.391 	 
H 	 28.1438 	 -23.7824 	 -125.8 	 
H 	 27.1522 	 -22.9015 	 -126.901 	 
C 	 27.3844 	 -25.1584 	 -127.315 	 
H 	 27.4495 	 -26.0238 	 -126.64 	 
H 	 26.4271 	 -25.3828 	 -127.838 	 
C 	 28.5699 	 -25.2145 	 -128.306 	 
H 	 29.3938 	 -25.7063 	 -127.859 	 
H 	 28.4182 	 -25.8299 	 -129.182 	 
H 	 28.8757 	 -24.2544 	 -128.644 	 
S 	 25.8507 	 -23.0476 	 -121.063 	 
C 	 25.1227 	 -23.6784 	 -119.584 	 
C 	 24.1408 	 -24.6833 	 -119.747 	 
C 	 24.1175 	 -25.0376 	 -121.142 	 
C 	 24.9601 	 -24.2246 	 -121.943 	 
H 	 23.599 	 -25.051 	 -118.907 	 
C 	 23.2301 	 -26.1863 	 -121.664 	 
H 	 23.6761 	 -26.9763 	 -121.056 	 
H 	 23.5052 	 -26.4414 	 -122.71 	 
C 	 21.7797 	 -26.1972 	 -121.406 	 
H 	 21.6827 	 -26.5083 	 -120.366 	 
H 	 21.357 	 -26.997 	 -122.027 	 
C 	 21.0835 	 -24.8158 	 -121.703 	 
H 	 20.17 	 -24.6703 	 -121.13 	 
H 	 20.795 	 -24.5878 	 -122.73 	 
H 	 21.7318 	 -23.9767 	 -121.459 	 
H 	 24.5586 	 -24.4823 	 -126.826 	 
H 	 25.2982 	 -23.3331 	 -118.631 	 
*
