! wB97X-D3 SP def2-SVP
%pal
nprocs 24
end

* xyz 0 1
S 	 -38.4304 	 15.6696 	 -99.0957 	 
C 	 -38.1683 	 14.3446 	 -100.278 	 
C 	 -39.3433 	 13.6357 	 -100.534 	 
C 	 -40.3816 	 14.1758 	 -99.7444 	 
C 	 -40.0995 	 15.1785 	 -98.811 	 
H 	 -41.4177 	 13.88 	 -99.8862 	 
C 	 -39.5065 	 12.7921 	 -101.798 	 
H 	 -38.6089 	 12.4798 	 -102.226 	 
H 	 -39.7681 	 13.5522 	 -102.539 	 
C 	 -40.5284 	 11.6493 	 -101.798 	 
H 	 -41.5167 	 12.0014 	 -102.036 	 
H 	 -40.2677 	 10.979 	 -102.622 	 
C 	 -40.4493 	 10.8088 	 -100.564 	 
H 	 -39.5507 	 10.2815 	 -100.406 	 
H 	 -40.5787 	 11.3341 	 -99.6968 	 
H 	 -41.2155 	 10.0521 	 -100.5 	 
S 	 -40.0426 	 16.3105 	 -96.3326 	 
C 	 -41.389 	 16.7563 	 -95.4567 	 
C 	 -42.5174 	 16.6029 	 -96.2802 	 
C 	 -42.2732 	 16.0255 	 -97.5755 	 
C 	 -40.9273 	 15.7756 	 -97.7862 	 
H 	 -43.4457 	 16.8628 	 -95.8907 	 
C 	 -43.3995 	 15.7512 	 -98.5251 	 
H 	 -42.9546 	 15.7981 	 -99.543 	 
H 	 -44.0539 	 16.5811 	 -98.4314 	 
C 	 -44.1251 	 14.4148 	 -98.2042 	 
H 	 -44.4888 	 14.5675 	 -97.2578 	 
H 	 -43.4595 	 13.534 	 -98.2255 	 
C 	 -45.2006 	 14.0117 	 -99.2517 	 
H 	 -44.7806 	 13.4808 	 -100.103 	 
H 	 -45.8144 	 14.8451 	 -99.6061 	 
H 	 -45.8066 	 13.2174 	 -98.6977 	 
H 	 -37.2664 	 14.0886 	 -100.698 	 
H 	 -41.4039 	 17.3877 	 -94.5767 	 
*
