! wB97X-D3 SP def2-SVP
%pal
nprocs 24
end

* xyz 0 1
S 	 33.1818 	 -34.0163 	 -130.257 	 
C 	 33.4784 	 -34.0693 	 -128.508 	 
C 	 34.4691 	 -34.9135 	 -128.15 	 
C 	 34.9761 	 -35.61 	 -129.286 	 
C 	 34.3069 	 -35.3319 	 -130.468 	 
H 	 35.6873 	 -36.3692 	 -129.255 	 
C 	 34.9714 	 -35.3423 	 -126.747 	 
H 	 35.099 	 -36.4593 	 -126.666 	 
H 	 34.1923 	 -35.1117 	 -126.107 	 
C 	 36.2684 	 -34.6311 	 -126.238 	 
H 	 36.5553 	 -35.1141 	 -125.379 	 
H 	 36.934 	 -34.7532 	 -126.964 	 
C 	 36.1729 	 -33.1045 	 -126.115 	 
H 	 37.1122 	 -32.6205 	 -125.828 	 
H 	 36.0365 	 -32.7224 	 -127.109 	 
H 	 35.3624 	 -32.7799 	 -125.506 	 
S 	 36.0507 	 -36.0451 	 -132.552 	 
C 	 35.4843 	 -36.8818 	 -133.949 	 
C 	 34.1526 	 -37.0963 	 -133.922 	 
C 	 33.5155 	 -36.5839 	 -132.728 	 
C 	 34.4224 	 -35.9517 	 -131.812 	 
H 	 33.7233 	 -37.6086 	 -134.716 	 
C 	 32.0442 	 -36.8299 	 -132.556 	 
H 	 31.5616 	 -37.0989 	 -133.466 	 
H 	 31.6672 	 -35.9009 	 -132.156 	 
C 	 31.6229 	 -37.9884 	 -131.581 	 
H 	 30.5178 	 -38.1 	 -131.443 	 
H 	 32.2332 	 -37.9408 	 -130.691 	 
C 	 31.9361 	 -39.366 	 -132.263 	 
H 	 31.3886 	 -40.1906 	 -131.688 	 
H 	 33.0202 	 -39.5643 	 -132.194 	 
H 	 31.6341 	 -39.262 	 -133.275 	 
H 	 32.9717 	 -33.4969 	 -127.712 	 
H 	 36.1044 	 -37.2934 	 -134.706 	 
*
