! wB97X-D3 SP def2-SVP
%pal
nprocs 24
end

* xyz 0 1
S 	 -67.2826 	 8.25938 	 -100.928 	 
C 	 -66.8439 	 9.68335 	 -101.801 	 
C 	 -67.3578 	 9.73922 	 -103.073 	 
C 	 -68.2062 	 8.64946 	 -103.372 	 
C 	 -68.167 	 7.71215 	 -102.34 	 
H 	 -68.8323 	 8.50679 	 -104.248 	 
C 	 -67.1922 	 10.9136 	 -104.006 	 
H 	 -68.0664 	 11.5292 	 -103.993 	 
H 	 -67.1448 	 10.6285 	 -105.105 	 
C 	 -66.1179 	 11.8374 	 -103.669 	 
H 	 -66.2222 	 12.202 	 -102.658 	 
H 	 -65.1804 	 11.3844 	 -103.762 	 
C 	 -66.1071 	 13.0906 	 -104.527 	 
H 	 -67.086 	 13.467 	 -104.608 	 
H 	 -65.4177 	 13.7452 	 -104.03 	 
H 	 -65.718 	 12.9283 	 -105.542 	 
S 	 -67.8443 	 5.10209 	 -101.837 	 
C 	 -69.0761 	 3.91236 	 -102.23 	 
C 	 -70.2244 	 4.46597 	 -102.785 	 
C 	 -70.0662 	 5.895 	 -102.84 	 
C 	 -68.8126 	 6.34513 	 -102.418 	 
H 	 -71.1358 	 3.9491 	 -102.987 	 
C 	 -71.2296 	 6.70624 	 -103.375 	 
H 	 -71.6419 	 6.13197 	 -104.143 	 
H 	 -70.8522 	 7.70695 	 -103.694 	 
C 	 -72.3722 	 6.97835 	 -102.305 	 
H 	 -71.9519 	 7.80087 	 -101.663 	 
H 	 -72.4338 	 6.10662 	 -101.75 	 
C 	 -73.7132 	 7.43286 	 -102.806 	 
H 	 -74.2797 	 6.61506 	 -103.36 	 
H 	 -73.5626 	 8.29831 	 -103.467 	 
H 	 -74.3538 	 7.68911 	 -101.973 	 
H 	 -66.4331 	 10.503 	 -101.223 	 
H 	 -68.9446 	 2.90757 	 -102.029 	 
*
