! wB97X-D3 SP def2-SVP
%pal
nprocs 24
end

* xyz 0 1
S 	 -97.2832 	 -3.89015 	 -120.898 	 
C 	 -97.7126 	 -5.2735 	 -119.86 	 
C 	 -98.9365 	 -5.02152 	 -119.213 	 
C 	 -99.5021 	 -3.80878 	 -119.668 	 
C 	 -98.7142 	 -2.99096 	 -120.483 	 
H 	 -100.486 	 -3.40121 	 -119.525 	 
C 	 -99.6636 	 -5.90991 	 -118.239 	 
H 	 -99.0381 	 -6.7494 	 -117.817 	 
H 	 -100.456 	 -6.36531 	 -118.9 	 
C 	 -100.118 	 -5.09362 	 -117.013 	 
H 	 -100.774 	 -4.27831 	 -117.403 	 
H 	 -100.666 	 -5.75296 	 -116.335 	 
C 	 -98.9978 	 -4.52701 	 -116.232 	 
H 	 -98.4207 	 -5.36009 	 -115.807 	 
H 	 -98.3338 	 -3.92003 	 -116.738 	 
H 	 -99.2647 	 -3.83621 	 -115.41 	 
S 	 -100.293 	 -0.743618 	 -120.396 	 
C 	 -100.377 	 0.40135 	 -121.731 	 
C 	 -99.6745 	 -0.0483518 	 -122.769 	 
C 	 -98.962 	 -1.27371 	 -122.511 	 
C 	 -99.1607 	 -1.80101 	 -121.217 	 
H 	 -99.528 	 0.587146 	 -123.657 	 
C 	 -98.0159 	 -1.77703 	 -123.57 	 
H 	 -98.73 	 -2.18082 	 -124.239 	 
H 	 -97.3317 	 -2.56535 	 -123.185 	 
C 	 -97.1535 	 -0.737256 	 -124.259 	 
H 	 -96.4525 	 -0.134065 	 -123.626 	 
H 	 -97.8489 	 -0.0800653 	 -124.832 	 
C 	 -96.1471 	 -1.36094 	 -125.266 	 
H 	 -95.6036 	 -0.610108 	 -125.841 	 
H 	 -96.6771 	 -2.0703 	 -125.9 	 
H 	 -95.3824 	 -1.92099 	 -124.647 	 
H 	 -97.0584 	 -6.07777 	 -119.619 	 
H 	 -101.1 	 1.12911 	 -121.935 	 
*
