! wB97X-D3 SP def2-SVP
%pal
nprocs 24
end

* xyz 0 1
S 	 -146.028 	 11.9909 	 -6.62095 	 
C 	 -145.649 	 11.8639 	 -4.9395 	 
C 	 -146.655 	 12.5088 	 -4.19545 	 
C 	 -147.564 	 13.2833 	 -5.05205 	 
C 	 -147.232 	 13.2068 	 -6.41164 	 
H 	 -148.482 	 13.7219 	 -4.68856 	 
C 	 -146.894 	 12.3907 	 -2.74382 	 
H 	 -146.287 	 13.2187 	 -2.36971 	 
H 	 -146.454 	 11.4782 	 -2.38233 	 
C 	 -148.308 	 12.4639 	 -2.16077 	 
H 	 -148.242 	 12.5036 	 -1.07888 	 
H 	 -148.805 	 13.3793 	 -2.52753 	 
C 	 -149.256 	 11.3314 	 -2.43474 	 
H 	 -150.122 	 11.3642 	 -1.78279 	 
H 	 -149.627 	 11.3165 	 -3.54457 	 
H 	 -148.758 	 10.4185 	 -2.30677 	 
S 	 -148.962 	 12.2992 	 -8.36856 	 
C 	 -149.553 	 13.5259 	 -9.50147 	 
C 	 -149.307 	 14.8008 	 -9.09172 	 
C 	 -148.514 	 14.9396 	 -7.89902 	 
C 	 -148.187 	 13.643 	 -7.38844 	 
H 	 -149.645 	 15.5878 	 -9.70653 	 
C 	 -147.874 	 16.3046 	 -7.45902 	 
H 	 -147.539 	 16.8887 	 -8.28857 	 
H 	 -146.917 	 16.0557 	 -6.94278 	 
C 	 -148.773 	 17.1685 	 -6.55657 	 
H 	 -148.682 	 16.9244 	 -5.56983 	 
H 	 -149.801 	 17.0432 	 -6.86079 	 
C 	 -148.352 	 18.6694 	 -6.54044 	 
H 	 -148.473 	 19.1436 	 -7.51194 	 
H 	 -147.354 	 18.8072 	 -6.25014 	 
H 	 -149.032 	 19.1684 	 -5.9061 	 
H 	 -144.899 	 11.2888 	 -4.33311 	 
H 	 -150.248 	 13.3689 	 -10.2553 	 
*
