! wB97X-D3 SP def2-SVP
%pal
nprocs 24
end

* xyz 0 1
S 	 -46.4031 	 8.75237 	 -20.2264 	 
C 	 -46.6439 	 7.37735 	 -19.0806 	 
C 	 -47.6383 	 7.67144 	 -18.1832 	 
C 	 -48.0933 	 9.03395 	 -18.2777 	 
C 	 -47.4573 	 9.74155 	 -19.2714 	 
H 	 -48.8037 	 9.57801 	 -17.7513 	 
C 	 -47.9719 	 6.66535 	 -17.042 	 
H 	 -48.4753 	 7.19818 	 -16.221 	 
H 	 -46.9711 	 6.36912 	 -16.6184 	 
C 	 -48.8879 	 5.47726 	 -17.5345 	 
H 	 -48.3232 	 4.98075 	 -18.3102 	 
H 	 -48.9881 	 4.76198 	 -16.7451 	 
C 	 -50.2505 	 5.88876 	 -18.1126 	 
H 	 -50.8272 	 5.05668 	 -18.4936 	 
H 	 -50.8837 	 6.2071 	 -17.314 	 
H 	 -50.2723 	 6.69148 	 -18.8854 	 
S 	 -46.5947 	 12.2131 	 -20.121 	 
C 	 -47.7352 	 13.3285 	 -20.7431 	 
C 	 -49.0717 	 12.8842 	 -20.3925 	 
C 	 -49.0839 	 11.6188 	 -19.7842 	 
C 	 -47.8579 	 11.0661 	 -19.6838 	 
H 	 -49.967 	 13.3859 	 -20.7217 	 
C 	 -50.4613 	 11.0816 	 -19.726 	 
H 	 -51.1495 	 11.944 	 -19.766 	 
H 	 -50.6456 	 10.6442 	 -18.8286 	 
C 	 -50.8121 	 10.109 	 -20.8655 	 
H 	 -50.202 	 9.20486 	 -20.8049 	 
H 	 -50.53 	 10.5712 	 -21.8036 	 
C 	 -52.2411 	 9.66952 	 -20.8142 	 
H 	 -52.9016 	 10.5646 	 -20.6754 	 
H 	 -52.4979 	 8.90146 	 -20.1072 	 
H 	 -52.5629 	 9.28409 	 -21.7973 	 
H 	 -46.0892 	 6.43557 	 -19.0293 	 
H 	 -47.4736 	 14.2434 	 -21.2566 	 
*
