! wB97X-D3 SP def2-SVP
%pal
nprocs 24
end

* xyz 0 1
S 	 -136.584 	 12.9517 	 -1.50207 	 
C 	 -136.625 	 11.627 	 -0.343315 	 
C 	 -135.538 	 11.6745 	 0.432928 	 
C 	 -134.731 	 12.8182 	 0.125953 	 
C 	 -135.042 	 13.5034 	 -1.00975 	 
H 	 -133.848 	 13.073 	 0.6682 	 
C 	 -135.18 	 10.7955 	 1.59945 	 
H 	 -135.988 	 10.1734 	 1.85253 	 
H 	 -134.967 	 11.4463 	 2.42375 	 
C 	 -133.951 	 9.99295 	 1.32204 	 
H 	 -133.081 	 10.6237 	 1.10556 	 
H 	 -133.661 	 9.4799 	 2.31588 	 
C 	 -134.029 	 8.98872 	 0.134448 	 
H 	 -133.085 	 8.43622 	 -0.0452998 	 
H 	 -134.853 	 8.2576 	 0.322717 	 
H 	 -134.39 	 9.44344 	 -0.725296 	 
S 	 -135.353 	 16.0988 	 -1.68979 	 
C 	 -133.929 	 17.0642 	 -2.01228 	 
C 	 -132.786 	 16.3248 	 -2.2176 	 
C 	 -133.011 	 14.9623 	 -1.84121 	 
C 	 -134.333 	 14.6622 	 -1.54689 	 
H 	 -131.894 	 16.9099 	 -2.47242 	 
C 	 -131.922 	 13.9092 	 -1.84596 	 
H 	 -131.309 	 13.9853 	 -2.72649 	 
H 	 -132.43 	 12.9485 	 -1.97742 	 
C 	 -130.988 	 14.0428 	 -0.617809 	 
H 	 -131.553 	 13.6677 	 0.306123 	 
H 	 -130.788 	 15.0641 	 -0.330178 	 
C 	 -129.618 	 13.2505 	 -0.825883 	 
H 	 -128.903 	 13.7273 	 -1.38639 	 
H 	 -129.728 	 12.2587 	 -1.33664 	 
H 	 -129.119 	 13.0823 	 0.191546 	 
H 	 -137.35 	 10.8602 	 -0.380862 	 
H 	 -133.895 	 18.1721 	 -2.12628 	 
*
