! wB97X-D3 SP def2-SVP
%pal
nprocs 24
end

* xyz 0 1
S 	 -52.7163 	 -45.8431 	 -78.7337 	 
C 	 -54.1206 	 -44.6859 	 -78.6741 	 
C 	 -53.7204 	 -43.4242 	 -78.3033 	 
C 	 -52.3336 	 -43.3207 	 -78.0401 	 
C 	 -51.6388 	 -44.5007 	 -78.3196 	 
H 	 -51.8781 	 -42.4385 	 -77.5828 	 
C 	 -54.6837 	 -42.2393 	 -78.256 	 
H 	 -54.6743 	 -41.6686 	 -77.2878 	 
H 	 -55.6357 	 -42.7026 	 -78.3028 	 
C 	 -54.6713 	 -41.2631 	 -79.486 	 
H 	 -54.1674 	 -41.7688 	 -80.2317 	 
H 	 -55.6629 	 -41.0658 	 -79.8672 	 
C 	 -53.8729 	 -39.9512 	 -79.1313 	 
H 	 -52.8229 	 -40.1609 	 -78.8567 	 
H 	 -53.938 	 -39.3734 	 -80.0951 	 
H 	 -54.2708 	 -39.454 	 -78.223 	 
S 	 -49.5062 	 -45.6564 	 -76.9921 	 
C 	 -47.904 	 -45.2507 	 -77.4535 	 
C 	 -47.8926 	 -44.283 	 -78.47 	 
C 	 -49.2139 	 -43.9471 	 -78.8965 	 
C 	 -50.1914 	 -44.7268 	 -78.2801 	 
H 	 -46.9818 	 -43.8652 	 -78.8763 	 
C 	 -49.5578 	 -42.8756 	 -79.967 	 
H 	 -50.5049 	 -43.0622 	 -80.3469 	 
H 	 -48.8411 	 -42.9316 	 -80.8274 	 
C 	 -49.5909 	 -41.4293 	 -79.5574 	 
H 	 -50.5035 	 -41.1578 	 -79.0377 	 
H 	 -49.7368 	 -40.8659 	 -80.4765 	 
C 	 -48.3362 	 -40.8723 	 -78.8515 	 
H 	 -47.3386 	 -40.9765 	 -79.3341 	 
H 	 -48.322 	 -41.3942 	 -77.8819 	 
H 	 -48.4202 	 -39.8462 	 -78.5795 	 
H 	 -55.1309 	 -45.0561 	 -78.9677 	 
H 	 -47.0713 	 -45.7924 	 -76.9587 	 
*
