! wB97X-D3 SP def2-SVP
%pal
nprocs 24
end

* xyz 0 1
S 	 -116.197 	 44.4874 	 -112.969 	 
C 	 -117.179 	 43.2938 	 -113.877 	 
C 	 -116.673 	 43.0986 	 -115.14 	 
C 	 -115.495 	 43.9233 	 -115.383 	 
C 	 -115.071 	 44.6602 	 -114.269 	 
H 	 -114.981 	 43.9932 	 -116.383 	 
C 	 -117.105 	 42.2096 	 -116.24 	 
H 	 -117.389 	 41.2567 	 -115.858 	 
H 	 -116.315 	 42.1335 	 -116.985 	 
C 	 -118.251 	 42.6257 	 -117.14 	 
H 	 -119.12 	 42.6811 	 -116.467 	 
H 	 -118.026 	 43.6943 	 -117.372 	 
C 	 -118.637 	 41.8374 	 -118.404 	 
H 	 -119.617 	 42.121 	 -118.698 	 
H 	 -118.117 	 41.9425 	 -119.327 	 
H 	 -118.776 	 40.7891 	 -118.19 	 
S 	 -113.957 	 47.0807 	 -115.002 	 
C 	 -112.393 	 47.5336 	 -114.339 	 
C 	 -111.778 	 46.4561 	 -113.813 	 
C 	 -112.561 	 45.2738 	 -113.774 	 
C 	 -113.854 	 45.5236 	 -114.224 	 
H 	 -110.731 	 46.4964 	 -113.465 	 
C 	 -112.07 	 44.0274 	 -113.11 	 
H 	 -112.979 	 43.4619 	 -112.954 	 
H 	 -111.542 	 44.2966 	 -112.193 	 
C 	 -111.044 	 43.174 	 -113.914 	 
H 	 -110.817 	 42.2451 	 -113.307 	 
H 	 -110.134 	 43.7379 	 -113.98 	 
C 	 -111.499 	 42.7028 	 -115.253 	 
H 	 -111.756 	 43.5253 	 -115.918 	 
H 	 -112.257 	 41.9812 	 -115.328 	 
H 	 -110.702 	 42.1076 	 -115.636 	 
H 	 -118.039 	 42.7826 	 -113.408 	 
H 	 -111.866 	 48.4255 	 -114.699 	 
*
