! wB97X-D3 SP def2-SVP
%pal
nprocs 24
end

* xyz 0 1
S 	 -87.0958 	 -48.436 	 -72.0146 	 
C 	 -85.8335 	 -49.6273 	 -71.7147 	 
C 	 -86.0893 	 -50.743 	 -72.4419 	 
C 	 -87.2787 	 -50.6702 	 -73.2564 	 
C 	 -87.8846 	 -49.4362 	 -73.2246 	 
H 	 -87.7735 	 -51.3997 	 -73.8657 	 
C 	 -85.1944 	 -51.9083 	 -72.4958 	 
H 	 -85.7949 	 -52.7705 	 -72.2946 	 
H 	 -84.4282 	 -51.7702 	 -71.6784 	 
C 	 -84.6402 	 -51.9716 	 -73.9203 	 
H 	 -84.1848 	 -52.9764 	 -73.9242 	 
H 	 -85.4261 	 -51.8741 	 -74.6581 	 
C 	 -83.4223 	 -50.9723 	 -74.2111 	 
H 	 -82.5074 	 -51.3573 	 -73.8263 	 
H 	 -83.4099 	 -50.8724 	 -75.2513 	 
H 	 -83.556 	 -50.0447 	 -73.7001 	 
S 	 -90.2 	 -48.0408 	 -73.3654 	 
C 	 -90.8507 	 -47.4035 	 -74.9606 	 
C 	 -90.1087 	 -47.9987 	 -75.9578 	 
C 	 -89.1354 	 -48.9257 	 -75.4919 	 
C 	 -88.9369 	 -48.8813 	 -74.0858 	 
H 	 -90.4125 	 -47.7406 	 -76.9493 	 
C 	 -88.1966 	 -49.5717 	 -76.5012 	 
H 	 -88.7696 	 -50.2773 	 -77.149 	 
H 	 -87.6297 	 -50.213 	 -75.8239 	 
C 	 -87.1628 	 -48.7725 	 -77.3353 	 
H 	 -86.3797 	 -49.5178 	 -77.5697 	 
H 	 -86.7018 	 -48.0285 	 -76.7395 	 
C 	 -87.8302 	 -48.1304 	 -78.5604 	 
H 	 -88.3534 	 -47.244 	 -78.2876 	 
H 	 -88.6189 	 -48.8425 	 -78.8877 	 
H 	 -87.2061 	 -47.8336 	 -79.4067 	 
H 	 -84.9534 	 -49.5463 	 -71.1154 	 
H 	 -91.7686 	 -46.861 	 -75.2077 	 
*
