! wB97X-D3 SP def2-SVP
%pal
nprocs 24
end

* xyz 0 1
S 	 -52.3175 	 22.0934 	 33.491 	 
C 	 -50.6304 	 21.8438 	 32.8786 	 
C 	 -50.5646 	 20.4718 	 32.5501 	 
C 	 -51.7782 	 19.722 	 32.6936 	 
C 	 -52.722 	 20.3581 	 33.3612 	 
H 	 -51.6667 	 18.6505 	 32.6294 	 
C 	 -49.3265 	 19.8647 	 31.9492 	 
H 	 -49.055 	 18.9188 	 32.4869 	 
H 	 -48.5118 	 20.5702 	 32.2134 	 
C 	 -49.3422 	 19.7524 	 30.4838 	 
H 	 -49.5265 	 20.7134 	 29.9923 	 
H 	 -48.3531 	 19.4834 	 30.1603 	 
C 	 -50.185 	 18.6018 	 30.0386 	 
H 	 -50.1612 	 18.54 	 28.9725 	 
H 	 -49.8255 	 17.6431 	 30.4618 	 
H 	 -51.1649 	 18.7798 	 30.4236 	 
S 	 -54.3827 	 19.7553 	 35.4913 	 
C 	 -55.9949 	 19.0681 	 35.2648 	 
C 	 -56.1147 	 18.7526 	 33.9278 	 
C 	 -54.984 	 19.0978 	 33.1145 	 
C 	 -53.9438 	 19.7057 	 33.823 	 
H 	 -57.0443 	 18.2409 	 33.7013 	 
C 	 -55.0592 	 18.7197 	 31.619 	 
H 	 -54.1308 	 19.142 	 31.1547 	 
H 	 -55.8005 	 19.1923 	 31.0666 	 
C 	 -55.1227 	 17.2218 	 31.3337 	 
H 	 -56.1451 	 16.8264 	 31.4412 	 
H 	 -54.485 	 16.5537 	 31.995 	 
C 	 -54.6588 	 16.9878 	 29.892 	 
H 	 -54.8947 	 15.9301 	 29.726 	 
H 	 -53.6211 	 17.2582 	 29.7785 	 
H 	 -55.2539 	 17.5646 	 29.2127 	 
H 	 -49.8704 	 22.5863 	 32.6976 	 
H 	 -56.7728 	 18.8777 	 35.9481 	 
*
