! wB97X-D3 SP def2-SVP
%pal
nprocs 24
end

* xyz 0 1
S 	 -138.052 	 2.49638 	 4.62722 	 
C 	 -137.896 	 2.29898 	 2.914 	 
C 	 -137.274 	 3.36458 	 2.33892 	 
C 	 -136.843 	 4.33627 	 3.31649 	 
C 	 -137.247 	 3.99796 	 4.56193 	 
H 	 -136.135 	 5.1897 	 3.27025 	 
C 	 -137.105 	 3.52455 	 0.880193 	 
H 	 -136.468 	 2.75165 	 0.437985 	 
H 	 -136.688 	 4.54758 	 0.687911 	 
C 	 -138.393 	 3.45811 	 0.0395264 	 
H 	 -138.154 	 3.5031 	 -1.01315 	 
H 	 -138.766 	 2.38347 	 0.129291 	 
C 	 -139.475 	 4.53257 	 0.395032 	 
H 	 -139.88 	 4.51514 	 1.41127 	 
H 	 -139.086 	 5.50017 	 0.345407 	 
H 	 -140.183 	 4.42255 	 -0.408749 	 
S 	 -137.852 	 5.84375 	 6.54649 	 
C 	 -136.789 	 5.98463 	 7.9279 	 
C 	 -135.603 	 5.32387 	 7.69723 	 
C 	 -135.6 	 4.49178 	 6.48694 	 
C 	 -136.808 	 4.62974 	 5.76697 	 
H 	 -134.813 	 5.44128 	 8.45867 	 
C 	 -134.369 	 3.75887 	 6.07442 	 
H 	 -134.527 	 3.47244 	 5.08519 	 
H 	 -134.34 	 2.75047 	 6.60327 	 
C 	 -132.985 	 4.45092 	 6.00431 	 
H 	 -132.279 	 3.77155 	 5.52117 	 
H 	 -132.641 	 4.58627 	 7.02839 	 
C 	 -132.908 	 5.78754 	 5.28998 	 
H 	 -133.086 	 5.67265 	 4.24605 	 
H 	 -132.035 	 6.2809 	 5.4965 	 
H 	 -133.757 	 6.36306 	 5.57691 	 
H 	 -138.277 	 1.51179 	 2.33771 	 
H 	 -136.885 	 6.77111 	 8.68221 	 
*
