! wB97X-D3 SP def2-SVP
%pal
nprocs 24
end

* xyz 0 1
S 	 -77.3441 	 0.0827435 	 4.08812 	 
C 	 -76.9604 	 -0.0798172 	 5.80337 	 
C 	 -77.9922 	 -0.608085 	 6.53383 	 
C 	 -79.1073 	 -1.02113 	 5.7344 	 
C 	 -78.9018 	 -0.774869 	 4.37816 	 
H 	 -79.9956 	 -1.47527 	 6.11065 	 
C 	 -78.0042 	 -0.904516 	 7.9983 	 
H 	 -77.0625 	 -1.06947 	 8.51694 	 
H 	 -78.4364 	 -1.90517 	 8.14984 	 
C 	 -78.707 	 0.0381743 	 8.91416 	 
H 	 -78.8278 	 -0.420332 	 9.84806 	 
H 	 -78.1292 	 0.962247 	 9.12031 	 
C 	 -80.1243 	 0.55006 	 8.48955 	 
H 	 -80.6798 	 1.13236 	 9.34284 	 
H 	 -79.9564 	 1.17881 	 7.62827 	 
H 	 -80.7093 	 -0.312625 	 8.12269 	 
S 	 -80.8286 	 0.397059 	 2.82829 	 
C 	 -81.8291 	 -0.606539 	 1.8818 	 
C 	 -81.4655 	 -1.94424 	 1.88389 	 
C 	 -80.4095 	 -2.15929 	 2.81738 	 
C 	 -79.9042 	 -1.00819 	 3.34172 	 
H 	 -81.9476 	 -2.60722 	 1.31014 	 
C 	 -79.905 	 -3.57654 	 3.10694 	 
H 	 -78.8544 	 -3.7226 	 2.94069 	 
H 	 -80.4076 	 -4.14818 	 2.37745 	 
C 	 -80.314 	 -4.17227 	 4.47567 	 
H 	 -81.4098 	 -3.9968 	 4.44921 	 
H 	 -79.8737 	 -3.64326 	 5.40644 	 
C 	 -79.9977 	 -5.68298 	 4.42032 	 
H 	 -80.1157 	 -6.14927 	 5.41581 	 
H 	 -78.946 	 -5.80361 	 4.14965 	 
H 	 -80.7185 	 -6.38193 	 3.82096 	 
H 	 -75.9621 	 0.152753 	 6.19958 	 
H 	 -82.7109 	 -0.241817 	 1.36273 	 
*
