! wB97X-D3 SP def2-SVP
%pal
nprocs 24
end

* xyz 0 1
S 	 -58.3589 	 7.99241 	 -19.1123 	 
C 	 -58.5409 	 6.52716 	 -20.092 	 
C 	 -59.5432 	 5.7457 	 -19.558 	 
C 	 -60.2294 	 6.35248 	 -18.4508 	 
C 	 -59.7803 	 7.65749 	 -18.1994 	 
H 	 -61.0944 	 6.00677 	 -17.848 	 
C 	 -59.6868 	 4.22344 	 -19.7932 	 
H 	 -58.7401 	 3.76806 	 -19.4078 	 
H 	 -59.6406 	 4.00944 	 -20.9049 	 
C 	 -60.9468 	 3.58542 	 -19.2317 	 
H 	 -61.2445 	 3.80841 	 -18.1792 	 
H 	 -61.7449 	 4.03328 	 -19.8537 	 
C 	 -61.1015 	 2.0568 	 -19.5093 	 
H 	 -60.3236 	 1.47337 	 -19.0786 	 
H 	 -61.9945 	 1.71198 	 -19.013 	 
H 	 -61.1843 	 1.76967 	 -20.5059 	 
S 	 -59.2742 	 9.13664 	 -15.9022 	 
C 	 -60.503 	 10.2185 	 -15.2858 	 
C 	 -61.5869 	 10.2594 	 -16.1219 	 
C 	 -61.4778 	 9.43963 	 -17.2653 	 
C 	 -60.2914 	 8.79234 	 -17.3547 	 
H 	 -62.395 	 10.9046 	 -15.8853 	 
C 	 -62.5605 	 9.31778 	 -18.3171 	 
H 	 -62.5111 	 8.35716 	 -18.8053 	 
H 	 -62.2579 	 10.0036 	 -19.2008 	 
C 	 -64.0339 	 9.5076 	 -17.9223 	 
H 	 -64.5174 	 9.39185 	 -18.9237 	 
H 	 -64.2569 	 10.5083 	 -17.5275 	 
C 	 -64.6147 	 8.48043 	 -16.9845 	 
H 	 -64.8222 	 7.59879 	 -17.5895 	 
H 	 -65.5945 	 8.81227 	 -16.627 	 
H 	 -64.0444 	 8.11561 	 -16.1627 	 
H 	 -58.0241 	 6.45959 	 -21.037 	 
H 	 -60.2893 	 10.8484 	 -14.466 	 
*
