! wB97X-D3 SP def2-SVP
%pal
nprocs 24
end

* xyz 0 1
S 	 38.6235 	 -2.28044 	 -122.28 	 
C 	 38.6074 	 -3.96947 	 -122.645 	 
C 	 39.2877 	 -4.78254 	 -121.735 	 
C 	 39.8982 	 -3.98353 	 -120.708 	 
C 	 39.7138 	 -2.6284 	 -120.843 	 
H 	 40.3806 	 -4.33498 	 -119.84 	 
C 	 39.4383 	 -6.2966 	 -121.738 	 
H 	 38.8256 	 -6.59661 	 -120.845 	 
H 	 40.4724 	 -6.53318 	 -121.564 	 
C 	 38.7974 	 -6.98961 	 -122.966 	 
H 	 37.7674 	 -6.63606 	 -123.161 	 
H 	 39.2338 	 -6.55669 	 -123.779 	 
C 	 38.9142 	 -8.49362 	 -122.959 	 
H 	 38.4806 	 -8.95018 	 -123.824 	 
H 	 39.9874 	 -8.72335 	 -122.776 	 
H 	 38.4088 	 -8.95303 	 -122.164 	 
S 	 40.9609 	 -0.181578 	 -120.97 	 
C 	 41.5277 	 0.508732 	 -119.519 	 
C 	 41.1187 	 -0.140112 	 -118.365 	 
C 	 40.2952 	 -1.30589 	 -118.648 	 
C 	 40.2532 	 -1.53776 	 -120.03 	 
H 	 41.3253 	 0.288649 	 -117.411 	 
C 	 39.7535 	 -2.20623 	 -117.517 	 
H 	 38.8863 	 -2.79867 	 -117.876 	 
H 	 39.3838 	 -1.61602 	 -116.714 	 
C 	 40.8909 	 -3.14318 	 -116.893 	 
H 	 41.8334 	 -2.63626 	 -116.57 	 
H 	 41.1795 	 -3.84518 	 -117.724 	 
C 	 40.4169 	 -4.01353 	 -115.723 	 
H 	 41.1256 	 -4.81187 	 -115.472 	 
H 	 39.3829 	 -4.35923 	 -115.91 	 
H 	 40.3777 	 -3.34901 	 -114.826 	 
H 	 38.2276 	 -4.38713 	 -123.559 	 
H 	 42.0943 	 1.34967 	 -119.381 	 
*
