! wB97X-D3 SP def2-SVP
%pal
nprocs 24
end

* xyz 0 1
S 	 -139.638 	 7.83291 	 1.63188 	 
C 	 -141.243 	 8.0404 	 0.933252 	 
C 	 -141.903 	 9.08674 	 1.51888 	 
C 	 -141.251 	 9.56108 	 2.67685 	 
C 	 -139.977 	 8.96796 	 2.93218 	 
H 	 -141.646 	 10.3907 	 3.25957 	 
C 	 -143.205 	 9.68967 	 1.07187 	 
H 	 -143.015 	 10.3333 	 0.191549 	 
H 	 -143.611 	 10.4521 	 1.77195 	 
C 	 -144.253 	 8.6999 	 0.561415 	 
H 	 -143.801 	 8.41675 	 -0.380859 	 
H 	 -144.45 	 7.83688 	 1.20031 	 
C 	 -145.618 	 9.1698 	 0.110678 	 
H 	 -146.082 	 9.75308 	 0.89222 	 
H 	 -145.602 	 9.96193 	 -0.633994 	 
H 	 -146.302 	 8.36342 	 -0.138846 	 
S 	 -137.344 	 9.16679 	 3.61384 	 
C 	 -136.899 	 10.0307 	 5.06929 	 
C 	 -138.039 	 10.424 	 5.77031 	 
C 	 -139.244 	 10.0632 	 5.125 	 
C 	 -139.022 	 9.32023 	 3.98168 	 
H 	 -137.947 	 11.028 	 6.63457 	 
C 	 -140.561 	 10.4063 	 5.8453 	 
H 	 -140.336 	 10.2295 	 6.88717 	 
H 	 -141.423 	 9.80259 	 5.52914 	 
C 	 -141.06 	 11.8413 	 5.64892 	 
H 	 -141.773 	 11.792 	 4.83392 	 
H 	 -140.227 	 12.4643 	 5.38221 	 
C 	 -141.795 	 12.4265 	 6.84873 	 
H 	 -142.747 	 11.8767 	 7.0271 	 
H 	 -142.003 	 13.4281 	 6.58867 	 
H 	 -141.144 	 12.4725 	 7.66634 	 
H 	 -141.53 	 7.63342 	 -0.0368791 	 
H 	 -135.942 	 10.0239 	 5.55477 	 
*
