! wB97X-D3 SP def2-SVP
%pal
nprocs 24
end

* xyz 0 1
S 	 -35.1532 	 -7.83772 	 9.04346 	 
C 	 -35.0148 	 -8.03871 	 10.8035 	 
C 	 -36.2209 	 -7.62191 	 11.3972 	 
C 	 -37.2548 	 -7.35273 	 10.406 	 
C 	 -36.8895 	 -7.57576 	 9.10678 	 
H 	 -38.2562 	 -7.04065 	 10.5966 	 
C 	 -36.336 	 -7.44633 	 12.9222 	 
H 	 -35.6948 	 -8.25191 	 13.3026 	 
H 	 -37.4217 	 -7.59726 	 13.3243 	 
C 	 -35.8627 	 -6.11413 	 13.5077 	 
H 	 -36.1735 	 -5.28495 	 12.9666 	 
H 	 -36.2872 	 -6.0883 	 14.518 	 
C 	 -34.4101 	 -6.15408 	 13.9637 	 
H 	 -33.7388 	 -6.01566 	 13.1466 	 
H 	 -34.2112 	 -5.28937 	 14.6351 	 
H 	 -34.1079 	 -7.03936 	 14.5646 	 
S 	 -38.9671 	 -8.33683 	 7.43627 	 
C 	 -39.2877 	 -7.30834 	 6.00646 	 
C 	 -38.541 	 -6.17296 	 6.0517 	 
C 	 -37.5539 	 -6.12515 	 7.06162 	 
C 	 -37.6711 	 -7.20155 	 7.91579 	 
H 	 -38.7422 	 -5.33744 	 5.40703 	 
C 	 -36.4966 	 -5.05262 	 7.11685 	 
H 	 -36.4576 	 -4.36923 	 6.22132 	 
H 	 -35.5746 	 -5.58107 	 7.21438 	 
C 	 -36.6245 	 -4.08422 	 8.32309 	 
H 	 -36.6616 	 -4.69439 	 9.28361 	 
H 	 -37.5627 	 -3.55607 	 8.3532 	 
C 	 -35.4884 	 -3.10757 	 8.48187 	 
H 	 -35.2329 	 -2.48252 	 7.55271 	 
H 	 -34.5601 	 -3.58129 	 8.92012 	 
H 	 -35.8246 	 -2.26584 	 9.06398 	 
H 	 -34.0697 	 -8.17449 	 11.3412 	 
H 	 -40.0513 	 -7.40575 	 5.29298 	 
*
