! wB97X-D3 SP def2-SVP
%pal
nprocs 24
end

* xyz 0 1
S 	 -106.241 	 57.8085 	 -107.303 	 
C 	 -105.994 	 56.9075 	 -108.776 	 
C 	 -107.102 	 56.1616 	 -109.141 	 
C 	 -108.23 	 56.5776 	 -108.324 	 
C 	 -107.915 	 57.4473 	 -107.3 	 
H 	 -109.232 	 56.3096 	 -108.411 	 
C 	 -107.2 	 55.2037 	 -110.29 	 
H 	 -108.225 	 55.2839 	 -110.692 	 
H 	 -107.221 	 54.2625 	 -109.76 	 
C 	 -106.215 	 55.4449 	 -111.405 	 
H 	 -105.206 	 55.2248 	 -111.004 	 
H 	 -106.454 	 54.5409 	 -112.059 	 
C 	 -106.304 	 56.7799 	 -112.156 	 
H 	 -105.711 	 56.7678 	 -113.06 	 
H 	 -107.355 	 56.9953 	 -112.351 	 
H 	 -106.046 	 57.6556 	 -111.581 	 
S 	 -108.749 	 59.7301 	 -105.968 	 
C 	 -110.183 	 59.6966 	 -105.063 	 
C 	 -110.701 	 58.3837 	 -105.018 	 
C 	 -109.953 	 57.4032 	 -105.71 	 
C 	 -108.889 	 58.0247 	 -106.343 	 
H 	 -111.656 	 58.198 	 -104.472 	 
C 	 -110.298 	 55.8925 	 -105.647 	 
H 	 -110.735 	 55.7036 	 -106.618 	 
H 	 -110.96 	 55.6959 	 -104.863 	 
C 	 -109.146 	 54.8809 	 -105.404 	 
H 	 -108.567 	 55.177 	 -104.5 	 
H 	 -108.492 	 54.8241 	 -106.261 	 
C 	 -109.735 	 53.4903 	 -105.174 	 
H 	 -110.368 	 53.0522 	 -105.97 	 
H 	 -110.258 	 53.33 	 -104.22 	 
H 	 -108.941 	 52.683 	 -105.066 	 
H 	 -105.055 	 56.7052 	 -109.285 	 
H 	 -110.483 	 60.6112 	 -104.482 	 
*
