! wB97X-D3 SP def2-SVP
%pal
nprocs 24
end

* xyz 0 1
S 	 34.3252 	 -31.1307 	 -133.987 	 
C 	 35.9845 	 -30.6816 	 -134.258 	 
C 	 36.6918 	 -30.4633 	 -133.043 	 
C 	 35.9208 	 -30.7156 	 -131.955 	 
C 	 34.631 	 -31.1109 	 -132.213 	 
H 	 36.3716 	 -30.644 	 -130.965 	 
C 	 38.2412 	 -30.2705 	 -132.965 	 
H 	 38.493 	 -29.4975 	 -132.211 	 
H 	 38.6074 	 -29.8429 	 -133.887 	 
C 	 39.0157 	 -31.4369 	 -132.369 	 
H 	 39.9091 	 -31.0317 	 -131.888 	 
H 	 38.4023 	 -31.851 	 -131.539 	 
C 	 39.6082 	 -32.4581 	 -133.296 	 
H 	 40.2591 	 -33.0478 	 -132.647 	 
H 	 38.8708 	 -33.118 	 -133.758 	 
H 	 40.2335 	 -32.0574 	 -134.11 	 
S 	 33.3691 	 -33.3487 	 -131.156 	 
C 	 32.3065 	 -33.1547 	 -129.812 	 
C 	 32.1207 	 -31.8163 	 -129.537 	 
C 	 32.8698 	 -30.9675 	 -130.38 	 
C 	 33.6803 	 -31.6039 	 -131.263 	 
H 	 31.4917 	 -31.4576 	 -128.728 	 
C 	 33.0074 	 -29.4762 	 -130.148 	 
H 	 34.0663 	 -29.2299 	 -130.144 	 
H 	 32.6892 	 -29.1934 	 -129.115 	 
C 	 32.2727 	 -28.523 	 -131.031 	 
H 	 31.2619 	 -28.6902 	 -130.97 	 
H 	 32.5627 	 -28.595 	 -132.111 	 
C 	 32.5415 	 -27.0707 	 -130.631 	 
H 	 32.0449 	 -26.3277 	 -131.279 	 
H 	 33.6173 	 -26.7514 	 -130.636 	 
H 	 32.1259 	 -26.9151 	 -129.621 	 
H 	 36.4223 	 -30.5934 	 -135.211 	 
H 	 31.8138 	 -34.0526 	 -129.446 	 
*
