! wB97X-D3 SP def2-SVP
%pal
nprocs 24
end

* xyz 0 1
S 	 -132.544 	 27.9907 	 -14.9954 	 
C 	 -133.322 	 27.2915 	 -13.6092 	 
C 	 -134.162 	 26.2837 	 -14.0489 	 
C 	 -134.106 	 26.1001 	 -15.5209 	 
C 	 -133.179 	 26.8749 	 -16.1945 	 
H 	 -134.66 	 25.3141 	 -16.0462 	 
C 	 -134.939 	 25.3657 	 -13.1134 	 
H 	 -135.964 	 25.2404 	 -13.5265 	 
H 	 -134.86 	 25.9057 	 -12.141 	 
C 	 -134.297 	 23.9913 	 -12.8825 	 
H 	 -134.889 	 23.3408 	 -12.3028 	 
H 	 -134.205 	 23.6042 	 -13.8207 	 
C 	 -132.939 	 24.049 	 -12.0222 	 
H 	 -132.401 	 23.1306 	 -12.238 	 
H 	 -132.221 	 24.8401 	 -12.3493 	 
H 	 -133.044 	 24.0194 	 -10.8481 	 
S 	 -131.272 	 27.0501 	 -18.1865 	 
C 	 -131.766 	 27.3165 	 -19.862 	 
C 	 -133.11 	 27.1632 	 -20.0162 	 
C 	 -133.779 	 26.9288 	 -18.7775 	 
C 	 -132.959 	 26.9946 	 -17.6496 	 
H 	 -133.531 	 27.3827 	 -20.9646 	 
C 	 -135.277 	 26.8704 	 -18.6568 	 
H 	 -135.56 	 26.7876 	 -17.6644 	 
H 	 -135.686 	 25.8934 	 -18.9091 	 
C 	 -136.095 	 28.0413 	 -19.1495 	 
H 	 -135.753 	 28.2162 	 -20.1645 	 
H 	 -135.899 	 29.0151 	 -18.7374 	 
C 	 -137.577 	 27.7627 	 -19.1692 	 
H 	 -137.822 	 26.8013 	 -19.5294 	 
H 	 -138.192 	 28.5519 	 -19.7117 	 
H 	 -137.843 	 27.7599 	 -18.1185 	 
H 	 -133.029 	 27.4927 	 -12.5655 	 
H 	 -131.154 	 27.3224 	 -20.7663 	 
*
