! wB97X-D3 SP def2-SVP
%pal
nprocs 24
end

* xyz 0 1
S 	 24.859 	 -23.9869 	 -123.897 	 
C 	 25.8024 	 -24.9129 	 -125.144 	 
C 	 26.7743 	 -25.7854 	 -124.587 	 
C 	 26.7631 	 -25.7009 	 -123.161 	 
C 	 25.7586 	 -24.9004 	 -122.631 	 
H 	 27.4275 	 -26.2651 	 -122.531 	 
C 	 27.6034 	 -26.7124 	 -125.428 	 
H 	 28.3297 	 -27.0601 	 -124.745 	 
H 	 28.1377 	 -26.1982 	 -126.274 	 
C 	 26.7616 	 -27.8743 	 -126.026 	 
H 	 26.4235 	 -28.4191 	 -125.219 	 
H 	 25.9952 	 -27.4456 	 -126.672 	 
C 	 27.6656 	 -28.8279 	 -126.926 	 
H 	 28.6077 	 -29.1608 	 -126.493 	 
H 	 27.0776 	 -29.6852 	 -127.215 	 
H 	 28.0914 	 -28.2608 	 -127.74 	 
S 	 25.3809 	 -23.2908 	 -120.343 	 
C 	 24.7971 	 -24.0805 	 -118.913 	 
C 	 24.7293 	 -25.4879 	 -119.062 	 
C 	 25.0932 	 -25.9331 	 -120.361 	 
C 	 25.4218 	 -24.8578 	 -121.2 	 
H 	 24.4887 	 -26.1228 	 -118.238 	 
C 	 24.8771 	 -27.3324 	 -120.897 	 
H 	 25.6813 	 -27.9683 	 -120.566 	 
H 	 24.7276 	 -27.4286 	 -121.978 	 
C 	 23.5537 	 -27.9955 	 -120.411 	 
H 	 23.4836 	 -28.1892 	 -119.353 	 
H 	 23.4612 	 -28.9695 	 -120.817 	 
C 	 22.2797 	 -27.1395 	 -120.731 	 
H 	 21.4094 	 -27.6726 	 -120.566 	 
H 	 22.2645 	 -26.7793 	 -121.762 	 
H 	 22.2345 	 -26.2434 	 -120.163 	 
H 	 25.3652 	 -25.0389 	 -126.079 	 
H 	 24.6216 	 -23.6962 	 -117.978 	 
*
