! wB97X-D3 SP def2-SVP
%pal
nprocs 24
end

* xyz 0 1
S 	 35.5128 	 -28.3643 	 -127.995 	 
C 	 36.7675 	 -28.9278 	 -128.984 	 
C 	 36.5912 	 -30.2863 	 -129.285 	 
C 	 35.4006 	 -30.7635 	 -128.665 	 
C 	 34.815 	 -29.8918 	 -127.77 	 
H 	 34.9624 	 -31.7181 	 -128.81 	 
C 	 37.5626 	 -31.1119 	 -130.118 	 
H 	 38.4195 	 -30.4392 	 -130.3 	 
H 	 37.1379 	 -31.4312 	 -131.103 	 
C 	 37.9784 	 -32.431 	 -129.498 	 
H 	 37.118 	 -33.0341 	 -129.245 	 
H 	 38.6468 	 -32.9108 	 -130.133 	 
C 	 38.8085 	 -32.0589 	 -128.197 	 
H 	 39.4353 	 -32.9551 	 -127.927 	 
H 	 39.5616 	 -31.2568 	 -128.193 	 
H 	 38.2469 	 -31.9303 	 -127.289 	 
S 	 32.277 	 -28.6854 	 -127.493 	 
C 	 30.9333 	 -29.7091 	 -127.005 	 
C 	 31.3808 	 -30.9263 	 -126.604 	 
C 	 32.7581 	 -31.21 	 -126.839 	 
C 	 33.4348 	 -30.0666 	 -127.305 	 
H 	 30.5762 	 -31.6339 	 -126.482 	 
C 	 33.3168 	 -32.6448 	 -126.644 	 
H 	 33.4423 	 -32.802 	 -125.526 	 
H 	 34.2931 	 -32.7044 	 -127.081 	 
C 	 32.549 	 -33.867 	 -127.076 	 
H 	 32.4923 	 -33.6996 	 -128.174 	 
H 	 31.5161 	 -33.8122 	 -126.679 	 
C 	 33.189 	 -35.271 	 -126.807 	 
H 	 33.6293 	 -35.3991 	 -125.777 	 
H 	 34.0294 	 -35.5292 	 -127.497 	 
H 	 32.4698 	 -36.066 	 -126.954 	 
H 	 37.6344 	 -28.2919 	 -129.299 	 
H 	 29.8842 	 -29.3646 	 -127.018 	 
*
