! wB97X-D3 SP def2-SVP
%pal
nprocs 24
end

* xyz 0 1
S 	 -74.0243 	 11.1145 	 -110.58 	 
C 	 -75.3904 	 12.0906 	 -110.216 	 
C 	 -76.3014 	 11.5305 	 -109.323 	 
C 	 -75.9723 	 10.1544 	 -109.157 	 
C 	 -74.8557 	 9.71315 	 -109.808 	 
H 	 -76.5417 	 9.38918 	 -108.646 	 
C 	 -77.4912 	 12.2193 	 -108.789 	 
H 	 -77.2642 	 13.325 	 -108.695 	 
H 	 -77.6409 	 11.8692 	 -107.712 	 
C 	 -78.7547 	 11.8989 	 -109.468 	 
H 	 -78.6869 	 12.4707 	 -110.403 	 
H 	 -78.7625 	 10.8461 	 -109.53 	 
C 	 -79.9364 	 12.289 	 -108.638 	 
H 	 -80.859 	 11.9622 	 -109.127 	 
H 	 -79.9269 	 11.8092 	 -107.647 	 
H 	 -79.9851 	 13.3584 	 -108.487 	 
S 	 -72.7691 	 7.87385 	 -109.897 	 
C 	 -73.0306 	 6.22864 	 -110.269 	 
C 	 -74.3565 	 6.11514 	 -110.624 	 
C 	 -75.214 	 7.25173 	 -110.396 	 
C 	 -74.4552 	 8.32142 	 -110.048 	 
H 	 -74.7249 	 5.20406 	 -111.022 	 
C 	 -76.6556 	 7.24289 	 -110.955 	 
H 	 -76.6583 	 6.80587 	 -111.96 	 
H 	 -76.9228 	 8.31146 	 -111.102 	 
C 	 -77.7491 	 6.54365 	 -110.256 	 
H 	 -77.8083 	 6.79551 	 -109.221 	 
H 	 -77.5735 	 5.47939 	 -110.277 	 
C 	 -79.071 	 6.74989 	 -111.033 	 
H 	 -79.3846 	 7.764 	 -111.2 	 
H 	 -79.9052 	 6.29149 	 -110.401 	 
H 	 -79.0543 	 6.21852 	 -111.929 	 
H 	 -75.4591 	 13.168 	 -110.41 	 
H 	 -72.2386 	 5.58325 	 -110.473 	 
*
