! wB97X-D3 SP def2-SVP
%pal
nprocs 24
end

* xyz 0 1
S 	 -35.2066 	 3.30954 	 1.70278 	 
C 	 -34.0346 	 2.37265 	 0.700678 	 
C 	 -33.2867 	 1.53951 	 1.46882 	 
C 	 -33.4562 	 1.82887 	 2.82933 	 
C 	 -34.2916 	 2.88974 	 3.13655 	 
H 	 -32.9081 	 1.29397 	 3.55599 	 
C 	 -32.2802 	 0.518145 	 0.89816 	 
H 	 -32.7844 	 0.267773 	 -0.083612 	 
H 	 -32.157 	 -0.404642 	 1.48425 	 
C 	 -30.859 	 1.05754 	 0.668114 	 
H 	 -30.8896 	 1.96157 	 0.129126 	 
H 	 -30.3537 	 1.34949 	 1.51957 	 
C 	 -29.9325 	 0.0103023 	 0.0146848 	 
H 	 -29.0554 	 0.359589 	 -0.356819 	 
H 	 -29.6261 	 -0.76079 	 0.786568 	 
H 	 -30.3036 	 -0.668004 	 -0.694316 	 
S 	 -36.2544 	 3.46235 	 4.86121 	 
C 	 -35.8997 	 4.46773 	 6.26895 	 
C 	 -34.5641 	 4.51779 	 6.52512 	 
C 	 -33.7688 	 4.00924 	 5.43929 	 
C 	 -34.5911 	 3.53225 	 4.37348 	 
H 	 -34.2937 	 4.88984 	 7.48444 	 
C 	 -32.268 	 3.97689 	 5.44398 	 
H 	 -31.9574 	 3.29839 	 4.63593 	 
H 	 -31.9754 	 3.57261 	 6.39713 	 
C 	 -31.6602 	 5.32099 	 5.10092 	 
H 	 -30.6443 	 5.16766 	 5.4773 	 
H 	 -32.1168 	 6.14983 	 5.60721 	 
C 	 -31.736 	 5.65112 	 3.62062 	 
H 	 -31.4531 	 4.81501 	 2.98589 	 
H 	 -31.135 	 6.52185 	 3.34648 	 
H 	 -32.6641 	 5.89622 	 3.229 	 
H 	 -34.072 	 2.1591 	 -0.301696 	 
H 	 -36.6044 	 4.77909 	 6.98546 	 
*
