! wB97X-D3 SP def2-SVP
%pal
nprocs 24
end

* xyz 0 1
S 	 -139.17 	 14.1364 	 -3.70225 	 
C 	 -139.59 	 12.7576 	 -2.74093 	 
C 	 -138.797 	 12.5845 	 -1.65488 	 
C 	 -137.783 	 13.6247 	 -1.56963 	 
C 	 -137.689 	 14.3823 	 -2.74207 	 
H 	 -137.175 	 13.8501 	 -0.703605 	 
C 	 -139.104 	 11.5097 	 -0.620868 	 
H 	 -139.773 	 10.8727 	 -1.11357 	 
H 	 -139.634 	 11.9542 	 0.232417 	 
C 	 -137.896 	 10.6257 	 -0.101058 	 
H 	 -137.068 	 11.2228 	 0.228904 	 
H 	 -138.35 	 10.0629 	 0.680459 	 
C 	 -137.214 	 9.72767 	 -1.22522 	 
H 	 -136.677 	 10.3229 	 -1.98486 	 
H 	 -136.377 	 9.18912 	 -0.758017 	 
H 	 -137.885 	 8.94878 	 -1.67046 	 
S 	 -137.515 	 16.9818 	 -3.70722 	 
C 	 -136.066 	 17.9014 	 -3.57078 	 
C 	 -135.045 	 17.1377 	 -3.05968 	 
C 	 -135.478 	 15.7871 	 -2.68257 	 
C 	 -136.816 	 15.5282 	 -2.96862 	 
H 	 -134.05 	 17.5891 	 -3.02706 	 
C 	 -134.549 	 14.8264 	 -1.99591 	 
H 	 -134.861 	 13.8215 	 -2.21711 	 
H 	 -135.003 	 14.8131 	 -1.008 	 
C 	 -133.053 	 15.1689 	 -2.11816 	 
H 	 -132.836 	 16.2227 	 -1.86849 	 
H 	 -132.745 	 15.1265 	 -3.18553 	 
C 	 -132.212 	 14.1683 	 -1.3042 	 
H 	 -132.325 	 13.1984 	 -1.6755 	 
H 	 -132.584 	 14.0786 	 -0.18562 	 
H 	 -131.205 	 14.3776 	 -1.39401 	 
H 	 -140.503 	 12.1638 	 -2.92299 	 
H 	 -135.988 	 18.9658 	 -3.64595 	 
*
