! wB97X-D3 SP def2-SVP
%pal
nprocs 24
end

* xyz 0 1
S 	 -40.2956 	 -8.58153 	 18.1317 	 
C 	 -38.9757 	 -9.73803 	 18.2063 	 
C 	 -39.3382 	 -10.9199 	 18.8253 	 
C 	 -40.5921 	 -10.7953 	 19.4858 	 
C 	 -41.2538 	 -9.61839 	 19.2015 	 
H 	 -41.0483 	 -11.6132 	 20.0802 	 
C 	 -38.4963 	 -12.1892 	 18.9399 	 
H 	 -37.812 	 -12.3371 	 18.1445 	 
H 	 -39.2127 	 -13.0067 	 18.7227 	 
C 	 -37.8029 	 -12.323 	 20.3112 	 
H 	 -37.0263 	 -11.521 	 20.1383 	 
H 	 -38.3676 	 -12.0113 	 21.175 	 
C 	 -37.1202 	 -13.6604 	 20.6005 	 
H 	 -36.3551 	 -13.4497 	 21.3226 	 
H 	 -37.756 	 -14.4453 	 21.049 	 
H 	 -36.5888 	 -14.0376 	 19.78 	 
S 	 -42.155 	 -7.90143 	 21.1297 	 
C 	 -43.8275 	 -7.79734 	 21.6219 	 
C 	 -44.3935 	 -8.94122 	 21.0754 	 
C 	 -43.56 	 -9.74221 	 20.2332 	 
C 	 -42.3703 	 -9.12918 	 19.9321 	 
H 	 -45.4108 	 -9.14344 	 21.2504 	 
C 	 -44.1672 	 -10.9658 	 19.472 	 
H 	 -45.0557 	 -11.3204 	 20.0128 	 
H 	 -43.4306 	 -11.8002 	 19.6207 	 
C 	 -44.641 	 -10.7497 	 18.0635 	 
H 	 -43.8453 	 -10.1821 	 17.485 	 
H 	 -45.5388 	 -10.1421 	 17.9825 	 
C 	 -44.9195 	 -12.0502 	 17.3691 	 
H 	 -45.8179 	 -12.4648 	 17.7592 	 
H 	 -44.0984 	 -12.7637 	 17.2872 	 
H 	 -45.2233 	 -11.7637 	 16.3279 	 
H 	 -38.0356 	 -9.47294 	 17.8082 	 
H 	 -44.3805 	 -7.07878 	 22.2186 	 
*
