! wB97X-D3 SP def2-SVP
%pal
nprocs 24
end

* xyz 0 1
S 	 -104.016 	 38.4662 	 -20.0372 	 
C 	 -103.565 	 38.068 	 -18.3659 	 
C 	 -103.6 	 36.7138 	 -18.0401 	 
C 	 -103.783 	 35.9624 	 -19.2956 	 
C 	 -104.186 	 36.7501 	 -20.4095 	 
H 	 -103.638 	 34.8939 	 -19.3654 	 
C 	 -103.23 	 36.1262 	 -16.7303 	 
H 	 -104.006 	 35.4431 	 -16.3791 	 
H 	 -103.161 	 36.8794 	 -15.9052 	 
C 	 -101.899 	 35.3212 	 -16.9445 	 
H 	 -102.02 	 34.5579 	 -17.6452 	 
H 	 -101.113 	 35.9187 	 -17.3734 	 
C 	 -101.39 	 34.7116 	 -15.5414 	 
H 	 -100.556 	 34.1111 	 -15.8451 	 
H 	 -101.22 	 35.4546 	 -14.8239 	 
H 	 -102.141 	 34.0645 	 -15.1104 	 
S 	 -105.872 	 37.233 	 -22.4802 	 
C 	 -106.012 	 36.157 	 -23.8203 	 
C 	 -105.113 	 35.1205 	 -23.7759 	 
C 	 -104.361 	 35.2083 	 -22.5559 	 
C 	 -104.675 	 36.2969 	 -21.7113 	 
H 	 -104.866 	 34.559 	 -24.6378 	 
C 	 -103.201 	 34.2319 	 -22.3546 	 
H 	 -103.332 	 33.6186 	 -23.2756 	 
H 	 -103.431 	 33.4976 	 -21.5794 	 
C 	 -101.812 	 34.7843 	 -22.0826 	 
H 	 -101.73 	 35.2566 	 -21.0828 	 
H 	 -101.678 	 35.6404 	 -22.7014 	 
C 	 -100.604 	 33.8108 	 -22.2784 	 
H 	 -100.6 	 33.1237 	 -21.3911 	 
H 	 -99.6432 	 34.2856 	 -22.2465 	 
H 	 -100.769 	 33.263 	 -23.2584 	 
H 	 -103.391 	 38.8199 	 -17.6383 	 
H 	 -106.553 	 36.429 	 -24.7391 	 
*
