! wB97X-D3 SP def2-SVP
%pal
nprocs 24
end

* xyz 0 1
S 	 39.6551 	 -30.9338 	 -114.03 	 
C 	 38.3295 	 -32.0368 	 -114.061 	 
C 	 38.8256 	 -33.3505 	 -114.25 	 
C 	 40.3089 	 -33.4586 	 -114.292 	 
C 	 40.8405 	 -32.2071 	 -114.298 	 
H 	 40.9086 	 -34.407 	 -114.39 	 
C 	 38.0226 	 -34.6672 	 -114.386 	 
H 	 37.2995 	 -34.6896 	 -113.61 	 
H 	 38.7092 	 -35.487 	 -114.123 	 
C 	 37.4773 	 -34.998 	 -115.769 	 
H 	 36.9084 	 -35.8712 	 -115.747 	 
H 	 36.7705 	 -34.225 	 -116.07 	 
C 	 38.6262 	 -35.198 	 -116.87 	 
H 	 39.5305 	 -35.7605 	 -116.492 	 
H 	 38.2987 	 -35.6837 	 -117.755 	 
H 	 38.9413 	 -34.166 	 -117.124 	 
S 	 42.757 	 -30.4358 	 -115.302 	 
C 	 44.3605 	 -30.9815 	 -115.324 	 
C 	 44.5476 	 -32.1414 	 -114.703 	 
C 	 43.3773 	 -32.6869 	 -114.238 	 
C 	 42.2583 	 -31.9408 	 -114.539 	 
H 	 45.5389 	 -32.4561 	 -114.479 	 
C 	 43.2945 	 -33.898 	 -113.256 	 
H 	 42.342 	 -34.0429 	 -112.974 	 
H 	 43.9078 	 -33.5821 	 -112.397 	 
C 	 43.9924 	 -35.2295 	 -113.828 	 
H 	 44.0473 	 -35.9501 	 -113.026 	 
H 	 45.0387 	 -34.996 	 -114.003 	 
C 	 43.3029 	 -35.8932 	 -115.016 	 
H 	 43.9374 	 -36.7222 	 -115.39 	 
H 	 43.1679 	 -35.0837 	 -115.843 	 
H 	 42.3909 	 -36.3613 	 -114.747 	 
H 	 37.3497 	 -31.8005 	 -113.725 	 
H 	 45.2067 	 -30.363 	 -115.618 	 
*
