! wB97X-D3 SP def2-SVP
%pal
nprocs 24
end

* xyz 0 1
S 	 -41.3024 	 -48.8785 	 -81.18 	 
C 	 -42.5346 	 -49.9356 	 -80.6216 	 
C 	 -43.8036 	 -49.4373 	 -80.9941 	 
C 	 -43.6459 	 -48.0925 	 -81.4948 	 
C 	 -42.3751 	 -47.607 	 -81.664 	 
H 	 -44.5094 	 -47.5109 	 -81.8827 	 
C 	 -45.0649 	 -50.2344 	 -81.0366 	 
H 	 -45.8193 	 -49.553 	 -80.813 	 
H 	 -45.1813 	 -50.9717 	 -80.2618 	 
C 	 -45.149 	 -50.9775 	 -82.4375 	 
H 	 -44.9771 	 -50.2988 	 -83.2365 	 
H 	 -44.3461 	 -51.658 	 -82.5188 	 
C 	 -46.4988 	 -51.6891 	 -82.8875 	 
H 	 -46.5097 	 -52.0129 	 -83.9885 	 
H 	 -46.5955 	 -52.5641 	 -82.2114 	 
H 	 -47.3771 	 -51.0412 	 -82.6907 	 
S 	 -41.2502 	 -45.9454 	 -83.5567 	 
C 	 -40.8429 	 -44.2611 	 -83.2164 	 
C 	 -41.3432 	 -43.9494 	 -81.9864 	 
C 	 -41.9926 	 -45.0073 	 -81.2756 	 
C 	 -41.9144 	 -46.219 	 -81.9435 	 
H 	 -41.1404 	 -43.0165 	 -81.496 	 
C 	 -42.3258 	 -44.8758 	 -79.8011 	 
H 	 -41.5437 	 -44.3572 	 -79.3071 	 
H 	 -42.1346 	 -45.7948 	 -79.2953 	 
C 	 -43.7326 	 -44.3238 	 -79.4307 	 
H 	 -43.6692 	 -44.013 	 -78.3529 	 
H 	 -44.256 	 -45.2085 	 -79.5334 	 
C 	 -44.1455 	 -43.0891 	 -80.3587 	 
H 	 -44.0951 	 -43.3298 	 -81.4193 	 
H 	 -43.5909 	 -42.1585 	 -80.0766 	 
H 	 -45.1664 	 -42.8174 	 -80.2827 	 
H 	 -42.5016 	 -50.9215 	 -80.1689 	 
H 	 -40.1118 	 -43.6306 	 -83.6864 	 
*
