! wB97X-D3 SP def2-SVP
%pal
nprocs 24
end

* xyz 0 1
S 	 -111.659 	 61.2165 	 -69.6175 	 
C 	 -111.566 	 59.5987 	 -69.1028 	 
C 	 -112.386 	 59.2657 	 -67.998 	 
C 	 -113.208 	 60.4212 	 -67.6957 	 
C 	 -113.052 	 61.5191 	 -68.558 	 
H 	 -113.82 	 60.3752 	 -66.8194 	 
C 	 -112.431 	 57.9622 	 -67.2293 	 
H 	 -113.465 	 57.5707 	 -67.407 	 
H 	 -112.436 	 58.1461 	 -66.1637 	 
C 	 -111.3 	 56.9481 	 -67.4399 	 
H 	 -111.628 	 55.9743 	 -67.1237 	 
H 	 -110.901 	 56.8005 	 -68.4263 	 
C 	 -110.128 	 57.3331 	 -66.5761 	 
H 	 -109.613 	 58.1836 	 -67.0383 	 
H 	 -110.556 	 57.4364 	 -65.5782 	 
H 	 -109.384 	 56.6271 	 -66.5139 	 
S 	 -112.821 	 64.2687 	 -68.7263 	 
C 	 -114.232 	 65.2225 	 -68.7545 	 
C 	 -115.36 	 64.5157 	 -68.5591 	 
C 	 -115.103 	 63.1384 	 -68.3058 	 
C 	 -113.76 	 62.8397 	 -68.4827 	 
H 	 -116.285 	 65.0793 	 -68.5413 	 
C 	 -116.257 	 62.1884 	 -68.023 	 
H 	 -116.934 	 62.6443 	 -67.3292 	 
H 	 -115.866 	 61.3293 	 -67.534 	 
C 	 -117.013 	 61.737 	 -69.3083 	 
H 	 -117.043 	 62.5817 	 -70.0105 	 
H 	 -118.037 	 61.5074 	 -69.1152 	 
C 	 -116.36 	 60.4964 	 -69.9339 	 
H 	 -116.585 	 59.5872 	 -69.3661 	 
H 	 -115.319 	 60.4194 	 -70.0842 	 
H 	 -116.866 	 60.3789 	 -70.9175 	 
H 	 -110.836 	 58.9004 	 -69.4829 	 
H 	 -114.281 	 66.1704 	 -69.153 	 
*
