! wB97X-D3 SP def2-SVP
%pal
nprocs 24
end

* xyz 0 1
S 	 -104.655 	 58.0907 	 -106.568 	 
C 	 -104.1 	 56.4805 	 -106.898 	 
C 	 -105.177 	 55.7659 	 -107.477 	 
C 	 -106.429 	 56.4537 	 -107.474 	 
C 	 -106.298 	 57.7575 	 -107.03 	 
H 	 -107.378 	 56.0683 	 -107.817 	 
C 	 -105.059 	 54.2724 	 -107.993 	 
H 	 -105.748 	 53.6579 	 -107.455 	 
H 	 -104.102 	 53.9346 	 -107.52 	 
C 	 -105.151 	 53.9866 	 -109.452 	 
H 	 -104.349 	 54.4801 	 -109.957 	 
H 	 -105.011 	 52.8894 	 -109.643 	 
C 	 -106.589 	 54.1179 	 -109.966 	 
H 	 -106.834 	 55.2005 	 -109.93 	 
H 	 -106.808 	 53.6864 	 -110.983 	 
H 	 -107.276 	 53.6655 	 -109.241 	 
S 	 -106.972 	 60.3517 	 -107.772 	 
C 	 -108.542 	 61.0532 	 -107.308 	 
C 	 -109.341 	 60.064 	 -106.769 	 
C 	 -108.752 	 58.7344 	 -106.632 	 
C 	 -107.383 	 58.7965 	 -107.057 	 
H 	 -110.354 	 60.396 	 -106.494 	 
C 	 -109.51 	 57.5832 	 -105.922 	 
H 	 -109.349 	 56.6907 	 -106.352 	 
H 	 -110.613 	 57.7178 	 -106.073 	 
C 	 -109.157 	 57.5067 	 -104.43 	 
H 	 -109.386 	 58.4262 	 -103.985 	 
H 	 -108.069 	 57.3203 	 -104.438 	 
C 	 -109.941 	 56.4691 	 -103.635 	 
H 	 -109.911 	 56.6593 	 -102.536 	 
H 	 -109.418 	 55.4975 	 -103.645 	 
H 	 -110.923 	 56.1944 	 -104.083 	 
H 	 -103.045 	 56.1824 	 -106.985 	 
H 	 -108.844 	 62.0085 	 -107.46 	 
*
