! wB97X-D3 SP def2-SVP
%pal
nprocs 24
end

* xyz 0 1
S 	 -56.4498 	 -3.64295 	 -26.9712 	 
C 	 -55.6049 	 -2.77816 	 -25.7568 	 
C 	 -54.5439 	 -2.07674 	 -26.3333 	 
C 	 -54.6068 	 -2.05315 	 -27.7205 	 
C 	 -55.6386 	 -2.72547 	 -28.2321 	 
H 	 -53.8855 	 -1.47702 	 -28.3448 	 
C 	 -53.4644 	 -1.28662 	 -25.6271 	 
H 	 -52.4729 	 -1.49632 	 -26.0037 	 
H 	 -53.5541 	 -1.76581 	 -24.6254 	 
C 	 -53.7711 	 0.240643 	 -25.6015 	 
H 	 -53.8584 	 0.768226 	 -26.5481 	 
H 	 -54.6645 	 0.546097 	 -25.1625 	 
C 	 -52.5335 	 0.935317 	 -24.9722 	 
H 	 -52.6033 	 2.01829 	 -24.9498 	 
H 	 -52.5128 	 0.479945 	 -23.9772 	 
H 	 -51.6327 	 0.634638 	 -25.591 	 
S 	 -55.4029 	 -4.35419 	 -30.5235 	 
C 	 -55.9648 	 -3.78327 	 -32.1181 	 
C 	 -56.5771 	 -2.54218 	 -31.9053 	 
C 	 -56.5701 	 -2.00883 	 -30.5633 	 
C 	 -55.9972 	 -2.90826 	 -29.6377 	 
H 	 -57.3176 	 -2.21268 	 -32.6172 	 
C 	 -57.2543 	 -0.629091 	 -30.3053 	 
H 	 -57.4791 	 -0.264637 	 -31.3274 	 
H 	 -56.5435 	 0.130652 	 -29.957 	 
C 	 -58.444 	 -0.597602 	 -29.3619 	 
H 	 -58.544 	 0.404959 	 -29.0426 	 
H 	 -58.2315 	 -1.21794 	 -28.4535 	 
C 	 -59.7205 	 -1.15869 	 -29.9226 	 
H 	 -60.1465 	 -0.762082 	 -30.8923 	 
H 	 -60.5229 	 -1.09994 	 -29.1516 	 
H 	 -59.5048 	 -2.23785 	 -30.22 	 
H 	 -55.756 	 -2.85406 	 -24.7006 	 
H 	 -56.0535 	 -4.29711 	 -33.0495 	 
*
