! wB97X-D3 SP def2-SVP
%pal
nprocs 24
end

* xyz 0 1
S 	 -69.7314 	 7.77169 	 -77.3913 	 
C 	 -69.4078 	 7.30702 	 -79.0713 	 
C 	 -70.2004 	 6.29266 	 -79.5982 	 
C 	 -71.1309 	 5.84649 	 -78.5441 	 
C 	 -71.06 	 6.66737 	 -77.3685 	 
H 	 -72.0336 	 5.23168 	 -78.7697 	 
C 	 -70.2221 	 5.87038 	 -81.013 	 
H 	 -69.2907 	 6.16782 	 -81.4874 	 
H 	 -70.9354 	 6.54165 	 -81.5364 	 
C 	 -70.2866 	 4.43356 	 -81.456 	 
H 	 -70.322 	 4.26908 	 -82.553 	 
H 	 -69.3347 	 4.1082 	 -81.2288 	 
C 	 -71.2843 	 3.63062 	 -80.7701 	 
H 	 -71.2364 	 3.66386 	 -79.6961 	 
H 	 -72.3525 	 3.91596 	 -81.1725 	 
H 	 -71.1326 	 2.59294 	 -81.0797 	 
S 	 -72.0108 	 8.24537 	 -75.2996 	 
C 	 -73.2366 	 7.63694 	 -74.2852 	 
C 	 -73.4958 	 6.35606 	 -74.5231 	 
C 	 -72.8233 	 5.7894 	 -75.6524 	 
C 	 -72.0474 	 6.73302 	 -76.2886 	 
H 	 -74.2059 	 5.94394 	 -73.8282 	 
C 	 -73.1969 	 4.38444 	 -76.1268 	 
H 	 -73.4489 	 4.46518 	 -77.1733 	 
H 	 -74.1188 	 4.11168 	 -75.602 	 
C 	 -72.115 	 3.36138 	 -75.687 	 
H 	 -72.1978 	 3.35131 	 -74.5672 	 
H 	 -71.0723 	 3.63761 	 -76.1125 	 
C 	 -72.424 	 1.96569 	 -76.2149 	 
H 	 -72.2075 	 1.8464 	 -77.3039 	 
H 	 -73.4222 	 1.62381 	 -76.1188 	 
H 	 -71.7443 	 1.23441 	 -75.8012 	 
H 	 -68.8223 	 7.97846 	 -79.6757 	 
H 	 -73.6044 	 8.25694 	 -73.4145 	 
*
