! wB97X-D3 SP def2-SVP
%pal
nprocs 24
end

* xyz 0 1
S 	 -110.55 	 36.508 	 -16.4442 	 
C 	 -109.308 	 36.9956 	 -15.4008 	 
C 	 -108.063 	 36.6283 	 -15.8006 	 
C 	 -108.12 	 35.7668 	 -16.9725 	 
C 	 -109.426 	 35.5815 	 -17.4446 	 
H 	 -107.237 	 35.4672 	 -17.543 	 
C 	 -106.78 	 37.2103 	 -15.2293 	 
H 	 -106.956 	 38.0682 	 -14.6322 	 
H 	 -106.245 	 37.5577 	 -16.1142 	 
C 	 -105.846 	 36.1793 	 -14.5228 	 
H 	 -106.497 	 35.7235 	 -13.7769 	 
H 	 -105.696 	 35.455 	 -15.3162 	 
C 	 -104.552 	 36.7718 	 -13.827 	 
H 	 -103.801 	 35.9199 	 -13.7513 	 
H 	 -103.866 	 37.3893 	 -14.4126 	 
H 	 -104.693 	 37.1535 	 -12.8149 	 
S 	 -111.306 	 35.3156 	 -19.4987 	 
C 	 -111.271 	 33.9464 	 -20.6089 	 
C 	 -110.198 	 33.1569 	 -20.3001 	 
C 	 -109.489 	 33.5019 	 -19.0823 	 
C 	 -109.943 	 34.7114 	 -18.4994 	 
H 	 -109.95 	 32.3742 	 -20.9268 	 
C 	 -108.331 	 32.6414 	 -18.6175 	 
H 	 -107.427 	 33.2379 	 -18.9237 	 
H 	 -108.219 	 31.6931 	 -19.2091 	 
C 	 -108.261 	 32.2995 	 -17.1034 	 
H 	 -109.284 	 32.3106 	 -16.6926 	 
H 	 -107.791 	 33.0133 	 -16.4798 	 
C 	 -107.555 	 30.8734 	 -16.9327 	 
H 	 -108.015 	 30.1741 	 -17.527 	 
H 	 -107.503 	 30.5096 	 -15.9127 	 
H 	 -106.563 	 30.9354 	 -17.2875 	 
H 	 -109.535 	 37.7238 	 -14.6659 	 
H 	 -111.756 	 33.898 	 -21.5445 	 
*
