! wB97X-D3 SP def2-SVP
%pal
nprocs 24
end

* xyz 0 1
S 	 -50.1282 	 25.6197 	 28.819 	 
C 	 -51.6504 	 26.3207 	 29.4197 	 
C 	 -51.5746 	 27.7216 	 29.5438 	 
C 	 -50.2315 	 28.1812 	 29.1859 	 
C 	 -49.4133 	 27.1444 	 28.6651 	 
H 	 -49.8533 	 29.2282 	 29.3637 	 
C 	 -52.7038 	 28.6594 	 30.0146 	 
H 	 -52.5695 	 29.7199 	 29.6501 	 
H 	 -52.6403 	 28.6811 	 31.1078 	 
C 	 -54.2236 	 28.2922 	 29.7183 	 
H 	 -54.2605 	 27.9445 	 28.6728 	 
H 	 -54.7082 	 27.6023 	 30.4144 	 
C 	 -55.0547 	 29.5815 	 29.6926 	 
H 	 -56.0956 	 29.403 	 29.4187 	 
H 	 -55.0254 	 30.1199 	 30.6671 	 
H 	 -54.672 	 30.221 	 28.9298 	 
S 	 -47.5895 	 28.7022 	 27.4058 	 
C 	 -46.1244 	 28.0336 	 26.8202 	 
C 	 -46.0515 	 26.7064 	 27.0503 	 
C 	 -47.1052 	 26.2572 	 27.8397 	 
C 	 -48.062 	 27.2388 	 28.1789 	 
H 	 -45.3024 	 26.1086 	 26.616 	 
C 	 -47.1541 	 24.7271 	 28.2507 	 
H 	 -47.9675 	 24.3434 	 27.5984 	 
H 	 -47.5482 	 24.6086 	 29.2581 	 
C 	 -45.8885 	 23.8536 	 28.1159 	 
H 	 -45.2326 	 24.1529 	 28.9207 	 
H 	 -45.4119 	 24.0842 	 27.2032 	 
C 	 -46.1834 	 22.3195 	 28.2949 	 
H 	 -46.4861 	 22.1005 	 29.346 	 
H 	 -45.4377 	 21.678 	 27.9683 	 
H 	 -47.0137 	 22.1386 	 27.6628 	 
H 	 -52.5038 	 25.7136 	 29.6745 	 
H 	 -45.3825 	 28.5614 	 26.3053 	 
*
