! wB97X-D3 SP def2-SVP
%pal
nprocs 24
end

* xyz 0 1
S 	 -45.82 	 18.5141 	 24.6867 	 
C 	 -46.1789 	 17.4885 	 23.3132 	 
C 	 -46.8392 	 16.3485 	 23.6614 	 
C 	 -47.0657 	 16.2802 	 25.1066 	 
C 	 -46.5356 	 17.3458 	 25.7884 	 
H 	 -47.6656 	 15.5531 	 25.6133 	 
C 	 -47.1584 	 15.2472 	 22.6527 	 
H 	 -47.1112 	 15.6778 	 21.664 	 
H 	 -48.1461 	 14.8654 	 22.7747 	 
C 	 -46.1357 	 14.0856 	 22.6993 	 
H 	 -46.3487 	 13.6628 	 23.6215 	 
H 	 -46.349 	 13.4689 	 21.7949 	 
C 	 -44.6162 	 14.3889 	 22.5644 	 
H 	 -44.3175 	 14.898 	 21.6914 	 
H 	 -44.373 	 15.0805 	 23.2904 	 
H 	 -43.9927 	 13.4807 	 22.7244 	 
S 	 -47.1417 	 19.1078 	 27.8245 	 
C 	 -47.1751 	 18.5464 	 29.4447 	 
C 	 -46.7135 	 17.257 	 29.5256 	 
C 	 -46.3831 	 16.6841 	 28.2396 	 
C 	 -46.6441 	 17.5498 	 27.2404 	 
H 	 -46.6488 	 16.7463 	 30.4976 	 
C 	 -45.762 	 15.2652 	 28.0405 	 
H 	 -44.6756 	 15.2488 	 27.9783 	 
H 	 -46.1188 	 14.9191 	 27.0647 	 
C 	 -46.1132 	 14.1003 	 29.0397 	 
H 	 -45.7918 	 14.3925 	 30.1093 	 
H 	 -45.5267 	 13.2493 	 28.7549 	 
C 	 -47.5658 	 13.712 	 29.0498 	 
H 	 -47.8157 	 12.8033 	 29.5608 	 
H 	 -48.0576 	 13.7457 	 28.083 	 
H 	 -48.1352 	 14.5757 	 29.4261 	 
H 	 -45.9297 	 17.546 	 22.251 	 
H 	 -47.4091 	 19.1082 	 30.4142 	 
*
