! wB97X-D3 SP def2-SVP
%pal
nprocs 24
end

* xyz 0 1
S 	 -135.809 	 3.38285 	 4.82918 	 
C 	 -135.18 	 2.17995 	 3.6482 	 
C 	 -133.92 	 1.72354 	 4.04272 	 
C 	 -133.646 	 2.15091 	 5.41866 	 
C 	 -134.487 	 3.12546 	 5.93182 	 
H 	 -132.775 	 1.86048 	 5.9614 	 
C 	 -133 	 0.818383 	 3.24101 	 
H 	 -133.497 	 0.677157 	 2.2883 	 
H 	 -133.045 	 -0.191353 	 3.71816 	 
C 	 -131.578 	 1.30091 	 3.17255 	 
H 	 -131.559 	 2.31725 	 2.70902 	 
H 	 -131.068 	 1.20771 	 4.18029 	 
C 	 -130.676 	 0.505423 	 2.37235 	 
H 	 -130.694 	 -0.534199 	 2.67468 	 
H 	 -130.885 	 0.336553 	 1.30589 	 
H 	 -129.628 	 0.879733 	 2.42445 	 
S 	 -134.714 	 5.60742 	 7.0404 	 
C 	 -134.245 	 5.83867 	 8.67329 	 
C 	 -133.949 	 4.66992 	 9.28453 	 
C 	 -134.02 	 3.54659 	 8.46018 	 
C 	 -134.419 	 3.90506 	 7.15639 	 
H 	 -133.573 	 4.57822 	 10.316 	 
C 	 -133.721 	 2.13289 	 8.96426 	 
H 	 -133.776 	 1.34262 	 8.22001 	 
H 	 -134.735 	 1.90171 	 9.40882 	 
C 	 -132.415 	 1.94598 	 9.78364 	 
H 	 -132.326 	 0.870252 	 10.0902 	 
H 	 -132.439 	 2.61732 	 10.6605 	 
C 	 -131.088 	 2.16194 	 9.05447 	 
H 	 -130.245 	 1.86788 	 9.57028 	 
H 	 -131.084 	 3.25432 	 8.70855 	 
H 	 -131.103 	 1.45792 	 8.21266 	 
H 	 -135.577 	 1.97802 	 2.65052 	 
H 	 -134.271 	 6.76289 	 9.11815 	 
*
