! wB97X-D3 SP def2-SVP
%pal
nprocs 24
end

* xyz 0 1
S 	 -59.7563 	 4.40335 	 -23.3318 	 
C 	 -61.3823 	 4.84787 	 -23.8643 	 
C 	 -62.3475 	 4.09588 	 -23.2932 	 
C 	 -61.806 	 3.12583 	 -22.3657 	 
C 	 -60.4778 	 3.15695 	 -22.2439 	 
H 	 -62.3843 	 2.37827 	 -21.9503 	 
C 	 -63.8251 	 4.13867 	 -23.6017 	 
H 	 -64.1027 	 3.24108 	 -24.0285 	 
H 	 -63.958 	 4.8181 	 -24.4082 	 
C 	 -64.798 	 4.35405 	 -22.4629 	 
H 	 -64.6306 	 3.59321 	 -21.6235 	 
H 	 -64.6316 	 5.36105 	 -22.0962 	 
C 	 -66.2914 	 4.37611 	 -22.9934 	 
H 	 -66.4236 	 5.04315 	 -23.763 	 
H 	 -66.5986 	 3.31904 	 -23.3064 	 
H 	 -66.9606 	 4.68859 	 -22.1706 	 
S 	 -58.316 	 1.46565 	 -22.7716 	 
C 	 -57.7226 	 0.369334 	 -21.5337 	 
C 	 -58.5243 	 0.510311 	 -20.3816 	 
C 	 -59.538 	 1.54579 	 -20.4854 	 
C 	 -59.5714 	 2.14548 	 -21.7175 	 
H 	 -58.3128 	 -0.140293 	 -19.4798 	 
C 	 -60.2934 	 1.87956 	 -19.2226 	 
H 	 -60.2109 	 1.01503 	 -18.6468 	 
H 	 -61.2707 	 2.13102 	 -19.4836 	 
C 	 -59.6007 	 2.91315 	 -18.4194 	 
H 	 -59.5204 	 3.80714 	 -19.0888 	 
H 	 -58.5496 	 2.78358 	 -18.29 	 
C 	 -60.2711 	 3.2865 	 -17.1108 	 
H 	 -61.3715 	 3.31267 	 -17.2636 	 
H 	 -59.959 	 4.26782 	 -16.7507 	 
H 	 -60.2002 	 2.57356 	 -16.32 	 
H 	 -61.5778 	 5.52235 	 -24.7281 	 
H 	 -56.9839 	 -0.4571 	 -21.5777 	 
*
