! wB97X-D3 SP def2-SVP
%pal
nprocs 24
end

* xyz 0 1
S 	 -105.907 	 42.887 	 -92.3085 	 
C 	 -105.441 	 42.0535 	 -90.7942 	 
C 	 -104.343 	 41.2391 	 -90.9906 	 
C 	 -103.932 	 41.2325 	 -92.3442 	 
C 	 -104.532 	 42.1553 	 -93.1427 	 
H 	 -103.076 	 40.6559 	 -92.676 	 
C 	 -103.596 	 40.3863 	 -89.9712 	 
H 	 -103.322 	 39.5201 	 -90.6401 	 
H 	 -104.342 	 40.2038 	 -89.1233 	 
C 	 -102.329 	 41.0038 	 -89.4462 	 
H 	 -101.591 	 41.0323 	 -90.2846 	 
H 	 -102.509 	 42.0396 	 -89.1811 	 
C 	 -101.574 	 40.2832 	 -88.2597 	 
H 	 -100.873 	 40.9862 	 -87.845 	 
H 	 -102.292 	 39.9225 	 -87.4639 	 
H 	 -100.97 	 39.4074 	 -88.6708 	 
S 	 -105.584 	 42.5204 	 -95.7093 	 
C 	 -104.562 	 42.5278 	 -97.0741 	 
C 	 -103.302 	 42.6236 	 -96.6852 	 
C 	 -103.078 	 42.6347 	 -95.2222 	 
C 	 -104.25 	 42.3645 	 -94.5893 	 
H 	 -102.545 	 42.6878 	 -97.4574 	 
C 	 -101.726 	 42.6878 	 -94.6958 	 
H 	 -101.102 	 42.4355 	 -95.6009 	 
H 	 -101.52 	 41.8965 	 -94.001 	 
C 	 -101.277 	 44.0466 	 -94.2108 	 
H 	 -102.113 	 44.3475 	 -93.5331 	 
H 	 -101.337 	 44.7355 	 -95.0511 	 
C 	 -99.9163 	 44.1833 	 -93.5894 	 
H 	 -99.6914 	 45.2399 	 -93.1583 	 
H 	 -99.144 	 44.0043 	 -94.3209 	 
H 	 -99.8001 	 43.4627 	 -92.7607 	 
H 	 -105.862 	 42.2819 	 -89.8517 	 
H 	 -104.93 	 42.6734 	 -98.0797 	 
*
