! wB97X-D3 SP def2-SVP
%pal
nprocs 24
end

* xyz 0 1
S 	 -92.1368 	 -29.6701 	 -63.1414 	 
C 	 -93.0348 	 -30.0286 	 -64.6402 	 
C 	 -93.9916 	 -29.0733 	 -64.8752 	 
C 	 -93.9779 	 -28.0549 	 -63.8817 	 
C 	 -93.0934 	 -28.2403 	 -62.8169 	 
H 	 -94.6969 	 -27.196 	 -63.8376 	 
C 	 -95.022 	 -29.0144 	 -65.9722 	 
H 	 -95.0165 	 -27.9654 	 -66.3649 	 
H 	 -96.0259 	 -29.0379 	 -65.5937 	 
C 	 -95.0574 	 -30.2088 	 -67.0175 	 
H 	 -94.0611 	 -30.3321 	 -67.4231 	 
H 	 -95.3785 	 -31.1121 	 -66.4802 	 
C 	 -96.0296 	 -30.0691 	 -68.086 	 
H 	 -97.0013 	 -29.6884 	 -67.777 	 
H 	 -95.6804 	 -29.4394 	 -68.9156 	 
H 	 -96.2302 	 -31.1067 	 -68.3976 	 
S 	 -93.0461 	 -28.4148 	 -60.133 	 
C 	 -93.177 	 -26.9951 	 -59.1576 	 
C 	 -93.2223 	 -25.8537 	 -59.8841 	 
C 	 -93.1476 	 -26.1142 	 -61.2787 	 
C 	 -93.0177 	 -27.4473 	 -61.5609 	 
H 	 -93.4297 	 -24.8581 	 -59.3975 	 
C 	 -93.2682 	 -25.0044 	 -62.2939 	 
H 	 -94.1514 	 -24.4379 	 -61.9935 	 
H 	 -93.3369 	 -25.4058 	 -63.3126 	 
C 	 -92.1827 	 -23.892 	 -62.2209 	 
H 	 -91.2271 	 -24.3772 	 -62.1485 	 
H 	 -92.3888 	 -23.3529 	 -61.2889 	 
C 	 -92.1439 	 -22.9279 	 -63.3858 	 
H 	 -92.8826 	 -22.2401 	 -63.4154 	 
H 	 -92.0397 	 -23.4757 	 -64.3158 	 
H 	 -91.22 	 -22.3873 	 -63.2541 	 
H 	 -93.1223 	 -30.9498 	 -65.2068 	 
H 	 -93.2104 	 -26.9494 	 -58.0961 	 
*
