! wB97X-D3 SP def2-SVP
%pal
nprocs 24
end

* xyz 0 1
S 	 -46.2505 	 13.4494 	 27.1236 	 
C 	 -45.9674 	 13.1751 	 25.432 	 
C 	 -47.0166 	 12.5243 	 24.8062 	 
C 	 -48.1574 	 12.5375 	 25.6526 	 
C 	 -47.8785 	 13.0254 	 26.9605 	 
H 	 -49.1822 	 12.1426 	 25.437 	 
C 	 -47.0007 	 11.96 	 23.3447 	 
H 	 -47.9457 	 11.9381 	 22.9142 	 
H 	 -46.6191 	 10.9645 	 23.4064 	 
C 	 -46.2617 	 12.6734 	 22.3187 	 
H 	 -45.161 	 12.671 	 22.6353 	 
H 	 -46.333 	 12.0941 	 21.3965 	 
C 	 -46.6637 	 14.1162 	 21.9564 	 
H 	 -46.2572 	 14.9219 	 22.5888 	 
H 	 -46.2432 	 14.3515 	 20.9653 	 
H 	 -47.7765 	 14.1941 	 21.8967 	 
S 	 -48.7159 	 11.6468 	 29.1312 	 
C 	 -50.2553 	 12.0404 	 29.8995 	 
C 	 -50.7507 	 13.1909 	 29.3719 	 
C 	 -49.996 	 13.8014 	 28.374 	 
C 	 -48.832 	 13.0664 	 28.0957 	 
H 	 -51.7071 	 13.5816 	 29.7656 	 
C 	 -50.5103 	 14.9387 	 27.5703 	 
H 	 -51.6247 	 15.1222 	 27.6911 	 
H 	 -50.5329 	 14.7809 	 26.501 	 
C 	 -49.8087 	 16.2689 	 27.9707 	 
H 	 -50.1694 	 16.9458 	 27.2969 	 
H 	 -48.7661 	 16.1436 	 27.7903 	 
C 	 -50.0255 	 16.6847 	 29.4182 	 
H 	 -50.9727 	 17.1071 	 29.6304 	 
H 	 -49.319 	 17.418 	 29.6184 	 
H 	 -50.011 	 15.828 	 30.1334 	 
H 	 -44.9455 	 13.3375 	 24.9626 	 
H 	 -50.7124 	 11.4792 	 30.7198 	 
*
