! wB97X-D3 SP def2-SVP
%pal
nprocs 24
end

* xyz 0 1
S 	 46.2454 	 -35.9979 	 -120.967 	 
C 	 46.4273 	 -35.4474 	 -122.614 	 
C 	 46.4915 	 -34.0523 	 -122.725 	 
C 	 46.8739 	 -33.5621 	 -121.457 	 
C 	 46.7906 	 -34.4309 	 -120.397 	 
H 	 47.3819 	 -32.6242 	 -121.427 	 
C 	 46.3115 	 -33.193 	 -124.035 	 
H 	 46.329 	 -33.9596 	 -124.832 	 
H 	 47.2117 	 -32.5518 	 -124.135 	 
C 	 44.9619 	 -32.4061 	 -124.06 	 
H 	 44.7143 	 -31.9603 	 -125.017 	 
H 	 44.1217 	 -33.1802 	 -123.979 	 
C 	 44.6574 	 -31.2798 	 -123.033 	 
H 	 45.5267 	 -30.5654 	 -123.11 	 
H 	 43.7233 	 -30.679 	 -123.276 	 
H 	 44.6849 	 -31.7428 	 -122.041 	 
S 	 48.126 	 -35.4594 	 -118.159 	 
C 	 48.0098 	 -34.547 	 -116.715 	 
C 	 47.4806 	 -33.3436 	 -116.846 	 
C 	 46.9732 	 -33.0876 	 -118.193 	 
C 	 47.1448 	 -34.2329 	 -118.991 	 
H 	 47.4481 	 -32.6116 	 -116.04 	 
C 	 46.3942 	 -31.7516 	 -118.597 	 
H 	 45.6945 	 -31.4032 	 -117.913 	 
H 	 45.8187 	 -31.9087 	 -119.465 	 
C 	 47.4848 	 -30.6923 	 -118.973 	 
H 	 48.2235 	 -31.0789 	 -119.676 	 
H 	 47.9802 	 -30.4795 	 -118.071 	 
C 	 46.8163 	 -29.4145 	 -119.56 	 
H 	 46.4818 	 -29.5816 	 -120.574 	 
H 	 47.6247 	 -28.7042 	 -119.471 	 
H 	 46.0253 	 -28.9637 	 -118.964 	 
H 	 45.9478 	 -36.0254 	 -123.469 	 
H 	 48.4619 	 -34.8122 	 -115.849 	 
*
