! wB97X-D3 SP def2-SVP
%pal
nprocs 24
end

* xyz 0 1
S 	 -39.8368 	 -49.3913 	 -76.8607 	 
C 	 -38.4068 	 -49.8429 	 -77.7439 	 
C 	 -38.065 	 -48.8909 	 -78.7155 	 
C 	 -38.9621 	 -47.7356 	 -78.6374 	 
C 	 -39.9668 	 -47.8493 	 -77.6848 	 
H 	 -38.9299 	 -46.872 	 -79.2678 	 
C 	 -36.864 	 -48.8753 	 -79.5847 	 
H 	 -37.0952 	 -48.458 	 -80.5299 	 
H 	 -36.6332 	 -49.8943 	 -79.7849 	 
C 	 -35.6296 	 -48.1507 	 -78.8848 	 
H 	 -34.8277 	 -48.1939 	 -79.6404 	 
H 	 -35.7699 	 -47.0665 	 -78.7286 	 
C 	 -35.0568 	 -48.758 	 -77.6064 	 
H 	 -34.0788 	 -48.3512 	 -77.3858 	 
H 	 -35.7339 	 -48.6444 	 -76.7305 	 
H 	 -34.8397 	 -49.8474 	 -77.8553 	 
S 	 -41.4082 	 -46.709 	 -75.6504 	 
C 	 -42.3998 	 -45.2966 	 -76.0564 	 
C 	 -42.4607 	 -45.1223 	 -77.3991 	 
C 	 -41.6941 	 -46.0521 	 -78.1766 	 
C 	 -40.976 	 -46.8405 	 -77.3536 	 
H 	 -43.0613 	 -44.3393 	 -77.9496 	 
C 	 -41.6881 	 -45.967 	 -79.699 	 
H 	 -40.7736 	 -45.5361 	 -80.0806 	 
H 	 -42.4472 	 -45.218 	 -79.8991 	 
C 	 -42.2464 	 -47.2647 	 -80.4786 	 
H 	 -43.1319 	 -47.6348 	 -79.9665 	 
H 	 -41.4415 	 -47.9461 	 -80.2218 	 
C 	 -42.5673 	 -47.1329 	 -81.9293 	 
H 	 -42.9533 	 -48.0218 	 -82.4525 	 
H 	 -41.7095 	 -46.7467 	 -82.4635 	 
H 	 -43.26 	 -46.2871 	 -82.0645 	 
H 	 -37.9494 	 -50.7965 	 -77.6175 	 
H 	 -42.7197 	 -44.6646 	 -75.179 	 
*
