! wB97X-D3 SP def2-SVP
%pal
nprocs 24
end

* xyz 0 1
S 	 -72.108 	 5.85411 	 -102.48 	 
C 	 -72.7708 	 7.41737 	 -101.973 	 
C 	 -73.6133 	 7.86972 	 -102.968 	 
C 	 -73.5515 	 7.11606 	 -104.15 	 
C 	 -72.6524 	 6.1133 	 -104.105 	 
H 	 -74.0544 	 7.31079 	 -105.092 	 
C 	 -74.447 	 9.16718 	 -102.984 	 
H 	 -74.8957 	 9.11751 	 -101.961 	 
H 	 -75.1459 	 9.02645 	 -103.784 	 
C 	 -73.5293 	 10.4271 	 -103.284 	 
H 	 -73.0824 	 10.2992 	 -104.287 	 
H 	 -74.2019 	 11.2995 	 -103.38 	 
C 	 -72.4201 	 10.7221 	 -102.235 	 
H 	 -72.8904 	 10.8235 	 -101.282 	 
H 	 -71.5902 	 10.0109 	 -102.198 	 
H 	 -71.9351 	 11.6445 	 -102.497 	 
S 	 -72.5896 	 3.39127 	 -104.606 	 
C 	 -72.3327 	 2.81457 	 -106.223 	 
C 	 -71.834 	 3.82419 	 -107.005 	 
C 	 -71.9178 	 5.13507 	 -106.432 	 
C 	 -72.3495 	 5.04003 	 -105.086 	 
H 	 -71.549 	 3.64653 	 -108.012 	 
C 	 -71.6944 	 6.30986 	 -107.296 	 
H 	 -72.2003 	 7.23209 	 -106.846 	 
H 	 -72.0954 	 6.10364 	 -108.221 	 
C 	 -70.2593 	 6.85312 	 -107.38 	 
H 	 -69.8376 	 6.05026 	 -108.079 	 
H 	 -69.9134 	 6.66247 	 -106.366 	 
C 	 -70.1343 	 8.19582 	 -108.04 	 
H 	 -70.8103 	 8.9798 	 -107.591 	 
H 	 -70.4064 	 8.1486 	 -109.067 	 
H 	 -69.1306 	 8.48427 	 -108.023 	 
H 	 -72.7767 	 7.68846 	 -100.896 	 
H 	 -72.264 	 1.83732 	 -106.478 	 
*
