! wB97X-D3 SP def2-SVP
%pal
nprocs 24
end

* xyz 0 1
S 	 -129.218 	 58.3526 	 -58.7991 	 
C 	 -130.267 	 59.569 	 -57.9234 	 
C 	 -129.553 	 60.4182 	 -57.0956 	 
C 	 -128.172 	 60.2267 	 -57.2088 	 
C 	 -127.796 	 59.22 	 -58.1082 	 
H 	 -127.435 	 60.82 	 -56.6399 	 
C 	 -130.144 	 61.715 	 -56.4363 	 
H 	 -129.989 	 61.6299 	 -55.3068 	 
H 	 -131.166 	 61.7271 	 -56.686 	 
C 	 -129.547 	 63.0484 	 -56.8493 	 
H 	 -129.386 	 63.0058 	 -57.934 	 
H 	 -130.306 	 63.8258 	 -56.778 	 
C 	 -128.269 	 63.3801 	 -56.0887 	 
H 	 -128.089 	 64.3485 	 -56.3791 	 
H 	 -128.503 	 63.1814 	 -55.0103 	 
H 	 -127.373 	 62.7322 	 -56.3712 	 
S 	 -126.305 	 56.9504 	 -58.3905 	 
C 	 -124.756 	 57.0692 	 -59.0897 	 
C 	 -124.261 	 58.3671 	 -59.0916 	 
C 	 -125.29 	 59.3438 	 -58.7758 	 
C 	 -126.451 	 58.724 	 -58.386 	 
H 	 -123.321 	 58.5596 	 -59.5646 	 
C 	 -125.127 	 60.888 	 -58.9533 	 
H 	 -126.053 	 61.3286 	 -59.2337 	 
H 	 -124.469 	 60.9646 	 -59.8632 	 
C 	 -124.496 	 61.5458 	 -57.6612 	 
H 	 -123.509 	 61.1431 	 -57.4523 	 
H 	 -125.184 	 61.3713 	 -56.8309 	 
C 	 -124.456 	 63.1023 	 -57.8262 	 
H 	 -123.668 	 63.5856 	 -57.2922 	 
H 	 -125.345 	 63.6078 	 -57.6811 	 
H 	 -124.221 	 63.3398 	 -58.8717 	 
H 	 -131.278 	 59.5592 	 -58.0458 	 
H 	 -124.063 	 56.2803 	 -59.3531 	 
*
