! wB97X-D3 SP def2-SVP
%pal
nprocs 24
end

* xyz 0 1
S 	 -27.0481 	 -4.12341 	 -4.8188 	 
C 	 -25.9944 	 -5.36974 	 -4.08032 	 
C 	 -26.8151 	 -6.41757 	 -3.60052 	 
C 	 -28.2088 	 -6.06026 	 -3.56354 	 
C 	 -28.5299 	 -4.8348 	 -4.17944 	 
H 	 -29.025 	 -6.6648 	 -3.24026 	 
C 	 -26.3272 	 -7.62172 	 -2.88368 	 
H 	 -25.3286 	 -7.86167 	 -3.26097 	 
H 	 -27.0805 	 -8.31885 	 -3.19917 	 
C 	 -26.5315 	 -7.63687 	 -1.40381 	 
H 	 -25.8416 	 -6.94377 	 -0.878319 	 
H 	 -27.4535 	 -7.23315 	 -1.15622 	 
C 	 -26.2849 	 -9.03861 	 -0.904898 	 
H 	 -25.3046 	 -9.2645 	 -1.39812 	 
H 	 -26.1689 	 -9.05164 	 0.195127 	 
H 	 -27.1535 	 -9.66349 	 -1.11287 	 
S 	 -30.0034 	 -3.71275 	 -6.11537 	 
C 	 -31.6801 	 -3.34952 	 -5.85125 	 
C 	 -32.1139 	 -4.0323 	 -4.75809 	 
C 	 -31.1037 	 -4.64354 	 -4.00154 	 
C 	 -29.8446 	 -4.52532 	 -4.56946 	 
H 	 -33.0762 	 -4.02971 	 -4.43508 	 
C 	 -31.4231 	 -5.27473 	 -2.68211 	 
H 	 -32.0966 	 -4.64872 	 -2.16138 	 
H 	 -30.5089 	 -5.239 	 -2.1697 	 
C 	 -31.9809 	 -6.78067 	 -2.59383 	 
H 	 -31.1759 	 -7.46017 	 -3.05567 	 
H 	 -32.9149 	 -6.90534 	 -3.09804 	 
C 	 -32.2275 	 -7.10877 	 -1.10271 	 
H 	 -32.964 	 -6.32072 	 -0.875144 	 
H 	 -31.2906 	 -6.80947 	 -0.71272 	 
H 	 -32.5302 	 -8.15748 	 -0.971994 	 
H 	 -24.8925 	 -5.38751 	 -4.22561 	 
H 	 -32.3224 	 -2.59922 	 -6.33346 	 
*
