! wB97X-D3 SP def2-SVP
%pal
nprocs 24
end

* xyz 0 1
S 	 -84.499 	 -29.9013 	 -59.3862 	 
C 	 -85.1963 	 -28.6079 	 -60.3279 	 
C 	 -86.4748 	 -28.2442 	 -59.8859 	 
C 	 -86.7397 	 -28.8073 	 -58.6205 	 
C 	 -85.7581 	 -29.6679 	 -58.1557 	 
H 	 -87.6074 	 -28.5842 	 -58.0639 	 
C 	 -87.5582 	 -27.4129 	 -60.5663 	 
H 	 -88.4856 	 -28.014 	 -60.4823 	 
H 	 -87.2482 	 -27.3117 	 -61.6569 	 
C 	 -87.9127 	 -26.0058 	 -60.0983 	 
H 	 -88.6716 	 -25.5958 	 -60.7787 	 
H 	 -88.3481 	 -26.1697 	 -59.1035 	 
C 	 -86.7574 	 -24.9857 	 -60.1247 	 
H 	 -86.3484 	 -24.9589 	 -61.1472 	 
H 	 -87.1612 	 -24.0104 	 -59.8154 	 
H 	 -86.0295 	 -25.1347 	 -59.3384 	 
S 	 -86.4059 	 -31.8595 	 -56.5806 	 
C 	 -86.0932 	 -31.7024 	 -54.861 	 
C 	 -85.4215 	 -30.4892 	 -54.515 	 
C 	 -85.1579 	 -29.6915 	 -55.6691 	 
C 	 -85.6798 	 -30.2085 	 -56.8135 	 
H 	 -85.1909 	 -30.3444 	 -53.4922 	 
C 	 -84.3049 	 -28.4201 	 -55.5791 	 
H 	 -83.998 	 -28.0179 	 -56.5464 	 
H 	 -83.3561 	 -28.7684 	 -55.1754 	 
C 	 -84.8848 	 -27.3714 	 -54.7166 	 
H 	 -84.1228 	 -26.6151 	 -54.5249 	 
H 	 -85.0416 	 -27.7363 	 -53.7059 	 
C 	 -86.1745 	 -26.7353 	 -55.1681 	 
H 	 -86.4134 	 -25.8874 	 -54.5787 	 
H 	 -86.9364 	 -27.5145 	 -55.1822 	 
H 	 -86.181 	 -26.4695 	 -56.2495 	 
H 	 -84.7479 	 -28.2907 	 -61.2976 	 
H 	 -86.3982 	 -32.5038 	 -54.2094 	 
*
