! wB97X-D3 SP def2-SVP
%pal
nprocs 24
end

* xyz 0 1
S 	 -103.49 	 -0.915016 	 -105.429 	 
C 	 -102.816 	 0.205149 	 -104.292 	 
C 	 -103.692 	 1.27271 	 -104.072 	 
C 	 -104.606 	 1.41848 	 -105.128 	 
C 	 -104.642 	 0.316608 	 -105.964 	 
H 	 -105.341 	 2.20454 	 -105.339 	 
C 	 -103.529 	 2.42806 	 -102.924 	 
H 	 -102.848 	 3.21533 	 -103.372 	 
H 	 -102.922 	 1.97794 	 -102.161 	 
C 	 -104.797 	 3.01713 	 -102.32 	 
H 	 -104.577 	 3.90206 	 -101.717 	 
H 	 -105.532 	 3.25105 	 -103.114 	 
C 	 -105.469 	 1.99622 	 -101.451 	 
H 	 -106.453 	 2.2775 	 -101.084 	 
H 	 -105.768 	 1.10863 	 -102.027 	 
H 	 -104.767 	 1.89865 	 -100.625 	 
S 	 -104.743 	 -0.373341 	 -108.605 	 
C 	 -106.258 	 -0.369603 	 -109.453 	 
C 	 -107.266 	 0.163227 	 -108.678 	 
C 	 -106.918 	 0.316754 	 -107.325 	 
C 	 -105.553 	 0.142986 	 -107.134 	 
H 	 -108.259 	 0.343951 	 -109.124 	 
C 	 -107.938 	 0.558472 	 -106.196 	 
H 	 -107.652 	 -0.0178094 	 -105.306 	 
H 	 -108.9 	 0.150474 	 -106.569 	 
C 	 -108.134 	 1.99558 	 -105.77 	 
H 	 -108.732 	 2.4936 	 -106.572 	 
H 	 -107.169 	 2.44942 	 -105.839 	 
C 	 -108.82 	 2.25316 	 -104.444 	 
H 	 -108.376 	 1.61195 	 -103.705 	 
H 	 -109.888 	 2.03562 	 -104.528 	 
H 	 -108.568 	 3.25126 	 -104.03 	 
H 	 -101.957 	 0.00789239 	 -103.688 	 
H 	 -106.338 	 -0.617712 	 -110.481 	 
*
