! wB97X-D3 SP def2-SVP
%pal
nprocs 24
end

* xyz 0 1
S 	 -123.323 	 66.3543 	 -38.4213 	 
C 	 -122.695 	 67.9964 	 -38.6124 	 
C 	 -123.675 	 68.9175 	 -38.9896 	 
C 	 -124.913 	 68.2576 	 -39.351 	 
C 	 -124.9 	 66.862 	 -39.1678 	 
H 	 -125.795 	 68.7579 	 -39.806 	 
C 	 -123.336 	 70.357 	 -39.0639 	 
H 	 -123.532 	 70.548 	 -40.0813 	 
H 	 -122.244 	 70.5406 	 -39.1041 	 
C 	 -123.965 	 71.3997 	 -38.0715 	 
H 	 -123.865 	 72.4416 	 -38.325 	 
H 	 -125.066 	 71.3252 	 -38.0798 	 
C 	 -123.417 	 71.1198 	 -36.6633 	 
H 	 -123.72 	 70.0803 	 -36.4672 	 
H 	 -122.257 	 71.1162 	 -36.5557 	 
H 	 -123.757 	 71.8197 	 -35.9823 	 
S 	 -125.551 	 64.4251 	 -40.0233 	 
C 	 -127.237 	 63.9402 	 -40.0023 	 
C 	 -128.081 	 65.0578 	 -39.8019 	 
C 	 -127.334 	 66.1881 	 -39.4309 	 
C 	 -125.99 	 65.9856 	 -39.4153 	 
H 	 -129.141 	 64.9362 	 -39.8302 	 
C 	 -128.046 	 67.4889 	 -39.0378 	 
H 	 -127.683 	 67.9686 	 -38.118 	 
H 	 -128.973 	 67.1687 	 -38.6111 	 
C 	 -128.277 	 68.4187 	 -40.2499 	 
H 	 -129.124 	 68.1787 	 -40.8334 	 
H 	 -127.529 	 68.313 	 -41.0033 	 
C 	 -128.414 	 69.8721 	 -39.7698 	 
H 	 -127.527 	 70.1369 	 -39.2694 	 
H 	 -129.286 	 70.0455 	 -39.1335 	 
H 	 -128.526 	 70.6442 	 -40.4958 	 
H 	 -121.762 	 68.303 	 -38.3125 	 
H 	 -127.449 	 62.8634 	 -40.22 	 
*
