! wB97X-D3 SP def2-SVP
%pal
nprocs 24
end

* xyz 0 1
S 	 -37.1796 	 0.449035 	 -5.71204 	 
C 	 -36.898 	 0.851918 	 -4.0608 	 
C 	 -37.8426 	 1.7886 	 -3.623 	 
C 	 -38.879 	 2.06282 	 -4.54352 	 
C 	 -38.7545 	 1.33566 	 -5.6942 	 
H 	 -39.6465 	 2.82602 	 -4.41254 	 
C 	 -37.933 	 2.23349 	 -2.26513 	 
H 	 -37.658 	 1.44833 	 -1.54877 	 
H 	 -38.9417 	 2.62715 	 -1.94764 	 
C 	 -37.0549 	 3.4895 	 -2.05965 	 
H 	 -35.9664 	 3.2754 	 -2.35994 	 
H 	 -37.411 	 4.33077 	 -2.63485 	 
C 	 -37.2919 	 3.89395 	 -0.580224 	 
H 	 -38.2342 	 4.37884 	 -0.303363 	 
H 	 -37.0799 	 3.07686 	 0.0852092 	 
H 	 -36.5395 	 4.68678 	 -0.365594 	 
S 	 -38.6686 	 1.68227 	 -8.38652 	 
C 	 -40.1607 	 1.76586 	 -9.27471 	 
C 	 -41.1394 	 1.32622 	 -8.47372 	 
C 	 -40.8809 	 1.1278 	 -7.15067 	 
C 	 -39.5445 	 1.38498 	 -6.9248 	 
H 	 -42.0709 	 1.20036 	 -8.97004 	 
C 	 -42.0367 	 0.841972 	 -6.17225 	 
H 	 -42.9343 	 0.855881 	 -6.79944 	 
H 	 -42.1975 	 1.63468 	 -5.46885 	 
C 	 -41.8671 	 -0.435754 	 -5.30952 	 
H 	 -41.1642 	 -0.300068 	 -4.42422 	 
H 	 -41.2836 	 -1.18929 	 -5.78516 	 
C 	 -43.2112 	 -1.03455 	 -4.74004 	 
H 	 -42.9431 	 -1.49568 	 -3.7337 	 
H 	 -43.7017 	 -1.7684 	 -5.36878 	 
H 	 -43.9633 	 -0.250059 	 -4.58436 	 
H 	 -36.273 	 0.307873 	 -3.41546 	 
H 	 -40.2462 	 1.9842 	 -10.2892 	 
*
