! wB97X-D3 SP def2-SVP
%pal
nprocs 24
end

* xyz 0 1
S 	 -69.1149 	 7.78492 	 -73.3375 	 
C 	 -69.1922 	 8.80441 	 -74.8087 	 
C 	 -68.7426 	 10.0559 	 -74.401 	 
C 	 -68.7804 	 10.2948 	 -72.947 	 
C 	 -69.1094 	 9.16016 	 -72.2045 	 
H 	 -68.4262 	 11.2467 	 -72.4596 	 
C 	 -68.4059 	 11.128 	 -75.3803 	 
H 	 -68.9781 	 10.9544 	 -76.2932 	 
H 	 -67.3283 	 11.1037 	 -75.5695 	 
C 	 -68.5024 	 12.5606 	 -74.9561 	 
H 	 -67.908 	 12.6595 	 -74.0482 	 
H 	 -68.074 	 13.1853 	 -75.743 	 
C 	 -70.0007 	 13.0613 	 -74.8278 	 
H 	 -70.5083 	 13.0144 	 -75.8198 	 
H 	 -70.5724 	 12.404 	 -74.1369 	 
H 	 -70.1277 	 14.0909 	 -74.392 	 
S 	 -70.6692 	 9.20604 	 -69.9541 	 
C 	 -69.9477 	 8.77245 	 -68.4179 	 
C 	 -68.5629 	 8.73008 	 -68.4852 	 
C 	 -68.2077 	 8.81704 	 -69.84 	 
C 	 -69.2073 	 9.05012 	 -70.7539 	 
H 	 -67.9592 	 8.52057 	 -67.5799 	 
C 	 -66.7157 	 8.54141 	 -70.3072 	 
H 	 -66.0291 	 9.24192 	 -69.8483 	 
H 	 -66.684 	 8.77229 	 -71.3587 	 
C 	 -66.1238 	 7.10579 	 -70.0759 	 
H 	 -65.3876 	 6.86081 	 -70.8887 	 
H 	 -66.9633 	 6.47937 	 -70.4232 	 
C 	 -65.8609 	 6.73855 	 -68.607 	 
H 	 -65.8343 	 5.63868 	 -68.4377 	 
H 	 -66.6066 	 7.07593 	 -67.8963 	 
H 	 -64.9337 	 7.09383 	 -68.1343 	 
H 	 -69.2686 	 8.42834 	 -75.854 	 
H 	 -70.4848 	 8.80015 	 -67.4518 	 
*
