! wB97X-D3 SP def2-SVP
%pal
nprocs 24
end

* xyz 0 1
S 	 -64.9899 	 -52.0782 	 -82.3297 	 
C 	 -63.5729 	 -53.173 	 -82.2512 	 
C 	 -63.2622 	 -53.5387 	 -80.9471 	 
C 	 -64.3271 	 -53.0907 	 -80.0549 	 
C 	 -65.2763 	 -52.2541 	 -80.5932 	 
H 	 -64.3333 	 -53.2608 	 -79.0186 	 
C 	 -62.2568 	 -54.4623 	 -80.4759 	 
H 	 -62.6226 	 -55.4159 	 -80.053 	 
H 	 -61.721 	 -54.0334 	 -79.6097 	 
C 	 -61.173 	 -54.9244 	 -81.5291 	 
H 	 -60.6867 	 -55.775 	 -81.038 	 
H 	 -61.6119 	 -55.2668 	 -82.523 	 
C 	 -60.1195 	 -53.7565 	 -81.7779 	 
H 	 -60.442 	 -52.9552 	 -82.3309 	 
H 	 -59.5629 	 -53.2758 	 -80.9476 	 
H 	 -59.3263 	 -54.1721 	 -82.4542 	 
S 	 -65.997 	 -49.6235 	 -79.9124 	 
C 	 -67.3782 	 -49.3907 	 -78.8617 	 
C 	 -67.7512 	 -50.6034 	 -78.3595 	 
C 	 -67.0416 	 -51.7428 	 -78.813 	 
C 	 -66.2352 	 -51.3879 	 -79.8829 	 
H 	 -68.5975 	 -50.6946 	 -77.645 	 
C 	 -67.3867 	 -53.0766 	 -78.2943 	 
H 	 -67.0122 	 -53.6934 	 -79.1465 	 
H 	 -68.5124 	 -53.2294 	 -78.3311 	 
C 	 -66.7201 	 -53.5286 	 -76.9417 	 
H 	 -65.6572 	 -53.4285 	 -76.9925 	 
H 	 -66.8987 	 -54.6325 	 -76.8796 	 
C 	 -67.1531 	 -52.7817 	 -75.6256 	 
H 	 -68.1343 	 -53.094 	 -75.2041 	 
H 	 -67.0888 	 -51.7276 	 -75.7258 	 
H 	 -66.3551 	 -52.9373 	 -74.8903 	 
H 	 -62.9332 	 -53.5278 	 -83.0447 	 
H 	 -67.7851 	 -48.5112 	 -78.5495 	 
*
