! wB97X-D3 SP def2-SVP
%pal
nprocs 24
end

* xyz 0 1
S 	 -49.9959 	 11.5858 	 -96.4055 	 
C 	 -50.9963 	 10.2007 	 -96.8297 	 
C 	 -51.4682 	 10.2426 	 -98.1186 	 
C 	 -50.7075 	 11.1693 	 -98.865 	 
C 	 -49.8372 	 12.0234 	 -98.099 	 
H 	 -50.8255 	 11.3704 	 -99.8895 	 
C 	 -52.4261 	 9.28413 	 -98.6872 	 
H 	 -53.1319 	 9.01452 	 -97.8605 	 
H 	 -51.9172 	 8.34362 	 -98.9664 	 
C 	 -53.2285 	 9.69046 	 -99.9054 	 
H 	 -52.6294 	 9.81181 	 -100.844 	 
H 	 -53.9356 	 8.82542 	 -100.21 	 
C 	 -54.1049 	 10.963 	 -99.6636 	 
H 	 -54.3417 	 11.3583 	 -100.616 	 
H 	 -55.0193 	 10.7815 	 -99.0381 	 
H 	 -53.4412 	 11.6765 	 -99.221 	 
S 	 -49.6717 	 14.73 	 -98.2771 	 
C 	 -48.4887 	 15.4651 	 -99.3161 	 
C 	 -47.7112 	 14.4966 	 -99.9046 	 
C 	 -47.9625 	 13.1487 	 -99.4799 	 
C 	 -49.007 	 13.1216 	 -98.5829 	 
H 	 -47.0043 	 14.8488 	 -100.613 	 
C 	 -47.1232 	 12.083 	 -99.9614 	 
H 	 -47.0302 	 11.2636 	 -99.2473 	 
H 	 -46.1435 	 12.4387 	 -100.153 	 
C 	 -47.5481 	 11.5144 	 -101.311 	 
H 	 -47.5513 	 12.3013 	 -101.965 	 
H 	 -48.5561 	 11.1781 	 -101.115 	 
C 	 -46.8277 	 10.2177 	 -101.624 	 
H 	 -47.3152 	 9.66234 	 -102.414 	 
H 	 -46.9549 	 9.72203 	 -100.7 	 
H 	 -45.7914 	 10.2401 	 -101.888 	 
H 	 -51.2439 	 9.41874 	 -96.2517 	 
H 	 -48.349 	 16.4558 	 -99.5994 	 
*
