! wB97X-D3 SP def2-SVP
%pal
nprocs 24
end

* xyz 0 1
S 	 -72.525 	 17.1417 	 -70.3496 	 
C 	 -72.102 	 16.1744 	 -71.8551 	 
C 	 -70.8609 	 16.4791 	 -72.283 	 
C 	 -70.3302 	 17.6056 	 -71.6016 	 
C 	 -70.998 	 17.988 	 -70.5108 	 
H 	 -69.3936 	 18.1184 	 -71.7731 	 
C 	 -70.2342 	 15.8451 	 -73.5214 	 
H 	 -69.8179 	 16.7187 	 -74.042 	 
H 	 -70.9201 	 15.3331 	 -74.181 	 
C 	 -69.1944 	 14.7594 	 -73.2637 	 
H 	 -68.3348 	 15.0203 	 -72.5726 	 
H 	 -69.7023 	 13.9596 	 -72.6324 	 
C 	 -68.7368 	 13.8451 	 -74.4592 	 
H 	 -69.5801 	 13.6619 	 -75.0898 	 
H 	 -68.003 	 14.3558 	 -75.09 	 
H 	 -68.478 	 12.8917 	 -74.0684 	 
S 	 -70.3441 	 20.5543 	 -70.1904 	 
C 	 -69.8235 	 21.1746 	 -68.6625 	 
C 	 -69.8189 	 20.1405 	 -67.6889 	 
C 	 -70.3023 	 18.9107 	 -68.1442 	 
C 	 -70.5438 	 18.9853 	 -69.5238 	 
H 	 -69.3104 	 20.2772 	 -66.6979 	 
C 	 -70.4924 	 17.7626 	 -67.1637 	 
H 	 -71.3686 	 17.1977 	 -67.4931 	 
H 	 -70.5719 	 18.1234 	 -66.155 	 
C 	 -69.4191 	 16.6554 	 -67.0605 	 
H 	 -69.7324 	 15.903 	 -66.3349 	 
H 	 -68.592 	 17.0954 	 -66.6092 	 
C 	 -68.9477 	 16.0279 	 -68.3667 	 
H 	 -68.5071 	 16.7721 	 -69.13 	 
H 	 -69.9053 	 15.6094 	 -68.8253 	 
H 	 -68.2658 	 15.1997 	 -68.2622 	 
H 	 -72.6869 	 15.401 	 -72.3234 	 
H 	 -69.3734 	 22.1301 	 -68.428 	 
*
