! wB97X-D3 SP def2-SVP
%pal
nprocs 24
end

* xyz 0 1
S 	 -90.0016 	 -2.15347 	 8.19983 	 
C 	 -89.3693 	 -1.19935 	 6.88831 	 
C 	 -88.0139 	 -1.30325 	 6.76298 	 
C 	 -87.4337 	 -2.06234 	 7.82697 	 
C 	 -88.3639 	 -2.57506 	 8.71673 	 
H 	 -86.3323 	 -2.16919 	 7.91302 	 
C 	 -87.1513 	 -0.875739 	 5.62583 	 
H 	 -87.6219 	 -1.11057 	 4.63559 	 
H 	 -86.2615 	 -1.53298 	 5.46251 	 
C 	 -86.8098 	 0.667947 	 5.55515 	 
H 	 -86.236 	 0.782466 	 4.64454 	 
H 	 -87.6962 	 1.27627 	 5.41434 	 
C 	 -86.0275 	 1.12305 	 6.80668 	 
H 	 -85.6846 	 2.11978 	 6.66152 	 
H 	 -86.515 	 0.986077 	 7.77499 	 
H 	 -85.1897 	 0.504274 	 6.89578 	 
S 	 -89.265 	 -4.68842 	 10.1326 	 
C 	 -88.4636 	 -5.30809 	 11.5682 	 
C 	 -87.2593 	 -4.57974 	 11.7176 	 
C 	 -87.1235 	 -3.47987 	 10.8065 	 
C 	 -88.0977 	 -3.38622 	 9.89843 	 
H 	 -86.5815 	 -4.70486 	 12.5444 	 
C 	 -86.0089 	 -2.4595 	 11.164 	 
H 	 -85.9997 	 -2.2587 	 12.2294 	 
H 	 -86.3974 	 -1.52689 	 10.7158 	 
C 	 -84.5891 	 -2.64034 	 10.6766 	 
H 	 -84.5094 	 -2.58332 	 9.64661 	 
H 	 -84.2898 	 -3.64057 	 10.8501 	 
C 	 -83.6828 	 -1.71777 	 11.5058 	 
H 	 -83.8936 	 -1.95911 	 12.5279 	 
H 	 -83.9376 	 -0.66474 	 11.4158 	 
H 	 -82.579 	 -1.92227 	 11.2874 	 
H 	 -90.0573 	 -0.605325 	 6.28263 	 
H 	 -88.7432 	 -6.17472 	 12.1949 	 
*
