! wB97X-D3 SP def2-SVP
%pal
nprocs 24
end

* xyz 0 1
S 	 -77.8665 	 -18.0899 	 -53.4413 	 
C 	 -79.111 	 -17.3769 	 -52.347 	 
C 	 -80.3126 	 -17.274 	 -53.0261 	 
C 	 -80.2031 	 -17.7501 	 -54.3484 	 
C 	 -78.9615 	 -18.1584 	 -54.8227 	 
H 	 -81.0301 	 -17.9407 	 -54.9683 	 
C 	 -81.6131 	 -16.7577 	 -52.4628 	 
H 	 -81.6249 	 -16.996 	 -51.3378 	 
H 	 -82.4997 	 -17.2969 	 -52.859 	 
C 	 -81.9022 	 -15.3306 	 -52.6636 	 
H 	 -81.0853 	 -14.9007 	 -52.1004 	 
H 	 -81.8934 	 -14.9499 	 -53.6905 	 
C 	 -83.1824 	 -14.9044 	 -51.9489 	 
H 	 -83.4308 	 -13.9237 	 -52.3295 	 
H 	 -84.0523 	 -15.4607 	 -52.2104 	 
H 	 -83.1243 	 -14.8056 	 -50.9066 	 
S 	 -78.4946 	 -20.5731 	 -56.111 	 
C 	 -78.2238 	 -20.6345 	 -57.8266 	 
C 	 -78.4296 	 -19.3922 	 -58.3374 	 
C 	 -78.7065 	 -18.3613 	 -57.3841 	 
C 	 -78.6204 	 -18.8233 	 -56.0859 	 
H 	 -78.4175 	 -19.218 	 -59.3994 	 
C 	 -78.8284 	 -16.8859 	 -57.7605 	 
H 	 -77.9324 	 -16.5558 	 -58.2654 	 
H 	 -79.0784 	 -16.3296 	 -56.9568 	 
C 	 -80.161 	 -16.7501 	 -58.5994 	 
H 	 -80.2378 	 -17.5841 	 -59.2613 	 
H 	 -80.0156 	 -15.8582 	 -59.3271 	 
C 	 -81.4556 	 -16.4395 	 -57.8293 	 
H 	 -81.725 	 -17.3356 	 -57.1859 	 
H 	 -82.2422 	 -16.3741 	 -58.5317 	 
H 	 -81.2624 	 -15.5627 	 -57.1711 	 
H 	 -79.025 	 -17.0872 	 -51.2756 	 
H 	 -78.1965 	 -21.5175 	 -58.3952 	 
*
