! wB97X-D3 SP def2-SVP
%pal
nprocs 24
end

* xyz 0 1
S 	 33.5131 	 -31.8946 	 -116.863 	 
C 	 33.8408 	 -30.3769 	 -116.018 	 
C 	 35.1083 	 -30.2987 	 -115.463 	 
C 	 35.9653 	 -31.295 	 -116.003 	 
C 	 35.2855 	 -32.2407 	 -116.69 	 
H 	 37.0864 	 -31.3015 	 -115.943 	 
C 	 35.5373 	 -29.126 	 -114.656 	 
H 	 34.6658 	 -28.5153 	 -114.359 	 
H 	 36.1695 	 -28.4607 	 -115.238 	 
C 	 36.2715 	 -29.5943 	 -113.394 	 
H 	 37.229 	 -30.1266 	 -113.589 	 
H 	 36.5841 	 -28.6246 	 -112.975 	 
C 	 35.3484 	 -30.3806 	 -112.405 	 
H 	 35.8056 	 -30.4989 	 -111.423 	 
H 	 34.3937 	 -29.9602 	 -112.184 	 
H 	 35.1005 	 -31.4874 	 -112.804 	 
S 	 36.4909 	 -33.317 	 -118.909 	 
C 	 37.4297 	 -34.7266 	 -118.746 	 
C 	 37.1459 	 -35.427 	 -117.626 	 
C 	 36.3725 	 -34.6494 	 -116.705 	 
C 	 35.9334 	 -33.41 	 -117.289 	 
H 	 37.6099 	 -36.3398 	 -117.422 	 
C 	 35.9961 	 -34.9782 	 -115.279 	 
H 	 36.143 	 -34.084 	 -114.679 	 
H 	 36.7024 	 -35.7972 	 -114.919 	 
C 	 34.5409 	 -35.4174 	 -115.03 	 
H 	 34.1698 	 -36.1945 	 -115.652 	 
H 	 33.8067 	 -34.6637 	 -115.25 	 
C 	 34.2874 	 -35.9392 	 -113.591 	 
H 	 34.89 	 -36.9175 	 -113.439 	 
H 	 33.2715 	 -36.1939 	 -113.451 	 
H 	 34.5808 	 -35.1824 	 -112.861 	 
H 	 33.007 	 -29.7547 	 -115.807 	 
H 	 37.841 	 -35.2554 	 -119.607 	 
*
