! wB97X-D3 SP def2-SVP
%pal
nprocs 24
end

* xyz 0 1
S 	 -33.6959 	 -7.51728 	 14.8289 	 
C 	 -33.8679 	 -7.17044 	 16.5654 	 
C 	 -34.6542 	 -8.16251 	 17.1699 	 
C 	 -35.1302 	 -9.14447 	 16.228 	 
C 	 -34.6399 	 -9.00014 	 14.9562 	 
H 	 -35.6928 	 -10.0152 	 16.4576 	 
C 	 -34.9238 	 -8.30255 	 18.61 	 
H 	 -34.0217 	 -8.20669 	 19.1772 	 
H 	 -35.2738 	 -9.32585 	 18.7423 	 
C 	 -36.0203 	 -7.37634 	 19.2945 	 
H 	 -36.1397 	 -7.72777 	 20.3103 	 
H 	 -35.6331 	 -6.32931 	 19.2555 	 
C 	 -37.4546 	 -7.26429 	 18.7512 	 
H 	 -38.0315 	 -8.13595 	 18.9142 	 
H 	 -38.0064 	 -6.56161 	 19.2241 	 
H 	 -37.4735 	 -7.01231 	 17.685 	 
S 	 -33.4306 	 -10.2654 	 12.9005 	 
C 	 -34.2605 	 -11.1996 	 11.724 	 
C 	 -35.6067 	 -11.0428 	 11.9292 	 
C 	 -35.9729 	 -10.346 	 13.0938 	 
C 	 -34.8976 	 -9.76967 	 13.7348 	 
H 	 -36.2883 	 -11.431 	 11.1964 	 
C 	 -37.4529 	 -10.3241 	 13.4373 	 
H 	 -37.6385 	 -9.97755 	 14.4548 	 
H 	 -37.9792 	 -11.3104 	 13.4611 	 
C 	 -38.2658 	 -9.4061 	 12.522 	 
H 	 -38.2127 	 -9.69806 	 11.4651 	 
H 	 -37.9245 	 -8.34803 	 12.6664 	 
C 	 -39.766 	 -9.52489 	 12.899 	 
H 	 -39.9206 	 -9.29358 	 13.947 	 
H 	 -40.0772 	 -10.5869 	 12.6574 	 
H 	 -40.3812 	 -8.87268 	 12.298 	 
H 	 -33.3521 	 -6.35287 	 17.0639 	 
H 	 -33.8815 	 -11.6068 	 10.8041 	 
*
