! wB97X-D3 SP def2-SVP
%pal
nprocs 24
end

* xyz 0 1
S 	 -122.76 	 63.3286 	 -47.0161 	 
C 	 -122.36 	 62.0209 	 -45.87 	 
C 	 -122.767 	 60.7739 	 -46.31 	 
C 	 -123.597 	 60.9581 	 -47.4366 	 
C 	 -123.776 	 62.2408 	 -47.8967 	 
H 	 -124.084 	 60.1993 	 -47.9834 	 
C 	 -122.224 	 59.4117 	 -45.8561 	 
H 	 -121.327 	 59.7067 	 -45.1991 	 
H 	 -121.887 	 58.8065 	 -46.692 	 
C 	 -123.169 	 58.5498 	 -44.9683 	 
H 	 -122.658 	 57.8024 	 -44.3692 	 
H 	 -123.727 	 59.2587 	 -44.2633 	 
C 	 -124.167 	 57.7048 	 -45.7626 	 
H 	 -124.307 	 57.9116 	 -46.8369 	 
H 	 -123.961 	 56.6556 	 -45.7741 	 
H 	 -125.167 	 57.7947 	 -45.2806 	 
S 	 -123.494 	 63.2626 	 -50.4145 	 
C 	 -124.996 	 63.4796 	 -51.4111 	 
C 	 -126.128 	 63.0106 	 -50.7862 	 
C 	 -125.866 	 62.5452 	 -49.4369 	 
C 	 -124.513 	 62.6577 	 -49.0921 	 
H 	 -127.042 	 63 	 -51.3338 	 
C 	 -126.926 	 61.8724 	 -48.6498 	 
H 	 -126.437 	 60.9267 	 -48.3718 	 
H 	 -127.77 	 61.6027 	 -49.2771 	 
C 	 -127.448 	 62.6292 	 -47.4362 	 
H 	 -127.915 	 63.5678 	 -47.7539 	 
H 	 -126.627 	 62.9505 	 -46.8429 	 
C 	 -128.364 	 61.8357 	 -46.6338 	 
H 	 -129.149 	 61.4253 	 -47.1677 	 
H 	 -128.855 	 62.4636 	 -45.8672 	 
H 	 -127.855 	 61.1389 	 -45.9971 	 
H 	 -121.641 	 61.9796 	 -45.0396 	 
H 	 -125.163 	 64.0214 	 -52.2961 	 
*
