! wB97X-D3 SP def2-SVP
%pal
nprocs 24
end

* xyz 0 1
S 	 -109.078 	 56.67 	 -88.7169 	 
C 	 -110.317 	 57.8344 	 -88.6947 	 
C 	 -111.513 	 57.3474 	 -88.1445 	 
C 	 -111.368 	 55.9912 	 -87.7613 	 
C 	 -110.167 	 55.4578 	 -88.0618 	 
H 	 -112.073 	 55.4246 	 -87.2397 	 
C 	 -112.802 	 58.1304 	 -88.0172 	 
H 	 -112.478 	 59.0763 	 -87.5161 	 
H 	 -113.418 	 57.4937 	 -87.3133 	 
C 	 -113.566 	 58.2954 	 -89.2351 	 
H 	 -112.882 	 58.749 	 -90.0298 	 
H 	 -113.842 	 57.3014 	 -89.6658 	 
C 	 -114.739 	 59.2569 	 -89.1049 	 
H 	 -114.409 	 60.1996 	 -88.7953 	 
H 	 -115.228 	 59.2483 	 -90.157 	 
H 	 -115.541 	 59.0152 	 -88.4341 	 
S 	 -108.305 	 54.0299 	 -86.5673 	 
C 	 -108.249 	 52.3054 	 -86.6652 	 
C 	 -109.26 	 51.7857 	 -87.4334 	 
C 	 -110.045 	 52.8445 	 -87.9982 	 
C 	 -109.604 	 54.1541 	 -87.7309 	 
H 	 -109.425 	 50.7006 	 -87.5398 	 
C 	 -111.239 	 52.5446 	 -88.8105 	 
H 	 -111.878 	 53.3821 	 -88.8515 	 
H 	 -111.725 	 51.6492 	 -88.4093 	 
C 	 -110.834 	 52.2019 	 -90.2279 	 
H 	 -111.689 	 51.775 	 -90.7984 	 
H 	 -110.164 	 51.3996 	 -90.0923 	 
C 	 -110.039 	 53.2669 	 -90.9409 	 
H 	 -109.806 	 52.9824 	 -91.945 	 
H 	 -109.149 	 53.6743 	 -90.3988 	 
H 	 -110.663 	 54.142 	 -90.925 	 
H 	 -110.239 	 58.8721 	 -88.9832 	 
H 	 -107.476 	 51.7237 	 -86.1935 	 
*
