! wB97X-D3 SP def2-SVP
%pal
nprocs 24
end

* xyz 0 1
S 	 -54.3468 	 6.7198 	 -33.6713 	 
C 	 -55.5278 	 5.538 	 -33.2358 	 
C 	 -54.8875 	 4.35073 	 -32.9128 	 
C 	 -53.4359 	 4.45728 	 -32.93 	 
C 	 -52.9479 	 5.74062 	 -33.1956 	 
H 	 -52.7573 	 3.67783 	 -32.7486 	 
C 	 -55.5619 	 2.95856 	 -32.6011 	 
H 	 -56.6029 	 2.89156 	 -32.967 	 
H 	 -55.6073 	 2.70776 	 -31.5734 	 
C 	 -54.8977 	 1.67678 	 -33.2349 	 
H 	 -55.2185 	 1.7782 	 -34.2269 	 
H 	 -53.8147 	 1.68028 	 -33.2559 	 
C 	 -55.1816 	 0.349335 	 -32.6325 	 
H 	 -56.2505 	 0.135933 	 -32.493 	 
H 	 -54.8751 	 -0.509881 	 -33.255 	 
H 	 -54.651 	 0.201718 	 -31.6931 	 
S 	 -51.3864 	 7.40271 	 -34.7079 	 
C 	 -49.6971 	 7.73815 	 -34.1584 	 
C 	 -49.3295 	 6.90943 	 -33.1308 	 
C 	 -50.3986 	 6.02897 	 -32.6945 	 
C 	 -51.5968 	 6.20667 	 -33.4074 	 
H 	 -48.2535 	 6.98826 	 -32.9174 	 
C 	 -50.1401 	 4.99822 	 -31.6528 	 
H 	 -50.2092 	 3.99641 	 -32.1196 	 
H 	 -51.0244 	 4.94451 	 -31.0633 	 
C 	 -48.8045 	 4.99705 	 -30.8786 	 
H 	 -48.895 	 5.59627 	 -30.0157 	 
H 	 -47.9221 	 5.36304 	 -31.4289 	 
C 	 -48.4615 	 3.56478 	 -30.3483 	 
H 	 -48.3624 	 2.90172 	 -31.1521 	 
H 	 -49.3197 	 3.13093 	 -29.7098 	 
H 	 -47.6462 	 3.57214 	 -29.672 	 
H 	 -56.6103 	 5.61525 	 -33.3535 	 
H 	 -48.8396 	 8.01972 	 -34.7332 	 
*
