! wB97X-D3 SP def2-SVP
%pal
nprocs 24
end

* xyz 0 1
S 	 -89.7008 	 -49.6551 	 -81.8456 	 
C 	 -90.4482 	 -50.2867 	 -80.4251 	 
C 	 -89.6052 	 -50.2759 	 -79.3213 	 
C 	 -88.2773 	 -50.0913 	 -79.7531 	 
C 	 -88.1196 	 -49.967 	 -81.1276 	 
H 	 -87.4905 	 -49.7659 	 -79.1648 	 
C 	 -90.0084 	 -50.2324 	 -77.8479 	 
H 	 -89.3912 	 -49.5007 	 -77.4636 	 
H 	 -89.6508 	 -51.1798 	 -77.5153 	 
C 	 -91.5166 	 -50.0812 	 -77.4515 	 
H 	 -91.9864 	 -49.2408 	 -77.909 	 
H 	 -91.9912 	 -50.957 	 -77.8873 	 
C 	 -91.8554 	 -50.1334 	 -75.9522 	 
H 	 -92.7701 	 -49.5652 	 -75.7132 	 
H 	 -92.0342 	 -51.1936 	 -75.6903 	 
H 	 -91.0639 	 -49.7944 	 -75.3244 	 
S 	 -87.073 	 -47.9938 	 -82.7461 	 
C 	 -85.3888 	 -47.8671 	 -83.045 	 
C 	 -84.722 	 -48.9996 	 -82.5957 	 
C 	 -85.5671 	 -49.8801 	 -81.8387 	 
C 	 -86.9363 	 -49.4849 	 -81.8863 	 
H 	 -83.5939 	 -49.0487 	 -82.8443 	 
C 	 -85.0311 	 -51.1687 	 -81.2199 	 
H 	 -85.2867 	 -52.0468 	 -81.8859 	 
H 	 -85.6181 	 -51.2535 	 -80.3481 	 
C 	 -83.4995 	 -51.2014 	 -80.9816 	 
H 	 -83.2435 	 -50.3055 	 -80.3973 	 
H 	 -83.0254 	 -51.1276 	 -81.9142 	 
C 	 -83.0781 	 -52.4803 	 -80.2679 	 
H 	 -83.5738 	 -53.3633 	 -80.6739 	 
H 	 -83.4006 	 -52.4997 	 -79.2518 	 
H 	 -81.9762 	 -52.6966 	 -80.3204 	 
H 	 -91.5007 	 -50.2169 	 -80.2313 	 
H 	 -84.875 	 -47.0775 	 -83.4632 	 
*
