! wB97X-D3 SP def2-SVP
%pal
nprocs 24
end

* xyz 0 1
S 	 -64.9008 	 16.9726 	 -103.525 	 
C 	 -66.3338 	 16.0511 	 -104.043 	 
C 	 -66.2345 	 15.5776 	 -105.315 	 
C 	 -64.9937 	 15.8872 	 -105.911 	 
C 	 -64.1884 	 16.6508 	 -105.108 	 
H 	 -64.6574 	 15.5687 	 -106.93 	 
C 	 -67.4492 	 15.0224 	 -106.096 	 
H 	 -67.2807 	 15.098 	 -107.108 	 
H 	 -68.312 	 15.6577 	 -105.898 	 
C 	 -67.766 	 13.5353 	 -105.932 	 
H 	 -67.1289 	 12.8895 	 -106.446 	 
H 	 -67.637 	 13.1498 	 -104.997 	 
C 	 -69.195 	 13.1805 	 -106.262 	 
H 	 -69.9443 	 13.8535 	 -105.802 	 
H 	 -69.2379 	 13.0437 	 -107.308 	 
H 	 -69.4343 	 12.2207 	 -105.835 	 
S 	 -61.4745 	 16.5066 	 -104.514 	 
C 	 -60.3724 	 17.1278 	 -105.677 	 
C 	 -61.0093 	 17.6455 	 -106.739 	 
C 	 -62.4038 	 17.4893 	 -106.707 	 
C 	 -62.8555 	 17.0186 	 -105.514 	 
H 	 -60.5218 	 18.1994 	 -107.503 	 
C 	 -63.2312 	 17.8172 	 -107.926 	 
H 	 -63.2336 	 18.9664 	 -107.987 	 
H 	 -64.3284 	 17.6509 	 -107.762 	 
C 	 -62.861 	 17.2955 	 -109.327 	 
H 	 -62.0067 	 17.7924 	 -109.773 	 
H 	 -63.6781 	 17.5404 	 -110.008 	 
C 	 -62.536 	 15.8179 	 -109.344 	 
H 	 -63.2173 	 15.1873 	 -108.802 	 
H 	 -61.5373 	 15.7062 	 -108.795 	 
H 	 -62.3874 	 15.3659 	 -110.323 	 
H 	 -67.267 	 15.987 	 -103.564 	 
H 	 -59.4244 	 17.4534 	 -105.414 	 
*
