! wB97X-D3 SP def2-SVP
%pal
nprocs 24
end

* xyz 0 1
S 	 -125.658 	 27.7654 	 -112.438 	 
C 	 -125.967 	 26.0445 	 -112.573 	 
C 	 -125.887 	 25.4123 	 -111.35 	 
C 	 -125.574 	 26.4106 	 -110.338 	 
C 	 -125.543 	 27.7314 	 -110.7 	 
H 	 -125.581 	 26.2746 	 -109.266 	 
C 	 -126.07 	 23.8823 	 -111.109 	 
H 	 -125.586 	 23.66 	 -110.171 	 
H 	 -125.68 	 23.2042 	 -111.884 	 
C 	 -127.554 	 23.5075 	 -110.824 	 
H 	 -127.919 	 24.1886 	 -110.075 	 
H 	 -128.3 	 23.7049 	 -111.591 	 
C 	 -127.717 	 22.0744 	 -110.249 	 
H 	 -128.665 	 21.4603 	 -110.444 	 
H 	 -127.138 	 21.3529 	 -110.749 	 
H 	 -127.496 	 22.1847 	 -109.19 	 
S 	 -123.99 	 30.0118 	 -110.244 	 
C 	 -124.118 	 30.8853 	 -108.737 	 
C 	 -125.067 	 30.2621 	 -107.908 	 
C 	 -125.653 	 29.1307 	 -108.5 	 
C 	 -125.244 	 28.8416 	 -109.822 	 
H 	 -125.241 	 30.7612 	 -106.926 	 
C 	 -126.837 	 28.4558 	 -107.769 	 
H 	 -127.351 	 27.7698 	 -108.467 	 
H 	 -127.62 	 29.116 	 -107.474 	 
C 	 -126.421 	 27.6795 	 -106.551 	 
H 	 -126.074 	 28.4418 	 -105.821 	 
H 	 -125.646 	 26.9691 	 -106.904 	 
C 	 -127.69 	 27.0435 	 -105.913 	 
H 	 -128.228 	 27.872 	 -105.426 	 
H 	 -127.438 	 26.3784 	 -105.112 	 
H 	 -128.395 	 26.5048 	 -106.48 	 
H 	 -126.268 	 25.4975 	 -113.463 	 
H 	 -123.491 	 31.6935 	 -108.509 	 
*
