! wB97X-D3 SP def2-SVP
%pal
nprocs 24
end

* xyz 0 1
S 	 -91.944 	 15.1288 	 -116.833 	 
C 	 -90.1955 	 15.1709 	 -116.891 	 
C 	 -89.6461 	 14.0888 	 -117.539 	 
C 	 -90.6962 	 13.1878 	 -117.941 	 
C 	 -91.9539 	 13.5501 	 -117.472 	 
H 	 -90.4482 	 12.2201 	 -118.385 	 
C 	 -88.0989 	 13.8199 	 -117.675 	 
H 	 -87.6234 	 14.763 	 -118.014 	 
H 	 -87.8945 	 13.1815 	 -118.503 	 
C 	 -87.3816 	 13.2484 	 -116.39 	 
H 	 -86.2565 	 13.3063 	 -116.448 	 
H 	 -87.6362 	 13.9353 	 -115.536 	 
C 	 -87.8722 	 11.8451 	 -116.147 	 
H 	 -88.0764 	 11.2581 	 -117.035 	 
H 	 -87.2493 	 11.2426 	 -115.552 	 
H 	 -88.7878 	 11.7791 	 -115.62 	 
S 	 -93.7166 	 12.0199 	 -116.135 	 
C 	 -94.9214 	 11.1583 	 -116.999 	 
C 	 -94.8771 	 11.3712 	 -118.391 	 
C 	 -93.7153 	 12.1305 	 -118.713 	 
C 	 -93.1449 	 12.683 	 -117.608 	 
H 	 -95.561 	 10.9003 	 -119.117 	 
C 	 -93.3067 	 12.2994 	 -120.137 	 
H 	 -93.0447 	 11.2957 	 -120.49 	 
H 	 -92.3859 	 12.9128 	 -120.29 	 
C 	 -94.4501 	 12.819 	 -121.034 	 
H 	 -94.8352 	 13.8221 	 -120.849 	 
H 	 -95.3261 	 12.1898 	 -120.986 	 
C 	 -94.076 	 12.8028 	 -122.566 	 
H 	 -94.9663 	 13.0885 	 -123.224 	 
H 	 -93.6458 	 11.8566 	 -122.92 	 
H 	 -93.2567 	 13.4913 	 -122.841 	 
H 	 -89.6286 	 16.0086 	 -116.504 	 
H 	 -95.4921 	 10.395 	 -116.448 	 
*
