! wB97X-D3 SP def2-SVP
%pal
nprocs 24
end

* xyz 0 1
S 	 -133.574 	 56.8602 	 -59.3187 	 
C 	 -132.421 	 58.1092 	 -59.8611 	 
C 	 -131.314 	 57.5476 	 -60.441 	 
C 	 -131.299 	 56.1201 	 -60.3749 	 
C 	 -132.47 	 55.6455 	 -59.8377 	 
H 	 -130.552 	 55.3756 	 -60.7279 	 
C 	 -130.135 	 58.3884 	 -60.9554 	 
H 	 -129.276 	 57.7982 	 -61.1473 	 
H 	 -129.867 	 59.0959 	 -60.1566 	 
C 	 -130.378 	 59.1995 	 -62.2205 	 
H 	 -130.637 	 58.5642 	 -63.0909 	 
H 	 -131.293 	 59.834 	 -62.0125 	 
C 	 -129.135 	 60.1176 	 -62.4218 	 
H 	 -128.195 	 59.5528 	 -62.3839 	 
H 	 -129.191 	 60.6112 	 -63.3643 	 
H 	 -128.921 	 60.8442 	 -61.6219 	 
S 	 -133.108 	 53.4886 	 -58.1933 	 
C 	 -133.294 	 51.9289 	 -58.9806 	 
C 	 -133.009 	 51.946 	 -60.3345 	 
C 	 -132.889 	 53.2671 	 -60.8217 	 
C 	 -132.797 	 54.2247 	 -59.7873 	 
H 	 -133.045 	 50.9545 	 -60.9473 	 
C 	 -132.588 	 53.5178 	 -62.3011 	 
H 	 -132.07 	 52.6754 	 -62.7595 	 
H 	 -131.806 	 54.3348 	 -62.4004 	 
C 	 -133.8 	 53.9509 	 -63.1771 	 
H 	 -134.045 	 54.9507 	 -62.948 	 
H 	 -134.601 	 53.2579 	 -62.9845 	 
C 	 -133.534 	 54.0482 	 -64.653 	 
H 	 -133.41 	 53.0214 	 -65.0179 	 
H 	 -132.689 	 54.6317 	 -65.0413 	 
H 	 -134.393 	 54.3801 	 -65.2329 	 
H 	 -132.552 	 59.1537 	 -59.7222 	 
H 	 -133.464 	 50.9492 	 -58.4997 	 
*
