! wB97X-D3 SP def2-SVP
%pal
nprocs 24
end

* xyz 0 1
S 	 41.8225 	 -14.0976 	 -124.373 	 
C 	 40.0845 	 -14.144 	 -124.588 	 
C 	 39.8086 	 -14.2502 	 -125.96 	 
C 	 40.9635 	 -14.4812 	 -126.779 	 
C 	 42.1363 	 -14.4448 	 -126.048 	 
H 	 40.9555 	 -14.6327 	 -127.891 	 
C 	 38.3663 	 -14.2809 	 -126.485 	 
H 	 37.8368 	 -14.5802 	 -125.553 	 
H 	 38.3021 	 -15.2135 	 -127.09 	 
C 	 37.9748 	 -12.9788 	 -127.22 	 
H 	 38.6612 	 -12.8074 	 -127.993 	 
H 	 37.0514 	 -13.041 	 -127.809 	 
C 	 37.6836 	 -11.8295 	 -126.213 	 
H 	 38.6363 	 -11.5429 	 -125.858 	 
H 	 37.2397 	 -10.9939 	 -126.764 	 
H 	 37.2562 	 -12.1022 	 -125.277 	 
S 	 44.5335 	 -15.6088 	 -125.252 	 
C 	 45.7846 	 -15.7866 	 -126.361 	 
C 	 45.5339 	 -15.178 	 -127.55 	 
C 	 44.2911 	 -14.6405 	 -127.672 	 
C 	 43.5068 	 -14.7819 	 -126.49 	 
H 	 46.3654 	 -15.0444 	 -128.262 	 
C 	 43.7808 	 -13.8223 	 -128.863 	 
H 	 42.8613 	 -13.3267 	 -128.646 	 
H 	 43.464 	 -14.5531 	 -129.556 	 
C 	 44.8662 	 -12.882 	 -129.53 	 
H 	 45.7415 	 -13.3619 	 -129.991 	 
H 	 45.2848 	 -12.2335 	 -128.816 	 
C 	 44.2379 	 -12.049 	 -130.699 	 
H 	 44.0924 	 -12.652 	 -131.573 	 
H 	 44.9017 	 -11.2795 	 -131.137 	 
H 	 43.298 	 -11.5368 	 -130.448 	 
H 	 39.3856 	 -13.7899 	 -123.87 	 
H 	 46.6611 	 -16.2779 	 -126.018 	 
*
