! wB97X-D3 SP def2-SVP
%pal
nprocs 24
end

* xyz 0 1
S 	 -47.7294 	 -4.66185 	 -19.2492 	 
C 	 -48.6338 	 -5.95477 	 -18.5349 	 
C 	 -49.7953 	 -5.53175 	 -17.8947 	 
C 	 -49.948 	 -4.10995 	 -18.0369 	 
C 	 -48.8726 	 -3.47268 	 -18.6497 	 
H 	 -50.7944 	 -3.63865 	 -17.597 	 
C 	 -50.7453 	 -6.4893 	 -17.2058 	 
H 	 -50.7778 	 -6.24572 	 -16.1836 	 
H 	 -50.5407 	 -7.57122 	 -17.222 	 
C 	 -52.2053 	 -6.21651 	 -17.6754 	 
H 	 -52.8902 	 -6.80392 	 -16.9954 	 
H 	 -52.4834 	 -5.19481 	 -17.4927 	 
C 	 -52.4443 	 -6.53446 	 -19.1467 	 
H 	 -52.589 	 -7.5793 	 -19.3128 	 
H 	 -53.3692 	 -6.08716 	 -19.4628 	 
H 	 -51.6478 	 -6.21747 	 -19.7575 	 
S 	 -48.4808 	 -1.66319 	 -20.6716 	 
C 	 -48.7348 	 0.047753 	 -20.3625 	 
C 	 -48.9288 	 0.244485 	 -19.0232 	 
C 	 -48.8761 	 -0.954467 	 -18.2121 	 
C 	 -48.6681 	 -2.09799 	 -18.988 	 
H 	 -49.1959 	 1.26318 	 -18.7892 	 
C 	 -49.0622 	 -0.941321 	 -16.6768 	 
H 	 -50.0187 	 -1.49233 	 -16.4398 	 
H 	 -49.2442 	 0.0875628 	 -16.3534 	 
C 	 -47.9057 	 -1.43679 	 -15.8119 	 
H 	 -47.1919 	 -0.664712 	 -15.6513 	 
H 	 -47.4634 	 -2.25519 	 -16.4006 	 
C 	 -48.4038 	 -1.87936 	 -14.3774 	 
H 	 -49.3483 	 -1.54204 	 -14.0761 	 
H 	 -47.7234 	 -1.64107 	 -13.6044 	 
H 	 -48.5296 	 -2.94298 	 -14.1862 	 
H 	 -48.3691 	 -7.02322 	 -18.5462 	 
H 	 -48.6548 	 0.92432 	 -21.0719 	 
*
