! wB97X-D3 SP def2-SVP
%pal
nprocs 24
end

* xyz 0 1
S 	 -39.9998 	 -52.1345 	 -72.603 	 
C 	 -39.0247 	 -53.145 	 -73.6957 	 
C 	 -39.0851 	 -52.7649 	 -75.0107 	 
C 	 -40.0048 	 -51.6372 	 -75.1733 	 
C 	 -40.6667 	 -51.2266 	 -73.9983 	 
H 	 -40.2834 	 -51.162 	 -76.1963 	 
C 	 -38.3419 	 -53.4222 	 -76.1971 	 
H 	 -38.9245 	 -53.2916 	 -77.1637 	 
H 	 -38.244 	 -54.5034 	 -76.0804 	 
C 	 -36.9418 	 -52.8199 	 -76.3244 	 
H 	 -36.4855 	 -52.7144 	 -75.3377 	 
H 	 -36.355 	 -53.5216 	 -76.8928 	 
C 	 -37.0346 	 -51.4869 	 -77.0586 	 
H 	 -37.7748 	 -50.8774 	 -76.5605 	 
H 	 -36.0702 	 -50.991 	 -77.3104 	 
H 	 -37.462 	 -51.6112 	 -78.143 	 
S 	 -43.3471 	 -50.9859 	 -74.1309 	 
C 	 -44.1689 	 -49.4608 	 -73.8901 	 
C 	 -43.2631 	 -48.5547 	 -73.3646 	 
C 	 -41.9241 	 -49.0215 	 -73.375 	 
C 	 -41.7891 	 -50.3349 	 -73.8217 	 
H 	 -43.4609 	 -47.5573 	 -73.1048 	 
C 	 -40.7649 	 -48.1724 	 -72.8782 	 
H 	 -40.2043 	 -47.6313 	 -73.6958 	 
H 	 -40.0716 	 -48.9693 	 -72.5968 	 
C 	 -41.0205 	 -47.1977 	 -71.7452 	 
H 	 -41.6358 	 -47.7645 	 -71.0676 	 
H 	 -41.6611 	 -46.4409 	 -72.1621 	 
C 	 -39.8157 	 -46.4611 	 -71.1655 	 
H 	 -40.1022 	 -45.7693 	 -70.279 	 
H 	 -39.4993 	 -45.8474 	 -71.9963 	 
H 	 -38.8933 	 -47.1367 	 -71.0225 	 
H 	 -38.596 	 -54.07 	 -73.465 	 
H 	 -45.2858 	 -49.4395 	 -73.8923 	 
*
