! wB97X-D3 SP def2-SVP
%pal
nprocs 24
end

* xyz 0 1
S 	 -101.718 	 -2.97698 	 -104.691 	 
C 	 -100.879 	 -4.58932 	 -104.699 	 
C 	 -101.52 	 -5.49562 	 -105.523 	 
C 	 -102.795 	 -5.05094 	 -105.947 	 
C 	 -103.08 	 -3.70471 	 -105.551 	 
H 	 -103.488 	 -5.56469 	 -106.536 	 
C 	 -100.982 	 -6.84932 	 -105.949 	 
H 	 -99.9328 	 -6.87696 	 -105.844 	 
H 	 -101.203 	 -7.03373 	 -107.033 	 
C 	 -101.652 	 -8.10031 	 -105.292 	 
H 	 -102.694 	 -8.10613 	 -105.237 	 
H 	 -101.423 	 -8.97136 	 -105.905 	 
C 	 -101.177 	 -8.34626 	 -103.801 	 
H 	 -101.72 	 -9.01061 	 -103.21 	 
H 	 -100.11 	 -8.6901 	 -103.83 	 
H 	 -101.284 	 -7.38352 	 -103.324 	 
S 	 -103.888 	 -1.28336 	 -106.474 	 
C 	 -105.58 	 -0.996633 	 -106.738 	 
C 	 -106.377 	 -2.12194 	 -106.538 	 
C 	 -105.607 	 -3.1837 	 -106.026 	 
C 	 -104.247 	 -2.93537 	 -106.009 	 
H 	 -107.51 	 -2.14327 	 -106.654 	 
C 	 -106.276 	 -4.51938 	 -105.726 	 
H 	 -107.173 	 -4.36335 	 -105.067 	 
H 	 -105.523 	 -5.07336 	 -105.122 	 
C 	 -106.721 	 -5.29702 	 -106.92 	 
H 	 -105.949 	 -5.22687 	 -107.73 	 
H 	 -107.611 	 -4.94478 	 -107.4 	 
C 	 -107.021 	 -6.82386 	 -106.628 	 
H 	 -106.016 	 -7.37771 	 -106.53 	 
H 	 -107.679 	 -7.24058 	 -107.335 	 
H 	 -107.56 	 -7.08813 	 -105.704 	 
H 	 -99.8468 	 -4.73358 	 -104.407 	 
H 	 -106.161 	 -0.0466632 	 -106.897 	 
*
