! wB97X-D3 SP def2-SVP
%pal
nprocs 24
end

* xyz 0 1
S 	 -52.5864 	 18.9196 	 29.0311 	 
C 	 -51.508 	 18.8025 	 27.6551 	 
C 	 -50.3258 	 18.1439 	 27.922 	 
C 	 -50.1776 	 17.9406 	 29.3203 	 
C 	 -51.2863 	 18.3275 	 30.075 	 
H 	 -49.2221 	 17.6501 	 29.7581 	 
C 	 -49.2321 	 18.0119 	 26.8827 	 
H 	 -48.3145 	 18.3654 	 27.3634 	 
H 	 -49.3557 	 18.6639 	 26.0342 	 
C 	 -48.9324 	 16.559 	 26.4077 	 
H 	 -49.6156 	 16.3144 	 25.6074 	 
H 	 -48.0464 	 16.645 	 25.7674 	 
C 	 -48.7343 	 15.4376 	 27.4906 	 
H 	 -49.6523 	 15.1135 	 28.0423 	 
H 	 -48.1759 	 14.6044 	 27.0527 	 
H 	 -48.0514 	 15.7387 	 28.2508 	 
S 	 -51.6887 	 19.9341 	 32.2026 	 
C 	 -51.2678 	 19.3734 	 33.8158 	 
C 	 -51.0681 	 18.0034 	 33.7968 	 
C 	 -51.0355 	 17.429 	 32.4602 	 
C 	 -51.4246 	 18.3502 	 31.509 	 
H 	 -50.9707 	 17.4725 	 34.6798 	 
C 	 -50.8495 	 15.9601 	 32.1625 	 
H 	 -50.3473 	 15.8255 	 31.1819 	 
H 	 -51.9101 	 15.6477 	 31.9823 	 
C 	 -50.0433 	 15.2488 	 33.2424 	 
H 	 -50.6423 	 15.2523 	 34.1861 	 
H 	 -49.1445 	 15.7975 	 33.3862 	 
C 	 -49.6849 	 13.8058 	 32.9572 	 
H 	 -49.0647 	 13.4065 	 33.7804 	 
H 	 -49.2351 	 13.7092 	 32.0145 	 
H 	 -50.5628 	 13.1711 	 32.8611 	 
H 	 -51.6458 	 19.1518 	 26.649 	 
H 	 -51.2234 	 19.8212 	 34.7462 	 
*
