! wB97X-D3 SP def2-SVP
%pal
nprocs 24
end

* xyz 0 1
S 	 -67.1039 	 6.25149 	 -76.6123 	 
C 	 -66.8984 	 4.58472 	 -77.1854 	 
C 	 -67.7378 	 4.18442 	 -78.1384 	 
C 	 -68.783 	 5.15727 	 -78.2735 	 
C 	 -68.6411 	 6.30691 	 -77.4732 	 
H 	 -69.6676 	 5.2365 	 -78.9125 	 
C 	 -67.7439 	 2.81426 	 -78.8074 	 
H 	 -68.5384 	 2.27461 	 -78.2854 	 
H 	 -66.8359 	 2.29107 	 -78.58 	 
C 	 -67.8712 	 2.76118 	 -80.3754 	 
H 	 -68.1184 	 1.76225 	 -80.7562 	 
H 	 -68.705 	 3.40622 	 -80.6545 	 
C 	 -66.5977 	 3.28996 	 -81.0341 	 
H 	 -66.5831 	 3.09943 	 -82.0771 	 
H 	 -66.6368 	 4.42179 	 -80.8688 	 
H 	 -65.7022 	 2.85258 	 -80.5328 	 
S 	 -68.9307 	 9.09214 	 -78.1007 	 
C 	 -70.489 	 9.78746 	 -78.0754 	 
C 	 -71.4337 	 8.91597 	 -77.5667 	 
C 	 -70.8783 	 7.57122 	 -77.3781 	 
C 	 -69.5468 	 7.46669 	 -77.5888 	 
H 	 -72.427 	 9.21946 	 -77.3709 	 
C 	 -71.7751 	 6.36898 	 -77.0521 	 
H 	 -72.4191 	 6.57069 	 -76.1021 	 
H 	 -71.0979 	 5.53109 	 -76.9195 	 
C 	 -72.5871 	 5.95741 	 -78.3051 	 
H 	 -71.9208 	 5.85614 	 -79.1859 	 
H 	 -73.4305 	 6.59923 	 -78.4785 	 
C 	 -73.1859 	 4.53008 	 -78.0655 	 
H 	 -73.828 	 4.56276 	 -77.1939 	 
H 	 -72.3236 	 3.84345 	 -77.8843 	 
H 	 -73.7115 	 4.27168 	 -78.9534 	 
H 	 -66.0912 	 4.03961 	 -76.9845 	 
H 	 -70.7938 	 10.7401 	 -78.542 	 
*
