! wB97X-D3 SP def2-SVP
%pal
nprocs 24
end

* xyz 0 1
S 	 -83.7152 	 -11.8029 	 -59.3856 	 
C 	 -82.7065 	 -10.352 	 -59.6515 	 
C 	 -81.8313 	 -10.5181 	 -60.7103 	 
C 	 -82.0472 	 -11.7825 	 -61.2967 	 
C 	 -83.041 	 -12.5951 	 -60.7648 	 
H 	 -81.6049 	 -12.1754 	 -62.2226 	 
C 	 -80.8464 	 -9.48702 	 -61.3115 	 
H 	 -80.1823 	 -9.21394 	 -60.5531 	 
H 	 -81.5175 	 -8.63129 	 -61.4924 	 
C 	 -80.1069 	 -9.86545 	 -62.6262 	 
H 	 -79.5821 	 -10.8703 	 -62.6923 	 
H 	 -80.75 	 -9.71668 	 -63.4787 	 
C 	 -78.9057 	 -8.96317 	 -62.8493 	 
H 	 -78.4358 	 -9.16415 	 -63.8102 	 
H 	 -79.3118 	 -8.00101 	 -62.8181 	 
H 	 -78.2005 	 -8.90577 	 -61.9931 	 
S 	 -82.9192 	 -15.1635 	 -59.9043 	 
C 	 -83.2563 	 -16.373 	 -61.0368 	 
C 	 -83.9111 	 -15.9526 	 -62.1318 	 
C 	 -84.0012 	 -14.5176 	 -62.1251 	 
C 	 -83.3367 	 -13.9744 	 -61.0377 	 
H 	 -84.3699 	 -16.6653 	 -62.902 	 
C 	 -84.7378 	 -13.7041 	 -63.2074 	 
H 	 -84.4644 	 -12.6778 	 -62.9251 	 
H 	 -85.8319 	 -13.6938 	 -63.0092 	 
C 	 -84.3709 	 -13.9614 	 -64.6582 	 
H 	 -84.9261 	 -13.301 	 -65.2947 	 
H 	 -84.7474 	 -14.9249 	 -65.0435 	 
C 	 -82.8599 	 -13.9056 	 -64.9555 	 
H 	 -82.2377 	 -13.9802 	 -64.0562 	 
H 	 -82.5945 	 -13.0623 	 -65.5095 	 
H 	 -82.7384 	 -14.7318 	 -65.7356 	 
H 	 -82.7848 	 -9.49553 	 -58.9859 	 
H 	 -83.1969 	 -17.4494 	 -60.9673 	 
*
