! wB97X-D3 SP def2-SVP
%pal
nprocs 24
end

* xyz 0 1
S 	 -104.203 	 21.4197 	 -119.206 	 
C 	 -105.904 	 21.1717 	 -118.642 	 
C 	 -106.611 	 20.349 	 -119.408 	 
C 	 -105.757 	 19.817 	 -120.425 	 
C 	 -104.43 	 20.2404 	 -120.462 	 
H 	 -106.195 	 19.0926 	 -121.082 	 
C 	 -108.122 	 20.1268 	 -119.333 	 
H 	 -108.604 	 20.0221 	 -120.309 	 
H 	 -108.482 	 20.9969 	 -118.842 	 
C 	 -108.591 	 19.0021 	 -118.385 	 
H 	 -108.118 	 19.1137 	 -117.434 	 
H 	 -109.715 	 19.0215 	 -118.322 	 
C 	 -107.934 	 17.6282 	 -118.743 	 
H 	 -108.632 	 17.0605 	 -119.309 	 
H 	 -107.075 	 17.7225 	 -119.327 	 
H 	 -107.655 	 16.9928 	 -117.867 	 
S 	 -101.696 	 19.6948 	 -120.663 	 
C 	 -101.06 	 19.098 	 -122.139 	 
C 	 -102.061 	 18.79 	 -122.997 	 
C 	 -103.308 	 19.314 	 -122.652 	 
C 	 -103.328 	 19.7849 	 -121.29 	 
H 	 -101.706 	 18.3127 	 -123.905 	 
C 	 -104.408 	 19.3682 	 -123.633 	 
H 	 -104.118 	 19.9474 	 -124.5 	 
H 	 -105.188 	 19.9025 	 -123.072 	 
C 	 -104.82 	 17.982 	 -124.108 	 
H 	 -104.933 	 17.2627 	 -123.333 	 
H 	 -104.04 	 17.7111 	 -124.814 	 
C 	 -106.106 	 17.931 	 -125.001 	 
H 	 -105.925 	 18.7345 	 -125.794 	 
H 	 -106.978 	 17.9689 	 -124.369 	 
H 	 -106.124 	 16.9633 	 -125.56 	 
H 	 -106.472 	 21.6881 	 -117.884 	 
H 	 -100.007 	 18.9325 	 -122.458 	 
*
