! wB97X-D3 SP def2-SVP
%pal
nprocs 24
end

* xyz 0 1
S 	 -96.1722 	 -25.2423 	 -67.3092 	 
C 	 -97.6355 	 -25.1347 	 -68.2381 	 
C 	 -98.673 	 -25.7118 	 -67.5521 	 
C 	 -98.3555 	 -26.0053 	 -66.2189 	 
C 	 -97.0055 	 -25.878 	 -65.9276 	 
H 	 -99.0076 	 -26.3239 	 -65.462 	 
C 	 -100.085 	 -25.8883 	 -68.1753 	 
H 	 -100.623 	 -26.7345 	 -67.8071 	 
H 	 -99.8249 	 -26.1328 	 -69.2635 	 
C 	 -100.893 	 -24.5575 	 -68.1667 	 
H 	 -100.278 	 -23.7777 	 -68.5937 	 
H 	 -101.782 	 -24.6025 	 -68.7762 	 
C 	 -101.363 	 -23.932 	 -66.8758 	 
H 	 -101.879 	 -23.0441 	 -67.1551 	 
H 	 -101.954 	 -24.5792 	 -66.2077 	 
H 	 -100.516 	 -23.6844 	 -66.2967 	 
S 	 -95.2307 	 -27.3052 	 -64.61 	 
C 	 -95.0754 	 -27.096 	 -62.8881 	 
C 	 -95.7014 	 -25.9868 	 -62.4806 	 
C 	 -96.5921 	 -25.4379 	 -63.4209 	 
C 	 -96.3389 	 -25.9677 	 -64.6576 	 
H 	 -95.6526 	 -25.7563 	 -61.4185 	 
C 	 -97.571 	 -24.2667 	 -63.0817 	 
H 	 -97.8445 	 -23.818 	 -64.0648 	 
H 	 -96.916 	 -23.5869 	 -62.526 	 
C 	 -98.8929 	 -24.6511 	 -62.4036 	 
H 	 -98.6234 	 -24.9836 	 -61.3716 	 
H 	 -99.4059 	 -25.4975 	 -62.9345 	 
C 	 -99.8403 	 -23.5259 	 -62.3893 	 
H 	 -100.635 	 -23.9648 	 -61.7736 	 
H 	 -100.435 	 -23.2784 	 -63.285 	 
H 	 -99.5841 	 -22.53 	 -61.9038 	 
H 	 -97.7365 	 -24.7468 	 -69.26 	 
H 	 -94.3698 	 -27.6318 	 -62.1855 	 
*
