! wB97X-D3 SP def2-SVP
%pal
nprocs 24
end

* xyz 0 1
S 	 -127.049 	 64.7399 	 -55.4423 	 
C 	 -127.076 	 66.2934 	 -54.7474 	 
C 	 -127.479 	 67.2596 	 -55.5687 	 
C 	 -127.477 	 66.8257 	 -56.9541 	 
C 	 -127.365 	 65.4418 	 -57.0686 	 
H 	 -127.758 	 67.4935 	 -57.7314 	 
C 	 -127.725 	 68.688 	 -55.2067 	 
H 	 -127.262 	 69.3356 	 -56.0203 	 
H 	 -127.19 	 69.0303 	 -54.3074 	 
C 	 -129.17 	 69.0767 	 -55.0065 	 
H 	 -129.689 	 68.4988 	 -54.2316 	 
H 	 -129.247 	 70.1808 	 -54.6967 	 
C 	 -130.053 	 68.9696 	 -56.3064 	 
H 	 -130.004 	 69.8315 	 -56.9581 	 
H 	 -129.996 	 67.9893 	 -56.8013 	 
H 	 -131.04 	 69.09 	 -55.8966 	 
S 	 -127.904 	 63.0214 	 -58.1263 	 
C 	 -128.162 	 62.8473 	 -59.849 	 
C 	 -127.716 	 63.9099 	 -60.5721 	 
C 	 -127.217 	 64.9681 	 -59.6834 	 
C 	 -127.45 	 64.6954 	 -58.3119 	 
H 	 -127.845 	 63.8311 	 -61.6578 	 
C 	 -126.592 	 66.2458 	 -60.2377 	 
H 	 -125.731 	 65.854 	 -60.8062 	 
H 	 -126.153 	 66.7195 	 -59.3326 	 
C 	 -127.469 	 67.0711 	 -61.1453 	 
H 	 -128.462 	 66.7858 	 -61.0025 	 
H 	 -127.223 	 66.9476 	 -62.1641 	 
C 	 -127.202 	 68.5044 	 -60.8192 	 
H 	 -127.504 	 68.6334 	 -59.725 	 
H 	 -127.769 	 69.0535 	 -61.5899 	 
H 	 -126.146 	 68.7045 	 -61.0485 	 
H 	 -127.253 	 66.3766 	 -53.6896 	 
H 	 -128.625 	 61.9496 	 -60.3364 	 
*
