! wB97X-D3 SP def2-SVP
%pal
nprocs 24
end

* xyz 0 1
S 	 -1.52452 	 -21.7742 	 -103.861 	 
C 	 -1.30332 	 -23.2309 	 -104.761 	 
C 	 -2.43521 	 -24.0431 	 -104.873 	 
C 	 -3.55813 	 -23.4807 	 -104.147 	 
C 	 -3.16984 	 -22.3682 	 -103.387 	 
H 	 -4.66986 	 -23.8591 	 -104.032 	 
C 	 -2.52847 	 -25.2296 	 -105.745 	 
H 	 -1.98966 	 -26.0978 	 -105.333 	 
H 	 -2.06822 	 -25.1124 	 -106.692 	 
C 	 -3.98332 	 -25.6157 	 -106.053 	 
H 	 -4.436 	 -26.0362 	 -105.093 	 
H 	 -4.56181 	 -24.6937 	 -106.343 	 
C 	 -4.09553 	 -26.6467 	 -107.185 	 
H 	 -3.33082 	 -27.3871 	 -107.057 	 
H 	 -5.13514 	 -26.9659 	 -107.166 	 
H 	 -3.81454 	 -26.2722 	 -108.192 	 
S 	 -4.33139 	 -19.9683 	 -102.667 	 
C 	 -5.45739 	 -19.9431 	 -101.36 	 
C 	 -5.52363 	 -21.2082 	 -100.767 	 
C 	 -4.71127 	 -22.1601 	 -101.371 	 
C 	 -3.99752 	 -21.6673 	 -102.427 	 
H 	 -6.19152 	 -21.4455 	 -99.9662 	 
C 	 -4.77205 	 -23.627 	 -100.901 	 
H 	 -4.93113 	 -24.1272 	 -101.859 	 
H 	 -5.78849 	 -23.7573 	 -100.402 	 
C 	 -3.60404 	 -24.1166 	 -100.137 	 
H 	 -2.67946 	 -23.9935 	 -100.696 	 
H 	 -3.68168 	 -25.2051 	 -99.9034 	 
C 	 -3.64387 	 -23.2199 	 -98.83 	 
H 	 -2.80604 	 -23.6504 	 -98.2449 	 
H 	 -4.66674 	 -23.292 	 -98.4387 	 
H 	 -3.29863 	 -22.2592 	 -98.9674 	 
H 	 -0.372309 	 -23.5155 	 -105.192 	 
H 	 -6.00628 	 -19.0921 	 -100.928 	 
*
