! wB97X-D3 SP def2-SVP
%pal
nprocs 24
end

* xyz 0 1
S 	 -134.1 	 69.7793 	 -62.9482 	 
C 	 -135.272 	 71.0131 	 -63.3185 	 
C 	 -136.118 	 71.2226 	 -62.2574 	 
C 	 -135.871 	 70.3767 	 -61.1384 	 
C 	 -134.738 	 69.6203 	 -61.2995 	 
H 	 -136.486 	 70.3341 	 -60.1693 	 
C 	 -137.43 	 72.1166 	 -62.258 	 
H 	 -138.188 	 71.6941 	 -61.6277 	 
H 	 -137.869 	 72.147 	 -63.2374 	 
C 	 -137.135 	 73.5456 	 -61.7469 	 
H 	 -136.218 	 73.9128 	 -62.1702 	 
H 	 -137.938 	 74.2878 	 -62.1035 	 
C 	 -136.955 	 73.5727 	 -60.2519 	 
H 	 -136.165 	 72.9757 	 -59.8798 	 
H 	 -136.777 	 74.6236 	 -59.9495 	 
H 	 -137.955 	 73.3243 	 -59.8132 	 
S 	 -134.463 	 67.1187 	 -60.2652 	 
C 	 -133.957 	 66.916 	 -58.6531 	 
C 	 -133.708 	 68.1257 	 -58.0478 	 
C 	 -133.914 	 69.1846 	 -58.9651 	 
C 	 -134.203 	 68.8126 	 -60.251 	 
H 	 -133.42 	 67.9957 	 -56.9931 	 
C 	 -133.834 	 70.6281 	 -58.4542 	 
H 	 -134.348 	 71.2476 	 -59.182 	 
H 	 -132.727 	 70.8169 	 -58.3545 	 
C 	 -134.466 	 70.9605 	 -57.0596 	 
H 	 -134.264 	 72.0381 	 -56.8183 	 
H 	 -133.989 	 70.4138 	 -56.2664 	 
C 	 -136.07 	 70.6379 	 -56.949 	 
H 	 -136.272 	 69.5857 	 -56.6543 	 
H 	 -136.613 	 70.8224 	 -57.8882 	 
H 	 -136.433 	 71.2848 	 -56.1267 	 
H 	 -135.338 	 71.5308 	 -64.2722 	 
H 	 -133.807 	 65.974 	 -58.1918 	 
*
