! wB97X-D3 SP def2-SVP
%pal
nprocs 24
end

* xyz 0 1
S 	 -53.6572 	 16.7222 	 22.2203 	 
C 	 -55.054 	 15.7427 	 22.5457 	 
C 	 -55.0933 	 14.7006 	 21.6322 	 
C 	 -54.1951 	 14.7534 	 20.5828 	 
C 	 -53.283 	 15.7817 	 20.6956 	 
H 	 -54.0157 	 14.1076 	 19.7416 	 
C 	 -56.0673 	 13.5836 	 21.7283 	 
H 	 -56.0663 	 13.2222 	 22.7644 	 
H 	 -55.7625 	 12.7904 	 21.0681 	 
C 	 -57.5275 	 13.9149 	 21.4533 	 
H 	 -57.8965 	 14.7758 	 22.0913 	 
H 	 -57.5911 	 14.2959 	 20.4509 	 
C 	 -58.5595 	 12.7646 	 21.4348 	 
H 	 -58.4983 	 12.1061 	 20.5708 	 
H 	 -58.426 	 12.3262 	 22.3872 	 
H 	 -59.5417 	 13.0709 	 21.346 	 
S 	 -50.5971 	 16.0449 	 20.5318 	 
C 	 -49.7629 	 16.0064 	 19.0425 	 
C 	 -50.7249 	 16.0326 	 18.0155 	 
C 	 -52.0968 	 16.0308 	 18.425 	 
C 	 -52.1519 	 15.9332 	 19.8206 	 
H 	 -50.429 	 16.1253 	 16.9579 	 
C 	 -53.2214 	 15.9476 	 17.43 	 
H 	 -53.7303 	 14.9916 	 17.3221 	 
H 	 -52.634 	 16.0647 	 16.4987 	 
C 	 -54.2698 	 17.0533 	 17.397 	 
H 	 -54.7974 	 17.1302 	 18.3315 	 
H 	 -54.9987 	 16.7746 	 16.6752 	 
C 	 -53.767 	 18.5012 	 17.1839 	 
H 	 -53.0143 	 18.8074 	 17.884 	 
H 	 -54.6102 	 19.1928 	 17.2455 	 
H 	 -53.3157 	 18.489 	 16.1171 	 
H 	 -55.8062 	 15.888 	 23.3425 	 
H 	 -48.7011 	 16.1325 	 19.0235 	 
*
