! wB97X-D3 SP def2-SVP
%pal
nprocs 24
end

* xyz 0 1
S 	 -0.646707 	 -17.5249 	 -104.767 	 
C 	 0.586009 	 -17.5675 	 -103.618 	 
C 	 1.10215 	 -16.3323 	 -103.273 	 
C 	 0.331415 	 -15.3206 	 -103.866 	 
C 	 -0.677681 	 -15.7555 	 -104.704 	 
H 	 0.499252 	 -14.334 	 -103.674 	 
C 	 2.41372 	 -16.2358 	 -102.446 	 
H 	 3.29302 	 -16.2815 	 -103.056 	 
H 	 2.39431 	 -17.0275 	 -101.71 	 
C 	 2.65041 	 -14.8999 	 -101.793 	 
H 	 2.23669 	 -14.1664 	 -102.48 	 
H 	 2.00086 	 -14.7604 	 -100.909 	 
C 	 4.09628 	 -14.4407 	 -101.545 	 
H 	 4.69947 	 -15.1503 	 -100.922 	 
H 	 4.59662 	 -14.3811 	 -102.52 	 
H 	 4.15915 	 -13.621 	 -100.909 	 
S 	 -2.55067 	 -15.3835 	 -106.784 	 
C 	 -3.6375 	 -14.0656 	 -106.813 	 
C 	 -3.35721 	 -13.2714 	 -105.709 	 
C 	 -2.31544 	 -13.6772 	 -104.905 	 
C 	 -1.77338 	 -14.9215 	 -105.244 	 
H 	 -4.01836 	 -12.3808 	 -105.609 	 
C 	 -1.84695 	 -12.7495 	 -103.733 	 
H 	 -1.3786 	 -13.3081 	 -102.939 	 
H 	 -2.75074 	 -12.2495 	 -103.287 	 
C 	 -0.876914 	 -11.6514 	 -104.157 	 
H 	 -1.35834 	 -10.9707 	 -104.876 	 
H 	 -0.0750717 	 -12.106 	 -104.719 	 
C 	 -0.0601806 	 -10.905 	 -103.078 	 
H 	 0.558584 	 -11.5789 	 -102.435 	 
H 	 -0.683431 	 -10.2003 	 -102.448 	 
H 	 0.614939 	 -10.3982 	 -103.654 	 
H 	 0.840689 	 -18.5105 	 -103.179 	 
H 	 -4.37321 	 -14.0284 	 -107.539 	 
*
