! wB97X-D3 SP def2-SVP
%pal
nprocs 24
end

* xyz 0 1
S 	 -49.5177 	 18.0937 	 -87.468 	 
C 	 -50.3349 	 18.9375 	 -88.7565 	 
C 	 -51.4962 	 19.5368 	 -88.2571 	 
C 	 -51.484 	 19.4391 	 -86.797 	 
C 	 -50.4966 	 18.6799 	 -86.2167 	 
H 	 -52.2132 	 19.9721 	 -86.1424 	 
C 	 -52.5253 	 20.3267 	 -89.0366 	 
H 	 -52.221 	 20.1617 	 -90.1133 	 
H 	 -52.3589 	 21.3937 	 -88.8252 	 
C 	 -54.0204 	 19.9217 	 -88.9187 	 
H 	 -54.197 	 18.8834 	 -89.0354 	 
H 	 -54.5031 	 20.1472 	 -87.9755 	 
C 	 -54.8558 	 20.5024 	 -90.0214 	 
H 	 -54.353 	 20.2031 	 -90.9161 	 
H 	 -55.8706 	 20.2681 	 -90.0781 	 
H 	 -54.8272 	 21.5703 	 -89.8258 	 
S 	 -50.1641 	 16.5843 	 -84.4256 	 
C 	 -49.9192 	 16.9865 	 -82.7666 	 
C 	 -50.1157 	 18.3031 	 -82.5564 	 
C 	 -50.5725 	 19.02 	 -83.6884 	 
C 	 -50.4882 	 18.2504 	 -84.8298 	 
H 	 -49.8941 	 18.7877 	 -81.5728 	 
C 	 -50.8323 	 20.4926 	 -83.6191 	 
H 	 -50.4832 	 21.073 	 -84.4275 	 
H 	 -50.3901 	 20.8983 	 -82.6728 	 
C 	 -52.3043 	 20.8761 	 -83.4305 	 
H 	 -52.4849 	 20.5874 	 -82.3533 	 
H 	 -52.9236 	 20.3106 	 -84.0135 	 
C 	 -52.4803 	 22.373 	 -83.5911 	 
H 	 -53.5934 	 22.6321 	 -83.5214 	 
H 	 -52.0686 	 22.6467 	 -84.5544 	 
H 	 -52.04 	 22.8419 	 -82.722 	 
H 	 -49.9742 	 18.9871 	 -89.7948 	 
H 	 -49.545 	 16.2361 	 -81.9704 	 
*
