! wB97X-D3 SP def2-SVP
%pal
nprocs 24
end

* xyz 0 1
S 	 -29.6196 	 -34.3786 	 -95.6132 	 
C 	 -28.3645 	 -35.539 	 -95.3482 	 
C 	 -27.2563 	 -35.0165 	 -94.6807 	 
C 	 -27.4026 	 -33.6011 	 -94.4874 	 
C 	 -28.5841 	 -33.0947 	 -95.0833 	 
H 	 -26.743 	 -33.0134 	 -93.8725 	 
C 	 -25.9906 	 -35.8233 	 -94.2475 	 
H 	 -26.2849 	 -36.8237 	 -93.9718 	 
H 	 -25.7329 	 -35.3455 	 -93.3536 	 
C 	 -24.9184 	 -35.8958 	 -95.2759 	 
H 	 -25.2668 	 -36.2908 	 -96.2272 	 
H 	 -24.7029 	 -34.8341 	 -95.5037 	 
C 	 -23.7128 	 -36.7249 	 -94.7116 	 
H 	 -23.2044 	 -36.3258 	 -93.8161 	 
H 	 -23.9902 	 -37.7324 	 -94.3328 	 
H 	 -22.9351 	 -36.7154 	 -95.4115 	 
S 	 -30.8691 	 -31.4408 	 -94.7752 	 
C 	 -30.5652 	 -29.8298 	 -94.291 	 
C 	 -29.2607 	 -29.4375 	 -94.3606 	 
C 	 -28.3968 	 -30.5255 	 -94.6694 	 
C 	 -29.1082 	 -31.7086 	 -94.8897 	 
H 	 -28.9865 	 -28.4107 	 -94.1388 	 
C 	 -26.8646 	 -30.3711 	 -94.7414 	 
H 	 -26.62 	 -29.656 	 -95.4821 	 
H 	 -26.3895 	 -31.1938 	 -95.2641 	 
C 	 -26.202 	 -29.9364 	 -93.4168 	 
H 	 -26.619 	 -30.5 	 -92.6135 	 
H 	 -26.4281 	 -28.8793 	 -93.1774 	 
C 	 -24.7438 	 -30.1808 	 -93.2967 	 
H 	 -24.5117 	 -31.2477 	 -93.2651 	 
H 	 -24.2437 	 -29.6959 	 -92.4209 	 
H 	 -24.247 	 -29.824 	 -94.1002 	 
H 	 -28.5069 	 -36.5434 	 -95.6846 	 
H 	 -31.4112 	 -29.1596 	 -94.2302 	 
*
