! wB97X-D3 SP def2-SVP
%pal
nprocs 24
end

* xyz 0 1
S 	 -112.933 	 36.1931 	 -116.535 	 
C 	 -113.108 	 34.5777 	 -117.099 	 
C 	 -113.475 	 33.718 	 -116.117 	 
C 	 -113.657 	 34.3884 	 -114.833 	 
C 	 -113.509 	 35.73 	 -114.964 	 
H 	 -113.91 	 33.8638 	 -113.885 	 
C 	 -113.54 	 32.2298 	 -116.337 	 
H 	 -113.469 	 32.0283 	 -117.381 	 
H 	 -114.471 	 31.8997 	 -116.005 	 
C 	 -112.36 	 31.5022 	 -115.689 	 
H 	 -111.517 	 31.5675 	 -116.341 	 
H 	 -112.054 	 31.9321 	 -114.735 	 
C 	 -112.702 	 30.0508 	 -115.369 	 
H 	 -113.519 	 30.1416 	 -114.625 	 
H 	 -113.201 	 29.3933 	 -116.117 	 
H 	 -111.833 	 29.5356 	 -114.881 	 
S 	 -112.389 	 37.4804 	 -113.232 	 
C 	 -113.204 	 38.0993 	 -111.857 	 
C 	 -114.523 	 37.6507 	 -111.845 	 
C 	 -114.838 	 36.6872 	 -112.913 	 
C 	 -113.727 	 36.5264 	 -113.755 	 
H 	 -115.209 	 38.028 	 -111.06 	 
C 	 -116.111 	 35.9061 	 -112.992 	 
H 	 -116.68 	 35.9627 	 -112.045 	 
H 	 -115.874 	 34.8939 	 -112.966 	 
C 	 -116.987 	 36.2102 	 -114.188 	 
H 	 -116.48 	 35.9233 	 -115.108 	 
H 	 -117.159 	 37.2279 	 -114.479 	 
C 	 -118.355 	 35.4312 	 -114.221 	 
H 	 -118.698 	 35.6065 	 -115.252 	 
H 	 -119.156 	 35.9612 	 -113.672 	 
H 	 -118.376 	 34.3714 	 -113.976 	 
H 	 -112.973 	 34.2606 	 -118.121 	 
H 	 -112.862 	 38.8982 	 -111.225 	 
*
