! wB97X-D3 SP def2-SVP
%pal
nprocs 24
end

* xyz 0 1
S 	 -84.6923 	 -33.5692 	 -78.7801 	 
C 	 -85.5839 	 -33.0343 	 -80.2007 	 
C 	 -86.7666 	 -32.475 	 -79.7483 	 
C 	 -87.1657 	 -32.8902 	 -78.441 	 
C 	 -86.1041 	 -33.4215 	 -77.7406 	 
H 	 -88.1919 	 -32.6497 	 -77.9958 	 
C 	 -87.6655 	 -31.7584 	 -80.7908 	 
H 	 -88.6524 	 -32.1844 	 -80.7148 	 
H 	 -87.2162 	 -31.8813 	 -81.7863 	 
C 	 -87.8243 	 -30.2607 	 -80.6423 	 
H 	 -88.6107 	 -29.9318 	 -81.3824 	 
H 	 -88.1088 	 -29.9437 	 -79.6894 	 
C 	 -86.5191 	 -29.4444 	 -80.966 	 
H 	 -86.6496 	 -28.4029 	 -80.8024 	 
H 	 -85.6747 	 -29.763 	 -80.2502 	 
H 	 -86.2757 	 -29.8126 	 -81.974 	 
S 	 -84.8221 	 -35.3053 	 -76.041 	 
C 	 -85.503 	 -35.6416 	 -74.3982 	 
C 	 -86.512 	 -34.712 	 -74.1522 	 
C 	 -86.9334 	 -33.9755 	 -75.2824 	 
C 	 -86.0896 	 -34.0883 	 -76.419 	 
H 	 -86.9532 	 -34.687 	 -73.1626 	 
C 	 -88.127 	 -32.9575 	 -75.0491 	 
H 	 -88.0748 	 -32.3521 	 -75.9537 	 
H 	 -87.8923 	 -32.1838 	 -74.2618 	 
C 	 -89.5103 	 -33.6124 	 -74.8998 	 
H 	 -89.4768 	 -34.3417 	 -74.0743 	 
H 	 -89.8844 	 -34.0698 	 -75.7311 	 
C 	 -90.5576 	 -32.6143 	 -74.3444 	 
H 	 -91.5253 	 -33.0924 	 -74.3217 	 
H 	 -90.5158 	 -31.751 	 -74.9192 	 
H 	 -90.3954 	 -32.3972 	 -73.3358 	 
H 	 -85.2001 	 -33.0091 	 -81.226 	 
H 	 -85.2114 	 -36.5195 	 -73.7465 	 
*
