! wB97X-D3 SP def2-SVP
%pal
nprocs 24
end

* xyz 0 1
S 	 -87.7619 	 -33.6273 	 -68.205 	 
C 	 -87.4135 	 -34.1035 	 -69.8085 	 
C 	 -88.5082 	 -33.9716 	 -70.6288 	 
C 	 -89.6568 	 -33.5153 	 -69.9312 	 
C 	 -89.3873 	 -33.1254 	 -68.5916 	 
H 	 -90.6244 	 -33.288 	 -70.4388 	 
C 	 -88.4528 	 -34.1706 	 -72.1306 	 
H 	 -89.2358 	 -33.5273 	 -72.47 	 
H 	 -88.6958 	 -35.2053 	 -72.4347 	 
C 	 -87.1417 	 -33.6745 	 -72.9378 	 
H 	 -87.0541 	 -32.6342 	 -72.8974 	 
H 	 -86.3068 	 -34.1722 	 -72.4278 	 
C 	 -87.2299 	 -34.018 	 -74.5088 	 
H 	 -87.8712 	 -33.3063 	 -75.0128 	 
H 	 -86.2703 	 -33.8517 	 -74.9723 	 
H 	 -87.4847 	 -35.0125 	 -74.7085 	 
S 	 -90.8357 	 -33.7153 	 -66.4225 	 
C 	 -91.8639 	 -32.5053 	 -65.6756 	 
C 	 -91.7746 	 -31.2754 	 -66.3458 	 
C 	 -91.0854 	 -31.4442 	 -67.6142 	 
C 	 -90.3234 	 -32.6275 	 -67.6661 	 
H 	 -92.3708 	 -30.4167 	 -66.0624 	 
C 	 -91.113 	 -30.3911 	 -68.7397 	 
H 	 -92.2247 	 -30.2428 	 -68.9348 	 
H 	 -90.8731 	 -31.0258 	 -69.5997 	 
C 	 -90.3758 	 -29.0726 	 -68.7101 	 
H 	 -90.689 	 -28.5783 	 -67.861 	 
H 	 -90.6383 	 -28.5692 	 -69.6129 	 
C 	 -88.8581 	 -29.1925 	 -68.7105 	 
H 	 -88.57 	 -29.755 	 -69.6324 	 
H 	 -88.6824 	 -29.7866 	 -67.8236 	 
H 	 -88.4002 	 -28.2207 	 -68.6742 	 
H 	 -86.4547 	 -34.4513 	 -70.1285 	 
H 	 -92.4332 	 -32.5133 	 -64.779 	 
*
