! wB97X-D3 SP def2-SVP
%pal
nprocs 24
end

* xyz 0 1
S 	 -62.0544 	 -58.8597 	 -77.6873 	 
C 	 -63.4579 	 -58.4035 	 -76.7234 	 
C 	 -63.2372 	 -57.1103 	 -76.2845 	 
C 	 -62.0957 	 -56.4778 	 -76.9663 	 
C 	 -61.3495 	 -57.2838 	 -77.7825 	 
H 	 -61.7979 	 -55.4804 	 -76.7921 	 
C 	 -64.0775 	 -56.3345 	 -75.3278 	 
H 	 -65.0295 	 -56.7495 	 -75.1997 	 
H 	 -64.3212 	 -55.341 	 -75.6618 	 
C 	 -63.4301 	 -56.2878 	 -73.8734 	 
H 	 -62.5566 	 -55.7424 	 -74.0285 	 
H 	 -64.1063 	 -55.7031 	 -73.2998 	 
C 	 -63.1993 	 -57.6925 	 -73.3347 	 
H 	 -62.9362 	 -57.7439 	 -72.3082 	 
H 	 -64.03 	 -58.3193 	 -73.6283 	 
H 	 -62.3182 	 -58.1225 	 -73.79 	 
S 	 -59.7208 	 -57.7383 	 -79.9091 	 
C 	 -58.2406 	 -56.8527 	 -80.1572 	 
C 	 -57.9549 	 -56.0622 	 -79.0658 	 
C 	 -58.9398 	 -56.2137 	 -78.0143 	 
C 	 -60.0379 	 -56.993 	 -78.337 	 
H 	 -57.0137 	 -55.5878 	 -79.0772 	 
C 	 -58.7533 	 -55.2979 	 -76.7784 	 
H 	 -59.7863 	 -54.946 	 -76.6319 	 
H 	 -57.9827 	 -54.495 	 -77.0949 	 
C 	 -58.348 	 -55.794 	 -75.3882 	 
H 	 -58.1901 	 -54.9319 	 -74.7369 	 
H 	 -57.3637 	 -56.3204 	 -75.3993 	 
C 	 -59.3511 	 -56.8734 	 -74.8673 	 
H 	 -59.1384 	 -57.2417 	 -73.8029 	 
H 	 -59.3285 	 -57.8321 	 -75.3835 	 
H 	 -60.3328 	 -56.4447 	 -75.0019 	 
H 	 -64.1606 	 -59.1309 	 -76.2735 	 
H 	 -57.5598 	 -56.994 	 -80.9753 	 
*
