! wB97X-D3 SP def2-SVP
%pal
nprocs 24
end

* xyz 0 1
S 	 -110.87 	 55.0367 	 -91.2453 	 
C 	 -112.516 	 55.4441 	 -91.7962 	 
C 	 -113.492 	 55.287 	 -90.7878 	 
C 	 -112.84 	 54.7894 	 -89.5816 	 
C 	 -111.49 	 54.5809 	 -89.633 	 
H 	 -113.4 	 54.4039 	 -88.7266 	 
C 	 -114.992 	 55.1929 	 -90.9791 	 
H 	 -115.323 	 56.1738 	 -91.3609 	 
H 	 -115.487 	 55.287 	 -89.9361 	 
C 	 -115.596 	 54.0916 	 -91.9402 	 
H 	 -115.193 	 54.1755 	 -92.9509 	 
H 	 -115.229 	 53.1199 	 -91.4885 	 
C 	 -117.119 	 54.2081 	 -91.8695 	 
H 	 -117.467 	 55.1483 	 -92.175 	 
H 	 -117.495 	 53.3831 	 -92.4368 	 
H 	 -117.305 	 54.0527 	 -90.8209 	 
S 	 -109.498 	 55.5925 	 -88.0355 	 
C 	 -109.139 	 54.8173 	 -86.4844 	 
C 	 -109.828 	 53.6432 	 -86.3182 	 
C 	 -110.774 	 53.392 	 -87.3661 	 
C 	 -110.598 	 54.2514 	 -88.47 	 
H 	 -109.673 	 53.1017 	 -85.4583 	 
C 	 -111.826 	 52.3361 	 -87.3358 	 
H 	 -112.788 	 52.7747 	 -87.6515 	 
H 	 -111.887 	 52.167 	 -86.298 	 
C 	 -111.606 	 51.014 	 -87.8989 	 
H 	 -112.367 	 50.2699 	 -87.551 	 
H 	 -110.625 	 50.5416 	 -87.5564 	 
C 	 -111.464 	 50.8686 	 -89.4346 	 
H 	 -111.479 	 49.8021 	 -89.6081 	 
H 	 -110.562 	 51.2898 	 -89.8278 	 
H 	 -112.34 	 51.3171 	 -89.9169 	 
H 	 -112.765 	 55.6781 	 -92.7825 	 
H 	 -108.481 	 55.2013 	 -85.7258 	 
*
