! wB97X-D3 SP def2-SVP
%pal
nprocs 24
end

* xyz 0 1
S 	 -132.351 	 29.22 	 -15.5268 	 
C 	 -130.877 	 28.6529 	 -16.1992 	 
C 	 -131.194 	 27.6008 	 -17.078 	 
C 	 -132.59 	 27.2927 	 -17.1809 	 
C 	 -133.398 	 28.0433 	 -16.3019 	 
H 	 -133.03 	 26.5526 	 -17.8154 	 
C 	 -130.21 	 26.8758 	 -17.995 	 
H 	 -129.215 	 27.3338 	 -17.8876 	 
H 	 -130.59 	 27.162 	 -19.0052 	 
C 	 -130.021 	 25.34 	 -17.8158 	 
H 	 -129.565 	 25.1954 	 -16.8772 	 
H 	 -130.928 	 24.7306 	 -17.6973 	 
C 	 -129.079 	 24.786 	 -18.9425 	 
H 	 -128.005 	 25.1462 	 -18.8656 	 
H 	 -129.101 	 23.6897 	 -19.0829 	 
H 	 -129.411 	 25.2714 	 -19.9004 	 
S 	 -135.734 	 29.5503 	 -16.3137 	 
C 	 -137.239 	 28.6652 	 -15.9942 	 
C 	 -137.099 	 27.3061 	 -16.0291 	 
C 	 -135.707 	 26.8987 	 -16.2127 	 
C 	 -134.861 	 28.0243 	 -16.2313 	 
H 	 -137.924 	 26.6073 	 -16.1117 	 
C 	 -135.274 	 25.4064 	 -16.153 	 
H 	 -134.355 	 25.4441 	 -15.7244 	 
H 	 -135.164 	 25.0962 	 -17.2415 	 
C 	 -136.258 	 24.5402 	 -15.3535 	 
H 	 -137.065 	 24.1847 	 -16.0167 	 
H 	 -136.586 	 25.2208 	 -14.5504 	 
C 	 -135.562 	 23.3988 	 -14.6886 	 
H 	 -134.722 	 23.7159 	 -14.0496 	 
H 	 -135.244 	 22.7635 	 -15.4697 	 
H 	 -136.122 	 22.7437 	 -13.9652 	 
H 	 -129.907 	 29.0279 	 -15.8651 	 
H 	 -138.153 	 29.1674 	 -16.0431 	 
*
