! wB97X-D3 SP def2-SVP
%pal
nprocs 24
end

* xyz 0 1
S 	 -41.2466 	 -50.6528 	 -73.1169 	 
C 	 -40.997 	 -49.5903 	 -74.4217 	 
C 	 -39.7546 	 -49.1035 	 -74.4646 	 
C 	 -38.9785 	 -49.551 	 -73.3405 	 
C 	 -39.6202 	 -50.4246 	 -72.5106 	 
H 	 -37.9603 	 -49.2539 	 -73.0905 	 
C 	 -39.2397 	 -47.9876 	 -75.3395 	 
H 	 -39.6541 	 -48.1912 	 -76.3354 	 
H 	 -38.1653 	 -47.9872 	 -75.5694 	 
C 	 -39.6579 	 -46.5939 	 -74.896 	 
H 	 -39.1375 	 -45.8136 	 -75.4424 	 
H 	 -40.746 	 -46.525 	 -75.1018 	 
C 	 -39.325 	 -46.2517 	 -73.4274 	 
H 	 -38.2306 	 -45.9906 	 -73.2691 	 
H 	 -39.7856 	 -45.2899 	 -73.146 	 
H 	 -39.7377 	 -46.9393 	 -72.654 	 
S 	 -38.5583 	 -52.883 	 -71.662 	 
C 	 -38.2137 	 -52.9848 	 -69.9506 	 
C 	 -38.487 	 -51.8511 	 -69.2258 	 
C 	 -38.9846 	 -50.8057 	 -70.0475 	 
C 	 -39.0844 	 -51.1579 	 -71.3549 	 
H 	 -38.3685 	 -51.8391 	 -68.1812 	 
C 	 -39.526 	 -49.5051 	 -69.5564 	 
H 	 -39.1442 	 -48.6675 	 -70.1057 	 
H 	 -39.1587 	 -49.4289 	 -68.5321 	 
C 	 -41.0571 	 -49.4258 	 -69.4928 	 
H 	 -41.4027 	 -50.2651 	 -68.8962 	 
H 	 -41.4694 	 -49.3342 	 -70.4972 	 
C 	 -41.6694 	 -48.2875 	 -68.6879 	 
H 	 -41.1654 	 -47.2861 	 -68.8585 	 
H 	 -41.5252 	 -48.5321 	 -67.6316 	 
H 	 -42.6939 	 -48.2371 	 -68.801 	 
H 	 -41.6749 	 -49.2133 	 -75.1731 	 
H 	 -37.917 	 -53.914 	 -69.4376 	 
*
