! wB97X-D3 SP def2-SVP
%pal
nprocs 24
end

* xyz 0 1
S 	 -119.192 	 28.6089 	 -16.3927 	 
C 	 -119.106 	 28.0126 	 -18.0401 	 
C 	 -117.783 	 28.0002 	 -18.425 	 
C 	 -116.903 	 28.5945 	 -17.4532 	 
C 	 -117.506 	 28.7388 	 -16.1603 	 
H 	 -115.835 	 28.8249 	 -17.4974 	 
C 	 -117.231 	 27.5854 	 -19.8077 	 
H 	 -116.619 	 28.5183 	 -20.0083 	 
H 	 -117.993 	 27.6454 	 -20.6034 	 
C 	 -116.312 	 26.4079 	 -19.9023 	 
H 	 -115.362 	 26.7206 	 -19.3624 	 
H 	 -116.666 	 25.5168 	 -19.4376 	 
C 	 -115.909 	 26.067 	 -21.3439 	 
H 	 -116.706 	 26.2045 	 -22.1146 	 
H 	 -115.078 	 26.6488 	 -21.6965 	 
H 	 -115.69 	 25.0074 	 -21.4631 	 
S 	 -115.512 	 28.4388 	 -14.2527 	 
C 	 -115.246 	 29.7035 	 -13.0532 	 
C 	 -116.144 	 30.7533 	 -13.1799 	 
C 	 -117.111 	 30.5059 	 -14.2057 	 
C 	 -116.855 	 29.2994 	 -14.927 	 
H 	 -116.067 	 31.6342 	 -12.5912 	 
C 	 -118.029 	 31.6143 	 -14.6491 	 
H 	 -118.217 	 31.4968 	 -15.7385 	 
H 	 -117.298 	 32.4113 	 -14.5264 	 
C 	 -119.237 	 31.9603 	 -13.7246 	 
H 	 -119.493 	 32.9503 	 -14.0578 	 
H 	 -118.942 	 32.0773 	 -12.6594 	 
C 	 -120.496 	 31.0397 	 -13.8298 	 
H 	 -121.159 	 31.2973 	 -12.938 	 
H 	 -120.347 	 29.9506 	 -13.8724 	 
H 	 -121.109 	 31.3014 	 -14.7767 	 
H 	 -119.934 	 27.6687 	 -18.7077 	 
H 	 -114.511 	 29.6685 	 -12.2395 	 
*
