! wB97X-D3 SP def2-SVP
%pal
nprocs 24
end

* xyz 0 1
S 	 -53.1957 	 21.6586 	 -93.7255 	 
C 	 -51.7246 	 22.6242 	 -93.8245 	 
C 	 -51.0836 	 22.268 	 -94.9718 	 
C 	 -51.8469 	 21.4475 	 -95.8618 	 
C 	 -53.0945 	 21.0047 	 -95.415 	 
H 	 -51.533 	 20.9205 	 -96.7238 	 
C 	 -49.6997 	 22.8139 	 -95.3165 	 
H 	 -49.4303 	 23.5907 	 -94.6145 	 
H 	 -49.6138 	 23.2145 	 -96.2754 	 
C 	 -48.6634 	 21.6666 	 -95.3954 	 
H 	 -49.0336 	 20.8395 	 -96.021 	 
H 	 -47.8288 	 22.1733 	 -95.9268 	 
C 	 -48.1715 	 21.1297 	 -94.0488 	 
H 	 -47.386 	 20.3439 	 -94.1749 	 
H 	 -47.8761 	 21.9752 	 -93.4724 	 
H 	 -48.9853 	 20.5607 	 -93.5964 	 
S 	 -55.5369 	 20.5115 	 -96.5553 	 
C 	 -55.9852 	 18.8214 	 -97.029 	 
C 	 -54.9349 	 17.9455 	 -96.6827 	 
C 	 -53.8344 	 18.5887 	 -96.051 	 
C 	 -53.9946 	 19.9845 	 -95.9701 	 
H 	 -55.0831 	 16.8886 	 -96.9512 	 
C 	 -52.6354 	 17.8421 	 -95.5418 	 
H 	 -52.1599 	 18.2967 	 -94.6341 	 
H 	 -51.8996 	 17.9358 	 -96.3817 	 
C 	 -52.8252 	 16.3518 	 -95.2599 	 
H 	 -53.0418 	 15.8664 	 -96.2473 	 
H 	 -53.6137 	 16.1549 	 -94.6137 	 
C 	 -51.6311 	 15.7689 	 -94.4211 	 
H 	 -50.6259 	 15.9501 	 -94.7885 	 
H 	 -51.8527 	 14.7 	 -94.3169 	 
H 	 -51.5439 	 16.1765 	 -93.4152 	 
H 	 -51.1946 	 23.3063 	 -93.177 	 
H 	 -56.9207 	 18.6392 	 -97.6173 	 
*
