! wB97X-D3 SP def2-SVP
%pal
nprocs 24
end

* xyz 0 1
S 	 -106.19 	 51.7075 	 -71.7979 	 
C 	 -107.104 	 51.9088 	 -73.2831 	 
C 	 -108.204 	 52.7499 	 -73.0154 	 
C 	 -108.288 	 53.0946 	 -71.6653 	 
C 	 -107.322 	 52.5558 	 -70.7861 	 
H 	 -109.081 	 53.6584 	 -71.1815 	 
C 	 -109.304 	 53.0148 	 -73.987 	 
H 	 -110.225 	 52.7833 	 -73.5944 	 
H 	 -109.211 	 52.4365 	 -74.8974 	 
C 	 -109.21 	 54.4658 	 -74.4223 	 
H 	 -109.298 	 55.0762 	 -73.4776 	 
H 	 -108.228 	 54.7435 	 -74.7953 	 
C 	 -110.352 	 54.9281 	 -75.3953 	 
H 	 -111.342 	 54.6199 	 -75.1036 	 
H 	 -110.269 	 55.9625 	 -75.6653 	 
H 	 -110.204 	 54.3772 	 -76.3713 	 
S 	 -105.979 	 51.5023 	 -68.5025 	 
C 	 -106.453 	 52.0019 	 -66.9149 	 
C 	 -107.061 	 53.1889 	 -67.0069 	 
C 	 -107.41 	 53.5398 	 -68.3689 	 
C 	 -106.905 	 52.715 	 -69.3459 	 
H 	 -107.179 	 53.7045 	 -66.085 	 
C 	 -108.242 	 54.8034 	 -68.6497 	 
H 	 -108.357 	 55.2564 	 -67.6641 	 
H 	 -109.212 	 54.542 	 -69.0219 	 
C 	 -107.633 	 55.8379 	 -69.596 	 
H 	 -107.39 	 55.4778 	 -70.5517 	 
H 	 -106.656 	 55.975 	 -69.2178 	 
C 	 -108.423 	 57.2009 	 -69.5243 	 
H 	 -108.194 	 57.8696 	 -70.4248 	 
H 	 -108.141 	 57.6114 	 -68.61 	 
H 	 -109.439 	 57.0558 	 -69.5847 	 
H 	 -106.882 	 51.3844 	 -74.201 	 
H 	 -106.161 	 51.5607 	 -65.9677 	 
*
