! wB97X-D3 SP def2-SVP
%pal
nprocs 24
end

* xyz 0 1
S 	 -91.8418 	 -31.3033 	 -70.9898 	 
C 	 -90.7224 	 -32.7072 	 -71.1213 	 
C 	 -89.6246 	 -32.3652 	 -71.9293 	 
C 	 -89.7782 	 -31.0851 	 -72.5176 	 
C 	 -90.9642 	 -30.4331 	 -72.2037 	 
H 	 -89.0425 	 -30.5838 	 -73.2104 	 
C 	 -88.4413 	 -33.286 	 -72.1562 	 
H 	 -88.1087 	 -33.6343 	 -71.1728 	 
H 	 -87.7189 	 -32.5867 	 -72.5256 	 
C 	 -88.5884 	 -34.5048 	 -73.1737 	 
H 	 -87.6422 	 -34.9211 	 -73.4161 	 
H 	 -89.133 	 -35.343 	 -72.7557 	 
C 	 -89.3663 	 -34.1408 	 -74.4653 	 
H 	 -89.6181 	 -35.0937 	 -75.0267 	 
H 	 -90.39 	 -33.7531 	 -74.1891 	 
H 	 -88.7283 	 -33.4925 	 -75.1044 	 
S 	 -90.7527 	 -27.8714 	 -71.3226 	 
C 	 -91.2589 	 -26.5718 	 -72.3373 	 
C 	 -91.4946 	 -27.0488 	 -73.634 	 
C 	 -91.5869 	 -28.4593 	 -73.6967 	 
C 	 -91.3406 	 -29.0602 	 -72.4949 	 
H 	 -91.7392 	 -26.2488 	 -74.3103 	 
C 	 -91.9931 	 -29.1478 	 -75.0048 	 
H 	 -93.0668 	 -28.8549 	 -75.0246 	 
H 	 -91.9465 	 -30.2541 	 -75.04 	 
C 	 -91.3394 	 -28.5943 	 -76.2558 	 
H 	 -90.2824 	 -28.4646 	 -76.0284 	 
H 	 -91.6733 	 -27.6044 	 -76.5207 	 
C 	 -91.3128 	 -29.5377 	 -77.5463 	 
H 	 -90.8621 	 -30.5382 	 -77.3108 	 
H 	 -90.5525 	 -29.0886 	 -78.1767 	 
H 	 -92.2743 	 -29.7076 	 -78.0788 	 
H 	 -90.8951 	 -33.6494 	 -70.5979 	 
H 	 -91.2327 	 -25.5082 	 -72.1017 	 
*
