! wB97X-D3 SP def2-SVP
%pal
nprocs 24
end

* xyz 0 1
S 	 -89.7585 	 -9.48306 	 -114.29 	 
C 	 -88.2162 	 -9.65231 	 -115.156 	 
C 	 -88.5033 	 -9.49096 	 -116.518 	 
C 	 -89.8501 	 -8.99171 	 -116.816 	 
C 	 -90.6051 	 -8.80958 	 -115.674 	 
H 	 -90.2207 	 -8.75974 	 -117.737 	 
C 	 -87.5969 	 -9.88288 	 -117.613 	 
H 	 -86.601 	 -9.69849 	 -117.347 	 
H 	 -87.7692 	 -9.20254 	 -118.469 	 
C 	 -87.6257 	 -11.3669 	 -118.059 	 
H 	 -88.6598 	 -11.5272 	 -118.266 	 
H 	 -87.0865 	 -11.515 	 -119.005 	 
C 	 -86.858 	 -12.2664 	 -117.074 	 
H 	 -86.6655 	 -13.2803 	 -117.471 	 
H 	 -85.8789 	 -11.7858 	 -116.85 	 
H 	 -87.3988 	 -12.3738 	 -116.101 	 
S 	 -92.2761 	 -7.2638 	 -114.135 	 
C 	 -93.8938 	 -7.0704 	 -114.619 	 
C 	 -94.1225 	 -7.75309 	 -115.8 	 
C 	 -93.0157 	 -8.38148 	 -116.412 	 
C 	 -91.9589 	 -8.3136 	 -115.55 	 
H 	 -95.1554 	 -7.76449 	 -116.218 	 
C 	 -93.1424 	 -9.13435 	 -117.752 	 
H 	 -94.1227 	 -9.60042 	 -117.716 	 
H 	 -92.5373 	 -10.032 	 -117.811 	 
C 	 -93.0444 	 -8.19708 	 -119.015 	 
H 	 -92.1272 	 -7.65153 	 -119.079 	 
H 	 -93.8168 	 -7.40121 	 -118.879 	 
C 	 -93.2226 	 -9.14416 	 -120.23 	 
H 	 -93.3079 	 -8.59206 	 -121.208 	 
H 	 -94.1556 	 -9.68793 	 -120.134 	 
H 	 -92.3926 	 -9.78765 	 -120.316 	 
H 	 -87.332 	 -10.2221 	 -114.777 	 
H 	 -94.776 	 -6.59889 	 -114.149 	 
*
