! wB97X-D3 SP def2-SVP
%pal
nprocs 24
end

* xyz 0 1
S 	 -61.5618 	 16.562 	 -103.173 	 
C 	 -62.4101 	 16.5435 	 -101.588 	 
C 	 -61.9372 	 15.4536 	 -100.841 	 
C 	 -61.0991 	 14.5456 	 -101.642 	 
C 	 -60.9333 	 14.9309 	 -102.969 	 
H 	 -60.772 	 13.5095 	 -101.449 	 
C 	 -62.2042 	 15.1552 	 -99.3919 	 
H 	 -61.6043 	 14.2928 	 -99.0088 	 
H 	 -63.2195 	 14.7469 	 -99.3327 	 
C 	 -62.0374 	 16.359 	 -98.4674 	 
H 	 -61.0262 	 16.716 	 -98.2916 	 
H 	 -62.5451 	 17.1919 	 -98.8943 	 
C 	 -62.5594 	 16.0011 	 -97.1091 	 
H 	 -62.1726 	 16.5941 	 -96.2532 	 
H 	 -63.6796 	 16.1295 	 -97.1196 	 
H 	 -62.3485 	 14.9553 	 -96.8212 	 
S 	 -59.0885 	 15.1624 	 -104.893 	 
C 	 -58.6898 	 13.8111 	 -105.905 	 
C 	 -59.271 	 12.638 	 -105.488 	 
C 	 -60.1094 	 12.8449 	 -104.322 	 
C 	 -60.1575 	 14.1725 	 -103.929 	 
H 	 -59.0955 	 11.6199 	 -105.853 	 
C 	 -60.9414 	 11.696 	 -103.694 	 
H 	 -60.9959 	 11.8912 	 -102.632 	 
H 	 -60.3446 	 10.779 	 -103.835 	 
C 	 -62.4334 	 11.6104 	 -104.286 	 
H 	 -62.8372 	 12.5511 	 -104.039 	 
H 	 -62.9171 	 10.7765 	 -103.74 	 
C 	 -62.568 	 11.341 	 -105.793 	 
H 	 -63.6469 	 11.1391 	 -106.022 	 
H 	 -62.013 	 10.4118 	 -106.119 	 
H 	 -62.187 	 12.1798 	 -106.429 	 
H 	 -63.0352 	 17.332 	 -101.242 	 
H 	 -57.8512 	 13.8145 	 -106.577 	 
*
