! wB97X-D3 SP def2-SVP
%pal
nprocs 24
end

* xyz 0 1
S 	 -107.992 	 55.9877 	 -111.968 	 
C 	 -107.663 	 57.6609 	 -111.694 	 
C 	 -108.283 	 58.2325 	 -110.597 	 
C 	 -109.077 	 57.245 	 -109.863 	 
C 	 -108.971 	 55.9802 	 -110.53 	 
H 	 -109.677 	 57.3523 	 -108.979 	 
C 	 -108.25 	 59.7009 	 -110.257 	 
H 	 -109.292 	 60.0554 	 -109.94 	 
H 	 -107.993 	 60.3489 	 -111.048 	 
C 	 -107.235 	 60.0863 	 -109.272 	 
H 	 -106.247 	 59.7736 	 -109.613 	 
H 	 -107.135 	 61.1872 	 -109.312 	 
C 	 -107.491 	 59.591 	 -107.867 	 
H 	 -106.735 	 60.0625 	 -107.223 	 
H 	 -108.396 	 59.9347 	 -107.384 	 
H 	 -107.583 	 58.4727 	 -107.712 	 
S 	 -108.238 	 53.6163 	 -109.336 	 
C 	 -109.41 	 52.4246 	 -109.044 	 
C 	 -110.7 	 52.8954 	 -109.264 	 
C 	 -110.689 	 54.2628 	 -109.79 	 
C 	 -109.409 	 54.697 	 -109.986 	 
H 	 -111.567 	 52.2634 	 -109.084 	 
C 	 -111.886 	 54.8726 	 -110.41 	 
H 	 -112.505 	 54.0117 	 -110.738 	 
H 	 -111.66 	 55.4229 	 -111.365 	 
C 	 -112.648 	 55.8012 	 -109.406 	 
H 	 -112.125 	 56.7779 	 -109.32 	 
H 	 -112.717 	 55.4477 	 -108.434 	 
C 	 -114.118 	 56.0272 	 -109.802 	 
H 	 -114.664 	 55.1411 	 -110 	 
H 	 -114.194 	 56.7781 	 -110.613 	 
H 	 -114.55 	 56.6538 	 -108.993 	 
H 	 -107.047 	 58.267 	 -112.353 	 
H 	 -109.336 	 51.4152 	 -108.652 	 
*
