! wB97X-D3 SP def2-SVP
%pal
nprocs 24
end

* xyz 0 1
S 	 -134.277 	 6.38274 	 -0.559332 	 
C 	 -132.693 	 7.10761 	 -0.449226 	 
C 	 -131.895 	 6.57522 	 0.525283 	 
C 	 -132.604 	 5.4199 	 1.05487 	 
C 	 -133.885 	 5.17552 	 0.576956 	 
H 	 -132.279 	 4.76844 	 1.86206 	 
C 	 -130.383 	 6.80872 	 0.6902 	 
H 	 -130.002 	 6.86199 	 -0.302083 	 
H 	 -129.97 	 5.89404 	 1.11616 	 
C 	 -129.911 	 8.00255 	 1.62131 	 
H 	 -128.783 	 8.01943 	 1.45043 	 
H 	 -130.296 	 8.90708 	 1.28083 	 
C 	 -130.113 	 7.81886 	 3.13771 	 
H 	 -129.858 	 8.78996 	 3.49699 	 
H 	 -131.146 	 7.62662 	 3.39425 	 
H 	 -129.388 	 7.06483 	 3.52604 	 
S 	 -136.337 	 4.7232 	 1.8301 	 
C 	 -136.395 	 3.22489 	 2.79413 	 
C 	 -135.412 	 2.33258 	 2.51121 	 
C 	 -134.523 	 2.86531 	 1.48346 	 
C 	 -134.791 	 4.19387 	 1.22333 	 
H 	 -135.314 	 1.35065 	 2.97513 	 
C 	 -133.268 	 2.05812 	 1.0018 	 
H 	 -133.105 	 1.0937 	 1.54929 	 
H 	 -132.452 	 2.62823 	 1.41699 	 
C 	 -133.161 	 1.77856 	 -0.474613 	 
H 	 -132.166 	 1.594 	 -0.863552 	 
H 	 -133.459 	 2.71363 	 -0.909086 	 
C 	 -134.128 	 0.654161 	 -0.849946 	 
H 	 -135.103 	 1.06343 	 -0.640157 	 
H 	 -134.04 	 -0.289289 	 -0.386245 	 
H 	 -134.147 	 0.572653 	 -1.93413 	 
H 	 -132.347 	 7.95327 	 -1.07304 	 
H 	 -137.122 	 3.13436 	 3.59477 	 
*
