! wB97X-D3 SP def2-SVP
%pal
nprocs 24
end

* xyz 0 1
S 	 -50.1311 	 26.8206 	 26.4982 	 
C 	 -49.26 	 26.9443 	 24.9684 	 
C 	 -48.2615 	 27.974 	 25.0657 	 
C 	 -48.196 	 28.5996 	 26.3764 	 
C 	 -49.2315 	 28.1532 	 27.1812 	 
H 	 -47.5025 	 29.3862 	 26.5927 	 
C 	 -47.3248 	 28.3315 	 23.8674 	 
H 	 -47.2709 	 29.4345 	 23.8679 	 
H 	 -47.7579 	 28.0108 	 22.9471 	 
C 	 -45.8294 	 27.9947 	 24.0994 	 
H 	 -45.3932 	 28.1926 	 25.0904 	 
H 	 -45.5906 	 26.9806 	 23.898 	 
C 	 -44.9148 	 28.8292 	 23.2126 	 
H 	 -44.0464 	 28.2562 	 22.8859 	 
H 	 -45.364 	 29.0125 	 22.2444 	 
H 	 -44.6194 	 29.7552 	 23.7413 	 
S 	 -49.3978 	 27.5801 	 29.8023 	 
C 	 -49.9542 	 28.7197 	 30.93 	 
C 	 -50.189 	 29.9466 	 30.3774 	 
C 	 -50.0756 	 29.9596 	 28.9198 	 
C 	 -49.6531 	 28.6975 	 28.4767 	 
H 	 -50.42 	 30.8708 	 30.9795 	 
C 	 -50.0712 	 31.1848 	 28.0378 	 
H 	 -50.9994 	 31.669 	 28.2827 	 
H 	 -50.1665 	 30.796 	 26.9892 	 
C 	 -48.9419 	 32.1209 	 27.9867 	 
H 	 -48.0059 	 31.6534 	 27.726 	 
H 	 -48.7883 	 32.424 	 28.9535 	 
C 	 -49.1086 	 33.4005 	 27.1351 	 
H 	 -48.2852 	 34.1512 	 27.2858 	 
H 	 -50.0488 	 33.8842 	 27.3265 	 
H 	 -49.0778 	 33.1635 	 26.0411 	 
H 	 -49.5057 	 26.4432 	 24.012 	 
H 	 -50.0564 	 28.7309 	 31.9813 	 
*
