! wB97X-D3 SP def2-SVP
%pal
nprocs 24
end

* xyz 0 1
S 	 27.496 	 -6.61155 	 -117.658 	 
C 	 26.7052 	 -8.05337 	 -118.191 	 
C 	 27.1855 	 -8.44736 	 -119.412 	 
C 	 28.2407 	 -7.54782 	 -119.932 	 
C 	 28.5017 	 -6.46881 	 -119.098 	 
H 	 28.8645 	 -7.63958 	 -120.817 	 
C 	 26.5848 	 -9.56682 	 -120.233 	 
H 	 25.905 	 -10.0633 	 -119.575 	 
H 	 27.2861 	 -10.2696 	 -120.644 	 
C 	 25.7768 	 -9.17726 	 -121.466 	 
H 	 26.2929 	 -8.39013 	 -121.916 	 
H 	 25.6892 	 -10.0503 	 -122.125 	 
C 	 24.4145 	 -8.69798 	 -121.001 	 
H 	 24.4324 	 -7.80165 	 -120.356 	 
H 	 23.9887 	 -8.35259 	 -121.923 	 
H 	 23.8293 	 -9.42736 	 -120.465 	 
S 	 29.7398 	 -4.37174 	 -120.142 	 
C 	 31.3433 	 -3.98638 	 -119.647 	 
C 	 31.8488 	 -4.84422 	 -118.683 	 
C 	 30.8304 	 -5.74324 	 -118.193 	 
C 	 29.7089 	 -5.70098 	 -119.01 	 
H 	 32.8851 	 -4.724 	 -118.301 	 
C 	 31.1132 	 -6.70975 	 -117.027 	 
H 	 32.1029 	 -7.15427 	 -117.234 	 
H 	 30.3997 	 -7.51556 	 -116.948 	 
C 	 31.1536 	 -5.99541 	 -115.729 	 
H 	 30.3738 	 -5.2233 	 -115.824 	 
H 	 32.0598 	 -5.33348 	 -115.809 	 
C 	 30.9253 	 -6.70995 	 -114.337 	 
H 	 31.5264 	 -6.25402 	 -113.582 	 
H 	 31.1467 	 -7.78203 	 -114.443 	 
H 	 29.8549 	 -6.56667 	 -113.952 	 
H 	 25.985 	 -8.57132 	 -117.593 	 
H 	 31.8972 	 -3.08399 	 -120.046 	 
*
