! wB97X-D3 SP def2-SVP
%pal
nprocs 24
end

* xyz 0 1
S 	 -84.193 	 -20.9425 	 -46.4423 	 
C 	 -85.1539 	 -19.5715 	 -46.8173 	 
C 	 -84.4852 	 -18.6415 	 -47.6047 	 
C 	 -83.2637 	 -19.2605 	 -48.1342 	 
C 	 -83.0895 	 -20.5495 	 -47.6847 	 
H 	 -82.5755 	 -18.7533 	 -48.7957 	 
C 	 -84.9106 	 -17.1679 	 -47.7103 	 
H 	 -84.1364 	 -16.6286 	 -47.1089 	 
H 	 -85.9051 	 -17.0533 	 -47.255 	 
C 	 -85.0042 	 -16.506 	 -49.0605 	 
H 	 -84.1762 	 -16.8052 	 -49.7164 	 
H 	 -85.9717 	 -16.7503 	 -49.5232 	 
C 	 -85.0065 	 -14.9379 	 -49.0133 	 
H 	 -85.7449 	 -14.3979 	 -48.4066 	 
H 	 -84.0896 	 -14.6836 	 -48.5774 	 
H 	 -84.9281 	 -14.5197 	 -50.0472 	 
S 	 -80.8522 	 -22.0769 	 -47.0945 	 
C 	 -80.1791 	 -23.1328 	 -48.3033 	 
C 	 -80.8658 	 -22.9251 	 -49.4747 	 
C 	 -81.943 	 -21.9594 	 -49.413 	 
C 	 -82.1504 	 -21.5476 	 -48.1402 	 
H 	 -80.4985 	 -23.3103 	 -50.3887 	 
C 	 -82.6565 	 -21.5027 	 -50.6092 	 
H 	 -82.003 	 -21.3828 	 -51.5265 	 
H 	 -83.1645 	 -20.559 	 -50.4311 	 
C 	 -83.8076 	 -22.4079 	 -51.0856 	 
H 	 -84.4358 	 -22.5484 	 -50.2683 	 
H 	 -83.478 	 -23.44 	 -51.3154 	 
C 	 -84.5416 	 -21.9614 	 -52.3884 	 
H 	 -83.8803 	 -22.3494 	 -53.1934 	 
H 	 -84.5973 	 -20.9063 	 -52.4728 	 
H 	 -85.5667 	 -22.3213 	 -52.4317 	 
H 	 -86.0232 	 -19.231 	 -46.1955 	 
H 	 -79.2303 	 -23.7388 	 -48.2201 	 
*
