! wB97X-D3 SP def2-SVP
%pal
nprocs 24
end

* xyz 0 1
S 	 -147.35 	 31.4744 	 -14.705 	 
C 	 -146.339 	 31.0877 	 -16.0521 	 
C 	 -145.338 	 30.1989 	 -15.779 	 
C 	 -145.434 	 29.7607 	 -14.3862 	 
C 	 -146.493 	 30.3543 	 -13.7067 	 
H 	 -144.986 	 28.9765 	 -13.809 	 
C 	 -144.405 	 29.6069 	 -16.8306 	 
H 	 -143.313 	 29.9063 	 -16.633 	 
H 	 -144.681 	 30.284 	 -17.6297 	 
C 	 -144.563 	 28.0632 	 -17.0312 	 
H 	 -144.42 	 27.6018 	 -16.0762 	 
H 	 -145.542 	 27.7111 	 -17.2994 	 
C 	 -143.541 	 27.453 	 -18.0376 	 
H 	 -143.47 	 26.4018 	 -18.0489 	 
H 	 -143.712 	 27.5705 	 -19.1031 	 
H 	 -142.515 	 27.9095 	 -18.0394 	 
S 	 -148.696 	 29.6633 	 -12.1999 	 
C 	 -148.491 	 29.6346 	 -10.4776 	 
C 	 -147.195 	 29.6718 	 -10.0899 	 
C 	 -146.321 	 29.8867 	 -11.1917 	 
C 	 -147.005 	 30.009 	 -12.4139 	 
H 	 -146.823 	 29.5803 	 -9.06911 	 
C 	 -144.873 	 30.2283 	 -10.9745 	 
H 	 -144.358 	 30.1869 	 -11.9695 	 
H 	 -144.481 	 29.4331 	 -10.3795 	 
C 	 -144.735 	 31.6131 	 -10.4117 	 
H 	 -143.714 	 31.7021 	 -10.029 	 
H 	 -145.354 	 31.7079 	 -9.54634 	 
C 	 -145.111 	 32.6654 	 -11.5082 	 
H 	 -144.313 	 32.555 	 -12.3063 	 
H 	 -144.954 	 33.6228 	 -11.0276 	 
H 	 -146.113 	 32.7487 	 -11.9392 	 
H 	 -146.459 	 31.4338 	 -17.0666 	 
H 	 -149.303 	 29.42 	 -9.84188 	 
*
