! wB97X-D3 SP def2-SVP
%pal
nprocs 24
end

* xyz 0 1
S 	 -102.012 	 36.9933 	 -90.8478 	 
C 	 -101.039 	 35.5686 	 -90.6073 	 
C 	 -99.7412 	 35.9141 	 -90.8734 	 
C 	 -99.4832 	 37.2952 	 -91.2 	 
C 	 -100.654 	 37.9631 	 -91.2682 	 
H 	 -98.5118 	 37.6945 	 -91.3895 	 
C 	 -98.6891 	 34.8404 	 -90.8381 	 
H 	 -98.5339 	 34.5155 	 -91.841 	 
H 	 -99.1451 	 33.9615 	 -90.453 	 
C 	 -97.3641 	 35.1366 	 -90.191 	 
H 	 -96.8692 	 35.8993 	 -90.6998 	 
H 	 -97.5551 	 35.5575 	 -89.1845 	 
C 	 -96.6498 	 33.8235 	 -89.9808 	 
H 	 -95.6561 	 33.9689 	 -89.5058 	 
H 	 -97.2805 	 33.1906 	 -89.345 	 
H 	 -96.3964 	 33.277 	 -90.8715 	 
S 	 -101.931 	 39.6516 	 -93.0165 	 
C 	 -101.657 	 41.3901 	 -92.9534 	 
C 	 -100.743 	 41.7011 	 -91.9575 	 
C 	 -100.278 	 40.5314 	 -91.2566 	 
C 	 -100.941 	 39.361 	 -91.6455 	 
H 	 -100.573 	 42.7878 	 -91.8453 	 
C 	 -99.2564 	 40.6068 	 -90.1144 	 
H 	 -98.51 	 41.2887 	 -90.497 	 
H 	 -98.701 	 39.6333 	 -90.1449 	 
C 	 -99.8254 	 40.8163 	 -88.6433 	 
H 	 -100.371 	 39.9096 	 -88.5035 	 
H 	 -100.413 	 41.6788 	 -88.4644 	 
C 	 -98.6836 	 40.8794 	 -87.6115 	 
H 	 -97.7543 	 40.4245 	 -88.0025 	 
H 	 -98.9564 	 40.6106 	 -86.6639 	 
H 	 -98.4969 	 41.983 	 -87.5643 	 
H 	 -101.354 	 34.5785 	 -90.3369 	 
H 	 -102.325 	 42.0999 	 -93.4326 	 
*
