! wB97X-D3 SP def2-SVP
%pal
nprocs 24
end

* xyz 0 1
S 	 -48.2079 	 8.56118 	 -20.5757 	 
C 	 -48.6079 	 7.59699 	 -19.1391 	 
C 	 -48.1252 	 8.18032 	 -17.9606 	 
C 	 -47.2277 	 9.19382 	 -18.2512 	 
C 	 -47.297 	 9.6159 	 -19.5726 	 
H 	 -46.5751 	 9.71307 	 -17.5183 	 
C 	 -48.444 	 7.74934 	 -16.5909 	 
H 	 -49.4708 	 7.81853 	 -16.3472 	 
H 	 -48.103 	 8.46273 	 -15.9312 	 
C 	 -47.8974 	 6.39829 	 -16.0367 	 
H 	 -46.8445 	 6.40077 	 -16.1414 	 
H 	 -48.0157 	 6.26043 	 -15.0095 	 
C 	 -48.629 	 5.17426 	 -16.576 	 
H 	 -49.7299 	 5.33915 	 -16.4844 	 
H 	 -48.3368 	 5.0735 	 -17.6089 	 
H 	 -48.4356 	 4.24113 	 -16.12 	 
S 	 -44.9919 	 10.1821 	 -20.866 	 
C 	 -44.5343 	 11.7941 	 -21.1201 	 
C 	 -45.5185 	 12.7008 	 -20.7893 	 
C 	 -46.5233 	 12.0674 	 -20.0181 	 
C 	 -46.464 	 10.701 	 -20.1256 	 
H 	 -45.3516 	 13.7344 	 -21.1034 	 
C 	 -47.6926 	 12.841 	 -19.4069 	 
H 	 -47.5854 	 13.8706 	 -19.6805 	 
H 	 -47.7161 	 12.6819 	 -18.2586 	 
C 	 -49.0575 	 12.347 	 -19.8468 	 
H 	 -49.2005 	 11.2767 	 -19.4619 	 
H 	 -48.9831 	 12.3104 	 -20.9742 	 
C 	 -50.2832 	 13.2023 	 -19.5175 	 
H 	 -50.5791 	 12.8922 	 -18.537 	 
H 	 -51.1043 	 12.9353 	 -20.2414 	 
H 	 -50.0917 	 14.2884 	 -19.6621 	 
H 	 -49.4007 	 6.841 	 -19.138 	 
H 	 -43.642 	 12.2296 	 -21.653 	 
*
