! wB97X-D3 SP def2-SVP
%pal
nprocs 24
end

* xyz 0 1
S 	 -122.51 	 63.831 	 -60.242 	 
C 	 -123.407 	 63.2303 	 -61.6749 	 
C 	 -124.766 	 63.0573 	 -61.3928 	 
C 	 -124.997 	 63.0359 	 -59.9869 	 
C 	 -123.853 	 63.2615 	 -59.2454 	 
H 	 -125.92 	 62.7431 	 -59.5411 	 
C 	 -125.772 	 62.4789 	 -62.3924 	 
H 	 -125.392 	 62.5581 	 -63.3818 	 
H 	 -126.591 	 63.1419 	 -62.3376 	 
C 	 -126.126 	 60.9483 	 -62.2339 	 
H 	 -126.298 	 60.6104 	 -63.2492 	 
H 	 -125.177 	 60.4958 	 -61.9833 	 
C 	 -127.279 	 60.551 	 -61.3213 	 
H 	 -128.168 	 61.0762 	 -61.7491 	 
H 	 -127.51 	 59.5094 	 -61.4083 	 
H 	 -126.97 	 60.7775 	 -60.3212 	 
S 	 -123.42 	 64.7102 	 -56.9006 	 
C 	 -123.595 	 63.9131 	 -55.3433 	 
C 	 -123.969 	 62.6145 	 -55.527 	 
C 	 -123.959 	 62.1416 	 -56.8936 	 
C 	 -123.739 	 63.2358 	 -57.7625 	 
H 	 -124.064 	 61.96 	 -54.6836 	 
C 	 -124.409 	 60.6824 	 -57.2983 	 
H 	 -125.064 	 60.8706 	 -58.1436 	 
H 	 -125.039 	 60.2246 	 -56.4571 	 
C 	 -123.346 	 59.6519 	 -57.8761 	 
H 	 -122.763 	 60.1197 	 -58.7352 	 
H 	 -123.908 	 58.7889 	 -58.2091 	 
C 	 -122.32 	 59.2786 	 -56.8379 	 
H 	 -122.723 	 58.7047 	 -55.9468 	 
H 	 -121.923 	 60.1973 	 -56.3748 	 
H 	 -121.423 	 58.7665 	 -57.2101 	 
H 	 -122.986 	 63.2654 	 -62.6288 	 
H 	 -123.532 	 64.3362 	 -54.3173 	 
*
