! wB97X-D3 SP def2-SVP
%pal
nprocs 24
end

* xyz 0 1
S 	 -78.5349 	 -4.61705 	 3.79313 	 
C 	 -77.1752 	 -3.77434 	 3.23139 	 
C 	 -76.361 	 -4.5236 	 2.38846 	 
C 	 -76.9602 	 -5.80405 	 2.16523 	 
C 	 -78.0768 	 -6.01814 	 2.90593 	 
H 	 -76.5311 	 -6.65289 	 1.64064 	 
C 	 -75.0792 	 -4.1574 	 1.75527 	 
H 	 -75.4162 	 -3.13077 	 1.40443 	 
H 	 -74.8407 	 -4.84595 	 0.92959 	 
C 	 -73.8337 	 -4.13919 	 2.67887 	 
H 	 -73.0614 	 -3.67559 	 2.11597 	 
H 	 -73.9963 	 -3.55005 	 3.57318 	 
C 	 -73.3803 	 -5.5986 	 3.1828 	 
H 	 -74.1251 	 -5.9899 	 3.8442 	 
H 	 -73.3349 	 -6.28057 	 2.25475 	 
H 	 -72.455 	 -5.60677 	 3.71676 	 
S 	 -80.5295 	 -7.25509 	 2.79522 	 
C 	 -80.671 	 -8.88057 	 3.24353 	 
C 	 -79.4376 	 -9.33765 	 3.64412 	 
C 	 -78.3511 	 -8.44488 	 3.50064 	 
C 	 -78.8243 	 -7.24617 	 3.09423 	 
H 	 -79.3364 	 -10.3272 	 4.07753 	 
C 	 -76.9572 	 -8.7495 	 4.01685 	 
H 	 -77.028 	 -8.8889 	 5.11352 	 
H 	 -76.4568 	 -7.75413 	 3.73451 	 
C 	 -76.2268 	 -9.88987 	 3.29789 	 
H 	 -76.1618 	 -9.58382 	 2.23088 	 
H 	 -76.813 	 -10.8188 	 3.43526 	 
C 	 -74.7651 	 -10.2014 	 3.73381 	 
H 	 -74.4653 	 -11.0239 	 3.06397 	 
H 	 -74.6202 	 -10.4621 	 4.81546 	 
H 	 -74.038 	 -9.4117 	 3.55831 	 
H 	 -76.8168 	 -2.76626 	 3.52322 	 
H 	 -81.4712 	 -9.57545 	 3.4422 	 
*
