! wB97X-D3 SP def2-SVP
%pal
nprocs 24
end

* xyz 0 1
S 	 -31.3887 	 19.5996 	 6.19777 	 
C 	 -33.0573 	 19.5997 	 6.58725 	 
C 	 -33.3297 	 19.9646 	 7.90015 	 
C 	 -32.1635 	 20.5804 	 8.45234 	 
C 	 -31.0373 	 20.4091 	 7.72742 	 
H 	 -32.1177 	 21.1588 	 9.38418 	 
C 	 -34.6937 	 19.9577 	 8.60676 	 
H 	 -35.4794 	 20.4841 	 7.94795 	 
H 	 -34.6855 	 20.6257 	 9.49715 	 
C 	 -35.1966 	 18.5558 	 8.98231 	 
H 	 -35.2965 	 17.8955 	 8.10069 	 
H 	 -34.2569 	 18.1207 	 9.44385 	 
C 	 -36.3758 	 18.3396 	 9.83674 	 
H 	 -37.2366 	 19.0019 	 9.69359 	 
H 	 -36.7719 	 17.3545 	 9.6876 	 
H 	 -36.2053 	 18.442 	 10.9074 	 
S 	 -29.1052 	 20.915 	 9.65907 	 
C 	 -27.587 	 21.6805 	 9.23758 	 
C 	 -27.5572 	 21.9093 	 7.85632 	 
C 	 -28.8077 	 21.6936 	 7.25783 	 
C 	 -29.7278 	 21.0349 	 8.01515 	 
H 	 -26.6007 	 22.3221 	 7.49198 	 
C 	 -28.9932 	 21.9324 	 5.79944 	 
H 	 -28.6966 	 22.9504 	 5.58758 	 
H 	 -30.0583 	 22.068 	 5.58202 	 
C 	 -28.3237 	 20.9288 	 4.78818 	 
H 	 -28.3207 	 20.0054 	 5.22424 	 
H 	 -27.2886 	 21.2394 	 4.66542 	 
C 	 -29.0336 	 21.0302 	 3.4371 	 
H 	 -30.0031 	 20.466 	 3.42084 	 
H 	 -28.3854 	 20.5834 	 2.73623 	 
H 	 -29.1362 	 22.0142 	 3.07313 	 
H 	 -33.7499 	 19.0307 	 5.99557 	 
H 	 -26.7336 	 21.8379 	 9.92968 	 
*
