! wB97X-D3 SP def2-SVP
%pal
nprocs 24
end

* xyz 0 1
S 	 -80.4747 	 -3.62892 	 4.50042 	 
C 	 -79.7528 	 -2.89663 	 3.01213 	 
C 	 -78.9585 	 -3.84257 	 2.34618 	 
C 	 -78.7664 	 -5.03921 	 3.11114 	 
C 	 -79.6919 	 -5.16321 	 4.16091 	 
H 	 -78.0752 	 -5.7372 	 2.8134 	 
C 	 -78.163 	 -3.42759 	 1.13453 	 
H 	 -78.7755 	 -3.06011 	 0.339474 	 
H 	 -77.631 	 -4.31143 	 0.782926 	 
C 	 -77.1821 	 -2.29547 	 1.36863 	 
H 	 -76.567 	 -2.22682 	 0.448205 	 
H 	 -77.6654 	 -1.35675 	 1.57654 	 
C 	 -76.1514 	 -2.48759 	 2.47404 	 
H 	 -75.6499 	 -1.57996 	 2.70754 	 
H 	 -76.5871 	 -2.78681 	 3.38838 	 
H 	 -75.5191 	 -3.32212 	 2.31271 	 
S 	 -81.5597 	 -6.65346 	 5.66098 	 
C 	 -80.9365 	 -7.99027 	 6.50954 	 
C 	 -79.6295 	 -8.31976 	 6.22595 	 
C 	 -79.0092 	 -7.39675 	 5.33883 	 
C 	 -79.8886 	 -6.28937 	 5.09358 	 
H 	 -79.1842 	 -9.2349 	 6.61668 	 
C 	 -77.6595 	 -7.63663 	 4.69232 	 
H 	 -77.1482 	 -8.23506 	 5.4282 	 
H 	 -77.0617 	 -6.72854 	 4.50921 	 
C 	 -77.7263 	 -8.35342 	 3.36833 	 
H 	 -78.6123 	 -7.92458 	 2.88896 	 
H 	 -77.8812 	 -9.43565 	 3.48328 	 
C 	 -76.3904 	 -8.20957 	 2.60452 	 
H 	 -76.2595 	 -7.23024 	 2.18377 	 
H 	 -76.2431 	 -9.02692 	 1.83106 	 
H 	 -75.5297 	 -8.59162 	 3.1717 	 
H 	 -79.9463 	 -1.86842 	 2.72885 	 
H 	 -81.6439 	 -8.55886 	 7.13187 	 
*
