! wB97X-D3 SP def2-SVP
%pal
nprocs 24
end

* xyz 0 1
S 	 -124.78 	 18.6394 	 -22.9853 	 
C 	 -123.009 	 18.7283 	 -22.8608 	 
C 	 -122.327 	 18.2656 	 -24.0077 	 
C 	 -123.317 	 18.0666 	 -25.0546 	 
C 	 -124.657 	 18.2253 	 -24.6686 	 
H 	 -123.093 	 17.5614 	 -26.0126 	 
C 	 -120.865 	 18.0512 	 -24.0985 	 
H 	 -120.216 	 18.5697 	 -23.2801 	 
H 	 -120.49 	 18.4191 	 -25.0298 	 
C 	 -120.556 	 16.5658 	 -23.8691 	 
H 	 -120.832 	 16.363 	 -22.9196 	 
H 	 -121.17 	 15.8444 	 -24.4192 	 
C 	 -119.112 	 16.1651 	 -23.9863 	 
H 	 -118.654 	 16.428 	 -24.9097 	 
H 	 -118.513 	 16.6931 	 -23.241 	 
H 	 -119.022 	 15.0972 	 -24.0464 	 
S 	 -127.231 	 19.1701 	 -25.1798 	 
C 	 -128.105 	 18.5663 	 -26.5338 	 
C 	 -127.362 	 17.6423 	 -27.2496 	 
C 	 -126.11 	 17.3452 	 -26.6626 	 
C 	 -125.88 	 18.0461 	 -25.4741 	 
H 	 -127.723 	 17.3486 	 -28.2304 	 
C 	 -125.292 	 16.2827 	 -27.3771 	 
H 	 -126.039 	 15.5213 	 -27.7022 	 
H 	 -124.723 	 15.7541 	 -26.5987 	 
C 	 -124.509 	 16.7976 	 -28.5947 	 
H 	 -123.919 	 15.9893 	 -29.0814 	 
H 	 -123.698 	 17.4886 	 -28.3142 	 
C 	 -125.283 	 17.4873 	 -29.6951 	 
H 	 -124.632 	 17.7094 	 -30.5115 	 
H 	 -125.38 	 18.4916 	 -29.2878 	 
H 	 -126.222 	 17.1 	 -29.9924 	 
H 	 -122.372 	 19.0074 	 -22.0028 	 
H 	 -129.043 	 18.9128 	 -26.8874 	 
*
