! wB97X-D3 SP def2-SVP
%pal
nprocs 24
end

* xyz 0 1
S 	 -57.4624 	 -2.67777 	 -17.4567 	 
C 	 -57.6192 	 -1.63075 	 -16.0999 	 
C 	 -57.441 	 -2.31374 	 -14.8469 	 
C 	 -57.0949 	 -3.70065 	 -15.1146 	 
C 	 -57.0524 	 -4.01459 	 -16.4872 	 
H 	 -56.8885 	 -4.45978 	 -14.416 	 
C 	 -57.3939 	 -1.74561 	 -13.4085 	 
H 	 -57.7607 	 -2.46379 	 -12.7405 	 
H 	 -58.1398 	 -0.952929 	 -13.2212 	 
C 	 -55.9562 	 -1.34455 	 -13.1317 	 
H 	 -55.2385 	 -2.22013 	 -13.0852 	 
H 	 -55.493 	 -0.670023 	 -13.8194 	 
C 	 -55.8529 	 -0.743412 	 -11.7273 	 
H 	 -54.7282 	 -0.562311 	 -11.5338 	 
H 	 -56.3121 	 0.26485 	 -11.7611 	 
H 	 -56.119 	 -1.37652 	 -10.9492 	 
S 	 -55.5998 	 -5.6927 	 -18.2381 	 
C 	 -56.1891 	 -7.29812 	 -18.5508 	 
C 	 -57.251 	 -7.56165 	 -17.7395 	 
C 	 -57.6867 	 -6.50806 	 -16.9163 	 
C 	 -56.8315 	 -5.38464 	 -17.0425 	 
H 	 -57.7246 	 -8.54529 	 -17.8313 	 
C 	 -59.0444 	 -6.60063 	 -16.1477 	 
H 	 -58.9937 	 -6.02947 	 -15.2202 	 
H 	 -59.2693 	 -7.58939 	 -15.805 	 
C 	 -60.2394 	 -6.21761 	 -17.0082 	 
H 	 -61.0259 	 -6.32501 	 -16.2826 	 
H 	 -60.3264 	 -6.84925 	 -17.9079 	 
C 	 -60.2551 	 -4.79391 	 -17.5968 	 
H 	 -61.2675 	 -4.74309 	 -18.1046 	 
H 	 -59.6077 	 -4.70834 	 -18.4345 	 
H 	 -60.0749 	 -4.07032 	 -16.7938 	 
H 	 -57.7576 	 -0.569514 	 -16.1562 	 
H 	 -55.7581 	 -7.92432 	 -19.238 	 
*
