! wB97X-D3 SP def2-SVP
%pal
nprocs 24
end

* xyz 0 1
S 	 -20.1666 	 -29.3664 	 -99.0763 	 
C 	 -19.5812 	 -28.1628 	 -100.146 	 
C 	 -19.8744 	 -28.4402 	 -101.45 	 
C 	 -20.6853 	 -29.5941 	 -101.652 	 
C 	 -20.8553 	 -30.2925 	 -100.409 	 
H 	 -21.0542 	 -29.9158 	 -102.569 	 
C 	 -19.583 	 -27.486 	 -102.621 	 
H 	 -19.6134 	 -28.0923 	 -103.567 	 
H 	 -18.5659 	 -27.2855 	 -102.515 	 
C 	 -20.4008 	 -26.245 	 -102.808 	 
H 	 -20.1281 	 -25.9023 	 -103.812 	 
H 	 -21.4111 	 -26.6025 	 -102.866 	 
C 	 -20.3238 	 -25.124 	 -101.797 	 
H 	 -21.0106 	 -24.366 	 -102.172 	 
H 	 -20.7484 	 -25.6065 	 -100.855 	 
H 	 -19.33 	 -24.741 	 -101.608 	 
S 	 -20.8986 	 -32.7322 	 -99.0388 	 
C 	 -22.1974 	 -33.8407 	 -99.2896 	 
C 	 -23.1488 	 -33.2567 	 -100.114 	 
C 	 -22.8792 	 -31.9329 	 -100.554 	 
C 	 -21.6348 	 -31.5037 	 -100.118 	 
H 	 -24.0071 	 -33.8291 	 -100.454 	 
C 	 -23.7609 	 -31.1833 	 -101.644 	 
H 	 -23.6188 	 -31.8257 	 -102.515 	 
H 	 -23.3793 	 -30.2189 	 -101.851 	 
C 	 -25.2944 	 -30.9501 	 -101.363 	 
H 	 -25.8075 	 -31.919 	 -101.127 	 
H 	 -25.793 	 -30.4266 	 -102.166 	 
C 	 -25.5231 	 -30.1678 	 -100.09 	 
H 	 -25.0584 	 -29.1669 	 -100.251 	 
H 	 -25.0302 	 -30.5701 	 -99.2204 	 
H 	 -26.6279 	 -29.9334 	 -99.9817 	 
H 	 -18.8036 	 -27.44 	 -99.7867 	 
H 	 -22.1822 	 -34.8675 	 -98.9174 	 
*
