! wB97X-D3 SP def2-SVP
%pal
nprocs 24
end

* xyz 0 1
S 	 -102.836 	 12.6049 	 -6.81684 	 
C 	 -102.402 	 12.888 	 -5.16145 	 
C 	 -103.563 	 12.7081 	 -4.37657 	 
C 	 -104.709 	 12.3271 	 -5.11697 	 
C 	 -104.457 	 12.0232 	 -6.44732 	 
H 	 -105.701 	 12.1703 	 -4.70079 	 
C 	 -103.582 	 12.803 	 -2.93685 	 
H 	 -103.676 	 13.7629 	 -2.60953 	 
H 	 -102.613 	 12.4397 	 -2.51952 	 
C 	 -104.683 	 11.8565 	 -2.28955 	 
H 	 -105.003 	 10.9954 	 -2.93544 	 
H 	 -104.183 	 11.396 	 -1.42887 	 
C 	 -105.917 	 12.629 	 -1.83253 	 
H 	 -106.574 	 11.9271 	 -1.22462 	 
H 	 -105.705 	 13.4632 	 -1.10304 	 
H 	 -106.533 	 12.9464 	 -2.69581 	 
S 	 -104.116 	 10.1875 	 -8.43613 	 
C 	 -105.424 	 9.76217 	 -9.47607 	 
C 	 -106.58 	 10.4285 	 -9.06623 	 
C 	 -106.463 	 11.3177 	 -7.95424 	 
C 	 -105.167 	 11.2634 	 -7.41868 	 
H 	 -107.444 	 10.306 	 -9.70205 	 
C 	 -107.629 	 12.264 	 -7.66366 	 
H 	 -107.495 	 12.8234 	 -6.69358 	 
H 	 -108.544 	 11.74 	 -7.5622 	 
C 	 -107.937 	 13.4525 	 -8.63223 	 
H 	 -108.23 	 13.0917 	 -9.67151 	 
H 	 -107.064 	 14.092 	 -8.77393 	 
C 	 -108.968 	 14.4647 	 -8.02572 	 
H 	 -108.664 	 14.9408 	 -7.13469 	 
H 	 -109.911 	 14.0565 	 -7.91848 	 
H 	 -109.123 	 15.2593 	 -8.7434 	 
H 	 -101.482 	 13.2149 	 -4.74998 	 
H 	 -105.36 	 9.10735 	 -10.35 	 
*
