! wB97X-D3 SP def2-SVP
%pal
nprocs 24
end

* xyz 0 1
S 	 41.0425 	 -28.3888 	 -118.586 	 
C 	 39.5356 	 -27.9599 	 -119.239 	 
C 	 39.0877 	 -28.7834 	 -120.234 	 
C 	 40.1088 	 -29.8168 	 -120.523 	 
C 	 41.2129 	 -29.7415 	 -119.712 	 
H 	 39.9713 	 -30.5966 	 -121.264 	 
C 	 37.7232 	 -28.5988 	 -120.943 	 
H 	 37.2208 	 -27.8015 	 -120.349 	 
H 	 37.189 	 -29.5416 	 -120.885 	 
C 	 37.6934 	 -27.9016 	 -122.336 	 
H 	 38.2406 	 -28.4412 	 -123.144 	 
H 	 36.6321 	 -27.8567 	 -122.642 	 
C 	 38.318 	 -26.514 	 -122.368 	 
H 	 38.2185 	 -26.016 	 -123.32 	 
H 	 37.8498 	 -25.9394 	 -121.538 	 
H 	 39.4177 	 -26.5319 	 -122.13 	 
S 	 43.9335 	 -29.532 	 -119.654 	 
C 	 44.9437 	 -30.9925 	 -119.432 	 
C 	 44.2449 	 -32.1545 	 -119.586 	 
C 	 42.811 	 -31.8812 	 -119.764 	 
C 	 42.46 	 -30.5253 	 -119.638 	 
H 	 44.8221 	 -33.1272 	 -119.646 	 
C 	 41.8889 	 -33.0831 	 -119.726 	 
H 	 42.3858 	 -33.9724 	 -120.152 	 
H 	 41.012 	 -32.8871 	 -120.311 	 
C 	 41.4221 	 -33.4481 	 -118.278 	 
H 	 41.0185 	 -32.5392 	 -117.866 	 
H 	 42.2903 	 -33.6106 	 -117.715 	 
C 	 40.5672 	 -34.6955 	 -118.127 	 
H 	 41.0447 	 -35.4898 	 -118.689 	 
H 	 39.6026 	 -34.5985 	 -118.576 	 
H 	 40.5423 	 -35.1345 	 -117.098 	 
H 	 38.9952 	 -27.0409 	 -118.988 	 
H 	 45.9467 	 -30.8081 	 -119.232 	 
*
