! wB97X-D3 SP def2-SVP
%pal
nprocs 24
end

* xyz 0 1
S 	 -63.2843 	 -55.8679 	 -77.9648 	 
C 	 -64.9748 	 -55.8964 	 -78.1232 	 
C 	 -65.3058 	 -56.9205 	 -79.004 	 
C 	 -64.2358 	 -57.7958 	 -79.3228 	 
C 	 -63.0366 	 -57.3611 	 -78.7186 	 
H 	 -64.1808 	 -58.8169 	 -79.692 	 
C 	 -66.7666 	 -57.2759 	 -79.228 	 
H 	 -67.3103 	 -56.4286 	 -78.8678 	 
H 	 -67.1626 	 -58.055 	 -78.5246 	 
C 	 -67.071 	 -57.4545 	 -80.8186 	 
H 	 -66.5852 	 -58.3376 	 -81.24 	 
H 	 -68.0537 	 -57.738 	 -81.0639 	 
C 	 -66.5882 	 -56.3 	 -81.7043 	 
H 	 -65.5574 	 -56.602 	 -82.05 	 
H 	 -67.2461 	 -56.2078 	 -82.5948 	 
H 	 -66.5558 	 -55.3007 	 -81.2795 	 
S 	 -61.0297 	 -58.2258 	 -77.0661 	 
C 	 -59.6959 	 -59.2312 	 -77.7101 	 
C 	 -59.8142 	 -59.3145 	 -79.0952 	 
C 	 -60.9464 	 -58.6233 	 -79.6458 	 
C 	 -61.7684 	 -58.0712 	 -78.7046 	 
H 	 -59.0994 	 -59.8244 	 -79.7008 	 
C 	 -61.2027 	 -58.592 	 -81.1363 	 
H 	 -62.271 	 -58.85 	 -81.2661 	 
H 	 -60.7344 	 -59.4386 	 -81.6048 	 
C 	 -60.7789 	 -57.3609 	 -81.7966 	 
H 	 -60.833 	 -57.51 	 -82.9244 	 
H 	 -59.7204 	 -57.1654 	 -81.5021 	 
C 	 -61.6098 	 -56.1145 	 -81.5817 	 
H 	 -62.6699 	 -56.1965 	 -81.6119 	 
H 	 -61.2901 	 -55.4208 	 -82.3141 	 
H 	 -61.3348 	 -55.7219 	 -80.5845 	 
H 	 -65.6409 	 -55.1812 	 -77.7558 	 
H 	 -58.7956 	 -59.5084 	 -77.1413 	 
*
