! wB97X-D3 SP def2-SVP
%pal
nprocs 24
end

* xyz 0 1
S 	 -46.5839 	 10.84 	 -20.5146 	 
C 	 -47.9065 	 10.2953 	 -19.4739 	 
C 	 -49.0399 	 10.2791 	 -20.1569 	 
C 	 -48.9191 	 10.6968 	 -21.5133 	 
C 	 -47.6271 	 11.0596 	 -21.8639 	 
H 	 -49.7492 	 10.7739 	 -22.2819 	 
C 	 -50.3247 	 9.7541 	 -19.6575 	 
H 	 -51.1333 	 10.1525 	 -20.2651 	 
H 	 -50.5524 	 10.1268 	 -18.6658 	 
C 	 -50.4769 	 8.18148 	 -19.615 	 
H 	 -49.6497 	 7.75077 	 -19.011 	 
H 	 -51.4138 	 7.84603 	 -19.1013 	 
C 	 -50.4584 	 7.43132 	 -20.956 	 
H 	 -50.4039 	 6.38551 	 -20.7515 	 
H 	 -51.3513 	 7.58782 	 -21.6523 	 
H 	 -49.494 	 7.63823 	 -21.4222 	 
S 	 -46.1568 	 9.99273 	 -23.9895 	 
C 	 -46.1771 	 10.8394 	 -25.5199 	 
C 	 -46.8775 	 12.0396 	 -25.3957 	 
C 	 -47.4609 	 12.2321 	 -24.0918 	 
C 	 -47.1751 	 11.1902 	 -23.2723 	 
H 	 -46.9167 	 12.6768 	 -26.297 	 
C 	 -48.3692 	 13.4111 	 -23.7271 	 
H 	 -48.4733 	 13.4737 	 -22.6105 	 
H 	 -49.3777 	 13.2856 	 -24.0807 	 
C 	 -47.7776 	 14.7017 	 -24.1496 	 
H 	 -47.8694 	 14.8527 	 -25.1888 	 
H 	 -46.666 	 14.5626 	 -24.1718 	 
C 	 -48.1022 	 16.0056 	 -23.4347 	 
H 	 -47.8477 	 15.9365 	 -22.3737 	 
H 	 -49.1793 	 16.2626 	 -23.5469 	 
H 	 -47.5173 	 16.8553 	 -23.7326 	 
H 	 -47.817 	 9.81432 	 -18.5 	 
H 	 -45.7513 	 10.5059 	 -26.4229 	 
*
