! wB97X-D3 SP def2-SVP
%pal
nprocs 24
end

* xyz 0 1
S 	 -127.379 	 4.85212 	 9.20203 	 
C 	 -126.438 	 4.57681 	 7.77474 	 
C 	 -126.123 	 3.23985 	 7.58865 	 
C 	 -126.92 	 2.36593 	 8.39919 	 
C 	 -127.719 	 3.08508 	 9.28675 	 
H 	 -127.113 	 1.29337 	 8.22844 	 
C 	 -125.417 	 2.70615 	 6.36069 	 
H 	 -124.647 	 2.04977 	 6.72678 	 
H 	 -124.977 	 3.56214 	 5.84031 	 
C 	 -126.324 	 1.94856 	 5.30269 	 
H 	 -126.774 	 1.07273 	 5.76417 	 
H 	 -127.195 	 2.53659 	 5.1534 	 
C 	 -125.638 	 1.49172 	 3.97726 	 
H 	 -126.445 	 1.18969 	 3.29724 	 
H 	 -125.099 	 2.31949 	 3.66755 	 
H 	 -124.976 	 0.660632 	 4.08062 	 
S 	 -130.145 	 3.51514 	 10.5365 	 
C 	 -130.67 	 2.37551 	 11.7268 	 
C 	 -129.859 	 1.23072 	 11.8002 	 
C 	 -128.692 	 1.29126 	 10.9194 	 
C 	 -128.642 	 2.56133 	 10.2961 	 
H 	 -130.108 	 0.288861 	 12.3551 	 
C 	 -127.601 	 0.204876 	 11.0198 	 
H 	 -127.456 	 -0.128567 	 12.1303 	 
H 	 -126.678 	 0.650364 	 10.756 	 
C 	 -127.756 	 -1.04383 	 10.2151 	 
H 	 -126.916 	 -1.63276 	 10.2033 	 
H 	 -128.087 	 -0.996039 	 9.15877 	 
C 	 -128.875 	 -1.92039 	 10.7652 	 
H 	 -128.613 	 -2.07191 	 11.8065 	 
H 	 -128.878 	 -2.94087 	 10.4517 	 
H 	 -129.851 	 -1.45807 	 10.5582 	 
H 	 -125.993 	 5.32524 	 7.14081 	 
H 	 -131.731 	 2.32544 	 11.8998 	 
*
