! wB97X-D3 SP def2-SVP
%pal
nprocs 24
end

* xyz 0 1
S 	 -44.9533 	 26.8623 	 31.1691 	 
C 	 -45.5541 	 28.2922 	 31.9246 	 
C 	 -46.4915 	 28.042 	 32.9168 	 
C 	 -46.7563 	 26.5898 	 33.0133 	 
C 	 -46.1251 	 25.8449 	 32.0406 	 
H 	 -47.511 	 26.1147 	 33.6847 	 
C 	 -47.3387 	 29.0824 	 33.7215 	 
H 	 -48.478 	 29.0271 	 33.4671 	 
H 	 -46.9657 	 30.0337 	 33.314 	 
C 	 -47.1139 	 29.0786 	 35.2193 	 
H 	 -47.9072 	 29.7239 	 35.5848 	 
H 	 -47.3544 	 28.0577 	 35.6261 	 
C 	 -45.6886 	 29.6478 	 35.58 	 
H 	 -45.5419 	 30.6417 	 35.1195 	 
H 	 -45.5539 	 29.7102 	 36.6346 	 
H 	 -45.0022 	 28.9171 	 35.1892 	 
S 	 -47.4543 	 24.2096 	 30.2549 	 
C 	 -47.7339 	 22.4649 	 30.7249 	 
C 	 -47.3194 	 22.2648 	 32.0189 	 
C 	 -46.4469 	 23.2874 	 32.4977 	 
C 	 -46.5273 	 24.4511 	 31.7677 	 
H 	 -47.3838 	 21.2931 	 32.5102 	 
C 	 -45.8633 	 23.0641 	 33.8435 	 
H 	 -45.1022 	 23.8294 	 33.982 	 
H 	 -45.4367 	 22.0665 	 33.8749 	 
C 	 -46.8902 	 23.2178 	 34.9056 	 
H 	 -47.6069 	 22.3596 	 34.9386 	 
H 	 -47.5136 	 24.0956 	 34.666 	 
C 	 -46.3013 	 23.3579 	 36.3154 	 
H 	 -45.9601 	 22.4419 	 36.7414 	 
H 	 -47.144 	 23.7467 	 36.8638 	 
H 	 -45.5506 	 24.1465 	 36.2951 	 
H 	 -45.3169 	 29.2654 	 31.5112 	 
H 	 -48.2005 	 21.7977 	 30.0797 	 
*
