! wB97X-D3 SP def2-SVP
%pal
nprocs 24
end

* xyz 0 1
S 	 -60.0906 	 13.6139 	 -97.475 	 
C 	 -60.0986 	 15.251 	 -97.0465 	 
C 	 -59.029 	 15.9468 	 -97.6315 	 
C 	 -58.3061 	 15.1472 	 -98.6067 	 
C 	 -58.7132 	 13.794 	 -98.6428 	 
H 	 -57.4737 	 15.6008 	 -99.2148 	 
C 	 -58.7732 	 17.3894 	 -97.3967 	 
H 	 -59.4548 	 17.771 	 -96.7693 	 
H 	 -58.8364 	 17.9339 	 -98.3159 	 
C 	 -57.4374 	 17.8044 	 -96.8063 	 
H 	 -56.6684 	 17.35 	 -97.4264 	 
H 	 -57.2042 	 18.8125 	 -96.9549 	 
C 	 -57.1499 	 17.2802 	 -95.3528 	 
H 	 -57.7236 	 16.3558 	 -95.2951 	 
H 	 -56.1191 	 17.0656 	 -95.2615 	 
H 	 -57.4501 	 18.0291 	 -94.6323 	 
S 	 -57.739 	 11.1885 	 -98.7565 	 
C 	 -56.9263 	 10.5902 	 -100.168 	 
C 	 -57.0014 	 11.5056 	 -101.175 	 
C 	 -57.6229 	 12.7359 	 -100.804 	 
C 	 -58.141 	 12.7612 	 -99.4842 	 
H 	 -56.6298 	 11.2455 	 -102.078 	 
C 	 -57.8975 	 13.8359 	 -101.831 	 
H 	 -57.4355 	 13.467 	 -102.71 	 
H 	 -57.3652 	 14.7574 	 -101.692 	 
C 	 -59.3575 	 13.9724 	 -102.227 	 
H 	 -59.9103 	 13.9611 	 -101.337 	 
H 	 -59.6834 	 13.0128 	 -102.783 	 
C 	 -59.7139 	 15.3537 	 -102.863 	 
H 	 -59.0732 	 16.1638 	 -102.59 	 
H 	 -60.7467 	 15.5399 	 -102.735 	 
H 	 -59.6469 	 15.2724 	 -103.964 	 
H 	 -60.7284 	 15.7564 	 -96.3388 	 
H 	 -56.4239 	 9.55849 	 -100.203 	 
*
