! wB97X-D3 SP def2-SVP
%pal
nprocs 24
end

* xyz 0 1
S 	 -132.577 	 23.6092 	 -17.0124 	 
C 	 -133.22 	 22.0474 	 -17.4644 	 
C 	 -134.315 	 22.1858 	 -18.2692 	 
C 	 -134.608 	 23.531 	 -18.5348 	 
C 	 -133.671 	 24.4243 	 -18.0409 	 
H 	 -135.422 	 23.7774 	 -19.1274 	 
C 	 -135.209 	 21.0079 	 -18.6805 	 
H 	 -134.665 	 20.0721 	 -18.6053 	 
H 	 -135.454 	 21.0282 	 -19.6758 	 
C 	 -136.476 	 20.9384 	 -17.7904 	 
H 	 -136.916 	 21.9107 	 -17.4808 	 
H 	 -137.166 	 20.3828 	 -18.3844 	 
C 	 -136.27 	 20.1357 	 -16.508 	 
H 	 -136.123 	 19.0774 	 -16.7219 	 
H 	 -135.377 	 20.462 	 -16.0493 	 
H 	 -137.145 	 20.2946 	 -15.8643 	 
S 	 -133.378 	 26.4405 	 -19.9402 	 
C 	 -133.068 	 28.0733 	 -19.59 	 
C 	 -132.956 	 28.1766 	 -18.234 	 
C 	 -133.271 	 26.9874 	 -17.4799 	 
C 	 -133.535 	 25.8607 	 -18.2851 	 
H 	 -132.595 	 29.0858 	 -17.7653 	 
C 	 -133.014 	 26.8819 	 -15.9739 	 
H 	 -131.949 	 26.6329 	 -15.924 	 
H 	 -133.553 	 26.0865 	 -15.5141 	 
C 	 -133.431 	 28.1964 	 -15.2199 	 
H 	 -134.411 	 28.5672 	 -15.5077 	 
H 	 -132.782 	 29.0356 	 -15.4507 	 
C 	 -133.408 	 27.7902 	 -13.713 	 
H 	 -134.237 	 27.1197 	 -13.5221 	 
H 	 -133.465 	 28.6195 	 -13.0422 	 
H 	 -132.434 	 27.3388 	 -13.4934 	 
H 	 -132.85 	 21.0641 	 -17.1389 	 
H 	 -132.57 	 28.764 	 -20.2327 	 
*
