! wB97X-D3 SP def2-SVP
%pal
nprocs 24
end

* xyz 0 1
S 	 -105.653 	 22.0913 	 -109.776 	 
C 	 -105.533 	 20.9739 	 -108.504 	 
C 	 -104.976 	 21.519 	 -107.362 	 
C 	 -104.61 	 22.8728 	 -107.594 	 
C 	 -104.768 	 23.2731 	 -108.891 	 
H 	 -104.124 	 23.5461 	 -106.928 	 
C 	 -104.768 	 20.7421 	 -106.047 	 
H 	 -105.753 	 20.4308 	 -105.709 	 
H 	 -104.52 	 21.448 	 -105.261 	 
C 	 -103.652 	 19.7255 	 -106.018 	 
H 	 -103.587 	 19.2671 	 -106.963 	 
H 	 -102.698 	 20.1071 	 -105.905 	 
C 	 -103.829 	 18.6003 	 -104.996 	 
H 	 -103.026 	 17.893 	 -105.15 	 
H 	 -103.805 	 19.0305 	 -104.038 	 
H 	 -104.738 	 17.9707 	 -104.982 	 
S 	 -103.526 	 24.7195 	 -110.844 	 
C 	 -103.741 	 26.4296 	 -111.038 	 
C 	 -104.649 	 26.8611 	 -110.044 	 
C 	 -104.901 	 25.8491 	 -109.062 	 
C 	 -104.38 	 24.6093 	 -109.373 	 
H 	 -104.788 	 27.9742 	 -109.993 	 
C 	 -105.9 	 26.1559 	 -107.941 	 
H 	 -105.632 	 27.1149 	 -107.569 	 
H 	 -105.882 	 25.5301 	 -107.116 	 
C 	 -107.283 	 26.1827 	 -108.488 	 
H 	 -107.455 	 25.2734 	 -109.039 	 
H 	 -107.243 	 26.956 	 -109.204 	 
C 	 -108.454 	 26.5939 	 -107.529 	 
H 	 -108.166 	 27.3743 	 -106.767 	 
H 	 -108.831 	 25.7935 	 -106.967 	 
H 	 -109.262 	 27.0474 	 -108.03 	 
H 	 -105.935 	 19.9529 	 -108.673 	 
H 	 -103.339 	 27.193 	 -111.669 	 
*
