! wB97X-D3 SP def2-SVP
%pal
nprocs 24
end

* xyz 0 1
S 	 -84.155 	 -37.8636 	 -71.6874 	 
C 	 -83.9771 	 -37.6085 	 -73.3918 	 
C 	 -83.478 	 -38.7013 	 -74.033 	 
C 	 -83.1403 	 -39.7497 	 -73.1512 	 
C 	 -83.5359 	 -39.4828 	 -71.8921 	 
H 	 -82.747 	 -40.7348 	 -73.4554 	 
C 	 -83.5853 	 -38.8921 	 -75.5416 	 
H 	 -84.6054 	 -39.2099 	 -75.7196 	 
H 	 -82.9528 	 -39.6953 	 -75.8205 	 
C 	 -83.0288 	 -37.669 	 -76.3735 	 
H 	 -83.429 	 -37.6424 	 -77.3625 	 
H 	 -83.3932 	 -36.7199 	 -76.0399 	 
C 	 -81.5572 	 -37.4684 	 -76.4103 	 
H 	 -81.3571 	 -37.4157 	 -75.3513 	 
H 	 -81.1157 	 -38.1755 	 -77.0288 	 
H 	 -81.2519 	 -36.5036 	 -76.8077 	 
S 	 -81.8932 	 -39.826 	 -69.6251 	 
C 	 -82.1925 	 -41.2216 	 -68.6264 	 
C 	 -82.934 	 -42.2015 	 -69.2943 	 
C 	 -83.5029 	 -41.6887 	 -70.5142 	 
C 	 -83.1961 	 -40.3545 	 -70.7578 	 
H 	 -83.0719 	 -43.2122 	 -68.8538 	 
C 	 -84.3157 	 -42.6104 	 -71.4762 	 
H 	 -84.173 	 -42.1145 	 -72.4596 	 
H 	 -85.4043 	 -42.5563 	 -71.2529 	 
C 	 -83.8479 	 -44.1426 	 -71.5857 	 
H 	 -84.3807 	 -44.584 	 -72.415 	 
H 	 -84.2051 	 -44.7076 	 -70.7438 	 
C 	 -82.3337 	 -44.3309 	 -71.8394 	 
H 	 -81.992 	 -45.3316 	 -71.9992 	 
H 	 -81.8159 	 -43.7291 	 -71.0713 	 
H 	 -82.0465 	 -43.8739 	 -72.7704 	 
H 	 -84.3395 	 -36.7396 	 -73.9499 	 
H 	 -81.6551 	 -41.5346 	 -67.7528 	 
*
