! wB97X-D3 SP def2-SVP
%pal
nprocs 24
end

* xyz 0 1
S 	 -55.1271 	 -59.3417 	 -80.915 	 
C 	 -55.2525 	 -57.7664 	 -80.1975 	 
C 	 -56.4597 	 -57.1095 	 -80.4442 	 
C 	 -57.3243 	 -58.0083 	 -81.1047 	 
C 	 -56.7268 	 -59.1804 	 -81.5322 	 
H 	 -58.3673 	 -57.7612 	 -81.2303 	 
C 	 -56.8143 	 -55.7219 	 -79.9109 	 
H 	 -57.8065 	 -55.4767 	 -80.2141 	 
H 	 -56.2309 	 -54.9889 	 -80.4303 	 
C 	 -56.7702 	 -55.587 	 -78.3386 	 
H 	 -57.4963 	 -56.3103 	 -77.8947 	 
H 	 -55.7991 	 -55.8653 	 -78.0586 	 
C 	 -57.1635 	 -54.2108 	 -77.6673 	 
H 	 -56.4619 	 -53.4374 	 -77.9606 	 
H 	 -58.23 	 -53.9443 	 -77.81 	 
H 	 -56.9917 	 -54.1446 	 -76.6297 	 
S 	 -57.0371 	 -61.8046 	 -81.2584 	 
C 	 -57.9288 	 -62.7298 	 -82.4329 	 
C 	 -58.5124 	 -61.9416 	 -83.3881 	 
C 	 -58.3445 	 -60.5553 	 -83.0853 	 
C 	 -57.3524 	 -60.3371 	 -82.1332 	 
H 	 -59.0547 	 -62.4726 	 -84.1926 	 
C 	 -58.96 	 -59.4745 	 -83.9682 	 
H 	 -58.9384 	 -58.5096 	 -83.4502 	 
H 	 -59.9978 	 -59.6971 	 -84.0118 	 
C 	 -58.4315 	 -59.3474 	 -85.4232 	 
H 	 -59.1897 	 -58.8488 	 -86.0616 	 
H 	 -58.453 	 -60.3124 	 -85.7065 	 
C 	 -57.0919 	 -58.6362 	 -85.5503 	 
H 	 -56.3756 	 -59.3645 	 -85.2588 	 
H 	 -56.8124 	 -57.7762 	 -84.904 	 
H 	 -56.9038 	 -58.5241 	 -86.6476 	 
H 	 -54.4167 	 -57.3157 	 -79.6554 	 
H 	 -58.2602 	 -63.762 	 -82.35 	 
*
