! wB97X-D3 SP def2-SVP
%pal
nprocs 24
end

* xyz 0 1
S 	 -138.943 	 6.87217 	 -9.33605 	 
C 	 -137.91 	 7.93135 	 -10.2602 	 
C 	 -136.915 	 8.53249 	 -9.46141 	 
C 	 -136.982 	 8.1533 	 -8.11456 	 
C 	 -138.037 	 7.28221 	 -7.87132 	 
H 	 -136.253 	 8.43571 	 -7.3971 	 
C 	 -135.997 	 9.54307 	 -9.99594 	 
H 	 -135.944 	 9.37446 	 -11.0992 	 
H 	 -135.031 	 9.2743 	 -9.52077 	 
C 	 -136.307 	 11.0012 	 -9.68634 	 
H 	 -137.195 	 11.1934 	 -10.2001 	 
H 	 -136.678 	 11.0467 	 -8.6021 	 
C 	 -135.271 	 12.061 	 -10.1114 	 
H 	 -135.568 	 13.1039 	 -9.78187 	 
H 	 -134.321 	 11.9481 	 -9.58889 	 
H 	 -135.069 	 12.1142 	 -11.2292 	 
S 	 -140.316 	 6.69386 	 -6.39167 	 
C 	 -140.177 	 6.30851 	 -4.67411 	 
C 	 -138.859 	 6.22628 	 -4.36433 	 
C 	 -137.933 	 6.48771 	 -5.42034 	 
C 	 -138.582 	 6.85327 	 -6.60863 	 
H 	 -138.773 	 6.12489 	 -3.28836 	 
C 	 -136.393 	 6.44705 	 -5.168 	 
H 	 -136.01 	 6.54479 	 -6.1491 	 
H 	 -136.073 	 5.51919 	 -4.67116 	 
C 	 -135.969 	 7.59845 	 -4.23211 	 
H 	 -136.611 	 7.62295 	 -3.25841 	 
H 	 -136.188 	 8.5328 	 -4.79032 	 
C 	 -134.557 	 7.61923 	 -3.66384 	 
H 	 -134.572 	 8.51645 	 -3.17558 	 
H 	 -133.914 	 7.58146 	 -4.43918 	 
H 	 -134.416 	 6.90977 	 -2.90868 	 
H 	 -137.969 	 8.11716 	 -11.328 	 
H 	 -141.111 	 6.2786 	 -4.07689 	 
*
