! wB97X-D3 SP def2-SVP
%pal
nprocs 24
end

* xyz 0 1
S 	 -45.2451 	 8.84523 	 -23.0113 	 
C 	 -46.9601 	 8.79136 	 -23.0754 	 
C 	 -47.6208 	 9.86144 	 -23.7338 	 
C 	 -46.6477 	 10.591 	 -24.3999 	 
C 	 -45.3611 	 10.1052 	 -24.2327 	 
H 	 -46.7699 	 11.4456 	 -25.0165 	 
C 	 -49.0746 	 10.1893 	 -23.7989 	 
H 	 -49.5783 	 9.27193 	 -24.1174 	 
H 	 -49.2974 	 10.9552 	 -24.5734 	 
C 	 -49.7524 	 10.7364 	 -22.5032 	 
H 	 -49.3334 	 10.1241 	 -21.7302 	 
H 	 -49.5639 	 11.7402 	 -22.4264 	 
C 	 -51.3092 	 10.7063 	 -22.4387 	 
H 	 -51.4667 	 11.0733 	 -21.4911 	 
H 	 -51.761 	 11.331 	 -23.216 	 
H 	 -51.7566 	 9.70118 	 -22.5259 	 
S 	 -42.885 	 9.51217 	 -25.2589 	 
C 	 -41.8266 	 10.7607 	 -25.6996 	 
C 	 -42.361 	 12.0205 	 -25.5038 	 
C 	 -43.6493 	 11.9931 	 -24.982 	 
C 	 -44.1048 	 10.6685 	 -24.8134 	 
H 	 -41.7813 	 12.8329 	 -25.9531 	 
C 	 -44.4709 	 13.2668 	 -24.7249 	 
H 	 -45.31 	 13.1736 	 -25.3506 	 
H 	 -43.8207 	 14.1389 	 -25.0626 	 
C 	 -44.7227 	 13.4575 	 -23.2633 	 
H 	 -43.8057 	 13.3341 	 -22.7079 	 
H 	 -45.2772 	 12.6753 	 -22.8394 	 
C 	 -45.506 	 14.681 	 -22.927 	 
H 	 -44.9389 	 15.5467 	 -23.2671 	 
H 	 -45.5669 	 14.7322 	 -21.8445 	 
H 	 -46.5512 	 14.5876 	 -23.2753 	 
H 	 -47.5955 	 8.06029 	 -22.5398 	 
H 	 -40.841 	 10.5295 	 -26.0637 	 
*
