! wB97X-D3 SP def2-SVP
%pal
nprocs 24
end

* xyz 0 1
S 	 -102.114 	 36.7927 	 -87.452 	 
C 	 -101.05 	 35.5766 	 -87.9854 	 
C 	 -99.7112 	 35.9446 	 -87.7717 	 
C 	 -99.5978 	 37.1632 	 -87.0852 	 
C 	 -100.762 	 37.7599 	 -86.7158 	 
H 	 -98.7024 	 37.5794 	 -86.7982 	 
C 	 -98.4739 	 35.1515 	 -88.1174 	 
H 	 -98.6421 	 34.6198 	 -89.1461 	 
H 	 -98.4775 	 34.4176 	 -87.2525 	 
C 	 -97.168 	 35.9684 	 -88.2474 	 
H 	 -97.226 	 36.7199 	 -89.0494 	 
H 	 -96.9443 	 36.525 	 -87.3576 	 
C 	 -95.9373 	 35.1825 	 -88.6672 	 
H 	 -95.6632 	 34.3494 	 -88.0304 	 
H 	 -96.1771 	 34.774 	 -89.6872 	 
H 	 -95.075 	 35.8555 	 -88.8554 	 
S 	 -99.3905 	 39.967 	 -85.5151 	 
C 	 -100.409 	 41.2403 	 -84.8641 	 
C 	 -101.774 	 41.0774 	 -85.0121 	 
C 	 -102.106 	 39.7269 	 -85.4949 	 
C 	 -100.907 	 39.036 	 -85.9555 	 
H 	 -102.487 	 41.7722 	 -84.5896 	 
C 	 -103.567 	 39.2681 	 -85.3528 	 
H 	 -103.943 	 39.5204 	 -84.3817 	 
H 	 -103.619 	 38.1279 	 -85.4524 	 
C 	 -104.599 	 39.8801 	 -86.3285 	 
H 	 -104.495 	 40.9144 	 -86.3178 	 
H 	 -105.661 	 39.5959 	 -86.2082 	 
C 	 -104.267 	 39.4371 	 -87.771 	 
H 	 -104.917 	 39.9381 	 -88.4591 	 
H 	 -104.482 	 38.3591 	 -87.9654 	 
H 	 -103.215 	 39.557 	 -87.9118 	 
H 	 -101.284 	 34.614 	 -88.4595 	 
H 	 -99.9622 	 42.1867 	 -84.5636 	 
*
