! wB97X-D3 SP def2-SVP
%pal
nprocs 24
end

* xyz 0 1
S 	 -29.6382 	 -6.87341 	 -2.81789 	 
C 	 -29.7151 	 -5.72862 	 -1.54222 	 
C 	 -30.5038 	 -6.18104 	 -0.48285 	 
C 	 -31.2847 	 -7.27594 	 -0.947132 	 
C 	 -31.0573 	 -7.71224 	 -2.20549 	 
H 	 -32.0711 	 -7.74595 	 -0.358823 	 
C 	 -30.5843 	 -5.5904 	 0.892853 	 
H 	 -31.6327 	 -5.62794 	 1.32832 	 
H 	 -30.3691 	 -4.50474 	 0.922793 	 
C 	 -29.6469 	 -6.2151 	 1.90154 	 
H 	 -28.635 	 -6.08145 	 1.45931 	 
H 	 -29.599 	 -5.74644 	 2.87918 	 
C 	 -30.0778 	 -7.67966 	 2.18874 	 
H 	 -30.2283 	 -8.28734 	 1.32827 	 
H 	 -29.4023 	 -8.32519 	 2.70001 	 
H 	 -31.057 	 -7.67399 	 2.61403 	 
S 	 -30.5648 	 -10.1089 	 -3.51898 	 
C 	 -31.9221 	 -11.0294 	 -4.10822 	 
C 	 -33.1239 	 -10.5482 	 -3.61792 	 
C 	 -32.9526 	 -9.35213 	 -2.91766 	 
C 	 -31.6289 	 -8.91318 	 -2.84694 	 
H 	 -34.0337 	 -11.1024 	 -3.68132 	 
C 	 -34.222 	 -8.7008 	 -2.31584 	 
H 	 -35.041 	 -8.51872 	 -3.05019 	 
H 	 -34.077 	 -7.70126 	 -1.93263 	 
C 	 -34.9599 	 -9.52412 	 -1.15912 	 
H 	 -34.1732 	 -9.92963 	 -0.437346 	 
H 	 -35.5381 	 -10.3752 	 -1.56337 	 
C 	 -35.9105 	 -8.69384 	 -0.281754 	 
H 	 -36.9553 	 -9.04266 	 -0.346686 	 
H 	 -35.8993 	 -7.6419 	 -0.708366 	 
H 	 -35.5712 	 -8.73661 	 0.755253 	 
H 	 -29.0492 	 -4.83303 	 -1.42497 	 
H 	 -31.8466 	 -11.9615 	 -4.67179 	 
*
