! wB97X-D3 SP def2-SVP
%pal
nprocs 24
end

* xyz 0 1
S 	 -70.2633 	 15.5855 	 -77.8537 	 
C 	 -68.6192 	 15.2985 	 -78.4756 	 
C 	 -67.9349 	 14.3087 	 -77.7349 	 
C 	 -68.7068 	 13.806 	 -76.647 	 
C 	 -70.0335 	 14.3063 	 -76.6415 	 
H 	 -68.4405 	 12.9839 	 -75.9938 	 
C 	 -66.5719 	 13.8389 	 -78.0041 	 
H 	 -66.4005 	 13.7996 	 -79.0435 	 
H 	 -66.4574 	 12.77 	 -77.7353 	 
C 	 -65.3707 	 14.6811 	 -77.4712 	 
H 	 -64.494 	 14.0625 	 -77.6673 	 
H 	 -65.2448 	 15.5703 	 -78.0168 	 
C 	 -65.4059 	 14.9672 	 -75.94 	 
H 	 -65.3514 	 14.085 	 -75.351 	 
H 	 -64.5438 	 15.6019 	 -75.6922 	 
H 	 -66.2009 	 15.5917 	 -75.5988 	 
S 	 -72.6094 	 13.2115 	 -76.2719 	 
C 	 -73.1163 	 12.9439 	 -74.5791 	 
C 	 -72.1404 	 13.2376 	 -73.6773 	 
C 	 -70.9823 	 13.783 	 -74.2816 	 
C 	 -71.0558 	 13.856 	 -75.7021 	 
H 	 -72.2722 	 13.0898 	 -72.5772 	 
C 	 -69.9179 	 14.4362 	 -73.3822 	 
H 	 -70.3927 	 15.1919 	 -72.7226 	 
H 	 -69.2687 	 15.0499 	 -73.9903 	 
C 	 -69.0524 	 13.3185 	 -72.6549 	 
H 	 -68.6559 	 12.6846 	 -73.4692 	 
H 	 -69.7736 	 12.6669 	 -72.1101 	 
C 	 -67.9138 	 13.9676 	 -71.7644 	 
H 	 -67.3553 	 14.7296 	 -72.2964 	 
H 	 -67.1652 	 13.2032 	 -71.4784 	 
H 	 -68.3071 	 14.3378 	 -70.8001 	 
H 	 -68.1204 	 15.6703 	 -79.3417 	 
H 	 -74.1083 	 12.5647 	 -74.2753 	 
*
