! wB97X-D3 SP def2-SVP
%pal
nprocs 24
end

* xyz 0 1
S 	 -107.446 	 59.1944 	 -94.4565 	 
C 	 -106.13 	 59.5955 	 -93.3335 	 
C 	 -104.912 	 59.5805 	 -94.0394 	 
C 	 -105.059 	 59.2524 	 -95.45 	 
C 	 -106.361 	 59.1123 	 -95.8476 	 
H 	 -104.224 	 59.2187 	 -96.1396 	 
C 	 -103.608 	 59.9022 	 -93.4728 	 
H 	 -103.894 	 60.4728 	 -92.5435 	 
H 	 -103.041 	 60.5326 	 -94.1164 	 
C 	 -102.839 	 58.5667 	 -93.2574 	 
H 	 -103.437 	 57.8034 	 -92.7618 	 
H 	 -102.713 	 58.178 	 -94.3002 	 
C 	 -101.455 	 58.71 	 -92.5911 	 
H 	 -100.761 	 59.3119 	 -93.1861 	 
H 	 -101.592 	 59.1753 	 -91.6159 	 
H 	 -101.011 	 57.75 	 -92.5142 	 
S 	 -108.1 	 57.693 	 -97.4558 	 
C 	 -108.142 	 57.9281 	 -99.1681 	 
C 	 -107.244 	 58.9168 	 -99.5153 	 
C 	 -106.462 	 59.4711 	 -98.4546 	 
C 	 -106.792 	 58.8909 	 -97.2367 	 
H 	 -107.151 	 59.2151 	 -100.529 	 
C 	 -105.501 	 60.6563 	 -98.6645 	 
H 	 -105.109 	 61.0289 	 -97.7327 	 
H 	 -106.032 	 61.4515 	 -99.1415 	 
C 	 -104.266 	 60.3086 	 -99.4427 	 
H 	 -104.486 	 59.9789 	 -100.47 	 
H 	 -103.613 	 59.5684 	 -98.9167 	 
C 	 -103.378 	 61.5239 	 -99.6371 	 
H 	 -103.885 	 62.2973 	 -100.129 	 
H 	 -102.533 	 61.2539 	 -100.214 	 
H 	 -103.022 	 61.7945 	 -98.6849 	 
H 	 -106.112 	 60.1453 	 -92.3798 	 
H 	 -108.842 	 57.5011 	 -99.7961 	 
*
