! wB97X-D3 SP def2-SVP
%pal
nprocs 24
end

* xyz 0 1
S 	 -76.0236 	 -43.1121 	 -93.8473 	 
C 	 -74.9697 	 -42.0061 	 -94.5627 	 
C 	 -75.4705 	 -41.42 	 -95.7194 	 
C 	 -76.6974 	 -42.0732 	 -96.0897 	 
C 	 -77.0984 	 -43.0637 	 -95.2656 	 
H 	 -77.2685 	 -41.9134 	 -96.9421 	 
C 	 -74.7825 	 -40.3354 	 -96.5266 	 
H 	 -73.7824 	 -40.8052 	 -96.712 	 
H 	 -74.7754 	 -39.4565 	 -95.918 	 
C 	 -75.4204 	 -39.8649 	 -97.7901 	 
H 	 -75.2299 	 -40.4601 	 -98.723 	 
H 	 -76.5091 	 -39.7238 	 -97.6946 	 
C 	 -74.7796 	 -38.6368 	 -98.3291 	 
H 	 -73.806 	 -38.777 	 -98.5881 	 
H 	 -75.384 	 -38.3296 	 -99.219 	 
H 	 -74.9859 	 -37.9161 	 -97.5026 	 
S 	 -78.4139 	 -45.2542 	 -94.2797 	 
C 	 -80.0252 	 -45.6254 	 -94.6698 	 
C 	 -80.577 	 -44.5925 	 -95.3773 	 
C 	 -79.6999 	 -43.4531 	 -95.6992 	 
C 	 -78.3927 	 -43.7572 	 -95.2557 	 
H 	 -81.5445 	 -44.7813 	 -95.6874 	 
C 	 -80.2083 	 -42.2753 	 -96.4101 	 
H 	 -81.2085 	 -42.3695 	 -96.7984 	 
H 	 -79.6873 	 -42.1793 	 -97.3684 	 
C 	 -80.2278 	 -40.9869 	 -95.5056 	 
H 	 -80.3004 	 -40.1214 	 -96.0654 	 
H 	 -79.3116 	 -40.904 	 -94.9371 	 
C 	 -81.3304 	 -41.2463 	 -94.4905 	 
H 	 -81.5833 	 -40.3808 	 -93.913 	 
H 	 -81.2263 	 -42.0066 	 -93.7458 	 
H 	 -82.2898 	 -41.5065 	 -94.9639 	 
H 	 -74.0424 	 -41.8283 	 -94.1522 	 
H 	 -80.6168 	 -46.4663 	 -94.2899 	 
*
