! wB97X-D3 SP def2-SVP
%pal
nprocs 24
end

* xyz 0 1
S 	 -144.453 	 26.8141 	 -19.8257 	 
C 	 -144.384 	 25.0332 	 -19.982 	 
C 	 -143.671 	 24.5398 	 -18.8942 	 
C 	 -142.92 	 25.5409 	 -18.157 	 
C 	 -143.373 	 26.812 	 -18.438 	 
H 	 -142.257 	 25.2835 	 -17.3305 	 
C 	 -143.572 	 23.084 	 -18.6155 	 
H 	 -144.561 	 22.7341 	 -18.553 	 
H 	 -142.972 	 22.8659 	 -17.7253 	 
C 	 -143.022 	 22.2315 	 -19.832 	 
H 	 -143.698 	 22.4793 	 -20.6667 	 
H 	 -142.074 	 22.6837 	 -20.0682 	 
C 	 -142.717 	 20.803 	 -19.5799 	 
H 	 -143.642 	 20.2245 	 -19.4135 	 
H 	 -142.319 	 20.3885 	 -20.5188 	 
H 	 -141.964 	 20.7065 	 -18.7365 	 
S 	 -144.747 	 28.8563 	 -17.125 	 
C 	 -143.811 	 29.9376 	 -16.1636 	 
C 	 -142.471 	 29.7398 	 -16.2863 	 
C 	 -142.172 	 28.6804 	 -17.2043 	 
C 	 -143.3 	 27.9959 	 -17.6192 	 
H 	 -141.776 	 30.4623 	 -15.7862 	 
C 	 -140.795 	 28.2137 	 -17.4375 	 
H 	 -140.873 	 27.1642 	 -17.7525 	 
H 	 -140.2 	 28.3123 	 -16.5235 	 
C 	 -140.009 	 29.1027 	 -18.5108 	 
H 	 -140.084 	 30.1107 	 -18.2181 	 
H 	 -140.586 	 29.0711 	 -19.4532 	 
C 	 -138.454 	 28.8915 	 -18.7581 	 
H 	 -138.225 	 27.8608 	 -18.9945 	 
H 	 -137.757 	 29.1795 	 -17.9397 	 
H 	 -138.197 	 29.6526 	 -19.4896 	 
H 	 -144.953 	 24.52 	 -20.7032 	 
H 	 -144.245 	 30.7864 	 -15.7023 	 
*
