! wB97X-D3 SP def2-SVP
%pal
nprocs 24
end

* xyz 0 1
S 	 -83.9294 	 -42.0969 	 -88.3735 	 
C 	 -83.009 	 -40.7021 	 -88.0534 	 
C 	 -81.7232 	 -40.8624 	 -88.5895 	 
C 	 -81.5192 	 -42.2433 	 -89.0278 	 
C 	 -82.6359 	 -43.031 	 -89.0528 	 
H 	 -80.5096 	 -42.6197 	 -89.3391 	 
C 	 -80.4904 	 -40.0152 	 -88.5301 	 
H 	 -79.734 	 -40.3427 	 -89.194 	 
H 	 -80.1022 	 -40.1371 	 -87.5576 	 
C 	 -80.8543 	 -38.5344 	 -88.6726 	 
H 	 -81.3513 	 -38.4292 	 -89.6351 	 
H 	 -81.6069 	 -38.274 	 -87.8592 	 
C 	 -79.5735 	 -37.676 	 -88.5529 	 
H 	 -79.8208 	 -36.6596 	 -88.1438 	 
H 	 -78.7474 	 -38.0172 	 -87.9203 	 
H 	 -79.1776 	 -37.5173 	 -89.5591 	 
S 	 -83.4247 	 -45.4671 	 -88.1123 	 
C 	 -83.4283 	 -46.8728 	 -89.1776 	 
C 	 -82.8583 	 -46.5945 	 -90.3526 	 
C 	 -82.4935 	 -45.2136 	 -90.473 	 
C 	 -82.835 	 -44.4116 	 -89.3722 	 
H 	 -82.9543 	 -47.2805 	 -91.1469 	 
C 	 -81.9296 	 -44.6824 	 -91.7482 	 
H 	 -81.1517 	 -45.3935 	 -92.0032 	 
H 	 -81.4816 	 -43.6524 	 -91.6091 	 
C 	 -82.8583 	 -44.4664 	 -92.9029 	 
H 	 -82.1612 	 -43.9292 	 -93.5623 	 
H 	 -83.661 	 -43.7317 	 -92.6473 	 
C 	 -83.4172 	 -45.733 	 -93.6558 	 
H 	 -82.534 	 -46.3278 	 -94.0207 	 
H 	 -84.0504 	 -45.5218 	 -94.5039 	 
H 	 -83.9722 	 -46.3907 	 -93.0345 	 
H 	 -83.2855 	 -39.7408 	 -87.5973 	 
H 	 -83.7564 	 -47.903 	 -88.9522 	 
*
