! wB97X-D3 SP def2-SVP
%pal
nprocs 24
end

* xyz 0 1
S 	 -119.776 	 23.1478 	 -26.1501 	 
C 	 -118.561 	 23.9023 	 -27.2272 	 
C 	 -118.233 	 25.1765 	 -26.7254 	 
C 	 -118.64 	 25.3089 	 -25.3479 	 
C 	 -119.53 	 24.3087 	 -24.8869 	 
H 	 -118.438 	 26.1393 	 -24.6381 	 
C 	 -117.403 	 26.2519 	 -27.4507 	 
H 	 -117.148 	 27.0149 	 -26.7518 	 
H 	 -118.11 	 26.8094 	 -28.0945 	 
C 	 -116.24 	 25.7711 	 -28.2299 	 
H 	 -115.39 	 25.4572 	 -27.6872 	 
H 	 -116.588 	 24.92 	 -28.9076 	 
C 	 -115.755 	 26.8554 	 -29.1615 	 
H 	 -116.514 	 27.1655 	 -29.899 	 
H 	 -115.438 	 27.8404 	 -28.6263 	 
H 	 -114.982 	 26.4364 	 -29.7845 	 
S 	 -120.055 	 23.0976 	 -22.4733 	 
C 	 -121.323 	 23.7317 	 -21.462 	 
C 	 -121.88 	 24.8372 	 -22.002 	 
C 	 -121.349 	 25.1456 	 -23.2765 	 
C 	 -120.285 	 24.362 	 -23.6159 	 
H 	 -122.637 	 25.3076 	 -21.3879 	 
C 	 -121.907 	 26.5017 	 -23.9193 	 
H 	 -121.088 	 27.2336 	 -23.8805 	 
H 	 -122.544 	 27.0958 	 -23.2561 	 
C 	 -122.514 	 26.3739 	 -25.2954 	 
H 	 -123.119 	 25.4575 	 -25.3998 	 
H 	 -121.658 	 26.3576 	 -26.1229 	 
C 	 -123.377 	 27.5952 	 -25.8146 	 
H 	 -123.658 	 27.5071 	 -26.8597 	 
H 	 -123.049 	 28.5887 	 -25.4079 	 
H 	 -124.388 	 27.4335 	 -25.4429 	 
H 	 -118.206 	 23.4341 	 -28.0954 	 
H 	 -121.637 	 23.302 	 -20.4809 	 
*
