! wB97X-D3 SP def2-SVP
%pal
nprocs 24
end

* xyz 0 1
S 	 -48.4682 	 22.081 	 33.275 	 
C 	 -47.8247 	 23.4665 	 34.0363 	 
C 	 -46.4072 	 23.4928 	 33.8991 	 
C 	 -45.962 	 22.3553 	 33.0755 	 
C 	 -46.9775 	 21.5288 	 32.7079 	 
H 	 -44.9229 	 22.1572 	 32.7655 	 
C 	 -45.5001 	 24.6242 	 34.3898 	 
H 	 -46.0881 	 25.5544 	 34.4309 	 
H 	 -44.8602 	 24.7086 	 33.4479 	 
C 	 -44.6043 	 24.2105 	 35.4953 	 
H 	 -45.1304 	 23.5464 	 36.1663 	 
H 	 -43.8235 	 23.5879 	 35.0466 	 
C 	 -43.8605 	 25.3448 	 36.2207 	 
H 	 -44.5288 	 26.1165 	 36.6248 	 
H 	 -43.2536 	 24.9466 	 37.0319 	 
H 	 -43.1043 	 25.9265 	 35.5895 	 
S 	 -47.5704 	 20.1803 	 30.3744 	 
C 	 -46.9767 	 18.4959 	 30.1677 	 
C 	 -46.326 	 18.0992 	 31.3557 	 
C 	 -46.2525 	 19.0947 	 32.3169 	 
C 	 -46.8393 	 20.2651 	 31.9069 	 
H 	 -45.9352 	 17.0848 	 31.4333 	 
C 	 -45.6778 	 18.7983 	 33.6899 	 
H 	 -44.8093 	 19.4419 	 33.8417 	 
H 	 -45.2675 	 17.8251 	 33.6088 	 
C 	 -46.6344 	 19.0188 	 34.9306 	 
H 	 -47.662 	 18.5941 	 34.6596 	 
H 	 -46.8074 	 20.0714 	 35.1186 	 
C 	 -46.2018 	 18.335 	 36.2255 	 
H 	 -46.9503 	 18.2905 	 37.1365 	 
H 	 -45.2971 	 18.6699 	 36.607 	 
H 	 -46.0364 	 17.276 	 36.0616 	 
H 	 -48.296 	 24.1544 	 34.7064 	 
H 	 -47.2643 	 17.9635 	 29.2387 	 
*
