! wB97X-D3 SP def2-SVP
%pal
nprocs 24
end

* xyz 0 1
S 	 -70.7821 	 4.25249 	 14.2067 	 
C 	 -69.3108 	 5.14658 	 13.9161 	 
C 	 -68.5618 	 5.37205 	 15.0881 	 
C 	 -69.2368 	 4.81658 	 16.2097 	 
C 	 -70.4874 	 4.27698 	 15.9327 	 
H 	 -68.9427 	 5.0072 	 17.233 	 
C 	 -67.2646 	 6.20532 	 15.1904 	 
H 	 -67.4001 	 7.05547 	 15.8447 	 
H 	 -67.1135 	 6.69401 	 14.1851 	 
C 	 -65.9544 	 5.45086 	 15.4749 	 
H 	 -65.1148 	 6.11192 	 15.4371 	 
H 	 -66.0478 	 5.13744 	 16.534 	 
C 	 -65.6991 	 4.19311 	 14.6815 	 
H 	 -66.5253 	 3.48465 	 14.6697 	 
H 	 -65.4614 	 4.41578 	 13.6505 	 
H 	 -64.8191 	 3.54555 	 15.0883 	 
S 	 -73.0933 	 3.87425 	 16.8772 	 
C 	 -73.4524 	 2.88828 	 18.2127 	 
C 	 -72.2685 	 2.19398 	 18.4785 	 
C 	 -71.1301 	 2.57112 	 17.6734 	 
C 	 -71.3833 	 3.55939 	 16.8156 	 
H 	 -72.3307 	 1.47934 	 19.2837 	 
C 	 -69.7708 	 2.00714 	 17.9218 	 
H 	 -69.1391 	 2.16296 	 17.0291 	 
H 	 -69.7533 	 0.914529 	 17.8514 	 
C 	 -69.0249 	 2.40683 	 19.2023 	 
H 	 -69.6857 	 2.22401 	 20.101 	 
H 	 -69.0149 	 3.47658 	 19.0233 	 
C 	 -67.5684 	 1.73135 	 19.3027 	 
H 	 -67.024 	 2.19298 	 20.107 	 
H 	 -66.9444 	 1.90183 	 18.4205 	 
H 	 -67.5147 	 0.664642 	 19.3621 	 
H 	 -68.9992 	 5.42831 	 12.9541 	 
H 	 -74.3381 	 2.60381 	 18.6822 	 
*
