! wB97X-D3 SP def2-SVP
%pal
nprocs 24
end

* xyz 0 1
S 	 -45.4884 	 -2.42401 	 -6.6222 	 
C 	 -47.0956 	 -2.02569 	 -6.04756 	 
C 	 -47.8239 	 -1.32016 	 -6.9558 	 
C 	 -47.1021 	 -1.19981 	 -8.22508 	 
C 	 -45.795 	 -1.6303 	 -8.15743 	 
H 	 -47.3189 	 -0.653476 	 -9.15719 	 
C 	 -49.1195 	 -0.569639 	 -6.65294 	 
H 	 -49.2144 	 0.208201 	 -7.38889 	 
H 	 -49.1873 	 0.0458579 	 -5.69288 	 
C 	 -50.4525 	 -1.36286 	 -6.76925 	 
H 	 -50.6041 	 -1.99237 	 -5.91427 	 
H 	 -51.2761 	 -0.582639 	 -6.77472 	 
C 	 -50.4587 	 -2.38085 	 -7.93232 	 
H 	 -51.5129 	 -2.79508 	 -7.9669 	 
H 	 -50.3804 	 -1.88443 	 -8.92511 	 
H 	 -49.8026 	 -3.2044 	 -7.92411 	 
S 	 -43.2337 	 -0.686446 	 -9.09598 	 
C 	 -42.7915 	 -0.945742 	 -10.7938 	 
C 	 -43.7988 	 -1.62423 	 -11.4452 	 
C 	 -44.9305 	 -1.97667 	 -10.6111 	 
C 	 -44.7944 	 -1.51839 	 -9.25921 	 
H 	 -43.7013 	 -1.78943 	 -12.5466 	 
C 	 -46.1627 	 -2.78403 	 -11.031 	 
H 	 -46.8561 	 -1.94373 	 -11.1936 	 
H 	 -46.3371 	 -3.38613 	 -10.117 	 
C 	 -46.0954 	 -3.61586 	 -12.2884 	 
H 	 -45.4507 	 -4.44549 	 -12.1085 	 
H 	 -45.6316 	 -3.21427 	 -13.1789 	 
C 	 -47.4562 	 -4.14886 	 -12.7962 	 
H 	 -48.0506 	 -4.90036 	 -12.1597 	 
H 	 -47.2514 	 -4.62183 	 -13.788 	 
H 	 -48.0996 	 -3.30079 	 -12.982 	 
H 	 -47.4141 	 -2.41963 	 -5.11365 	 
H 	 -42.0365 	 -0.441643 	 -11.3738 	 
*
