! wB97X-D3 SP def2-SVP
%pal
nprocs 24
end

* xyz 0 1
S 	 -4.9094 	 -29.3957 	 -113.803 	 
C 	 -5.93497 	 -29.5453 	 -115.245 	 
C 	 -6.90495 	 -30.5351 	 -115.031 	 
C 	 -6.89051 	 -31.016 	 -113.703 	 
C 	 -5.88635 	 -30.5406 	 -112.902 	 
H 	 -7.57453 	 -31.7541 	 -113.256 	 
C 	 -7.94145 	 -31.1403 	 -115.986 	 
H 	 -8.23131 	 -32.1292 	 -115.668 	 
H 	 -7.42108 	 -31.1589 	 -116.985 	 
C 	 -9.20639 	 -30.2716 	 -116.129 	 
H 	 -8.73412 	 -29.2186 	 -116.286 	 
H 	 -9.67989 	 -30.5251 	 -117.046 	 
C 	 -10.0975 	 -30.2684 	 -114.915 	 
H 	 -9.55108 	 -29.9536 	 -113.977 	 
H 	 -10.9414 	 -29.5649 	 -115.095 	 
H 	 -10.5459 	 -31.2476 	 -114.697 	 
S 	 -4.10718 	 -31.9125 	 -111.209 	 
C 	 -4.54462 	 -32.0634 	 -109.508 	 
C 	 -5.71513 	 -31.4726 	 -109.181 	 
C 	 -6.33877 	 -30.8478 	 -110.346 	 
C 	 -5.59277 	 -31.005 	 -111.542 	 
H 	 -6.15613 	 -31.4044 	 -108.181 	 
C 	 -7.64892 	 -30.1379 	 -110.162 	 
H 	 -7.59142 	 -29.4809 	 -111.019 	 
H 	 -7.57722 	 -29.6169 	 -109.218 	 
C 	 -8.97717 	 -30.918 	 -110.313 	 
H 	 -9.17481 	 -31.2307 	 -111.287 	 
H 	 -9.81668 	 -30.2305 	 -110.23 	 
C 	 -9.15736 	 -31.8861 	 -109.188 	 
H 	 -8.36743 	 -32.6251 	 -109.257 	 
H 	 -10.1873 	 -32.3062 	 -109.028 	 
H 	 -8.9807 	 -31.35 	 -108.278 	 
H 	 -5.79629 	 -28.8845 	 -116.101 	 
H 	 -4.02236 	 -32.71 	 -108.807 	 
*
