! wB97X-D3 SP def2-SVP
%pal
nprocs 24
end

* xyz 0 1
S 	 -85.3204 	 -38.0941 	 -72.7654 	 
C 	 -84.5257 	 -37.46 	 -74.1481 	 
C 	 -83.8174 	 -38.4763 	 -74.8246 	 
C 	 -83.8604 	 -39.7313 	 -74.1005 	 
C 	 -84.5762 	 -39.687 	 -72.8903 	 
H 	 -83.4645 	 -40.7191 	 -74.419 	 
C 	 -83.115 	 -38.2084 	 -76.1081 	 
H 	 -83.6145 	 -37.6021 	 -76.8843 	 
H 	 -83.0149 	 -39.1983 	 -76.5449 	 
C 	 -81.7509 	 -37.6252 	 -76.0088 	 
H 	 -81.3504 	 -37.28 	 -76.9045 	 
H 	 -81.7307 	 -36.724 	 -75.3788 	 
C 	 -80.6863 	 -38.5631 	 -75.3652 	 
H 	 -79.7112 	 -38.0268 	 -75.4414 	 
H 	 -80.8376 	 -38.8024 	 -74.2972 	 
H 	 -80.5758 	 -39.4863 	 -75.9184 	 
S 	 -83.809 	 -40.2431 	 -70.3653 	 
C 	 -83.7031 	 -41.8424 	 -69.7707 	 
C 	 -84.3227 	 -42.6917 	 -70.6885 	 
C 	 -84.6614 	 -42.1059 	 -71.9489 	 
C 	 -84.5431 	 -40.7063 	 -71.8594 	 
H 	 -84.4345 	 -43.7047 	 -70.3641 	 
C 	 -85.362 	 -42.9505 	 -72.9687 	 
H 	 -85.5975 	 -42.3301 	 -73.8705 	 
H 	 -86.2333 	 -43.2423 	 -72.4447 	 
C 	 -84.7583 	 -44.2316 	 -73.5658 	 
H 	 -85.2988 	 -44.6538 	 -74.4006 	 
H 	 -84.574 	 -45.0777 	 -72.8935 	 
C 	 -83.2841 	 -43.9615 	 -73.971 	 
H 	 -83.226 	 -42.9432 	 -74.4579 	 
H 	 -82.7866 	 -44.7121 	 -74.5241 	 
H 	 -82.6186 	 -43.8513 	 -73.1292 	 
H 	 -84.7098 	 -36.5383 	 -74.6044 	 
H 	 -83.4318 	 -42.1681 	 -68.7278 	 
*
