! wB97X-D3 SP def2-SVP
%pal
nprocs 24
end

* xyz 0 1
S 	 -118.861 	 34.309 	 -112.538 	 
C 	 -119.015 	 32.9134 	 -113.637 	 
C 	 -118.939 	 33.3996 	 -114.93 	 
C 	 -119.098 	 34.831 	 -115.063 	 
C 	 -119.161 	 35.4646 	 -113.833 	 
H 	 -118.912 	 35.3784 	 -115.957 	 
C 	 -118.544 	 32.5789 	 -116.086 	 
H 	 -119.135 	 32.7753 	 -116.962 	 
H 	 -118.671 	 31.5101 	 -115.851 	 
C 	 -117.017 	 32.5621 	 -116.428 	 
H 	 -116.849 	 33.4787 	 -117.024 	 
H 	 -116.425 	 32.637 	 -115.51 	 
C 	 -116.845 	 31.3281 	 -117.353 	 
H 	 -117.288 	 31.5389 	 -118.288 	 
H 	 -115.866 	 31.1093 	 -117.467 	 
H 	 -117.355 	 30.3867 	 -117.038 	 
S 	 -118.085 	 37.832 	 -112.973 	 
C 	 -118.883 	 39.3437 	 -113.227 	 
C 	 -120.142 	 39.1248 	 -113.67 	 
C 	 -120.448 	 37.7391 	 -113.974 	 
C 	 -119.351 	 36.9314 	 -113.666 	 
H 	 -120.735 	 39.945 	 -113.798 	 
C 	 -121.859 	 37.3463 	 -114.251 	 
H 	 -121.784 	 36.2557 	 -114.359 	 
H 	 -122.326 	 37.8029 	 -115.106 	 
C 	 -122.869 	 37.5236 	 -113.038 	 
H 	 -122.93 	 38.53 	 -112.852 	 
H 	 -122.433 	 37.1962 	 -112.131 	 
C 	 -124.294 	 36.9576 	 -113.365 	 
H 	 -124.169 	 35.9509 	 -113.628 	 
H 	 -124.785 	 37.5786 	 -114.098 	 
H 	 -124.91 	 36.9293 	 -112.471 	 
H 	 -118.979 	 31.8342 	 -113.375 	 
H 	 -118.503 	 40.2547 	 -112.829 	 
*
