! wB97X-D3 SP def2-SVP
%pal
nprocs 24
end

* xyz 0 1
S 	 -53.8569 	 -52.6035 	 -74.0223 	 
C 	 -52.3812 	 -53.3463 	 -73.6532 	 
C 	 -52.228 	 -54.5775 	 -74.2464 	 
C 	 -53.3997 	 -54.9887 	 -74.9832 	 
C 	 -54.3512 	 -53.9663 	 -75.0997 	 
H 	 -53.5579 	 -55.8917 	 -75.5605 	 
C 	 -50.9576 	 -55.3193 	 -74.2858 	 
H 	 -50.2371 	 -54.5351 	 -74.2875 	 
H 	 -50.9045 	 -55.8974 	 -75.227 	 
C 	 -50.6505 	 -56.2159 	 -73.0569 	 
H 	 -49.6261 	 -56.5028 	 -73.1875 	 
H 	 -50.6346 	 -55.6088 	 -72.1657 	 
C 	 -51.689 	 -57.419 	 -73.0081 	 
H 	 -51.2988 	 -58.1437 	 -72.2954 	 
H 	 -52.6525 	 -57.1124 	 -72.6228 	 
H 	 -51.8475 	 -57.9148 	 -73.8779 	 
S 	 -57.0497 	 -53.6171 	 -74.9807 	 
C 	 -58.105 	 -54.1776 	 -76.2154 	 
C 	 -57.3854 	 -54.6947 	 -77.2915 	 
C 	 -55.9358 	 -54.5317 	 -77.0967 	 
C 	 -55.6174 	 -54.0432 	 -75.8616 	 
H 	 -57.9185 	 -54.962 	 -78.2185 	 
C 	 -54.9259 	 -54.8271 	 -78.1197 	 
H 	 -55.2797 	 -55.6702 	 -78.739 	 
H 	 -54.0067 	 -55.2275 	 -77.744 	 
C 	 -54.6652 	 -53.6167 	 -79.0481 	 
H 	 -54.4686 	 -52.6896 	 -78.5085 	 
H 	 -55.5398 	 -53.4332 	 -79.7011 	 
C 	 -53.4628 	 -53.7276 	 -80.0497 	 
H 	 -53.414 	 -54.5125 	 -80.816 	 
H 	 -52.5772 	 -53.8863 	 -79.4315 	 
H 	 -53.237 	 -52.7521 	 -80.5251 	 
H 	 -51.5517 	 -52.814 	 -73.1856 	 
H 	 -59.1745 	 -54.1587 	 -76.2681 	 
*
