! wB97X-D3 SP def2-SVP
%pal
nprocs 24
end

* xyz 0 1
S 	 -139.884 	 8.80923 	 -1.67722 	 
C 	 -140.765 	 10.1208 	 -2.40853 	 
C 	 -140.914 	 9.81419 	 -3.7616 	 
C 	 -140.48 	 8.44183 	 -4.09638 	 
C 	 -139.904 	 7.77342 	 -3.08464 	 
H 	 -140.652 	 7.92122 	 -5.05647 	 
C 	 -141.517 	 10.6276 	 -4.85185 	 
H 	 -140.79 	 10.7293 	 -5.66666 	 
H 	 -141.855 	 11.6009 	 -4.43468 	 
C 	 -142.779 	 9.97075 	 -5.39572 	 
H 	 -142.5 	 8.98672 	 -5.76618 	 
H 	 -143.41 	 9.82174 	 -4.42718 	 
C 	 -143.492 	 10.6964 	 -6.53286 	 
H 	 -143.013 	 10.5459 	 -7.55601 	 
H 	 -144.532 	 10.5129 	 -6.51493 	 
H 	 -143.439 	 11.7803 	 -6.42835 	 
S 	 -138.3 	 6.16434 	 -4.54754 	 
C 	 -137.996 	 4.53271 	 -3.99478 	 
C 	 -138.672 	 4.26031 	 -2.82923 	 
C 	 -139.422 	 5.35445 	 -2.31895 	 
C 	 -139.381 	 6.44654 	 -3.17129 	 
H 	 -138.544 	 3.28219 	 -2.42549 	 
C 	 -140.255 	 5.34925 	 -1.02487 	 
H 	 -140.991 	 4.50947 	 -1.06037 	 
H 	 -140.901 	 6.23582 	 -0.992258 	 
C 	 -139.4 	 5.1953 	 0.263029 	 
H 	 -138.935 	 6.12905 	 0.48337 	 
H 	 -138.596 	 4.47433 	 0.0863116 	 
C 	 -140.129 	 4.5702 	 1.42171 	 
H 	 -140.831 	 3.81201 	 1.10673 	 
H 	 -140.765 	 5.33227 	 1.8068 	 
H 	 -139.383 	 4.28911 	 2.19496 	 
H 	 -141.13 	 11.0263 	 -2.01254 	 
H 	 -137.47 	 3.77725 	 -4.49621 	 
*
