! wB97X-D3 SP def2-SVP
%pal
nprocs 24
end

* xyz 0 1
S 	 -39.7959 	 -47.8097 	 -73.5534 	 
C 	 -41.2009 	 -46.7711 	 -73.5231 	 
C 	 -40.9364 	 -45.4689 	 -73.215 	 
C 	 -39.5176 	 -45.3053 	 -73.0361 	 
C 	 -38.7859 	 -46.439 	 -73.1169 	 
H 	 -39.0838 	 -44.3277 	 -72.8317 	 
C 	 -41.9072 	 -44.3177 	 -73.0921 	 
H 	 -42.8985 	 -44.7968 	 -73.3328 	 
H 	 -41.5828 	 -43.5706 	 -73.8553 	 
C 	 -41.9713 	 -43.8114 	 -71.6755 	 
H 	 -40.9882 	 -43.4167 	 -71.4122 	 
H 	 -42.6723 	 -42.9707 	 -71.6299 	 
C 	 -42.3374 	 -44.9818 	 -70.7419 	 
H 	 -42.588 	 -44.6924 	 -69.7118 	 
H 	 -43.2354 	 -45.5385 	 -71.1679 	 
H 	 -41.4889 	 -45.7107 	 -70.589 	 
S 	 -37.0643 	 -47.6803 	 -71.6039 	 
C 	 -35.324 	 -47.6047 	 -72.0348 	 
C 	 -35.0543 	 -46.6433 	 -72.9913 	 
C 	 -36.228 	 -46.1217 	 -73.5434 	 
C 	 -37.3786 	 -46.6616 	 -72.9013 	 
H 	 -34.0935 	 -46.4494 	 -73.3034 	 
C 	 -36.3146 	 -45.0993 	 -74.683 	 
H 	 -35.554 	 -44.2846 	 -74.5928 	 
H 	 -37.239 	 -44.5697 	 -74.6306 	 
C 	 -36.3886 	 -45.7635 	 -76.0756 	 
H 	 -35.4573 	 -46.2297 	 -76.3927 	 
H 	 -36.5774 	 -45.0155 	 -76.8846 	 
C 	 -37.4226 	 -46.8895 	 -76.2325 	 
H 	 -37.2573 	 -47.296 	 -77.2803 	 
H 	 -38.4587 	 -46.4304 	 -76.1438 	 
H 	 -37.2532 	 -47.6816 	 -75.5901 	 
H 	 -42.2299 	 -47.1284 	 -73.7841 	 
H 	 -34.4895 	 -48.0741 	 -71.4317 	 
*
