! wB97X-D3 SP def2-SVP
%pal
nprocs 24
end

* xyz 0 1
S 	 -133.419 	 13.5389 	 -14.3383 	 
C 	 -133.399 	 12.017 	 -13.5706 	 
C 	 -132.647 	 11.0991 	 -14.252 	 
C 	 -132.058 	 11.704 	 -15.415 	 
C 	 -132.617 	 12.9009 	 -15.8168 	 
H 	 -131.376 	 11.2432 	 -16.0692 	 
C 	 -132.398 	 9.61035 	 -13.8523 	 
H 	 -131.869 	 9.66198 	 -12.8831 	 
H 	 -131.817 	 9.10351 	 -14.5446 	 
C 	 -133.7 	 8.75828 	 -13.5698 	 
H 	 -134.043 	 9.19775 	 -12.5949 	 
H 	 -134.424 	 8.95357 	 -14.3364 	 
C 	 -133.522 	 7.20841 	 -13.4495 	 
H 	 -133.295 	 6.67076 	 -14.4503 	 
H 	 -132.657 	 6.95019 	 -12.8793 	 
H 	 -134.478 	 6.7966 	 -12.9827 	 
S 	 -131.908 	 15.3895 	 -16.7565 	 
C 	 -131.702 	 15.7148 	 -18.4594 	 
C 	 -132.244 	 14.6344 	 -19.1887 	 
C 	 -132.558 	 13.4615 	 -18.3484 	 
C 	 -132.417 	 13.6994 	 -16.9798 	 
H 	 -132.262 	 14.7922 	 -20.2229 	 
C 	 -133.013 	 12.0569 	 -18.9211 	 
H 	 -133.949 	 12.0664 	 -19.5092 	 
H 	 -133.22 	 11.3875 	 -18.0514 	 
C 	 -132.02 	 11.3137 	 -19.7843 	 
H 	 -131.074 	 11.1928 	 -19.2749 	 
H 	 -131.874 	 11.9872 	 -20.5901 	 
C 	 -132.451 	 9.91871 	 -20.2185 	 
H 	 -131.581 	 9.3079 	 -20.5319 	 
H 	 -133.084 	 9.95643 	 -21.0909 	 
H 	 -132.974 	 9.24702 	 -19.5162 	 
H 	 -133.644 	 11.8471 	 -12.5798 	 
H 	 -131.212 	 16.679 	 -18.7704 	 
*
