! wB97X-D3 SP def2-SVP
%pal
nprocs 24
end

* xyz 0 1
S 	 -102.436 	 -0.0210102 	 -123.268 	 
C 	 -104.003 	 0.81977 	 -123.462 	 
C 	 -104.845 	 0.548419 	 -122.383 	 
C 	 -104.151 	 -0.171732 	 -121.311 	 
C 	 -102.83 	 -0.341799 	 -121.564 	 
H 	 -104.545 	 -0.463805 	 -120.35 	 
C 	 -106.275 	 0.973139 	 -122.406 	 
H 	 -106.539 	 1.61108 	 -123.207 	 
H 	 -106.393 	 1.55319 	 -121.553 	 
C 	 -107.243 	 -0.166458 	 -122.345 	 
H 	 -107.1 	 -0.847688 	 -123.175 	 
H 	 -107.126 	 -0.74334 	 -121.426 	 
C 	 -108.681 	 0.493764 	 -122.323 	 
H 	 -108.997 	 1.05595 	 -123.132 	 
H 	 -109.425 	 -0.215933 	 -122.074 	 
H 	 -108.724 	 1.1105 	 -121.488 	 
S 	 -100.913 	 -2.29402 	 -120.981 	 
C 	 -99.7871 	 -1.93584 	 -119.722 	 
C 	 -100.167 	 -0.865994 	 -118.968 	 
C 	 -101.26 	 -0.191245 	 -119.514 	 
C 	 -101.827 	 -0.80408 	 -120.645 	 
H 	 -99.6929 	 -0.603932 	 -118.011 	 
C 	 -101.661 	 1.10283 	 -118.8 	 
H 	 -101.342 	 0.857977 	 -117.787 	 
H 	 -102.721 	 1.32099 	 -118.857 	 
C 	 -100.844 	 2.23872 	 -119.142 	 
H 	 -99.8348 	 1.98133 	 -118.817 	 
H 	 -101.11 	 3.10246 	 -118.558 	 
C 	 -100.747 	 2.68456 	 -120.614 	 
H 	 -100.302 	 1.82265 	 -121.13 	 
H 	 -100.224 	 3.58621 	 -120.85 	 
H 	 -101.756 	 2.87527 	 -121.051 	 
H 	 -104.341 	 1.317 	 -124.332 	 
H 	 -98.9622 	 -2.57425 	 -119.472 	 
*
