! wB97X-D3 SP def2-SVP
%pal
nprocs 24
end

* xyz 0 1
S 	 -104.315 	 47.7371 	 -83.2452 	 
C 	 -103.079 	 48.744 	 -84.0299 	 
C 	 -103.172 	 48.5451 	 -85.4057 	 
C 	 -104.113 	 47.4957 	 -85.7818 	 
C 	 -104.761 	 46.8625 	 -84.7562 	 
H 	 -104.373 	 47.2007 	 -86.7726 	 
C 	 -102.26 	 49.2633 	 -86.3479 	 
H 	 -102.38 	 50.3452 	 -86.1388 	 
H 	 -102.677 	 49.2073 	 -87.3687 	 
C 	 -100.837 	 48.7591 	 -86.3009 	 
H 	 -100.59 	 48.4207 	 -85.2934 	 
H 	 -100.841 	 47.8723 	 -87.011 	 
C 	 -99.767 	 49.7807 	 -86.6908 	 
H 	 -99.5479 	 50.4724 	 -85.8248 	 
H 	 -98.9173 	 49.1451 	 -86.9123 	 
H 	 -100.108 	 50.418 	 -87.4922 	 
S 	 -107.214 	 45.885 	 -83.8086 	 
C 	 -107.945 	 44.4401 	 -84.5579 	 
C 	 -107.091 	 43.9417 	 -85.5633 	 
C 	 -105.873 	 44.6554 	 -85.6807 	 
C 	 -105.786 	 45.7406 	 -84.8206 	 
H 	 -107.359 	 43.089 	 -86.1352 	 
C 	 -104.842 	 44.2657 	 -86.7215 	 
H 	 -104.006 	 44.93 	 -86.6299 	 
H 	 -105.305 	 44.4606 	 -87.6536 	 
C 	 -104.215 	 42.8796 	 -86.5648 	 
H 	 -103.396 	 42.6985 	 -87.3003 	 
H 	 -104.977 	 42.1161 	 -86.9174 	 
C 	 -103.728 	 42.5083 	 -85.1376 	 
H 	 -104.498 	 42.5271 	 -84.3379 	 
H 	 -102.901 	 43.1876 	 -84.8202 	 
H 	 -103.271 	 41.5621 	 -84.9524 	 
H 	 -102.41 	 49.4115 	 -83.49 	 
H 	 -108.9 	 44.0268 	 -84.31 	 
*
