! wB97X-D3 SP def2-SVP
%pal
nprocs 24
end

* xyz 0 1
S 	 -95.9038 	 46.5154 	 -88.3913 	 
C 	 -95.5202 	 45.2008 	 -87.3604 	 
C 	 -96.4303 	 44.1584 	 -87.6402 	 
C 	 -97.5202 	 44.6667 	 -88.4788 	 
C 	 -97.4211 	 45.9537 	 -88.8881 	 
H 	 -98.3764 	 44.0482 	 -88.9217 	 
C 	 -96.4057 	 42.709 	 -87.1708 	 
H 	 -97.0716 	 42.1112 	 -87.7825 	 
H 	 -96.6994 	 42.699 	 -86.1662 	 
C 	 -95.0817 	 41.9803 	 -87.1827 	 
H 	 -94.409 	 42.5305 	 -86.5118 	 
H 	 -95.1884 	 40.9129 	 -86.8475 	 
C 	 -94.4097 	 41.7526 	 -88.615 	 
H 	 -94.1432 	 40.6612 	 -88.694 	 
H 	 -95.0139 	 42.0026 	 -89.4766 	 
H 	 -93.5613 	 42.4694 	 -88.6741 	 
S 	 -100.082 	 46.5087 	 -89.5527 	 
C 	 -100.386 	 47.7003 	 -90.7913 	 
C 	 -99.2233 	 48.0816 	 -91.4004 	 
C 	 -98.0111 	 47.5036 	 -90.8791 	 
C 	 -98.3431 	 46.6044 	 -89.8574 	 
H 	 -99.2207 	 48.8812 	 -92.1533 	 
C 	 -96.6588 	 47.9597 	 -91.4348 	 
H 	 -95.8926 	 47.7265 	 -90.6729 	 
H 	 -96.6915 	 49.0538 	 -91.3398 	 
C 	 -96.5033 	 47.4459 	 -92.8751 	 
H 	 -96.8518 	 48.2532 	 -93.6373 	 
H 	 -97.027 	 46.5372 	 -92.9866 	 
C 	 -94.9975 	 47.1214 	 -93.1866 	 
H 	 -94.2949 	 47.9764 	 -93.2439 	 
H 	 -95.0417 	 46.8132 	 -94.2273 	 
H 	 -94.6405 	 46.2203 	 -92.5596 	 
H 	 -94.5941 	 45.095 	 -86.8206 	 
H 	 -101.354 	 48.1439 	 -90.9824 	 
*
