! wB97X-D3 SP def2-SVP
%pal
nprocs 24
end

* xyz 0 1
S 	 46.9706 	 -19.165 	 -110.222 	 
C 	 45.5515 	 -18.3726 	 -110.924 	 
C 	 44.3652 	 -18.9514 	 -110.536 	 
C 	 44.5921 	 -19.7606 	 -109.386 	 
C 	 45.8839 	 -19.9827 	 -109.047 	 
H 	 43.7935 	 -20.1972 	 -108.858 	 
C 	 42.9415 	 -18.5634 	 -110.991 	 
H 	 43.1323 	 -17.5843 	 -111.449 	 
H 	 42.3498 	 -18.5515 	 -110.034 	 
C 	 42.22 	 -19.484 	 -112.011 	 
H 	 42.9868 	 -19.8954 	 -112.727 	 
H 	 41.6935 	 -20.4123 	 -111.657 	 
C 	 41.1617 	 -18.5802 	 -112.581 	 
H 	 40.4505 	 -19.1586 	 -113.216 	 
H 	 40.5846 	 -18.0484 	 -111.844 	 
H 	 41.6705 	 -17.7992 	 -113.184 	 
S 	 47.405 	 -22.2092 	 -108.702 	 
C 	 47.2981 	 -23.0675 	 -107.238 	 
C 	 46.6231 	 -22.3966 	 -106.246 	 
C 	 46.0272 	 -21.1847 	 -106.759 	 
C 	 46.3862 	 -20.9193 	 -108.09 	 
H 	 46.4235 	 -22.877 	 -105.296 	 
C 	 45.0937 	 -20.3332 	 -105.912 	 
H 	 44.4888 	 -21.0718 	 -105.449 	 
H 	 44.5151 	 -19.656 	 -106.536 	 
C 	 45.9055 	 -19.6604 	 -104.789 	 
H 	 46.8857 	 -19.4676 	 -105.184 	 
H 	 46.1426 	 -20.2439 	 -103.92 	 
C 	 45.3791 	 -18.2327 	 -104.419 	 
H 	 46.0859 	 -17.6609 	 -103.908 	 
H 	 44.4224 	 -18.1366 	 -103.88 	 
H 	 45.2024 	 -17.6699 	 -105.413 	 
H 	 45.5103 	 -17.5609 	 -111.626 	 
H 	 47.7724 	 -24.018 	 -107.089 	 
*
