! wB97X-D3 SP def2-SVP
%pal
nprocs 24
end

* xyz 0 1
S 	 -75.3509 	 -45.0237 	 -92.9529 	 
C 	 -74.2396 	 -43.8011 	 -93.6296 	 
C 	 -74.3764 	 -43.7031 	 -94.9132 	 
C 	 -75.4133 	 -44.5803 	 -95.4571 	 
C 	 -76.0114 	 -45.3879 	 -94.5073 	 
H 	 -75.6688 	 -44.6935 	 -96.5024 	 
C 	 -73.6433 	 -42.708 	 -95.789 	 
H 	 -72.8557 	 -42.3158 	 -95.1747 	 
H 	 -74.2432 	 -41.8428 	 -96.0424 	 
C 	 -73.0709 	 -43.3648 	 -96.9875 	 
H 	 -72.7939 	 -44.3976 	 -96.7803 	 
H 	 -73.8703 	 -43.6036 	 -97.6593 	 
C 	 -71.9614 	 -42.4795 	 -97.6618 	 
H 	 -71.093 	 -43.14 	 -97.8144 	 
H 	 -72.4312 	 -42.1036 	 -98.5746 	 
H 	 -71.6854 	 -41.6318 	 -97.0527 	 
S 	 -77.1839 	 -47.9117 	 -94.0488 	 
C 	 -78.6325 	 -48.4332 	 -94.92 	 
C 	 -79.1004 	 -47.3443 	 -95.6596 	 
C 	 -78.2435 	 -46.167 	 -95.619 	 
C 	 -77.1676 	 -46.2958 	 -94.7614 	 
H 	 -79.9649 	 -47.4361 	 -96.2717 	 
C 	 -78.5484 	 -44.8653 	 -96.4409 	 
H 	 -79.4326 	 -45.1059 	 -97.0478 	 
H 	 -77.7557 	 -44.6968 	 -97.0858 	 
C 	 -78.8654 	 -43.6857 	 -95.4425 	 
H 	 -78.9459 	 -42.8027 	 -95.9781 	 
H 	 -78.0257 	 -43.5325 	 -94.7638 	 
C 	 -80.2233 	 -43.8218 	 -94.6145 	 
H 	 -80.1192 	 -44.4878 	 -93.7488 	 
H 	 -81.0217 	 -44.2085 	 -95.3497 	 
H 	 -80.5694 	 -42.8625 	 -94.1806 	 
H 	 -73.3223 	 -43.4506 	 -93.1568 	 
H 	 -79.0576 	 -49.4083 	 -94.8133 	 
*
