! wB97X-D3 SP def2-SVP
%pal
nprocs 24
end

* xyz 0 1
S 	 31.0683 	 -30.7073 	 -132.204 	 
C 	 31.6903 	 -29.1014 	 -132.704 	 
C 	 32.4922 	 -28.4554 	 -131.716 	 
C 	 32.6867 	 -29.3394 	 -130.618 	 
C 	 32.0708 	 -30.5859 	 -130.757 	 
H 	 33.2622 	 -29.1525 	 -129.717 	 
C 	 33.1007 	 -27.0871 	 -131.669 	 
H 	 33.3188 	 -26.8589 	 -130.628 	 
H 	 32.3611 	 -26.4096 	 -131.962 	 
C 	 34.2922 	 -26.8346 	 -132.593 	 
H 	 34.9806 	 -27.6338 	 -132.328 	 
H 	 34.0475 	 -27.0761 	 -133.615 	 
C 	 34.9996 	 -25.4259 	 -132.405 	 
H 	 34.1527 	 -24.6853 	 -132.59 	 
H 	 35.3988 	 -25.244 	 -131.447 	 
H 	 35.7813 	 -25.2745 	 -133.106 	 
S 	 31.6688 	 -33.3562 	 -130.407 	 
C 	 32.2385 	 -34.157 	 -128.961 	 
C 	 32.9495 	 -33.2942 	 -128.17 	 
C 	 32.8081 	 -31.8898 	 -128.562 	 
C 	 32.2352 	 -31.743 	 -129.824 	 
H 	 33.4147 	 -33.6064 	 -127.201 	 
C 	 33.3112 	 -30.8122 	 -127.687 	 
H 	 33.2066 	 -31.1607 	 -126.677 	 
H 	 32.6081 	 -30.0633 	 -127.916 	 
C 	 34.7783 	 -30.5076 	 -127.919 	 
H 	 35.0018 	 -30.6216 	 -128.972 	 
H 	 35.407 	 -31.3326 	 -127.548 	 
C 	 35.2226 	 -29.2371 	 -127.283 	 
H 	 36.2097 	 -28.8748 	 -127.471 	 
H 	 35.2078 	 -29.2621 	 -126.211 	 
H 	 34.7344 	 -28.2567 	 -127.466 	 
H 	 31.3638 	 -28.6503 	 -133.577 	 
H 	 32.1598 	 -35.2597 	 -128.748 	 
*
