! wB97X-D3 SP def2-SVP
%pal
nprocs 24
end

* xyz 0 1
S 	 -43.0968 	 13.8671 	 24.1586 	 
C 	 -44.5174 	 14.5786 	 24.9005 	 
C 	 -45.3752 	 15.115 	 23.9136 	 
C 	 -44.753 	 14.935 	 22.6016 	 
C 	 -43.616 	 14.2553 	 22.4938 	 
H 	 -45.1128 	 15.3441 	 21.6763 	 
C 	 -46.7189 	 15.6873 	 24.1311 	 
H 	 -46.9509 	 15.7761 	 25.2132 	 
H 	 -47.3566 	 14.9006 	 23.742 	 
C 	 -47.0211 	 17.0625 	 23.5065 	 
H 	 -46.2909 	 17.7594 	 23.9707 	 
H 	 -46.9483 	 16.9915 	 22.4052 	 
C 	 -48.4963 	 17.3905 	 23.7764 	 
H 	 -48.8161 	 17.4085 	 24.7657 	 
H 	 -48.7634 	 18.2468 	 23.1763 	 
H 	 -49.0002 	 16.4624 	 23.3776 	 
S 	 -41.841 	 12.334 	 21.8225 	 
C 	 -41.306 	 12.1406 	 20.2162 	 
C 	 -41.6648 	 13.2241 	 19.465 	 
C 	 -42.5256 	 14.1578 	 20.0795 	 
C 	 -42.7624 	 13.8128 	 21.3671 	 
H 	 -41.3646 	 13.0921 	 18.3927 	 
C 	 -43.1023 	 15.2966 	 19.3097 	 
H 	 -42.6823 	 16.1684 	 19.8263 	 
H 	 -44.1829 	 15.2625 	 19.4592 	 
C 	 -42.6973 	 15.3673 	 17.8321 	 
H 	 -43.1755 	 14.6283 	 17.2759 	 
H 	 -41.6534 	 15.2412 	 17.6007 	 
C 	 -43.3288 	 16.6176 	 17.1195 	 
H 	 -43.1689 	 16.6435 	 16.0427 	 
H 	 -42.882 	 17.5535 	 17.4777 	 
H 	 -44.4196 	 16.6141 	 17.2726 	 
H 	 -44.6549 	 14.4225 	 25.9323 	 
H 	 -40.8766 	 11.1454 	 19.8443 	 
*
