! wB97X-D3 SP def2-SVP
%pal
nprocs 24
end

* xyz 0 1
S 	 -89.0606 	 -47.3157 	 -82.7999 	 
C 	 -90.3888 	 -47.2537 	 -81.7078 	 
C 	 -90.2329 	 -47.8516 	 -80.4389 	 
C 	 -89.0687 	 -48.684 	 -80.5306 	 
C 	 -88.3195 	 -48.4558 	 -81.6668 	 
H 	 -88.6573 	 -49.385 	 -79.7623 	 
C 	 -91.3263 	 -47.7739 	 -79.3327 	 
H 	 -90.9967 	 -46.9533 	 -78.7196 	 
H 	 -91.3559 	 -48.6056 	 -78.6162 	 
C 	 -92.7567 	 -47.5279 	 -79.8506 	 
H 	 -92.8084 	 -46.5496 	 -80.3157 	 
H 	 -93.0338 	 -48.2953 	 -80.5464 	 
C 	 -93.8041 	 -47.6182 	 -78.6574 	 
H 	 -93.6883 	 -48.588 	 -78.1097 	 
H 	 -93.7401 	 -46.8456 	 -77.9284 	 
H 	 -94.8042 	 -47.5915 	 -79.0794 	 
S 	 -85.6976 	 -48.2599 	 -82.466 	 
C 	 -84.6116 	 -49.6179 	 -82.3825 	 
C 	 -85.3814 	 -50.719 	 -82.1407 	 
C 	 -86.7459 	 -50.4934 	 -81.9573 	 
C 	 -87.0778 	 -49.1563 	 -82.0347 	 
H 	 -84.9773 	 -51.7485 	 -82.0494 	 
C 	 -87.6493 	 -51.7405 	 -81.8673 	 
H 	 -88.4625 	 -51.3987 	 -81.3023 	 
H 	 -87.1813 	 -52.5455 	 -81.3456 	 
C 	 -88.1125 	 -52.2111 	 -83.2369 	 
H 	 -87.2606 	 -52.5834 	 -83.7802 	 
H 	 -88.5085 	 -51.3843 	 -83.75 	 
C 	 -89.2174 	 -53.2682 	 -82.978 	 
H 	 -89.6648 	 -53.6172 	 -83.9745 	 
H 	 -89.9778 	 -52.9209 	 -82.2317 	 
H 	 -88.9071 	 -54.1427 	 -82.3479 	 
H 	 -91.2551 	 -46.6711 	 -81.9781 	 
H 	 -83.5717 	 -49.6889 	 -82.7641 	 
*
