! wB97X-D3 SP def2-SVP
%pal
nprocs 24
end

* xyz 0 1
S 	 -101.579 	 4.32586 	 -119.893 	 
C 	 -102.83 	 3.2884 	 -120.665 	 
C 	 -102.272 	 2.14859 	 -121.2 	 
C 	 -100.876 	 2.07823 	 -120.934 	 
C 	 -100.348 	 3.13502 	 -120.235 	 
H 	 -100.112 	 1.31583 	 -121.167 	 
C 	 -103.038 	 1.14179 	 -122.042 	 
H 	 -103.958 	 1.62504 	 -122.369 	 
H 	 -103.351 	 0.402145 	 -121.251 	 
C 	 -102.42 	 0.362014 	 -123.226 	 
H 	 -102.624 	 0.823428 	 -124.164 	 
H 	 -101.328 	 0.316541 	 -123.157 	 
C 	 -102.835 	 -1.10549 	 -123.314 	 
H 	 -102.824 	 -1.45958 	 -122.346 	 
H 	 -103.824 	 -1.32205 	 -123.76 	 
H 	 -102.077 	 -1.6524 	 -123.82 	 
S 	 -98.7691 	 4.42796 	 -118.435 	 
C 	 -97.0666 	 4.101 	 -118.219 	 
C 	 -96.641 	 3.14451 	 -119.096 	 
C 	 -97.7678 	 2.66714 	 -119.912 	 
C 	 -98.9523 	 3.37933 	 -119.792 	 
H 	 -95.6488 	 2.77498 	 -119.159 	 
C 	 -97.474 	 1.53614 	 -120.912 	 
H 	 -97.3635 	 1.94252 	 -121.932 	 
H 	 -98.2727 	 0.837067 	 -120.945 	 
C 	 -96.2001 	 0.703029 	 -120.653 	 
H 	 -96.2219 	 0.332811 	 -119.623 	 
H 	 -95.3874 	 1.37847 	 -120.762 	 
C 	 -96.0156 	 -0.394855 	 -121.638 	 
H 	 -96.7668 	 -1.18609 	 -121.615 	 
H 	 -95.116 	 -0.910687 	 -121.391 	 
H 	 -95.8967 	 -0.0518717 	 -122.676 	 
H 	 -103.815 	 3.54643 	 -120.89 	 
H 	 -96.4304 	 4.50422 	 -117.426 	 
*
