! wB97X-D3 SP def2-SVP
%pal
nprocs 24
end

* xyz 0 1
S 	 -58.2879 	 11.094 	 -94.3576 	 
C 	 -57.1961 	 10.1374 	 -95.2772 	 
C 	 -56.1823 	 10.875 	 -95.8981 	 
C 	 -56.375 	 12.2835 	 -95.632 	 
C 	 -57.6335 	 12.5786 	 -94.9866 	 
H 	 -55.6497 	 12.9676 	 -96.0231 	 
C 	 -55.1281 	 10.3309 	 -96.7582 	 
H 	 -55.5514 	 9.94537 	 -97.6334 	 
H 	 -54.6514 	 9.50012 	 -96.2245 	 
C 	 -54.0431 	 11.2321 	 -97.249 	 
H 	 -54.579 	 12.076 	 -97.6827 	 
H 	 -53.4769 	 11.6511 	 -96.4074 	 
C 	 -53.1011 	 10.6669 	 -98.3956 	 
H 	 -52.3038 	 11.3639 	 -98.6184 	 
H 	 -52.6632 	 9.76234 	 -97.9854 	 
H 	 -53.6802 	 10.4401 	 -99.318 	 
S 	 -59.8813 	 14.181 	 -94.6378 	 
C 	 -59.6902 	 15.816 	 -94.1098 	 
C 	 -58.4065 	 16.2196 	 -94.2441 	 
C 	 -57.5088 	 15.1391 	 -94.4476 	 
C 	 -58.1554 	 13.8928 	 -94.6231 	 
H 	 -58.2462 	 17.2044 	 -93.9975 	 
C 	 -56.0259 	 15.3591 	 -94.2825 	 
H 	 -55.6406 	 15.9585 	 -95.1815 	 
H 	 -55.6404 	 14.3945 	 -94.4972 	 
C 	 -55.6391 	 15.99 	 -92.9056 	 
H 	 -56.1403 	 15.3313 	 -92.2474 	 
H 	 -55.9279 	 17.03 	 -92.799 	 
C 	 -54.1479 	 15.813 	 -92.6534 	 
H 	 -53.5907 	 16.3497 	 -93.4838 	 
H 	 -53.8134 	 14.7777 	 -92.6546 	 
H 	 -53.7915 	 16.1871 	 -91.7547 	 
H 	 -57.3026 	 9.04462 	 -95.248 	 
H 	 -60.5377 	 16.4725 	 -93.9203 	 
*
