! wB97X-D3 SP def2-SVP
%pal
nprocs 24
end

* xyz 0 1
S 	 -120.38 	 52.4485 	 -31.0353 	 
C 	 -120.027 	 51.267 	 -32.3266 	 
C 	 -119.303 	 51.792 	 -33.3379 	 
C 	 -118.884 	 53.0993 	 -33.0054 	 
C 	 -119.253 	 53.5865 	 -31.7549 	 
H 	 -118.419 	 53.7665 	 -33.7741 	 
C 	 -118.83 	 51.0398 	 -34.529 	 
H 	 -119.637 	 50.2824 	 -34.7112 	 
H 	 -117.893 	 50.5665 	 -34.2903 	 
C 	 -118.686 	 51.9135 	 -35.7626 	 
H 	 -119.511 	 52.5885 	 -35.726 	 
H 	 -117.74 	 52.5215 	 -35.6046 	 
C 	 -118.499 	 51.0624 	 -37.033 	 
H 	 -118.108 	 51.6316 	 -37.8023 	 
H 	 -117.755 	 50.2789 	 -36.8737 	 
H 	 -119.407 	 50.5636 	 -37.3358 	 
S 	 -117.358 	 55.5152 	 -31.7245 	 
C 	 -117.657 	 57.073 	 -31.0331 	 
C 	 -118.814 	 57.011 	 -30.3048 	 
C 	 -119.51 	 55.7683 	 -30.415 	 
C 	 -118.921 	 54.8664 	 -31.2173 	 
H 	 -119.198 	 57.8618 	 -29.6553 	 
C 	 -120.841 	 55.5987 	 -29.7144 	 
H 	 -120.509 	 55.1589 	 -28.796 	 
H 	 -121.349 	 54.7615 	 -30.1962 	 
C 	 -121.803 	 56.8916 	 -29.6224 	 
H 	 -122.053 	 57.1788 	 -30.588 	 
H 	 -121.25 	 57.687 	 -29.2604 	 
C 	 -122.961 	 56.8931 	 -28.7155 	 
H 	 -123.443 	 57.8656 	 -28.6114 	 
H 	 -122.584 	 56.6166 	 -27.7109 	 
H 	 -123.69 	 56.1404 	 -28.9906 	 
H 	 -120.382 	 50.2349 	 -32.2653 	 
H 	 -117.022 	 57.8932 	 -31.0752 	 
*
