! wB97X-D3 SP def2-SVP
%pal
nprocs 24
end

* xyz 0 1
S 	 -117.716 	 55.9125 	 -39.4086 	 
C 	 -117.034 	 54.9712 	 -40.7399 	 
C 	 -116.07 	 55.7174 	 -41.4099 	 
C 	 -115.919 	 57.0524 	 -40.9053 	 
C 	 -116.726 	 57.3496 	 -39.8645 	 
H 	 -115.184 	 57.8139 	 -41.1928 	 
C 	 -115.041 	 55.0321 	 -42.4044 	 
H 	 -115.368 	 55.2707 	 -43.3667 	 
H 	 -115.139 	 54.0058 	 -42.2553 	 
C 	 -113.49 	 55.3207 	 -42.1145 	 
H 	 -112.831 	 54.9424 	 -42.8981 	 
H 	 -113.224 	 56.418 	 -42.286 	 
C 	 -113.096 	 55.0099 	 -40.6538 	 
H 	 -112.067 	 55.1046 	 -40.5061 	 
H 	 -113.7 	 55.5689 	 -40.0048 	 
H 	 -113.337 	 53.9495 	 -40.5149 	 
S 	 -117.839 	 59.817 	 -39.6103 	 
C 	 -117.611 	 60.7438 	 -38.1601 	 
C 	 -116.913 	 60.0673 	 -37.1904 	 
C 	 -116.391 	 58.8469 	 -37.7434 	 
C 	 -116.81 	 58.5802 	 -39.0489 	 
H 	 -116.806 	 60.5146 	 -36.1555 	 
C 	 -115.571 	 57.9251 	 -36.8288 	 
H 	 -116.113 	 56.9227 	 -36.7898 	 
H 	 -115.47 	 58.3402 	 -35.8728 	 
C 	 -114.226 	 57.7502 	 -37.4775 	 
H 	 -113.732 	 58.6778 	 -37.6521 	 
H 	 -114.341 	 57.2548 	 -38.3957 	 
C 	 -113.314 	 56.8158 	 -36.6878 	 
H 	 -113.865 	 55.9298 	 -36.3523 	 
H 	 -113.109 	 57.4337 	 -35.7444 	 
H 	 -112.244 	 56.6748 	 -37.0745 	 
H 	 -117.299 	 53.9023 	 -40.9134 	 
H 	 -118.255 	 61.5701 	 -37.8603 	 
*
