! wB97X-D3 SP def2-SVP
%pal
nprocs 24
end

* xyz 0 1
S 	 -95.6516 	 53.8978 	 -98.1008 	 
C 	 -94.343 	 54.7564 	 -97.3959 	 
C 	 -93.1837 	 54.0153 	 -97.4625 	 
C 	 -93.4162 	 52.7805 	 -98.137 	 
C 	 -94.7027 	 52.6754 	 -98.7483 	 
H 	 -92.6985 	 51.9972 	 -98.3545 	 
C 	 -91.8659 	 54.3573 	 -96.889 	 
H 	 -91.6937 	 53.7663 	 -95.9559 	 
H 	 -91.9209 	 55.3897 	 -96.4986 	 
C 	 -90.6882 	 54.3698 	 -97.8629 	 
H 	 -90.5227 	 53.4436 	 -98.2969 	 
H 	 -90.8043 	 55.0005 	 -98.7229 	 
C 	 -89.3713 	 54.9057 	 -97.287 	 
H 	 -89.4036 	 55.9673 	 -97.2133 	 
H 	 -89.2186 	 54.5434 	 -96.2583 	 
H 	 -88.5053 	 54.5445 	 -97.853 	 
S 	 -94.1961 	 51.5735 	 -101.21 	 
C 	 -95.1682 	 50.1297 	 -101.649 	 
C 	 -96.2359 	 49.8979 	 -100.775 	 
C 	 -96.228 	 50.8276 	 -99.6926 	 
C 	 -95.1291 	 51.7232 	 -99.7306 	 
H 	 -97.0037 	 49.1203 	 -100.881 	 
C 	 -97.2133 	 50.7775 	 -98.5103 	 
H 	 -96.827 	 51.4394 	 -97.7752 	 
H 	 -97.2354 	 49.816 	 -98.0102 	 
C 	 -98.6913 	 51.1136 	 -98.7572 	 
H 	 -99.045 	 50.8986 	 -99.7406 	 
H 	 -98.813 	 52.1622 	 -98.7839 	 
C 	 -99.6545 	 50.4901 	 -97.759 	 
H 	 -99.6697 	 49.3608 	 -97.6484 	 
H 	 -100.708 	 50.8237 	 -97.8975 	 
H 	 -99.4671 	 50.8685 	 -96.7878 	 
H 	 -94.5648 	 55.7513 	 -97.0754 	 
H 	 -94.9646 	 49.5274 	 -102.503 	 
*
