! wB97X-D3 SP def2-SVP
%pal
nprocs 24
end

* xyz 0 1
S 	 -35.0813 	 -42.5305 	 -81.3533 	 
C 	 -36.3638 	 -41.8802 	 -80.4124 	 
C 	 -36.037 	 -40.568 	 -80.0531 	 
C 	 -34.8871 	 -40.1103 	 -80.7222 	 
C 	 -34.3775 	 -41.0433 	 -81.6154 	 
H 	 -34.3537 	 -39.1489 	 -80.5459 	 
C 	 -36.6993 	 -39.7398 	 -78.9505 	 
H 	 -36.0593 	 -39.5171 	 -78.0727 	 
H 	 -37.3859 	 -40.4308 	 -78.5407 	 
C 	 -37.4151 	 -38.4987 	 -79.4924 	 
H 	 -36.6341 	 -37.7193 	 -79.6608 	 
H 	 -37.904 	 -38.5678 	 -80.4295 	 
C 	 -38.4709 	 -38.0772 	 -78.3914 	 
H 	 -38.1002 	 -38.3474 	 -77.4016 	 
H 	 -38.6048 	 -36.968 	 -78.4671 	 
H 	 -39.4135 	 -38.5883 	 -78.487 	 
S 	 -31.958 	 -42.1489 	 -82.1548 	 
C 	 -30.8188 	 -41.3959 	 -83.3028 	 
C 	 -31.3877 	 -40.2909 	 -83.7921 	 
C 	 -32.7399 	 -39.988 	 -83.3881 	 
C 	 -33.2001 	 -40.9155 	 -82.4507 	 
H 	 -30.8256 	 -39.7361 	 -84.6069 	 
C 	 -33.5472 	 -38.9186 	 -84.0736 	 
H 	 -34.3006 	 -38.7272 	 -83.3656 	 
H 	 -34.1059 	 -39.5309 	 -84.8599 	 
C 	 -32.8905 	 -37.6193 	 -84.5599 	 
H 	 -32.0017 	 -37.8128 	 -85.1872 	 
H 	 -32.461 	 -37.1327 	 -83.7389 	 
C 	 -33.8548 	 -36.8056 	 -85.4556 	 
H 	 -34.1473 	 -37.3508 	 -86.3316 	 
H 	 -33.2502 	 -35.8851 	 -85.7249 	 
H 	 -34.7317 	 -36.5373 	 -84.926 	 
H 	 -37.2127 	 -42.3699 	 -80.0411 	 
H 	 -29.7893 	 -41.6404 	 -83.5258 	 
*
