! wB97X-D3 SP def2-SVP
%pal
nprocs 24
end

* xyz 0 1
S 	 -69.5116 	 16.2088 	 -77.106 	 
C 	 -67.8115 	 16.224 	 -77.4923 	 
C 	 -67.025 	 15.4019 	 -76.714 	 
C 	 -67.8179 	 14.633 	 -75.811 	 
C 	 -69.1702 	 14.9694 	 -75.9507 	 
H 	 -67.495 	 13.8602 	 -75.1424 	 
C 	 -65.4899 	 15.3385 	 -76.7603 	 
H 	 -65.2157 	 14.8742 	 -77.6787 	 
H 	 -65.1359 	 14.6386 	 -76.0017 	 
C 	 -64.7886 	 16.6372 	 -76.3906 	 
H 	 -63.7372 	 16.6368 	 -76.6983 	 
H 	 -65.1856 	 17.4015 	 -76.9454 	 
C 	 -64.8826 	 17.0965 	 -74.9494 	 
H 	 -64.5914 	 16.255 	 -74.3369 	 
H 	 -64.2319 	 17.9903 	 -74.7054 	 
H 	 -65.9463 	 17.455 	 -74.778 	 
S 	 -71.8491 	 14.2402 	 -75.6384 	 
C 	 -72.416 	 13.7057 	 -74.1253 	 
C 	 -71.3715 	 13.5524 	 -73.2349 	 
C 	 -70.1041 	 13.9967 	 -73.7289 	 
C 	 -70.1858 	 14.3995 	 -75.055 	 
H 	 -71.5125 	 13.2176 	 -72.2816 	 
C 	 -68.9157 	 14.17 	 -72.7779 	 
H 	 -68.0673 	 13.5168 	 -73.0623 	 
H 	 -69.2548 	 13.8587 	 -71.7928 	 
C 	 -68.4841 	 15.6092 	 -72.6128 	 
H 	 -69.1404 	 16.0873 	 -71.881 	 
H 	 -68.5839 	 16.1403 	 -73.5864 	 
C 	 -67.1099 	 15.8693 	 -72.0241 	 
H 	 -67.1569 	 15.7025 	 -70.9781 	 
H 	 -66.7973 	 16.9645 	 -72.1389 	 
H 	 -66.3271 	 15.2387 	 -72.4725 	 
H 	 -67.3364 	 16.8288 	 -78.2584 	 
H 	 -73.4735 	 13.4526 	 -73.8808 	 
*
