! wB97X-D3 SP def2-SVP
%pal
nprocs 24
end

* xyz 0 1
S 	 -48.0303 	 25.6576 	 28.5625 	 
C 	 -47.1939 	 27.1822 	 28.1574 	 
C 	 -45.8406 	 26.9645 	 28.0152 	 
C 	 -45.4348 	 25.623 	 28.2798 	 
C 	 -46.4803 	 24.8496 	 28.7006 	 
H 	 -44.4228 	 25.2484 	 28.3809 	 
C 	 -44.737 	 28.0336 	 27.9088 	 
H 	 -43.7496 	 27.5974 	 27.7134 	 
H 	 -44.7082 	 28.4523 	 28.8456 	 
C 	 -44.938 	 29.1664 	 26.8247 	 
H 	 -45.0977 	 28.7062 	 25.8095 	 
H 	 -45.8454 	 29.7299 	 27.1353 	 
C 	 -43.7471 	 30.065 	 26.7569 	 
H 	 -42.8985 	 29.4927 	 26.571 	 
H 	 -43.8347 	 30.7632 	 25.9675 	 
H 	 -43.6177 	 30.6116 	 27.6491 	 
S 	 -47.5136 	 22.3284 	 28.1508 	 
C 	 -46.9427 	 20.9423 	 28.835 	 
C 	 -45.8494 	 21.0723 	 29.5965 	 
C 	 -45.5305 	 22.514 	 29.7736 	 
C 	 -46.3774 	 23.3777 	 28.972 	 
H 	 -45.3795 	 20.2652 	 30.1082 	 
C 	 -44.2724 	 22.9191 	 30.5433 	 
H 	 -44.2017 	 23.9375 	 30.4494 	 
H 	 -43.4677 	 22.4053 	 30.2034 	 
C 	 -44.5001 	 22.7115 	 32.0386 	 
H 	 -43.573 	 22.9187 	 32.4693 	 
H 	 -44.4626 	 21.6183 	 32.2793 	 
C 	 -45.6868 	 23.6061 	 32.6176 	 
H 	 -46.4941 	 23.0761 	 32.4994 	 
H 	 -45.7415 	 24.5024 	 32.0279 	 
H 	 -45.5333 	 23.6864 	 33.7119 	 
H 	 -47.6931 	 28.1035 	 27.9859 	 
H 	 -47.3211 	 19.9828 	 28.6458 	 
*
