! wB97X-D3 SP def2-SVP
%pal
nprocs 24
end

* xyz 0 1
S 	 38.096 	 -2.57521 	 -121.741 	 
C 	 37.8857 	 -4.29002 	 -122.036 	 
C 	 38.5472 	 -5.05209 	 -121.129 	 
C 	 39.2061 	 -4.30585 	 -120.146 	 
C 	 39.1626 	 -2.88281 	 -120.362 	 
H 	 39.7415 	 -4.72492 	 -119.325 	 
C 	 38.6004 	 -6.53722 	 -121.182 	 
H 	 37.567 	 -6.84604 	 -121.179 	 
H 	 39.0934 	 -7.0035 	 -120.359 	 
C 	 39.2775 	 -7.12929 	 -122.397 	 
H 	 38.605 	 -6.78194 	 -123.259 	 
H 	 40.2653 	 -6.67578 	 -122.594 	 
C 	 39.4152 	 -8.66466 	 -122.388 	 
H 	 39.7883 	 -9.09332 	 -123.249 	 
H 	 40.0309 	 -8.97851 	 -121.56 	 
H 	 38.4162 	 -9.10661 	 -122.228 	 
S 	 41.2338 	 -1.19768 	 -120.759 	 
C 	 41.6914 	 -0.114438 	 -119.469 	 
C 	 41.0707 	 -0.515743 	 -118.245 	 
C 	 40.1279 	 -1.61746 	 -118.4 	 
C 	 39.9721 	 -1.93024 	 -119.732 	 
H 	 41.3695 	 -0.105069 	 -117.246 	 
C 	 39.3176 	 -2.23138 	 -117.277 	 
H 	 38.735 	 -3.01813 	 -117.779 	 
H 	 38.5474 	 -1.4014 	 -117.109 	 
C 	 39.9462 	 -2.97583 	 -116.133 	 
H 	 40.8194 	 -2.36762 	 -115.818 	 
H 	 40.4301 	 -3.8634 	 -116.466 	 
C 	 38.8672 	 -3.21614 	 -115.023 	 
H 	 39.1397 	 -4.23544 	 -114.7 	 
H 	 37.8147 	 -3.0794 	 -115.54 	 
H 	 38.9622 	 -2.54285 	 -114.093 	 
H 	 37.2382 	 -4.68052 	 -122.841 	 
H 	 42.4764 	 0.604415 	 -119.445 	 
*
