! wB97X-D3 SP def2-SVP
%pal
nprocs 24
end

* xyz 0 1
S 	 39.4759 	 -2.01592 	 -120.107 	 
C 	 40.5098 	 -3.26695 	 -119.282 	 
C 	 39.8441 	 -3.75709 	 -118.156 	 
C 	 38.5489 	 -3.18965 	 -117.999 	 
C 	 38.0728 	 -2.36471 	 -118.986 	 
H 	 37.8572 	 -3.51408 	 -117.153 	 
C 	 40.5189 	 -4.54658 	 -117.155 	 
H 	 40.6195 	 -3.9186 	 -116.294 	 
H 	 41.5591 	 -4.76527 	 -117.307 	 
C 	 39.7693 	 -5.83803 	 -116.819 	 
H 	 38.7038 	 -5.68683 	 -116.761 	 
H 	 39.8981 	 -6.55836 	 -117.618 	 
C 	 40.2513 	 -6.46621 	 -115.501 	 
H 	 39.603 	 -7.3417 	 -115.24 	 
H 	 41.2488 	 -6.89786 	 -115.609 	 
H 	 40.2921 	 -5.67938 	 -114.705 	 
S 	 37.0638 	 0.0174415 	 -119.552 	 
C 	 35.4118 	 0.404884 	 -119.061 	 
C 	 34.7173 	 -0.731828 	 -118.639 	 
C 	 35.5326 	 -1.88482 	 -118.703 	 
C 	 36.8189 	 -1.62733 	 -119.109 	 
H 	 33.6306 	 -0.705122 	 -118.433 	 
C 	 34.98 	 -3.19072 	 -118.12 	 
H 	 35.6867 	 -3.94188 	 -118.452 	 
H 	 33.9885 	 -3.34607 	 -118.563 	 
C 	 34.8002 	 -3.20233 	 -116.594 	 
H 	 34.1282 	 -2.4421 	 -116.297 	 
H 	 35.7482 	 -2.87493 	 -116.283 	 
C 	 34.914 	 -4.60209 	 -115.898 	 
H 	 33.9818 	 -5.21833 	 -116.005 	 
H 	 35.1956 	 -4.47117 	 -114.785 	 
H 	 35.6509 	 -5.32868 	 -116.353 	 
H 	 41.4733 	 -3.43277 	 -119.691 	 
H 	 34.9208 	 1.37739 	 -119.115 	 
*
