! wB97X-D3 SP def2-SVP
%pal
nprocs 24
end

* xyz 0 1
S 	 -117.499 	 16.3989 	 -111.558 	 
C 	 -116.34 	 17.5694 	 -111.992 	 
C 	 -115.292 	 16.963 	 -112.685 	 
C 	 -115.454 	 15.5148 	 -112.892 	 
C 	 -116.689 	 15.1256 	 -112.368 	 
H 	 -114.751 	 14.8237 	 -113.349 	 
C 	 -114.082 	 17.665 	 -113.225 	 
H 	 -114.551 	 18.3825 	 -113.95 	 
H 	 -113.6 	 16.9431 	 -113.908 	 
C 	 -113.152 	 18.4282 	 -112.337 	 
H 	 -113.715 	 19.0885 	 -111.671 	 
H 	 -112.717 	 17.7483 	 -111.688 	 
C 	 -112.024 	 19.1525 	 -113.046 	 
H 	 -111.335 	 19.662 	 -112.345 	 
H 	 -111.349 	 18.4354 	 -113.555 	 
H 	 -112.39 	 19.7844 	 -113.886 	 
S 	 -117.375 	 13.1537 	 -110.63 	 
C 	 -118.052 	 11.647 	 -111.252 	 
C 	 -117.894 	 11.5551 	 -112.598 	 
C 	 -117.305 	 12.6894 	 -113.219 	 
C 	 -117.168 	 13.7334 	 -112.275 	 
H 	 -118.345 	 10.657 	 -113.035 	 
C 	 -117.078 	 12.75 	 -114.734 	 
H 	 -117.345 	 11.7191 	 -115.138 	 
H 	 -116.039 	 12.9315 	 -114.93 	 
C 	 -118.002 	 13.7352 	 -115.45 	 
H 	 -118.175 	 14.6976 	 -114.955 	 
H 	 -118.983 	 13.2603 	 -115.653 	 
C 	 -117.355 	 14.0651 	 -116.798 	 
H 	 -117.938 	 14.8105 	 -117.265 	 
H 	 -117.349 	 13.1919 	 -117.471 	 
H 	 -116.472 	 14.5883 	 -116.659 	 
H 	 -116.286 	 18.5606 	 -111.65 	 
H 	 -118.378 	 10.7737 	 -110.613 	 
*
