! wB97X-D3 SP def2-SVP
%pal
nprocs 24
end

* xyz 0 1
S 	 -54.5842 	 18.9365 	 24.6061 	 
C 	 -54.8155 	 17.6293 	 25.7385 	 
C 	 -55.9524 	 17.8151 	 26.4475 	 
C 	 -56.6412 	 19.0703 	 26.1811 	 
C 	 -55.9881 	 19.8444 	 25.1628 	 
H 	 -57.4473 	 19.4237 	 26.6797 	 
C 	 -56.6089 	 16.7457 	 27.3048 	 
H 	 -56.9613 	 17.183 	 28.1792 	 
H 	 -55.7964 	 16.1111 	 27.619 	 
C 	 -57.6776 	 16.0328 	 26.5719 	 
H 	 -58.4916 	 16.7235 	 26.2288 	 
H 	 -57.255 	 15.5166 	 25.7106 	 
C 	 -58.2971 	 15.0242 	 27.522 	 
H 	 -58.8855 	 14.3129 	 26.9857 	 
H 	 -57.5921 	 14.4379 	 28.0437 	 
H 	 -58.9756 	 15.407 	 28.249 	 
S 	 -55.0956 	 22.4337 	 24.7805 	 
C 	 -56.2147 	 23.6313 	 24.1786 	 
C 	 -57.2981 	 23.0335 	 23.6486 	 
C 	 -57.3511 	 21.6356 	 23.9042 	 
C 	 -56.2769 	 21.1843 	 24.7081 	 
H 	 -58.0448 	 23.6019 	 23.1388 	 
C 	 -58.3982 	 20.7687 	 23.3165 	 
H 	 -59.3855 	 21.2886 	 23.4916 	 
H 	 -58.4903 	 19.884 	 23.9305 	 
C 	 -58.2154 	 20.1868 	 21.8384 	 
H 	 -58.1365 	 20.9966 	 21.145 	 
H 	 -59.1775 	 19.6829 	 21.5965 	 
C 	 -56.9987 	 19.134 	 21.7979 	 
H 	 -56.982 	 18.4107 	 20.9733 	 
H 	 -57.0163 	 18.5335 	 22.7328 	 
H 	 -56.0432 	 19.6468 	 21.7407 	 
H 	 -54.4791 	 16.5434 	 25.6378 	 
H 	 -55.9381 	 24.6046 	 23.9615 	 
*
