! wB97X-D3 SP def2-SVP
%pal
nprocs 24
end

* xyz 0 1
S 	 -96.8581 	 11.1635 	 -113.758 	 
C 	 -97.1855 	 12.8866 	 -113.352 	 
C 	 -97.7503 	 13.5424 	 -114.452 	 
C 	 -98.1952 	 12.5777 	 -115.383 	 
C 	 -97.8142 	 11.259 	 -115.195 	 
H 	 -98.7321 	 12.8433 	 -116.305 	 
C 	 -97.916 	 15.0571 	 -114.618 	 
H 	 -98.5601 	 15.3559 	 -113.773 	 
H 	 -98.3491 	 15.2591 	 -115.585 	 
C 	 -96.5162 	 15.6818 	 -114.559 	 
H 	 -96.6252 	 16.7492 	 -114.539 	 
H 	 -95.9196 	 15.4155 	 -113.661 	 
C 	 -95.7394 	 15.3232 	 -115.868 	 
H 	 -96.2463 	 15.7227 	 -116.755 	 
H 	 -94.7038 	 15.6179 	 -115.888 	 
H 	 -95.6604 	 14.2576 	 -116.049 	 
S 	 -99.3287 	 8.93773 	 -115.22 	 
C 	 -99.2029 	 7.8898 	 -116.62 	 
C 	 -98.307 	 8.37343 	 -117.548 	 
C 	 -97.63 	 9.52118 	 -117.134 	 
C 	 -98.1065 	 10.0344 	 -115.922 	 
H 	 -98.2393 	 7.71851 	 -118.313 	 
C 	 -96.5983 	 10.161 	 -117.96 	 
H 	 -96.0887 	 9.54385 	 -118.665 	 
H 	 -95.8141 	 10.6309 	 -117.39 	 
C 	 -97.2356 	 11.1606 	 -118.885 	 
H 	 -97.8682 	 11.7188 	 -118.222 	 
H 	 -97.9136 	 10.6868 	 -119.564 	 
C 	 -96.2939 	 12.0171 	 -119.733 	 
H 	 -95.4964 	 11.443 	 -120.203 	 
H 	 -95.7645 	 12.5158 	 -118.985 	 
H 	 -96.7489 	 12.5929 	 -120.48 	 
H 	 -96.9687 	 13.4303 	 -112.502 	 
H 	 -99.9617 	 7.07896 	 -116.765 	 
*
