! wB97X-D3 SP def2-SVP
%pal
nprocs 24
end

* xyz 0 1
S 	 -126.478 	 69.1972 	 -61.8669 	 
C 	 -126.194 	 70.4463 	 -60.7502 	 
C 	 -127.311 	 71.2017 	 -60.5237 	 
C 	 -128.48 	 70.7016 	 -61.243 	 
C 	 -128.124 	 69.6945 	 -62.1006 	 
H 	 -129.475 	 71.111 	 -61.2321 	 
C 	 -127.363 	 72.2643 	 -59.3945 	 
H 	 -126.512 	 72.0167 	 -58.7896 	 
H 	 -128.283 	 72.2248 	 -58.8554 	 
C 	 -127.338 	 73.7207 	 -59.8961 	 
H 	 -128.154 	 73.9169 	 -60.661 	 
H 	 -127.633 	 74.4387 	 -59.1278 	 
C 	 -126.063 	 74.0496 	 -60.6883 	 
H 	 -126.273 	 73.8045 	 -61.7776 	 
H 	 -125.871 	 75.0784 	 -60.52 	 
H 	 -125.17 	 73.4615 	 -60.3254 	 
S 	 -130.262 	 68.0167 	 -62.5124 	 
C 	 -130.957 	 67.7844 	 -64.0468 	 
C 	 -130.317 	 68.4943 	 -64.9655 	 
C 	 -129.189 	 69.2702 	 -64.4907 	 
C 	 -129.022 	 69.0915 	 -63.1183 	 
H 	 -130.666 	 68.4368 	 -65.9743 	 
C 	 -128.398 	 70.1855 	 -65.3002 	 
H 	 -127.528 	 70.5497 	 -64.7506 	 
H 	 -128.987 	 71.0515 	 -65.477 	 
C 	 -127.772 	 69.5808 	 -66.5254 	 
H 	 -127.424 	 70.4284 	 -67.2018 	 
H 	 -128.496 	 69.2109 	 -67.1828 	 
C 	 -126.645 	 68.6222 	 -66.4093 	 
H 	 -127.006 	 67.6503 	 -66.0806 	 
H 	 -125.898 	 68.9889 	 -65.7062 	 
H 	 -126.212 	 68.4119 	 -67.4659 	 
H 	 -125.24 	 70.5118 	 -60.2024 	 
H 	 -131.893 	 67.3126 	 -64.0909 	 
*
