! wB97X-D3 SP def2-SVP
%pal
nprocs 24
end

* xyz 0 1
S 	 -77.0846 	 -4.93314 	 6.6389 	 
C 	 -75.3966 	 -4.58478 	 6.55344 	 
C 	 -74.7592 	 -5.28569 	 5.57338 	 
C 	 -75.6533 	 -6.08004 	 4.78685 	 
C 	 -76.9641 	 -5.94854 	 5.2233 	 
H 	 -75.5147 	 -6.79524 	 3.98587 	 
C 	 -73.2038 	 -5.27483 	 5.32077 	 
H 	 -72.7592 	 -4.27658 	 5.19229 	 
H 	 -72.9745 	 -5.84138 	 4.3657 	 
C 	 -72.4 	 -5.97001 	 6.39668 	 
H 	 -71.38 	 -6.05898 	 6.09233 	 
H 	 -72.4982 	 -5.37279 	 7.28774 	 
C 	 -72.9044 	 -7.38931 	 6.80387 	 
H 	 -74.0082 	 -7.60642 	 6.72074 	 
H 	 -72.4333 	 -8.10659 	 6.08617 	 
H 	 -72.5179 	 -7.62289 	 7.83224 	 
S 	 -79.4008 	 -5.40087 	 4.27817 	 
C 	 -80.4213 	 -6.76243 	 3.85781 	 
C 	 -79.8303 	 -7.97357 	 4.02173 	 
C 	 -78.4833 	 -7.91136 	 4.40846 	 
C 	 -78.1533 	 -6.54443 	 4.7134 	 
H 	 -80.3622 	 -8.85101 	 3.83187 	 
C 	 -77.6093 	 -9.05766 	 4.62313 	 
H 	 -77.8164 	 -9.22183 	 5.62249 	 
H 	 -76.5915 	 -8.76011 	 4.51462 	 
C 	 -77.8385 	 -10.3854 	 3.77509 	 
H 	 -77.4619 	 -10.2448 	 2.74409 	 
H 	 -78.8676 	 -10.726 	 3.79558 	 
C 	 -76.9634 	 -11.5223 	 4.37618 	 
H 	 -77.0945 	 -11.4929 	 5.4824 	 
H 	 -75.9001 	 -11.4284 	 4.08922 	 
H 	 -77.3302 	 -12.5248 	 4.1402 	 
H 	 -74.9145 	 -3.97174 	 7.28074 	 
H 	 -81.4671 	 -6.63088 	 3.5544 	 
*
