! wB97X-D3 SP def2-SVP
%pal
nprocs 24
end

* xyz 0 1
S 	 -99.455 	 -23.0696 	 -64.2406 	 
C 	 -100.727 	 -21.8509 	 -64.4553 	 
C 	 -100.201 	 -20.682 	 -64.9156 	 
C 	 -98.781 	 -20.5967 	 -64.7621 	 
C 	 -98.2359 	 -21.7871 	 -64.3479 	 
H 	 -98.2079 	 -19.7455 	 -64.9627 	 
C 	 -101.153 	 -19.5087 	 -65.1977 	 
H 	 -101.91 	 -19.8706 	 -65.8949 	 
H 	 -100.726 	 -18.7301 	 -65.8439 	 
C 	 -101.786 	 -18.9073 	 -63.9389 	 
H 	 -102.316 	 -19.7144 	 -63.4654 	 
H 	 -100.936 	 -18.7232 	 -63.2297 	 
C 	 -102.518 	 -17.5645 	 -64.2262 	 
H 	 -103.425 	 -17.7774 	 -64.7353 	 
H 	 -102.807 	 -17.0706 	 -63.2799 	 
H 	 -101.769 	 -16.9476 	 -64.7045 	 
S 	 -95.9966 	 -21.8407 	 -65.7252 	 
C 	 -94.4315 	 -22.1674 	 -65.0135 	 
C 	 -94.5889 	 -22.4039 	 -63.6433 	 
C 	 -95.9405 	 -22.2911 	 -63.1391 	 
C 	 -96.8329 	 -22.0623 	 -64.1645 	 
H 	 -93.7081 	 -22.6502 	 -63.074 	 
C 	 -96.2499 	 -22.219 	 -61.6244 	 
H 	 -97.072 	 -22.8822 	 -61.4648 	 
H 	 -96.6109 	 -21.2513 	 -61.3322 	 
C 	 -95.2867 	 -22.8023 	 -60.5316 	 
H 	 -94.4858 	 -22.224 	 -60.7543 	 
H 	 -95.0753 	 -23.8288 	 -60.834 	 
C 	 -95.7459 	 -22.6526 	 -59.0922 	 
H 	 -95.7766 	 -21.585 	 -58.792 	 
H 	 -95.054 	 -23.0934 	 -58.4758 	 
H 	 -96.7441 	 -22.9843 	 -58.8679 	 
H 	 -101.836 	 -22.0355 	 -64.4308 	 
H 	 -93.4589 	 -22.3198 	 -65.5116 	 
*
