! wB97X-D3 SP def2-SVP
%pal
nprocs 24
end

* xyz 0 1
S 	 -44.2827 	 7.78373 	 28.8555 	 
C 	 -43.205 	 9.10085 	 28.508 	 
C 	 -43.789 	 9.90753 	 27.5178 	 
C 	 -45.0933 	 9.50433 	 27.1265 	 
C 	 -45.5812 	 8.42997 	 27.8373 	 
H 	 -45.8661 	 9.91057 	 26.3932 	 
C 	 -43.2235 	 11.2108 	 27.0077 	 
H 	 -42.4276 	 11.5141 	 27.6571 	 
H 	 -43.8602 	 12.0225 	 27.2463 	 
C 	 -42.7572 	 11.2153 	 25.5299 	 
H 	 -43.453 	 10.8986 	 24.7382 	 
H 	 -42.516 	 12.2842 	 25.1604 	 
C 	 -41.3698 	 10.5164 	 25.3013 	 
H 	 -41.3378 	 9.42004 	 25.3687 	 
H 	 -40.9596 	 10.7491 	 24.2719 	 
H 	 -40.623 	 10.8432 	 26.0505 	 
S 	 -46.9725 	 6.13977 	 27.961 	 
C 	 -48.7296 	 6.07805 	 27.9077 	 
C 	 -49.1913 	 7.33438 	 27.6512 	 
C 	 -48.1872 	 8.35298 	 27.6793 	 
C 	 -46.901 	 7.86481 	 27.8035 	 
H 	 -50.2242 	 7.49784 	 27.3626 	 
C 	 -48.5908 	 9.8185 	 27.4805 	 
H 	 -49.7116 	 9.91073 	 27.3833 	 
H 	 -48.3077 	 10.1741 	 26.4929 	 
C 	 -48.2039 	 10.7547 	 28.6093 	 
H 	 -48.4567 	 11.8153 	 28.4349 	 
H 	 -47.164 	 10.7457 	 28.752 	 
C 	 -48.7535 	 10.317 	 30.0053 	 
H 	 -48.2754 	 10.9191 	 30.8009 	 
H 	 -48.4624 	 9.2869 	 30.2697 	 
H 	 -49.8228 	 10.4466 	 30.0515 	 
H 	 -42.2445 	 9.22991 	 29.0083 	 
H 	 -49.1891 	 5.08882 	 27.8239 	 
*
