! wB97X-D3 SP def2-SVP
%pal
nprocs 24
end

* xyz 0 1
S 	 -70.3096 	 6.29884 	 -109.26 	 
C 	 -71.7977 	 7.09259 	 -108.855 	 
C 	 -72.749 	 6.22074 	 -108.346 	 
C 	 -72.2654 	 4.89109 	 -108.409 	 
C 	 -71.0357 	 4.70383 	 -109.036 	 
H 	 -72.8904 	 4.05257 	 -108.151 	 
C 	 -74.1224 	 6.51744 	 -107.746 	 
H 	 -74.1234 	 7.57329 	 -107.414 	 
H 	 -74.3309 	 5.88712 	 -106.899 	 
C 	 -75.1364 	 6.14936 	 -108.848 	 
H 	 -75.1744 	 6.91407 	 -109.652 	 
H 	 -74.7561 	 5.22278 	 -109.263 	 
C 	 -76.5485 	 6.03536 	 -108.267 	 
H 	 -76.8089 	 5.14811 	 -107.747 	 
H 	 -76.8531 	 6.81497 	 -107.608 	 
H 	 -77.1804 	 6.2498 	 -109.159 	 
S 	 -68.6875 	 3.27293 	 -108.699 	 
C 	 -68.5682 	 1.6355 	 -109.278 	 
C 	 -69.716 	 1.21644 	 -109.879 	 
C 	 -70.7341 	 2.19471 	 -109.785 	 
C 	 -70.3408 	 3.49827 	 -109.316 	 
H 	 -69.7948 	 0.313698 	 -110.384 	 
C 	 -72.095 	 1.79922 	 -110.338 	 
H 	 -71.9906 	 1.17209 	 -111.29 	 
H 	 -72.4588 	 2.66596 	 -110.855 	 
C 	 -72.9856 	 1.11789 	 -109.326 	 
H 	 -73.0861 	 1.70642 	 -108.379 	 
H 	 -72.5161 	 0.158176 	 -109.13 	 
C 	 -74.4245 	 0.851449 	 -109.9 	 
H 	 -74.8182 	 1.82679 	 -110.147 	 
H 	 -75.1362 	 0.418992 	 -109.246 	 
H 	 -74.355 	 0.20533 	 -110.764 	 
H 	 -71.8042 	 8.1475 	 -108.87 	 
H 	 -67.591 	 1.10553 	 -109.274 	 
*
