! wB97X-D3 SP def2-SVP
%pal
nprocs 24
end

* xyz 0 1
S 	 -99.3378 	 12.7712 	 -115.935 	 
C 	 -99.1648 	 14.5423 	 -115.874 	 
C 	 -98.9945 	 15.0209 	 -117.163 	 
C 	 -99.2142 	 14.0434 	 -118.136 	 
C 	 -99.3906 	 12.7523 	 -117.668 	 
H 	 -99.0545 	 14.135 	 -119.219 	 
C 	 -98.5664 	 16.4607 	 -117.535 	 
H 	 -98.7236 	 17.1805 	 -116.685 	 
H 	 -99.2893 	 16.8389 	 -118.27 	 
C 	 -97.1683 	 16.5563 	 -118.204 	 
H 	 -96.8432 	 17.631 	 -118.106 	 
H 	 -96.5006 	 15.9607 	 -117.636 	 
C 	 -97.1732 	 16.1505 	 -119.691 	 
H 	 -97.0698 	 15.0407 	 -119.81 	 
H 	 -97.9983 	 16.5232 	 -120.311 	 
H 	 -96.1537 	 16.4925 	 -120.048 	 
S 	 -101.35 	 10.9725 	 -118.486 	 
C 	 -100.934 	 9.68373 	 -119.551 	 
C 	 -99.539 	 9.67204 	 -119.867 	 
C 	 -98.827 	 10.6513 	 -119.104 	 
C 	 -99.6426 	 11.4929 	 -118.368 	 
H 	 -99.1433 	 9.00796 	 -120.598 	 
C 	 -97.35 	 11.0131 	 -119.458 	 
H 	 -97.0687 	 11.6274 	 -118.604 	 
H 	 -97.2289 	 11.6267 	 -120.359 	 
C 	 -96.415 	 9.8485 	 -119.543 	 
H 	 -96.8422 	 9.15673 	 -120.32 	 
H 	 -96.5777 	 9.28726 	 -118.615 	 
C 	 -94.8885 	 10.2225 	 -119.574 	 
H 	 -94.5639 	 10.684 	 -118.631 	 
H 	 -94.5976 	 10.8924 	 -120.373 	 
H 	 -94.4047 	 9.32028 	 -119.901 	 
H 	 -99.0444 	 15.0925 	 -114.915 	 
H 	 -101.628 	 9.07951 	 -120.097 	 
*
