! wB97X-D3 SP def2-SVP
%pal
nprocs 24
end

* xyz 0 1
S 	 -43.9141 	 9.7586 	 30.6327 	 
C 	 -45.6734 	 9.53823 	 30.9391 	 
C 	 -46.3332 	 9.15029 	 29.7633 	 
C 	 -45.5033 	 9.34929 	 28.6117 	 
C 	 -44.1839 	 9.75772 	 28.9052 	 
H 	 -45.877 	 9.20061 	 27.622 	 
C 	 -47.774 	 8.68737 	 29.6576 	 
H 	 -47.9491 	 7.7163 	 30.1615 	 
H 	 -47.969 	 8.3373 	 28.6564 	 
C 	 -48.7866 	 9.69012 	 30.1786 	 
H 	 -49.6537 	 9.1437 	 30.51 	 
H 	 -48.4805 	 10.2417 	 31.0708 	 
C 	 -49.2134 	 10.7068 	 29.1026 	 
H 	 -50.1126 	 11.3255 	 29.3034 	 
H 	 -48.3867 	 11.4313 	 29.0966 	 
H 	 -49.4672 	 10.2766 	 28.1073 	 
S 	 -42.1374 	 8.63763 	 27.5775 	 
C 	 -41.1205 	 9.5739 	 26.4818 	 
C 	 -41.6912 	 10.8563 	 26.2648 	 
C 	 -42.8235 	 11.072 	 27.1364 	 
C 	 -43.102 	 10.0106 	 27.935 	 
H 	 -41.2841 	 11.5028 	 25.5297 	 
C 	 -43.7217 	 12.306 	 27.1206 	 
H 	 -43.3424 	 13.0506 	 27.8402 	 
H 	 -44.7318 	 12.0667 	 27.4952 	 
C 	 -43.899 	 13.0042 	 25.7673 	 
H 	 -42.9012 	 13.344 	 25.3998 	 
H 	 -44.4912 	 13.9493 	 25.901 	 
C 	 -44.4615 	 11.9888 	 24.6906 	 
H 	 -44.7624 	 12.6372 	 23.904 	 
H 	 -45.2932 	 11.4309 	 25.1456 	 
H 	 -43.6941 	 11.2589 	 24.323 	 
H 	 -46.0668 	 9.32391 	 31.9308 	 
H 	 -40.2826 	 9.16315 	 25.9357 	 
*
