! wB97X-D3 SP def2-SVP
%pal
nprocs 24
end

* xyz 0 1
S 	 -98.9838 	 14.1866 	 -115.797 	 
C 	 -98.8125 	 15.9704 	 -115.927 	 
C 	 -98.5011 	 16.4012 	 -117.228 	 
C 	 -98.332 	 15.2077 	 -118.069 	 
C 	 -98.4915 	 13.9921 	 -117.458 	 
H 	 -98.216 	 15.1044 	 -119.128 	 
C 	 -98.5099 	 17.7692 	 -117.812 	 
H 	 -99.5505 	 18.0137 	 -118.013 	 
H 	 -98.1704 	 17.7613 	 -118.863 	 
C 	 -97.8661 	 18.861 	 -116.966 	 
H 	 -97.985 	 19.7636 	 -117.403 	 
H 	 -98.5498 	 18.9845 	 -116.117 	 
C 	 -96.3899 	 18.6633 	 -116.532 	 
H 	 -96.3239 	 17.784 	 -115.904 	 
H 	 -95.7346 	 18.4701 	 -117.386 	 
H 	 -95.9866 	 19.4791 	 -115.891 	 
S 	 -100.481 	 12.1407 	 -118.017 	 
C 	 -100.136 	 10.8806 	 -119.207 	 
C 	 -98.8563 	 10.9501 	 -119.602 	 
C 	 -98.1075 	 12.0023 	 -118.967 	 
C 	 -98.813 	 12.7618 	 -118.14 	 
H 	 -98.505 	 10.0936 	 -120.194 	 
C 	 -96.6549 	 12.2908 	 -119.427 	 
H 	 -96.1297 	 11.6561 	 -118.693 	 
H 	 -96.185 	 13.2364 	 -119.103 	 
C 	 -96.3346 	 11.9672 	 -120.876 	 
H 	 -97.1579 	 12.3844 	 -121.455 	 
H 	 -96.2807 	 10.9184 	 -121.049 	 
C 	 -94.9734 	 12.5715 	 -121.385 	 
H 	 -94.3037 	 12.2692 	 -120.659 	 
H 	 -95.1433 	 13.653 	 -121.326 	 
H 	 -94.8551 	 12.3493 	 -122.462 	 
H 	 -99.0489 	 16.6458 	 -115.12 	 
H 	 -100.804 	 10.2149 	 -119.661 	 
*
