! wB97X-D3 SP def2-SVP
%pal
nprocs 24
end

* xyz 0 1
S 	 -61.1206 	 9.73634 	 -94.166 	 
C 	 -59.9688 	 10.9663 	 -93.5888 	 
C 	 -60.6848 	 11.822 	 -92.704 	 
C 	 -62.1122 	 11.5455 	 -92.6346 	 
C 	 -62.4908 	 10.4768 	 -93.4134 	 
H 	 -62.7784 	 12.162 	 -92.0525 	 
C 	 -60.0605 	 12.8816 	 -91.8362 	 
H 	 -60.8633 	 13.6639 	 -91.6142 	 
H 	 -59.3755 	 13.4375 	 -92.5055 	 
C 	 -59.4264 	 12.3465 	 -90.5437 	 
H 	 -58.594 	 11.6763 	 -90.8209 	 
H 	 -58.9568 	 13.1889 	 -89.9139 	 
C 	 -60.3638 	 11.4978 	 -89.6417 	 
H 	 -59.9598 	 11.2361 	 -88.6659 	 
H 	 -61.2676 	 11.903 	 -89.5822 	 
H 	 -60.4149 	 10.4693 	 -90.1019 	 
S 	 -64.2895 	 10.0757 	 -95.3564 	 
C 	 -65.9804 	 9.88572 	 -95.0727 	 
C 	 -66.191 	 9.51968 	 -93.7837 	 
C 	 -64.981 	 9.78154 	 -92.9729 	 
C 	 -63.8521 	 10.0421 	 -93.7271 	 
H 	 -67.1535 	 9.17885 	 -93.4099 	 
C 	 -65.052 	 9.42137 	 -91.5728 	 
H 	 -64.0446 	 9.6751 	 -91.2956 	 
H 	 -65.2537 	 8.34162 	 -91.3002 	 
C 	 -65.7125 	 10.4135 	 -90.6288 	 
H 	 -66.7564 	 10.5763 	 -90.7732 	 
H 	 -65.2824 	 11.4541 	 -90.7716 	 
C 	 -65.4406 	 10.0376 	 -89.1519 	 
H 	 -65.7507 	 9.02866 	 -88.8128 	 
H 	 -65.9277 	 10.7794 	 -88.5324 	 
H 	 -64.3606 	 10.0751 	 -88.9619 	 
H 	 -58.8747 	 10.9692 	 -93.6404 	 
H 	 -66.6584 	 9.78936 	 -95.8804 	 
*
