! wB97X-D3 SP def2-SVP
%pal
nprocs 24
end

* xyz 0 1
S 	 20.7431 	 -6.79074 	 -112.282 	 
C 	 21.1502 	 -7.54657 	 -110.725 	 
C 	 20.3302 	 -8.66782 	 -110.475 	 
C 	 19.4372 	 -8.92405 	 -111.528 	 
C 	 19.5154 	 -8.03437 	 -112.55 	 
H 	 18.8436 	 -9.81069 	 -111.655 	 
C 	 20.429 	 -9.51245 	 -109.226 	 
H 	 19.4562 	 -9.94997 	 -108.992 	 
H 	 20.4966 	 -8.79233 	 -108.418 	 
C 	 21.5503 	 -10.5923 	 -109.126 	 
H 	 22.4232 	 -9.98357 	 -109.188 	 
H 	 21.4541 	 -11.0047 	 -108.109 	 
C 	 21.4928 	 -11.6502 	 -110.26 	 
H 	 21.8356 	 -12.5832 	 -109.866 	 
H 	 20.4812 	 -11.8799 	 -110.581 	 
H 	 21.9758 	 -11.2748 	 -111.144 	 
S 	 19.7116 	 -8.06619 	 -115.294 	 
C 	 18.3677 	 -8.04051 	 -116.382 	 
C 	 17.2372 	 -8.29568 	 -115.627 	 
C 	 17.4801 	 -8.19962 	 -114.218 	 
C 	 18.8182 	 -8.0916 	 -113.843 	 
H 	 16.2739 	 -8.42429 	 -116.147 	 
C 	 16.3467 	 -8.33223 	 -113.21 	 
H 	 16.6613 	 -8.31302 	 -112.138 	 
H 	 15.8095 	 -9.28105 	 -113.305 	 
C 	 15.181 	 -7.24572 	 -113.352 	 
H 	 14.7231 	 -7.3444 	 -114.319 	 
H 	 15.6588 	 -6.26516 	 -113.218 	 
C 	 14.0734 	 -7.34028 	 -112.302 	 
H 	 13.3688 	 -6.45152 	 -112.421 	 
H 	 14.4994 	 -7.40732 	 -111.307 	 
H 	 13.4369 	 -8.26998 	 -112.545 	 
H 	 21.9125 	 -7.29006 	 -110.008 	 
H 	 18.4581 	 -8.2572 	 -117.447 	 
*
