! wB97X-D3 SP def2-SVP
%pal
nprocs 24
end

* xyz 0 1
S 	 -54.3487 	 -50.3406 	 -85.9927 	 
C 	 -54.8668 	 -49.6731 	 -87.5181 	 
C 	 -56.239 	 -49.3102 	 -87.5393 	 
C 	 -56.8035 	 -49.4344 	 -86.2318 	 
C 	 -55.9341 	 -50.0245 	 -85.2893 	 
H 	 -57.8129 	 -49.1627 	 -85.9178 	 
C 	 -56.9561 	 -48.7571 	 -88.7592 	 
H 	 -57.6045 	 -49.5375 	 -89.101 	 
H 	 -56.1287 	 -48.6032 	 -89.4865 	 
C 	 -57.7083 	 -47.4195 	 -88.6072 	 
H 	 -58.4918 	 -47.6711 	 -87.8687 	 
H 	 -56.9653 	 -46.6419 	 -88.2562 	 
C 	 -58.4846 	 -46.8419 	 -89.8512 	 
H 	 -59.3181 	 -47.5206 	 -90.1477 	 
H 	 -58.9744 	 -45.9403 	 -89.5518 	 
H 	 -57.7948 	 -46.6556 	 -90.7377 	 
S 	 -55.0139 	 -50.0336 	 -82.7536 	 
C 	 -56.0276 	 -50.7365 	 -81.5189 	 
C 	 -57.1543 	 -51.3269 	 -82.0574 	 
C 	 -57.3422 	 -51.0362 	 -83.4256 	 
C 	 -56.2234 	 -50.4045 	 -83.9189 	 
H 	 -57.8072 	 -51.9009 	 -81.446 	 
C 	 -58.5899 	 -51.5511 	 -84.2103 	 
H 	 -58.5402 	 -51.2652 	 -85.2484 	 
H 	 -59.5645 	 -51.1042 	 -83.8427 	 
C 	 -58.9856 	 -53.0602 	 -84.1179 	 
H 	 -59.9861 	 -53.2087 	 -84.5581 	 
H 	 -59.1338 	 -53.4776 	 -83.0363 	 
C 	 -58.0934 	 -54.087 	 -84.8443 	 
H 	 -58.0771 	 -53.627 	 -85.8267 	 
H 	 -58.5381 	 -55.1401 	 -84.8011 	 
H 	 -57.0829 	 -54.153 	 -84.4614 	 
H 	 -54.2106 	 -49.5169 	 -88.3649 	 
H 	 -55.8517 	 -51.0476 	 -80.4725 	 
*
