! wB97X-D3 SP def2-SVP
%pal
nprocs 24
end

* xyz 0 1
S 	 16.2717 	 -4.0892 	 -111.765 	 
C 	 16.8194 	 -4.08067 	 -110.108 	 
C 	 17.6483 	 -5.20717 	 -109.924 	 
C 	 17.746 	 -6.09987 	 -111.028 	 
C 	 17.093 	 -5.5946 	 -112.195 	 
H 	 18.3595 	 -7.01383 	 -111.065 	 
C 	 18.4602 	 -5.39359 	 -108.678 	 
H 	 19.3516 	 -5.93575 	 -108.724 	 
H 	 17.7332 	 -6.04148 	 -108.174 	 
C 	 18.6767 	 -4.14946 	 -107.755 	 
H 	 17.8436 	 -3.69079 	 -107.264 	 
H 	 19.3067 	 -4.5348 	 -106.968 	 
C 	 19.5302 	 -3.08217 	 -108.529 	 
H 	 19.5575 	 -3.30643 	 -109.635 	 
H 	 19.016 	 -2.0875 	 -108.457 	 
H 	 20.5725 	 -2.96358 	 -108.202 	 
S 	 18.3063 	 -6.06631 	 -114.53 	 
C 	 17.5761 	 -6.96777 	 -115.786 	 
C 	 16.218 	 -7.18152 	 -115.464 	 
C 	 15.8496 	 -6.65314 	 -114.196 	 
C 	 16.9154 	 -6.19633 	 -113.473 	 
H 	 15.5164 	 -7.66438 	 -116.129 	 
C 	 14.4137 	 -6.75201 	 -113.607 	 
H 	 14.0838 	 -5.76138 	 -113.51 	 
H 	 14.4581 	 -7.20741 	 -112.575 	 
C 	 13.417 	 -7.47084 	 -114.474 	 
H 	 13.7699 	 -8.49327 	 -114.635 	 
H 	 13.237 	 -6.96956 	 -115.416 	 
C 	 12.0743 	 -7.59261 	 -113.677 	 
H 	 11.2907 	 -8.03933 	 -114.4 	 
H 	 11.741 	 -6.63342 	 -113.414 	 
H 	 12.1018 	 -8.25173 	 -112.759 	 
H 	 16.5998 	 -3.31178 	 -109.394 	 
H 	 18.1276 	 -7.42268 	 -116.645 	 
*
