! wB97X-D3 SP def2-SVP
%pal
nprocs 24
end

* xyz 0 1
S 	 -126.383 	 70.2776 	 -53.3835 	 
C 	 -126.172 	 70.0757 	 -55.0738 	 
C 	 -124.845 	 70.3538 	 -55.431 	 
C 	 -123.992 	 70.6846 	 -54.2996 	 
C 	 -124.656 	 70.5692 	 -53.1238 	 
H 	 -122.944 	 70.9768 	 -54.219 	 
C 	 -124.241 	 70.3549 	 -56.8201 	 
H 	 -123.29 	 70.8924 	 -56.7877 	 
H 	 -124.879 	 70.9874 	 -57.4056 	 
C 	 -124.005 	 69.0669 	 -57.5888 	 
H 	 -124.999 	 68.7413 	 -57.8523 	 
H 	 -123.507 	 69.2907 	 -58.5444 	 
C 	 -123.321 	 67.9448 	 -56.8119 	 
H 	 -122.288 	 68.2318 	 -56.5811 	 
H 	 -123.727 	 67.6588 	 -55.8637 	 
H 	 -123.326 	 67.0458 	 -57.479 	 
S 	 -125.349 	 72.1073 	 -51.0859 	 
C 	 -124.334 	 72.0899 	 -49.6552 	 
C 	 -123.138 	 71.3658 	 -49.8296 	 
C 	 -122.971 	 70.8455 	 -51.1457 	 
C 	 -124.217 	 70.9771 	 -51.8124 	 
H 	 -122.297 	 71.4712 	 -49.1304 	 
C 	 -121.698 	 70.1363 	 -51.7227 	 
H 	 -121.108 	 70.9669 	 -52.2012 	 
H 	 -121.969 	 69.4686 	 -52.551 	 
C 	 -120.985 	 69.2757 	 -50.634 	 
H 	 -121.749 	 68.6859 	 -50.1005 	 
H 	 -120.637 	 69.8373 	 -49.7719 	 
C 	 -119.857 	 68.401 	 -51.1337 	 
H 	 -118.906 	 68.8685 	 -51.4116 	 
H 	 -120.316 	 67.8942 	 -51.9578 	 
H 	 -119.376 	 67.7206 	 -50.4202 	 
H 	 -126.811 	 69.8359 	 -55.8993 	 
H 	 -124.565 	 72.6669 	 -48.7801 	 
*
