! wB97X-D3 SP def2-SVP
%pal
nprocs 24
end

* xyz 0 1
S 	 26.3404 	 -6.74956 	 -113.432 	 
C 	 26.6729 	 -8.47111 	 -113.401 	 
C 	 25.489 	 -9.17748 	 -113.26 	 
C 	 24.3547 	 -8.35958 	 -112.996 	 
C 	 24.66 	 -7.03936 	 -113.051 	 
H 	 23.4322 	 -8.75626 	 -112.754 	 
C 	 25.5166 	 -10.7426 	 -113.195 	 
H 	 24.4857 	 -11.1132 	 -113.414 	 
H 	 25.8023 	 -11.0024 	 -112.155 	 
C 	 26.4762 	 -11.3658 	 -114.198 	 
H 	 27.5501 	 -11.0233 	 -114.065 	 
H 	 26.4756 	 -12.4445 	 -114.169 	 
C 	 26.2947 	 -11.1271 	 -115.719 	 
H 	 27.0858 	 -11.6856 	 -116.321 	 
H 	 25.324 	 -11.5142 	 -116.007 	 
H 	 26.3666 	 -10.0605 	 -116.054 	 
S 	 23.9574 	 -4.50631 	 -113.904 	 
C 	 22.4531 	 -3.79566 	 -113.27 	 
C 	 21.8992 	 -4.58624 	 -112.252 	 
C 	 22.6936 	 -5.72881 	 -111.965 	 
C 	 23.7549 	 -5.9759 	 -112.839 	 
H 	 21.0447 	 -4.28 	 -111.753 	 
C 	 22.4026 	 -6.66335 	 -110.817 	 
H 	 23.1807 	 -7.41766 	 -110.673 	 
H 	 21.4335 	 -7.13653 	 -111.059 	 
C 	 22.3836 	 -5.9782 	 -109.44 	 
H 	 21.4403 	 -5.58007 	 -109.185 	 
H 	 23.0428 	 -5.11152 	 -109.401 	 
C 	 22.4798 	 -7.10481 	 -108.362 	 
H 	 21.8793 	 -7.97362 	 -108.642 	 
H 	 22.3808 	 -6.66588 	 -107.382 	 
H 	 23.5084 	 -7.40489 	 -108.413 	 
H 	 27.5757 	 -8.9287 	 -113.439 	 
H 	 22.0005 	 -2.9058 	 -113.621 	 
*
