! wB97X-D3 SP def2-SVP
%pal
nprocs 24
end

* xyz 0 1
S 	 -73.7649 	 9.2389 	 -111.151 	 
C 	 -74.7499 	 9.07965 	 -109.739 	 
C 	 -74.1829 	 8.41131 	 -108.684 	 
C 	 -72.9038 	 7.91653 	 -109.152 	 
C 	 -72.4763 	 8.30258 	 -110.38 	 
H 	 -72.1908 	 7.31068 	 -108.601 	 
C 	 -74.7657 	 8.13207 	 -107.344 	 
H 	 -75.4282 	 7.26214 	 -107.489 	 
H 	 -75.4094 	 8.87907 	 -106.96 	 
C 	 -73.6449 	 7.6391 	 -106.279 	 
H 	 -73.133 	 6.75411 	 -106.67 	 
H 	 -73.0453 	 8.53354 	 -106.1 	 
C 	 -74.2618 	 7.3313 	 -104.917 	 
H 	 -74.8301 	 8.204 	 -104.613 	 
H 	 -74.9199 	 6.51709 	 -104.877 	 
H 	 -73.4033 	 7.10675 	 -104.153 	 
S 	 -71.4523 	 7.20162 	 -112.726 	 
C 	 -69.7579 	 6.75979 	 -112.789 	 
C 	 -69.1344 	 7.20463 	 -111.648 	 
C 	 -69.9425 	 7.87387 	 -110.732 	 
C 	 -71.2666 	 7.95084 	 -111.144 	 
H 	 -68.0744 	 6.98112 	 -111.54 	 
C 	 -69.3153 	 8.28202 	 -109.389 	 
H 	 -68.4137 	 7.69713 	 -109.335 	 
H 	 -69.9142 	 7.91068 	 -108.526 	 
C 	 -68.8833 	 9.73827 	 -109.31 	 
H 	 -69.7201 	 10.4682 	 -109.401 	 
H 	 -68.2348 	 9.86544 	 -110.159 	 
C 	 -67.9521 	 10.1035 	 -108.156 	 
H 	 -68.445 	 10.1192 	 -107.271 	 
H 	 -67.5881 	 11.1175 	 -108.337 	 
H 	 -67.0786 	 9.52782 	 -108.048 	 
H 	 -75.6955 	 9.60225 	 -109.574 	 
H 	 -69.2395 	 6.23773 	 -113.632 	 
*
