! wB97X-D3 SP def2-SVP
%pal
nprocs 24
end

* xyz 0 1
S 	 -70.9696 	 8.09496 	 -99.3628 	 
C 	 -69.6342 	 7.58196 	 -100.266 	 
C 	 -69.8936 	 7.62442 	 -101.646 	 
C 	 -71.2054 	 8.03433 	 -101.972 	 
C 	 -71.9585 	 8.29647 	 -100.816 	 
H 	 -71.6193 	 8.1824 	 -102.931 	 
C 	 -68.898 	 7.38025 	 -102.765 	 
H 	 -67.9755 	 7.90309 	 -102.547 	 
H 	 -69.3261 	 7.98905 	 -103.596 	 
C 	 -68.6551 	 5.97651 	 -103.246 	 
H 	 -69.5752 	 5.59716 	 -103.497 	 
H 	 -68.105 	 6.00485 	 -104.184 	 
C 	 -67.8892 	 4.99148 	 -102.291 	 
H 	 -67.753 	 3.97035 	 -102.589 	 
H 	 -66.9081 	 5.40286 	 -102.073 	 
H 	 -68.4112 	 4.90166 	 -101.325 	 
S 	 -73.7762 	 9.89426 	 -99.5015 	 
C 	 -75.3715 	 9.97183 	 -100.217 	 
C 	 -75.6125 	 9.06356 	 -101.232 	 
C 	 -74.3991 	 8.30973 	 -101.534 	 
C 	 -73.3462 	 8.65084 	 -100.707 	 
H 	 -76.5728 	 8.90077 	 -101.686 	 
C 	 -74.4613 	 7.16562 	 -102.514 	 
H 	 -73.6948 	 7.59432 	 -103.179 	 
H 	 -75.4193 	 7.26619 	 -103.079 	 
C 	 -74.2239 	 5.75849 	 -101.968 	 
H 	 -74.9472 	 5.70293 	 -101.167 	 
H 	 -73.2306 	 5.70496 	 -101.538 	 
C 	 -74.454 	 4.59913 	 -102.998 	 
H 	 -73.6876 	 4.49149 	 -103.726 	 
H 	 -75.3833 	 4.91817 	 -103.446 	 
H 	 -74.5511 	 3.61148 	 -102.612 	 
H 	 -68.6356 	 7.44651 	 -99.9015 	 
H 	 -76.0804 	 10.7218 	 -99.8752 	 
*
