! wB97X-D3 SP def2-SVP
%pal
nprocs 24
end

* xyz 0 1
S 	 -137.133 	 24.0621 	 -18.6245 	 
C 	 -138.85 	 23.7486 	 -18.9331 	 
C 	 -139.628 	 23.6903 	 -17.7253 	 
C 	 -138.753 	 23.8256 	 -16.5601 	 
C 	 -137.385 	 24.0284 	 -16.8275 	 
H 	 -138.94 	 23.7705 	 -15.5115 	 
C 	 -141.121 	 23.4635 	 -17.4388 	 
H 	 -141.512 	 24.2692 	 -18.0335 	 
H 	 -141.377 	 23.7228 	 -16.4149 	 
C 	 -141.52 	 22.0688 	 -17.7338 	 
H 	 -141.337 	 21.7655 	 -18.7565 	 
H 	 -141.017 	 21.3171 	 -17.1239 	 
C 	 -143.04 	 21.9346 	 -17.697 	 
H 	 -143.452 	 21.6992 	 -16.6875 	 
H 	 -143.58 	 22.8313 	 -18.1969 	 
H 	 -143.293 	 21.0485 	 -18.2862 	 
S 	 -135.475 	 25.7078 	 -15.7343 	 
C 	 -134.38 	 25.1581 	 -14.4699 	 
C 	 -134.871 	 23.9915 	 -14.0057 	 
C 	 -135.909 	 23.4091 	 -14.7437 	 
C 	 -136.301 	 24.1807 	 -15.8544 	 
H 	 -134.414 	 23.5242 	 -13.1146 	 
C 	 -136.552 	 22.0742 	 -14.4235 	 
H 	 -136.024 	 21.2842 	 -15.0538 	 
H 	 -137.618 	 22.184 	 -14.8532 	 
C 	 -136.688 	 21.7431 	 -12.9077 	 
H 	 -135.726 	 21.5351 	 -12.4328 	 
H 	 -137.309 	 20.8822 	 -12.7835 	 
C 	 -137.471 	 22.7827 	 -12.1264 	 
H 	 -137.982 	 22.5351 	 -11.1698 	 
H 	 -138.265 	 23.2613 	 -12.7813 	 
H 	 -136.85 	 23.6931 	 -11.8501 	 
H 	 -139.232 	 23.5493 	 -19.9377 	 
H 	 -133.691 	 25.7957 	 -13.9553 	 
*
