! wB97X-D3 SP def2-SVP
%pal
nprocs 24
end

* xyz 0 1
S 	 -114.975 	 61.6571 	 -74.1775 	 
C 	 -113.75 	 62.5988 	 -73.4428 	 
C 	 -114.075 	 63.1311 	 -72.2005 	 
C 	 -115.478 	 62.9607 	 -71.9892 	 
C 	 -116.093 	 62.0797 	 -72.874 	 
H 	 -115.898 	 63.3032 	 -71.0445 	 
C 	 -113.154 	 63.9687 	 -71.2682 	 
H 	 -112.424 	 63.3046 	 -70.7346 	 
H 	 -113.721 	 64.3077 	 -70.363 	 
C 	 -112.489 	 65.2726 	 -71.8105 	 
H 	 -111.813 	 65.7326 	 -71.0452 	 
H 	 -111.91 	 64.9465 	 -72.654 	 
C 	 -113.358 	 66.412 	 -72.0911 	 
H 	 -114.148 	 66.1764 	 -72.7735 	 
H 	 -113.781 	 66.8348 	 -71.1636 	 
H 	 -112.824 	 67.2438 	 -72.4758 	 
S 	 -117.919 	 60.6618 	 -71.5162 	 
C 	 -119.61 	 60.865 	 -71.8582 	 
C 	 -119.903 	 61.6092 	 -72.9787 	 
C 	 -118.674 	 62.1938 	 -73.5014 	 
C 	 -117.504 	 61.696 	 -72.8612 	 
H 	 -120.909 	 61.6883 	 -73.3266 	 
C 	 -118.762 	 63.2462 	 -74.5785 	 
H 	 -117.859 	 63.8767 	 -74.6829 	 
H 	 -119.553 	 63.8473 	 -74.1266 	 
C 	 -119.263 	 62.5656 	 -75.8646 	 
H 	 -120.272 	 62.1527 	 -75.7693 	 
H 	 -118.627 	 61.6994 	 -76.0134 	 
C 	 -119.18 	 63.5933 	 -76.932 	 
H 	 -119.289 	 63.1797 	 -77.9414 	 
H 	 -118.19 	 64.0314 	 -76.9265 	 
H 	 -119.896 	 64.4091 	 -76.739 	 
H 	 -112.762 	 62.7028 	 -73.8676 	 
H 	 -120.303 	 60.4111 	 -71.168 	 
*
