! wB97X-D3 SP def2-SVP
%pal
nprocs 24
end

* xyz 0 1
S 	 -56.141 	 4.87326 	 -30.5684 	 
C 	 -57.612 	 3.85363 	 -30.6016 	 
C 	 -58.4863 	 4.25812 	 -29.5637 	 
C 	 -57.8722 	 5.21328 	 -28.639 	 
C 	 -56.6832 	 5.70782 	 -29.1579 	 
H 	 -58.2299 	 5.60191 	 -27.7374 	 
C 	 -59.7778 	 3.49297 	 -29.1714 	 
H 	 -60.2296 	 3.88688 	 -28.205 	 
H 	 -59.4148 	 2.48045 	 -28.923 	 
C 	 -60.9211 	 3.39165 	 -30.1741 	 
H 	 -61.1858 	 4.45061 	 -30.3451 	 
H 	 -60.6559 	 2.85554 	 -31.094 	 
C 	 -62.0937 	 2.69471 	 -29.4059 	 
H 	 -61.8582 	 1.66625 	 -29.1981 	 
H 	 -62.2732 	 3.17931 	 -28.4682 	 
H 	 -63.0172 	 2.63335 	 -30.0041 	 
S 	 -54.3068 	 6.71161 	 -28.3691 	 
C 	 -53.981 	 8.43041 	 -28.2532 	 
C 	 -55.2218 	 9.04615 	 -28.0139 	 
C 	 -56.348 	 8.19475 	 -28.2936 	 
C 	 -55.9909 	 6.87048 	 -28.5919 	 
H 	 -55.4184 	 10.072 	 -27.6256 	 
C 	 -57.7577 	 8.67332 	 -28.2326 	 
H 	 -57.833 	 9.76154 	 -27.8439 	 
H 	 -58.2718 	 8.24101 	 -27.3753 	 
C 	 -58.639 	 8.57793 	 -29.4965 	 
H 	 -59.5989 	 8.86819 	 -29.0806 	 
H 	 -58.751 	 7.57005 	 -29.8278 	 
C 	 -58.198 	 9.43533 	 -30.6977 	 
H 	 -57.6494 	 8.85766 	 -31.4916 	 
H 	 -57.592 	 10.2144 	 -30.4143 	 
H 	 -59.1059 	 9.8102 	 -31.2242 	 
H 	 -57.8825 	 3.2418 	 -31.4136 	 
H 	 -53.0832 	 8.93801 	 -27.8246 	 
*
