! wB97X-D3 SP def2-SVP
%pal
nprocs 24
end

* xyz 0 1
S 	 -56.5457 	 -1.56767 	 -30.7242 	 
C 	 -57.0234 	 -0.032944 	 -31.3295 	 
C 	 -57.7536 	 0.753052 	 -30.442 	 
C 	 -58.0156 	 -0.0166462 	 -29.2459 	 
C 	 -57.463 	 -1.30457 	 -29.1903 	 
H 	 -58.5365 	 0.232629 	 -28.3783 	 
C 	 -58.2499 	 2.20725 	 -30.6994 	 
H 	 -58.3105 	 2.43188 	 -31.7355 	 
H 	 -57.4722 	 2.85096 	 -30.4323 	 
C 	 -59.5222 	 2.64154 	 -30.0171 	 
H 	 -59.1562 	 2.81771 	 -28.9389 	 
H 	 -59.7581 	 3.6572 	 -30.3626 	 
C 	 -60.7623 	 1.65072 	 -30.2582 	 
H 	 -61.7097 	 2.08596 	 -29.9109 	 
H 	 -60.892 	 1.26791 	 -31.2881 	 
H 	 -60.6819 	 0.630023 	 -29.6695 	 
S 	 -59.0464 	 -2.68603 	 -27.3748 	 
C 	 -58.2081 	 -3.42473 	 -26.042 	 
C 	 -56.8974 	 -3.49964 	 -26.262 	 
C 	 -56.41 	 -2.78794 	 -27.3862 	 
C 	 -57.4881 	 -2.2244 	 -28.1142 	 
H 	 -56.1529 	 -4.01543 	 -25.6311 	 
C 	 -54.9685 	 -2.63801 	 -27.6784 	 
H 	 -54.5312 	 -2.26793 	 -26.7023 	 
H 	 -54.8489 	 -1.90153 	 -28.4477 	 
C 	 -54.2759 	 -3.95832 	 -28.2211 	 
H 	 -54.6721 	 -4.13673 	 -29.1698 	 
H 	 -54.6765 	 -4.74545 	 -27.5525 	 
C 	 -52.6824 	 -3.8635 	 -28.2156 	 
H 	 -52.5626 	 -3.60681 	 -27.1558 	 
H 	 -52.2457 	 -3.10892 	 -28.8868 	 
H 	 -52.1787 	 -4.82471 	 -28.4429 	 
H 	 -56.8377 	 0.37877 	 -32.3321 	 
H 	 -58.7156 	 -3.96186 	 -25.253 	 
*
