! wB97X-D3 SP def2-SVP
%pal
nprocs 24
end

* xyz 0 1
S 	 -138.777 	 7.40321 	 7.20327 	 
C 	 -137.138 	 7.06687 	 6.52197 	 
C 	 -136.166 	 7.63933 	 7.28541 	 
C 	 -136.681 	 8.35538 	 8.3881 	 
C 	 -138.045 	 8.33256 	 8.48162 	 
H 	 -136.047 	 8.83555 	 9.0493 	 
C 	 -134.648 	 7.60246 	 7.00927 	 
H 	 -134.243 	 8.63498 	 7.09035 	 
H 	 -134.631 	 7.26253 	 5.97955 	 
C 	 -133.829 	 6.62712 	 7.80893 	 
H 	 -133.888 	 6.85542 	 8.87341 	 
H 	 -134.096 	 5.59737 	 7.50712 	 
C 	 -132.347 	 6.74391 	 7.49252 	 
H 	 -131.997 	 7.65192 	 7.94602 	 
H 	 -131.896 	 5.90516 	 8.08104 	 
H 	 -132.053 	 6.65898 	 6.44187 	 
S 	 -139.638 	 7.68313 	 10.6496 	 
C 	 -140.563 	 9.00072 	 11.388 	 
C 	 -140.078 	 10.2475 	 11.0345 	 
C 	 -139.167 	 10.1533 	 9.9553 	 
C 	 -138.863 	 8.88772 	 9.56742 	 
H 	 -140.554 	 11.1615 	 11.4615 	 
C 	 -138.736 	 11.3634 	 9.19167 	 
H 	 -138.144 	 11.1372 	 8.35602 	 
H 	 -138.321 	 12.1795 	 9.87583 	 
C 	 -139.861 	 12.2508 	 8.55909 	 
H 	 -139.38 	 13.0896 	 8.00788 	 
H 	 -140.628 	 12.6255 	 9.27454 	 
C 	 -140.711 	 11.508 	 7.52114 	 
H 	 -140.108 	 11.1935 	 6.69142 	 
H 	 -141.614 	 12.0784 	 7.16276 	 
H 	 -141.086 	 10.5571 	 7.91364 	 
H 	 -136.988 	 6.47807 	 5.59943 	 
H 	 -141.24 	 8.86257 	 12.2062 	 
*
