! wB97X-D3 SP def2-SVP
%pal
nprocs 24
end

* xyz 0 1
S 	 -62.1773 	 -58.9364 	 -79.5199 	 
C 	 -61.1772 	 -58.6507 	 -78.2069 	 
C 	 -60.0641 	 -57.915 	 -78.5681 	 
C 	 -59.9285 	 -57.8461 	 -79.9785 	 
C 	 -60.9305 	 -58.4662 	 -80.6649 	 
H 	 -59.1293 	 -57.3262 	 -80.52 	 
C 	 -58.9692 	 -57.4726 	 -77.6685 	 
H 	 -58.1589 	 -58.1247 	 -77.5563 	 
H 	 -59.291 	 -57.4755 	 -76.6192 	 
C 	 -58.3797 	 -56.0569 	 -77.9506 	 
H 	 -57.6282 	 -56.2574 	 -78.7127 	 
H 	 -59.113 	 -55.3 	 -78.243 	 
C 	 -57.6632 	 -55.566 	 -76.7129 	 
H 	 -56.8954 	 -56.3884 	 -76.4678 	 
H 	 -57.0525 	 -54.6989 	 -76.919 	 
H 	 -58.25 	 -55.2895 	 -75.882 	 
S 	 -61.1148 	 -60.6116 	 -82.3278 	 
C 	 -61.6858 	 -60.3159 	 -83.9818 	 
C 	 -61.5281 	 -59.0193 	 -84.3179 	 
C 	 -61.3778 	 -58.1456 	 -83.1972 	 
C 	 -60.9835 	 -58.8191 	 -82.0543 	 
H 	 -61.6963 	 -58.8139 	 -85.4211 	 
C 	 -61.7587 	 -56.7001 	 -83.315 	 
H 	 -62.1994 	 -56.4129 	 -82.3381 	 
H 	 -62.5048 	 -56.4675 	 -84.1002 	 
C 	 -60.6345 	 -55.7308 	 -83.5008 	 
H 	 -60.1563 	 -55.9011 	 -84.427 	 
H 	 -59.8563 	 -55.9443 	 -82.7958 	 
C 	 -61.1229 	 -54.2751 	 -83.4117 	 
H 	 -60.3353 	 -53.5265 	 -83.1144 	 
H 	 -61.8665 	 -54.1739 	 -82.5704 	 
H 	 -61.7069 	 -53.9641 	 -84.2531 	 
H 	 -61.4663 	 -58.9194 	 -77.1901 	 
H 	 -61.7553 	 -61.0783 	 -84.7626 	 
*
