! wB97X-D3 SP def2-SVP
%pal
nprocs 24
end

* xyz 0 1
S 	 27.7743 	 -26.4905 	 -130.46 	 
C 	 26.0633 	 -26.474 	 -130.035 	 
C 	 25.3209 	 -27.4524 	 -130.557 	 
C 	 26.2081 	 -28.4651 	 -131.113 	 
C 	 27.5678 	 -28.1382 	 -131.062 	 
H 	 25.9685 	 -29.4619 	 -131.355 	 
C 	 23.8118 	 -27.6196 	 -130.564 	 
H 	 23.7659 	 -28.6735 	 -130.782 	 
H 	 23.5349 	 -27.0846 	 -131.505 	 
C 	 22.9703 	 -27.304 	 -129.294 	 
H 	 23.2967 	 -27.7641 	 -128.376 	 
H 	 22.9679 	 -26.2037 	 -129.113 	 
C 	 21.582 	 -27.7258 	 -129.425 	 
H 	 21.052 	 -27.2409 	 -130.182 	 
H 	 21.548 	 -28.812 	 -129.785 	 
H 	 21.0023 	 -27.518 	 -128.473 	 
S 	 29.8987 	 -28.1345 	 -132.418 	 
C 	 31.0098 	 -29.4569 	 -132.36 	 
C 	 30.43 	 -30.4949 	 -131.666 	 
C 	 29.065 	 -30.2884 	 -131.154 	 
C 	 28.7583 	 -28.9689 	 -131.34 	 
H 	 30.9023 	 -31.4331 	 -131.559 	 
C 	 28.2982 	 -31.2729 	 -130.321 	 
H 	 27.612 	 -30.5751 	 -129.935 	 
H 	 28.8319 	 -31.6575 	 -129.487 	 
C 	 27.6535 	 -32.3638 	 -131.122 	 
H 	 28.4505 	 -32.7041 	 -131.734 	 
H 	 26.8374 	 -32.0528 	 -131.757 	 
C 	 27.1319 	 -33.4637 	 -130.17 	 
H 	 28.0281 	 -34.0466 	 -129.886 	 
H 	 26.4519 	 -34.1329 	 -130.628 	 
H 	 26.5023 	 -33.1266 	 -129.346 	 
H 	 25.6918 	 -25.5835 	 -129.633 	 
H 	 32.0024 	 -29.438 	 -132.773 	 
*
