! wB97X-D3 SP def2-SVP
%pal
nprocs 24
end

* xyz 0 1
S 	 -55.7189 	 3.19943 	 -22.8712 	 
C 	 -57.3582 	 3.63308 	 -22.5829 	 
C 	 -58.1253 	 3.09382 	 -23.5719 	 
C 	 -57.4213 	 2.32612 	 -24.5463 	 
C 	 -56.0785 	 2.29523 	 -24.3165 	 
H 	 -57.7456 	 1.68865 	 -25.4071 	 
C 	 -59.6495 	 3.14107 	 -23.5588 	 
H 	 -59.9129 	 3.8282 	 -22.7171 	 
H 	 -60.0156 	 2.08057 	 -23.3102 	 
C 	 -60.2294 	 3.74665 	 -24.7897 	 
H 	 -59.4694 	 4.56758 	 -25.1763 	 
H 	 -60.193 	 2.9542 	 -25.5943 	 
C 	 -61.6387 	 4.32224 	 -24.7206 	 
H 	 -62.1073 	 4.08742 	 -25.6581 	 
H 	 -62.2149 	 3.78427 	 -23.8958 	 
H 	 -61.6324 	 5.42965 	 -24.6052 	 
S 	 -54.3181 	 0.189591 	 -24.8255 	 
C 	 -53.843 	 -0.0796934 	 -26.5117 	 
C 	 -54.2623 	 0.955201 	 -27.3304 	 
C 	 -54.9208 	 2.02155 	 -26.6197 	 
C 	 -55.0814 	 1.7147 	 -25.2877 	 
H 	 -54.0893 	 0.780306 	 -28.3884 	 
C 	 -55.4837 	 3.15925 	 -27.4018 	 
H 	 -54.541 	 3.46569 	 -27.8736 	 
H 	 -55.8214 	 3.84258 	 -26.6434 	 
C 	 -56.6325 	 3.08231 	 -28.4611 	 
H 	 -56.8433 	 4.0563 	 -28.891 	 
H 	 -57.4921 	 2.89725 	 -27.8484 	 
C 	 -56.483 	 2.09974 	 -29.5805 	 
H 	 -57.3141 	 2.33214 	 -30.2559 	 
H 	 -56.5717 	 1.13184 	 -29.0278 	 
H 	 -55.4409 	 2.14294 	 -30.0204 	 
H 	 -57.6384 	 4.20492 	 -21.7371 	 
H 	 -53.3618 	 -1.01018 	 -26.8552 	 
*
