! wB97X-D3 SP def2-SVP
%pal
nprocs 24
end

* xyz 0 1
S 	 -116.789 	 57.7808 	 -39.4809 	 
C 	 -117.063 	 56.235 	 -40.1701 	 
C 	 -117.302 	 55.2811 	 -39.1927 	 
C 	 -117.487 	 55.8899 	 -37.8986 	 
C 	 -117.296 	 57.2491 	 -37.9422 	 
H 	 -117.77 	 55.5235 	 -36.9158 	 
C 	 -117.353 	 53.8454 	 -39.4747 	 
H 	 -116.718 	 53.2824 	 -38.7519 	 
H 	 -116.903 	 53.6793 	 -40.4337 	 
C 	 -118.767 	 53.1588 	 -39.2873 	 
H 	 -118.626 	 52.0305 	 -39.3183 	 
H 	 -118.997 	 53.3382 	 -38.2167 	 
C 	 -119.889 	 53.6538 	 -40.196 	 
H 	 -119.539 	 53.4815 	 -41.2171 	 
H 	 -120.893 	 53.1205 	 -40.0703 	 
H 	 -119.924 	 54.7 	 -40.1315 	 
S 	 -118.894 	 59.1586 	 -36.8903 	 
C 	 -118.49 	 60.0038 	 -35.4253 	 
C 	 -117.272 	 59.6098 	 -34.993 	 
C 	 -116.605 	 58.6766 	 -35.8083 	 
C 	 -117.497 	 58.1908 	 -36.8274 	 
H 	 -116.886 	 60.1593 	 -34.1721 	 
C 	 -115.185 	 58.3465 	 -35.5017 	 
H 	 -114.874 	 57.7344 	 -36.2938 	 
H 	 -115.106 	 57.8086 	 -34.5783 	 
C 	 -114.246 	 59.515 	 -35.4102 	 
H 	 -114.49 	 59.8936 	 -34.4009 	 
H 	 -114.509 	 60.1869 	 -36.2308 	 
C 	 -112.76 	 59.1957 	 -35.5644 	 
H 	 -112.262 	 60.1133 	 -35.2816 	 
H 	 -112.423 	 58.6456 	 -36.441 	 
H 	 -112.283 	 58.6035 	 -34.8032 	 
H 	 -116.824 	 55.9716 	 -41.176 	 
H 	 -119.145 	 60.6786 	 -34.8292 	 
*
