! wB97X-D3 SP def2-SVP
%pal
nprocs 24
end

* xyz 0 1
S 	 1.62923 	 -16.3646 	 -105.791 	 
C 	 2.44592 	 -17.7992 	 -106.414 	 
C 	 2.02728 	 -18.9781 	 -105.717 	 
C 	 1.38516 	 -18.6945 	 -104.519 	 
C 	 1.23623 	 -17.3355 	 -104.329 	 
H 	 1.14115 	 -19.4737 	 -103.714 	 
C 	 2.18502 	 -20.3554 	 -106.339 	 
H 	 2.62548 	 -20.3083 	 -107.37 	 
H 	 1.21591 	 -20.713 	 -106.467 	 
C 	 3.06008 	 -21.2888 	 -105.511 	 
H 	 3.98961 	 -20.8002 	 -105.203 	 
H 	 2.55239 	 -21.6387 	 -104.51 	 
C 	 3.52899 	 -22.5709 	 -106.254 	 
H 	 3.96685 	 -22.4682 	 -107.218 	 
H 	 4.34778 	 -22.9625 	 -105.717 	 
H 	 2.7097 	 -23.2263 	 -106.423 	 
S 	 1.94632 	 -16.0882 	 -101.963 	 
C 	 0.754696 	 -15.5636 	 -100.782 	 
C 	 -0.517491 	 -15.6408 	 -101.366 	 
C 	 -0.518044 	 -16.3701 	 -102.569 	 
C 	 0.749597 	 -16.6938 	 -103.066 	 
H 	 -1.36948 	 -15.2276 	 -100.911 	 
C 	 -1.77076 	 -16.6251 	 -103.391 	 
H 	 -1.45087 	 -16.8766 	 -104.387 	 
H 	 -2.11125 	 -15.6432 	 -103.527 	 
C 	 -2.92635 	 -17.3574 	 -102.746 	 
H 	 -3.71253 	 -17.3931 	 -103.561 	 
H 	 -3.3771 	 -16.7297 	 -101.988 	 
C 	 -2.60187 	 -18.838 	 -102.299 	 
H 	 -1.60594 	 -18.949 	 -101.808 	 
H 	 -2.5894 	 -19.5008 	 -103.196 	 
H 	 -3.41101 	 -19.2902 	 -101.719 	 
H 	 3.04583 	 -17.7366 	 -107.276 	 
H 	 0.897415 	 -15.0701 	 -99.8353 	 
*
