! wB97X-D3 SP def2-SVP
%pal
nprocs 24
end

* xyz 0 1
S 	 -101.243 	 47.1896 	 -87.314 	 
C 	 -101.015 	 45.5834 	 -87.9267 	 
C 	 -101.793 	 44.6757 	 -87.1575 	 
C 	 -102.801 	 45.3835 	 -86.416 	 
C 	 -102.471 	 46.7222 	 -86.2186 	 
H 	 -103.654 	 44.9355 	 -85.952 	 
C 	 -102.054 	 43.224 	 -87.4226 	 
H 	 -101.765 	 43.1141 	 -88.4387 	 
H 	 -103.048 	 42.963 	 -87.1869 	 
C 	 -101.127 	 42.3667 	 -86.6702 	 
H 	 -101.239 	 41.3341 	 -86.9146 	 
H 	 -100.165 	 42.6434 	 -87.0194 	 
C 	 -101.144 	 42.5937 	 -85.143 	 
H 	 -100.859 	 41.6739 	 -84.6051 	 
H 	 -100.432 	 43.3019 	 -84.7014 	 
H 	 -102.144 	 42.7778 	 -84.8362 	 
S 	 -103.942 	 49.0565 	 -86.1165 	 
C 	 -104.684 	 49.5058 	 -84.7057 	 
C 	 -104.559 	 48.6138 	 -83.6983 	 
C 	 -103.674 	 47.5406 	 -84.0315 	 
C 	 -103.252 	 47.6304 	 -85.3424 	 
H 	 -105.103 	 48.8095 	 -82.7827 	 
C 	 -103.313 	 46.4312 	 -83.0441 	 
H 	 -102.813 	 47.0019 	 -82.2321 	 
H 	 -102.546 	 45.9014 	 -83.4649 	 
C 	 -104.449 	 45.4708 	 -82.6649 	 
H 	 -104.59 	 44.902 	 -83.5072 	 
H 	 -105.388 	 46.0409 	 -82.4517 	 
C 	 -103.983 	 44.7167 	 -81.4132 	 
H 	 -104.833 	 43.9963 	 -81.1714 	 
H 	 -103.743 	 45.2868 	 -80.4933 	 
H 	 -103.071 	 44.2336 	 -81.7303 	 
H 	 -100.311 	 45.4023 	 -88.7444 	 
H 	 -105.173 	 50.4255 	 -84.5899 	 
*
