! wB97X-D3 SP def2-SVP
%pal
nprocs 24
end

* xyz 0 1
S 	 -108.282 	 43.5976 	 -9.38257 	 
C 	 -108.371 	 44.0048 	 -7.76518 	 
C 	 -109.491 	 44.8408 	 -7.49216 	 
C 	 -110.133 	 45.1428 	 -8.71647 	 
C 	 -109.701 	 44.4742 	 -9.79708 	 
H 	 -110.931 	 45.8736 	 -8.7944 	 
C 	 -109.934 	 45.5315 	 -6.22651 	 
H 	 -110.43 	 44.8138 	 -5.54043 	 
H 	 -110.658 	 46.2924 	 -6.37522 	 
C 	 -108.775 	 46.1196 	 -5.46276 	 
H 	 -109.186 	 46.5143 	 -4.4994 	 
H 	 -108.071 	 45.3088 	 -5.25899 	 
C 	 -108.171 	 47.2608 	 -6.18086 	 
H 	 -107.529 	 46.7229 	 -6.95089 	 
H 	 -108.842 	 47.9047 	 -6.70756 	 
H 	 -107.54 	 47.6777 	 -5.44431 	 
S 	 -110.367 	 42.5888 	 -11.6777 	 
C 	 -111.234 	 43.1081 	 -13.1218 	 
C 	 -111.409 	 44.4545 	 -13.1739 	 
C 	 -111.047 	 45.1425 	 -12.0049 	 
C 	 -110.316 	 44.3347 	 -11.1109 	 
H 	 -111.928 	 44.861 	 -14.0773 	 
C 	 -111.223 	 46.6355 	 -11.8959 	 
H 	 -111.567 	 46.8742 	 -10.9151 	 
H 	 -111.873 	 46.9865 	 -12.5997 	 
C 	 -109.959 	 47.3752 	 -12.1482 	 
H 	 -109.3 	 46.9584 	 -12.9199 	 
H 	 -109.36 	 47.2837 	 -11.2382 	 
C 	 -110.017 	 48.8603 	 -12.5108 	 
H 	 -109.023 	 49.3045 	 -12.5159 	 
H 	 -110.554 	 49.372 	 -11.7323 	 
H 	 -110.581 	 49.0733 	 -13.4152 	 
H 	 -107.698 	 43.7873 	 -6.87712 	 
H 	 -111.584 	 42.3715 	 -13.8258 	 
*
