! wB97X-D3 SP def2-SVP
%pal
nprocs 24
end

* xyz 0 1
S 	 -143.418 	 14.2199 	 -7.11238 	 
C 	 -142.646 	 12.7085 	 -6.79106 	 
C 	 -143.54 	 11.779 	 -6.24124 	 
C 	 -144.841 	 12.32 	 -6.02984 	 
C 	 -144.896 	 13.6303 	 -6.42541 	 
H 	 -145.657 	 11.8145 	 -5.56569 	 
C 	 -143.271 	 10.2996 	 -6.11228 	 
H 	 -143.661 	 10.045 	 -5.15082 	 
H 	 -142.201 	 10.1238 	 -5.97545 	 
C 	 -143.749 	 9.53028 	 -7.3296 	 
H 	 -143.637 	 8.46429 	 -7.0638 	 
H 	 -144.841 	 9.54212 	 -7.5248 	 
C 	 -142.953 	 9.83034 	 -8.63854 	 
H 	 -143.123 	 8.92111 	 -9.25818 	 
H 	 -143.344 	 10.6448 	 -9.18413 	 
H 	 -141.847 	 10.003 	 -8.50006 	 
S 	 -146.239 	 15.8972 	 -5.64726 	 
C 	 -147.911 	 16.1189 	 -6.0609 	 
C 	 -148.3 	 15.1414 	 -6.96714 	 
C 	 -147.335 	 14.1128 	 -7.14857 	 
C 	 -146.143 	 14.4365 	 -6.45519 	 
H 	 -149.228 	 15.2748 	 -7.37394 	 
C 	 -147.51 	 12.8078 	 -7.95407 	 
H 	 -146.598 	 12.2206 	 -8.0945 	 
H 	 -147.731 	 12.9169 	 -9.02814 	 
C 	 -148.531 	 11.8453 	 -7.36353 	 
H 	 -149.365 	 12.492 	 -7.26935 	 
H 	 -148.307 	 11.6018 	 -6.32888 	 
C 	 -148.889 	 10.6498 	 -8.32784 	 
H 	 -149.119 	 11.0126 	 -9.34285 	 
H 	 -149.806 	 10.183 	 -7.9796 	 
H 	 -148.074 	 9.87393 	 -8.3446 	 
H 	 -141.659 	 12.39 	 -7.10927 	 
H 	 -148.459 	 17.0048 	 -5.73464 	 
*
