! wB97X-D3 SP def2-SVP
%pal
nprocs 24
end

* xyz 0 1
S 	 -2.31696 	 -19.4584 	 -104.773 	 
C 	 -1.74896 	 -20.2717 	 -103.406 	 
C 	 -1.07387 	 -19.5331 	 -102.483 	 
C 	 -1.05301 	 -18.1734 	 -102.916 	 
C 	 -1.71996 	 -17.9123 	 -104.111 	 
H 	 -0.453101 	 -17.4107 	 -102.407 	 
C 	 -0.347679 	 -20.1343 	 -101.252 	 
H 	 0.724332 	 -19.8833 	 -101.16 	 
H 	 -0.228076 	 -21.2274 	 -101.361 	 
C 	 -1.06526 	 -19.854 	 -99.9281 	 
H 	 -1.10194 	 -18.7965 	 -99.693 	 
H 	 -2.05771 	 -20.2455 	 -99.8056 	 
C 	 -0.469629 	 -20.6728 	 -98.7859 	 
H 	 -0.911823 	 -20.38 	 -97.832 	 
H 	 -0.441851 	 -21.7268 	 -98.9138 	 
H 	 0.562144 	 -20.4379 	 -98.4467 	 
S 	 -2.22829 	 -16.3573 	 -106.296 	 
C 	 -1.79834 	 -14.7198 	 -106.229 	 
C 	 -1.73684 	 -14.3271 	 -104.917 	 
C 	 -1.96124 	 -15.3607 	 -103.939 	 
C 	 -1.99885 	 -16.5848 	 -104.625 	 
H 	 -1.67222 	 -13.234 	 -104.779 	 
C 	 -2.0022 	 -15.0244 	 -102.459 	 
H 	 -2.3207 	 -15.9458 	 -102.037 	 
H 	 -2.83705 	 -14.3524 	 -102.234 	 
C 	 -0.686249 	 -14.4396 	 -101.916 	 
H 	 -0.449215 	 -13.4249 	 -102.311 	 
H 	 0.258935 	 -14.8711 	 -102.361 	 
C 	 -0.616217 	 -14.3238 	 -100.379 	 
H 	 -1.53268 	 -13.8613 	 -99.9926 	 
H 	 0.192701 	 -13.6969 	 -100.014 	 
H 	 -0.553254 	 -15.2762 	 -99.8853 	 
H 	 -1.91048 	 -21.3097 	 -103.225 	 
H 	 -1.56915 	 -14.0115 	 -107.008 	 
*
