! wB97X-D3 SP def2-SVP
%pal
nprocs 24
end

* xyz 0 1
S 	 -98.7215 	 47.0204 	 -94.4774 	 
C 	 -98.5259 	 45.4419 	 -93.6562 	 
C 	 -97.619 	 44.6397 	 -94.3169 	 
C 	 -96.9797 	 45.3264 	 -95.4064 	 
C 	 -97.4085 	 46.6139 	 -95.6579 	 
H 	 -96.177 	 45.0032 	 -96.0775 	 
C 	 -97.2175 	 43.2689 	 -93.8245 	 
H 	 -97.0961 	 43.4164 	 -92.7672 	 
H 	 -96.1994 	 43.2092 	 -94.1608 	 
C 	 -97.9891 	 42.057 	 -94.4027 	 
H 	 -99.0101 	 42.2833 	 -94.4499 	 
H 	 -97.5553 	 42.0027 	 -95.4564 	 
C 	 -97.8015 	 40.7684 	 -93.6047 	 
H 	 -96.7544 	 40.5309 	 -93.4226 	 
H 	 -98.268 	 41.017 	 -92.5907 	 
H 	 -98.3089 	 39.9444 	 -94.1574 	 
S 	 -96.479 	 49.2239 	 -96.1632 	 
C 	 -95.928 	 49.6295 	 -97.7538 	 
C 	 -95.9806 	 48.5095 	 -98.5537 	 
C 	 -96.5919 	 47.3752 	 -97.9887 	 
C 	 -96.8733 	 47.5369 	 -96.6341 	 
H 	 -95.4987 	 48.552 	 -99.5084 	 
C 	 -96.7116 	 46.0763 	 -98.6495 	 
H 	 -97.4484 	 46.246 	 -99.4208 	 
H 	 -97.2062 	 45.2763 	 -98.0813 	 
C 	 -95.481 	 45.3985 	 -99.274 	 
H 	 -94.6825 	 45.7218 	 -98.6878 	 
H 	 -95.3801 	 45.635 	 -100.367 	 
C 	 -95.5085 	 43.8455 	 -99.2105 	 
H 	 -94.6265 	 43.5047 	 -99.7662 	 
H 	 -96.3296 	 43.4458 	 -99.8332 	 
H 	 -95.5648 	 43.4172 	 -98.226 	 
H 	 -99.1034 	 45.1246 	 -92.8158 	 
H 	 -95.4288 	 50.5662 	 -97.9242 	 
*
