! wB97X-D3 SP def2-SVP
%pal
nprocs 24
end

* xyz 0 1
S 	 -51.8721 	 16.0424 	 27.8489 	 
C 	 -51.2945 	 16.8224 	 26.3223 	 
C 	 -50.6487 	 18.0039 	 26.618 	 
C 	 -50.6403 	 18.3046 	 28.0116 	 
C 	 -51.272 	 17.3602 	 28.8499 	 
H 	 -50.1709 	 19.1976 	 28.4152 	 
C 	 -49.9745 	 18.8476 	 25.5909 	 
H 	 -50.1797 	 19.9546 	 25.635 	 
H 	 -50.4623 	 18.6239 	 24.6587 	 
C 	 -48.5076 	 18.7844 	 25.3251 	 
H 	 -48.273 	 17.7309 	 25.2618 	 
H 	 -48.3195 	 19.2783 	 24.3823 	 
C 	 -47.6544 	 19.4388 	 26.4277 	 
H 	 -47.4635 	 18.8064 	 27.2928 	 
H 	 -46.7162 	 19.7043 	 26.0459 	 
H 	 -48.0377 	 20.3963 	 26.7277 	 
S 	 -52.1015 	 18.212 	 31.3498 	 
C 	 -51.5093 	 17.3832 	 32.7491 	 
C 	 -50.6895 	 16.3073 	 32.4079 	 
C 	 -50.4649 	 16.2386 	 31.0081 	 
C 	 -51.2072 	 17.2101 	 30.2852 	 
H 	 -50.2414 	 15.6472 	 33.201 	 
C 	 -49.5864 	 15.1224 	 30.4619 	 
H 	 -49.9308 	 14.8406 	 29.4964 	 
H 	 -49.73 	 14.2842 	 31.2074 	 
C 	 -48.0756 	 15.446 	 30.2748 	 
H 	 -47.564 	 15.665 	 31.2182 	 
H 	 -47.9456 	 16.2822 	 29.6368 	 
C 	 -47.3619 	 14.2423 	 29.6218 	 
H 	 -46.3088 	 14.4987 	 29.4444 	 
H 	 -47.8336 	 13.9775 	 28.5792 	 
H 	 -47.2406 	 13.2876 	 30.2358 	 
H 	 -51.5908 	 16.3852 	 25.3692 	 
H 	 -51.8292 	 17.6548 	 33.7637 	 
*
