! wB97X-D3 SP def2-SVP
%pal
nprocs 24
end

* xyz 0 1
S 	 -90.5019 	 -48.7396 	 -76.8866 	 
C 	 -89.4484 	 -47.647 	 -76.0435 	 
C 	 -88.1607 	 -48.0884 	 -76.1099 	 
C 	 -87.9891 	 -49.0988 	 -77.109 	 
C 	 -89.171 	 -49.554 	 -77.6177 	 
H 	 -87.0747 	 -49.4235 	 -77.5239 	 
C 	 -86.9463 	 -47.4906 	 -75.5142 	 
H 	 -86.4328 	 -48.0684 	 -74.7886 	 
H 	 -87.3079 	 -46.6561 	 -75.0041 	 
C 	 -85.8649 	 -47.0185 	 -76.4749 	 
H 	 -85.0835 	 -46.6336 	 -75.82 	 
H 	 -85.4567 	 -47.9169 	 -77.0404 	 
C 	 -86.3104 	 -45.8825 	 -77.5325 	 
H 	 -86.6026 	 -44.9749 	 -76.9571 	 
H 	 -85.4643 	 -45.631 	 -78.1662 	 
H 	 -87.1871 	 -46.255 	 -78.0158 	 
S 	 -90.5829 	 -51.8463 	 -78.2571 	 
C 	 -90.3103 	 -52.6148 	 -79.7604 	 
C 	 -89.3634 	 -51.9534 	 -80.4748 	 
C 	 -88.7225 	 -50.9316 	 -79.7263 	 
C 	 -89.3596 	 -50.6555 	 -78.5269 	 
H 	 -89.18 	 -52.2599 	 -81.4991 	 
C 	 -87.4079 	 -50.2655 	 -80.0579 	 
H 	 -86.6816 	 -50.8944 	 -79.5237 	 
H 	 -87.418 	 -49.2998 	 -79.6003 	 
C 	 -87.1053 	 -50.1753 	 -81.5477 	 
H 	 -87.3705 	 -51.1668 	 -81.9882 	 
H 	 -86.0696 	 -49.9914 	 -81.6522 	 
C 	 -88.0825 	 -49.2504 	 -82.3285 	 
H 	 -88.0098 	 -49.3944 	 -83.4119 	 
H 	 -87.8318 	 -48.223 	 -82.0121 	 
H 	 -89.1345 	 -49.4347 	 -82.085 	 
H 	 -89.744 	 -46.8828 	 -75.3136 	 
H 	 -90.8421 	 -53.4754 	 -80.0541 	 
*
