! wB97X-D3 SP def2-SVP
%pal
nprocs 24
end

* xyz 0 1
S 	 -125.073 	 63.1788 	 -56.974 	 
C 	 -125.553 	 63.8136 	 -58.531 	 
C 	 -126.102 	 62.7965 	 -59.3214 	 
C 	 -126.452 	 61.6455 	 -58.5666 	 
C 	 -126.099 	 61.7337 	 -57.2175 	 
H 	 -126.828 	 60.7381 	 -58.9821 	 
C 	 -126.459 	 62.9077 	 -60.7755 	 
H 	 -125.783 	 62.3119 	 -61.3107 	 
H 	 -126.164 	 63.9491 	 -61.0767 	 
C 	 -127.935 	 62.6963 	 -61.1179 	 
H 	 -128.027 	 62.4049 	 -62.1273 	 
H 	 -128.343 	 61.9045 	 -60.4437 	 
C 	 -128.805 	 63.9241 	 -60.7598 	 
H 	 -128.396 	 64.8895 	 -61.1065 	 
H 	 -129.84 	 63.6995 	 -61.0863 	 
H 	 -129.098 	 64.0042 	 -59.6982 	 
S 	 -125.992 	 61.2344 	 -54.5138 	 
C 	 -126.539 	 59.6737 	 -53.7869 	 
C 	 -127.298 	 59.0768 	 -54.7559 	 
C 	 -127.2 	 59.6508 	 -56.0809 	 
C 	 -126.444 	 60.788 	 -56.1685 	 
H 	 -127.718 	 58.1241 	 -54.5201 	 
C 	 -127.948 	 58.9468 	 -57.2023 	 
H 	 -128.32 	 57.9816 	 -56.8263 	 
H 	 -127.184 	 58.7191 	 -57.8906 	 
C 	 -129.127 	 59.7213 	 -57.7308 	 
H 	 -128.942 	 60.7678 	 -57.9808 	 
H 	 -129.878 	 59.7379 	 -57.0039 	 
C 	 -129.626 	 59.032 	 -58.9828 	 
H 	 -130.001 	 58.0726 	 -58.6399 	 
H 	 -128.863 	 58.9096 	 -59.6863 	 
H 	 -130.503 	 59.598 	 -59.4512 	 
H 	 -125.105 	 64.7305 	 -58.922 	 
H 	 -126.438 	 59.3821 	 -52.7287 	 
*
