! wB97X-D3 SP def2-SVP
%pal
nprocs 24
end

* xyz 0 1
S 	 -55.3896 	 -49.8376 	 -85.059 	 
C 	 -56.1472 	 -48.9255 	 -86.3182 	 
C 	 -57.2718 	 -49.5657 	 -86.8531 	 
C 	 -57.3995 	 -50.9013 	 -86.3128 	 
C 	 -56.4791 	 -51.1839 	 -85.2968 	 
H 	 -58.1925 	 -51.5897 	 -86.5715 	 
C 	 -58.2039 	 -49.0934 	 -87.8645 	 
H 	 -58.2005 	 -48.044 	 -87.7068 	 
H 	 -59.1558 	 -49.563 	 -87.749 	 
C 	 -57.8433 	 -49.1923 	 -89.3332 	 
H 	 -56.7382 	 -49.2072 	 -89.5241 	 
H 	 -58.0955 	 -50.1822 	 -89.7666 	 
C 	 -58.4992 	 -48.0795 	 -90.1611 	 
H 	 -58.1708 	 -47.0656 	 -89.8775 	 
H 	 -58.2689 	 -48.2304 	 -91.211 	 
H 	 -59.6117 	 -48.1562 	 -90.1705 	 
S 	 -56.646 	 -52.253 	 -82.7345 	 
C 	 -56.3014 	 -53.9202 	 -82.4139 	 
C 	 -56.4778 	 -54.6282 	 -83.6257 	 
C 	 -56.4714 	 -53.7297 	 -84.7598 	 
C 	 -56.4479 	 -52.4153 	 -84.4879 	 
H 	 -56.4727 	 -55.7292 	 -83.5664 	 
C 	 -56.4004 	 -54.429 	 -86.1476 	 
H 	 -56.3162 	 -53.7091 	 -86.9779 	 
H 	 -57.3109 	 -55.0135 	 -86.2859 	 
C 	 -55.3602 	 -55.4826 	 -86.4975 	 
H 	 -55.5569 	 -55.7557 	 -87.5332 	 
H 	 -55.6074 	 -56.3024 	 -85.8822 	 
C 	 -53.9323 	 -54.9942 	 -86.2887 	 
H 	 -53.8044 	 -53.8837 	 -86.3295 	 
H 	 -53.2243 	 -55.6763 	 -86.6994 	 
H 	 -53.9751 	 -55.127 	 -85.1945 	 
H 	 -55.7815 	 -47.9418 	 -86.6261 	 
H 	 -56.3079 	 -54.4139 	 -81.4505 	 
*
