! wB97X-D3 SP def2-SVP
%pal
nprocs 24
end

* xyz 0 1
S 	 -116.379 	 43.4433 	 -111.72 	 
C 	 -117.908 	 42.923 	 -112.395 	 
C 	 -117.694 	 42.0707 	 -113.516 	 
C 	 -116.319 	 41.8982 	 -113.824 	 
C 	 -115.482 	 42.6482 	 -112.985 	 
H 	 -115.833 	 41.2999 	 -114.613 	 
C 	 -118.757 	 41.2427 	 -114.314 	 
H 	 -118.552 	 41.379 	 -115.305 	 
H 	 -119.698 	 41.7468 	 -114.177 	 
C 	 -118.792 	 39.7306 	 -113.884 	 
H 	 -117.775 	 39.4074 	 -113.957 	 
H 	 -119.053 	 39.6712 	 -112.834 	 
C 	 -119.868 	 38.9526 	 -114.671 	 
H 	 -119.983 	 37.9641 	 -114.285 	 
H 	 -120.869 	 39.4069 	 -114.587 	 
H 	 -119.547 	 38.826 	 -115.754 	 
S 	 -113.389 	 43.9833 	 -114.145 	 
C 	 -111.816 	 43.2516 	 -113.931 	 
C 	 -111.781 	 42.2483 	 -112.983 	 
C 	 -113.083 	 41.9012 	 -112.523 	 
C 	 -114.024 	 42.657 	 -113.116 	 
H 	 -110.884 	 41.7684 	 -112.762 	 
C 	 -113.414 	 40.6587 	 -111.752 	 
H 	 -114.408 	 40.6377 	 -111.265 	 
H 	 -112.805 	 40.729 	 -110.869 	 
C 	 -113.13 	 39.3252 	 -112.514 	 
H 	 -113.428 	 38.5148 	 -111.777 	 
H 	 -112.089 	 39.2387 	 -112.857 	 
C 	 -113.982 	 39.104 	 -113.819 	 
H 	 -113.816 	 38.0915 	 -114.252 	 
H 	 -113.678 	 39.803 	 -114.549 	 
H 	 -115.05 	 39.2286 	 -113.551 	 
H 	 -118.827 	 43.0506 	 -111.899 	 
H 	 -110.904 	 43.4706 	 -114.493 	 
*
