! wB97X-D3 SP def2-SVP
%pal
nprocs 24
end

* xyz 0 1
S 	 -144.846 	 1.55416 	 13.2325 	 
C 	 -144.587 	 1.08336 	 11.5385 	 
C 	 -143.874 	 2.06574 	 10.8148 	 
C 	 -143.427 	 3.10725 	 11.6917 	 
C 	 -143.821 	 2.97272 	 13.0358 	 
H 	 -142.761 	 3.94931 	 11.3938 	 
C 	 -143.408 	 1.90754 	 9.30578 	 
H 	 -143.157 	 2.88619 	 8.88056 	 
H 	 -144.337 	 1.6556 	 8.86731 	 
C 	 -142.144 	 0.979327 	 9.05623 	 
H 	 -141.372 	 1.30011 	 9.69478 	 
H 	 -142.304 	 0.0154754 	 9.49437 	 
C 	 -141.783 	 0.811664 	 7.59175 	 
H 	 -140.94 	 0.19359 	 7.471 	 
H 	 -142.615 	 0.345853 	 7.03463 	 
H 	 -141.525 	 1.77428 	 7.11209 	 
S 	 -141.921 	 3.81408 	 14.8599 	 
C 	 -142.379 	 4.98413 	 16.0849 	 
C 	 -143.716 	 5.40997 	 15.9229 	 
C 	 -144.383 	 4.69124 	 14.8663 	 
C 	 -143.589 	 3.81917 	 14.2155 	 
H 	 -144.162 	 6.1319 	 16.5633 	 
C 	 -145.808 	 5.03522 	 14.4473 	 
H 	 -146.458 	 5.20655 	 15.2817 	 
H 	 -146.195 	 4.07581 	 14.0795 	 
C 	 -146.174 	 6.21768 	 13.5502 	 
H 	 -145.692 	 5.98296 	 12.5902 	 
H 	 -145.708 	 7.06786 	 14.0027 	 
C 	 -147.746 	 6.37254 	 13.384 	 
H 	 -148.274 	 6.29451 	 14.3415 	 
H 	 -148.096 	 5.61806 	 12.757 	 
H 	 -148.04 	 7.28378 	 12.8028 	 
H 	 -145.041 	 0.220437 	 11.1388 	 
H 	 -141.604 	 5.41407 	 16.667 	 
*
