! wB97X-D3 SP def2-SVP
%pal
nprocs 24
end

* xyz 0 1
S 	 -39.4552 	 -9.2545 	 8.32143 	 
C 	 -37.838 	 -9.58717 	 8.96214 	 
C 	 -37.7131 	 -9.02617 	 10.2126 	 
C 	 -38.8272 	 -8.20142 	 10.5837 	 
C 	 -39.7903 	 -8.14511 	 9.61952 	 
H 	 -38.961 	 -7.75696 	 11.5375 	 
C 	 -36.529 	 -9.26373 	 11.156 	 
H 	 -35.9976 	 -10.1928 	 10.7729 	 
H 	 -36.8866 	 -9.30505 	 12.1697 	 
C 	 -35.5725 	 -8.03802 	 11.0952 	 
H 	 -34.733 	 -8.1223 	 11.8176 	 
H 	 -35.051 	 -8.19289 	 10.1535 	 
C 	 -36.1255 	 -6.5891 	 11.3315 	 
H 	 -37.0223 	 -6.34953 	 10.7669 	 
H 	 -36.4926 	 -6.61826 	 12.3684 	 
H 	 -35.3814 	 -5.82589 	 11.3641 	 
S 	 -42.465 	 -7.76223 	 8.93813 	 
C 	 -43.1155 	 -6.17187 	 8.99459 	 
C 	 -42.2481 	 -5.20792 	 9.4403 	 
C 	 -40.9746 	 -5.77761 	 9.67029 	 
C 	 -40.8989 	 -7.17838 	 9.49775 	 
H 	 -42.4791 	 -4.1318 	 9.57437 	 
C 	 -39.7907 	 -4.83976 	 9.78547 	 
H 	 -39.154 	 -5.25358 	 10.4907 	 
H 	 -40.2111 	 -3.94329 	 10.3091 	 
C 	 -39.1487 	 -4.52051 	 8.43108 	 
H 	 -39.9779 	 -4.02474 	 7.83515 	 
H 	 -38.7355 	 -5.36365 	 7.9245 	 
C 	 -38.0336 	 -3.43236 	 8.70348 	 
H 	 -38.5052 	 -2.59406 	 9.28954 	 
H 	 -37.533 	 -3.06845 	 7.76213 	 
H 	 -37.2526 	 -3.84237 	 9.36731 	 
H 	 -37.1252 	 -10.2108 	 8.52243 	 
H 	 -44.1451 	 -5.81763 	 8.88606 	 
*
