! wB97X-D3 SP def2-SVP
%pal
nprocs 24
end

* xyz 0 1
S 	 -69.0819 	 10.0044 	 -74.3938 	 
C 	 -68.3147 	 10.0714 	 -72.7901 	 
C 	 -68.8848 	 11.141 	 -72.0524 	 
C 	 -69.9495 	 11.7673 	 -72.765 	 
C 	 -70.1344 	 11.2964 	 -74.0491 	 
H 	 -70.5797 	 12.5434 	 -72.4843 	 
C 	 -68.4429 	 11.4629 	 -70.6604 	 
H 	 -67.3918 	 11.7325 	 -70.7557 	 
H 	 -68.4483 	 10.5065 	 -70.1704 	 
C 	 -69.2576 	 12.4598 	 -69.8687 	 
H 	 -68.8771 	 12.6098 	 -68.9062 	 
H 	 -69.2098 	 13.4687 	 -70.3239 	 
C 	 -70.7193 	 12.1316 	 -69.6443 	 
H 	 -71.3025 	 12.1273 	 -70.5832 	 
H 	 -70.8859 	 11.0946 	 -69.2111 	 
H 	 -71.0822 	 12.8767 	 -68.9249 	 
S 	 -70.8734 	 13.0928 	 -76.0643 	 
C 	 -72.2881 	 12.8097 	 -76.9563 	 
C 	 -73.0367 	 11.7977 	 -76.3837 	 
C 	 -72.434 	 11.2246 	 -75.2126 	 
C 	 -71.161 	 11.7157 	 -75.0013 	 
H 	 -73.9392 	 11.5663 	 -76.9268 	 
C 	 -73.1038 	 10.0749 	 -74.5029 	 
H 	 -72.8404 	 10.2196 	 -73.4366 	 
H 	 -72.6665 	 9.14119 	 -74.89 	 
C 	 -74.6429 	 10.0006 	 -74.545 	 
H 	 -74.9621 	 9.8442 	 -75.652 	 
H 	 -74.9433 	 10.9876 	 -74.286 	 
C 	 -75.3636 	 8.94124 	 -73.7843 	 
H 	 -76.3535 	 9.04926 	 -74.1881 	 
H 	 -75.3068 	 9.28526 	 -72.735 	 
H 	 -75.0133 	 7.9369 	 -73.8107 	 
H 	 -67.6735 	 9.37245 	 -72.3891 	 
H 	 -72.6434 	 13.4802 	 -77.7265 	 
*
