! wB97X-D3 SP def2-SVP
%pal
nprocs 24
end

* xyz 0 1
S 	 -59.0392 	 17.1398 	 -93.3663 	 
C 	 -57.3808 	 17.3351 	 -92.9783 	 
C 	 -56.5771 	 16.4921 	 -93.8125 	 
C 	 -57.3737 	 15.715 	 -94.7143 	 
C 	 -58.7467 	 15.9805 	 -94.6488 	 
H 	 -57.0202 	 14.9473 	 -95.4656 	 
C 	 -55.0317 	 16.4979 	 -93.8453 	 
H 	 -54.7603 	 15.786 	 -94.6158 	 
H 	 -54.6222 	 16.146 	 -92.9176 	 
C 	 -54.4315 	 17.8389 	 -94.2174 	 
H 	 -54.8734 	 18.6858 	 -93.6081 	 
H 	 -53.3934 	 17.6911 	 -93.8607 	 
C 	 -54.4208 	 18.0742 	 -95.7296 	 
H 	 -54.1618 	 19.1599 	 -95.9409 	 
H 	 -53.6836 	 17.4856 	 -96.3322 	 
H 	 -55.4383 	 17.9268 	 -96.1808 	 
S 	 -61.2091 	 16.2012 	 -95.7683 	 
C 	 -62.2187 	 14.8174 	 -96.1988 	 
C 	 -61.5279 	 13.6775 	 -95.9655 	 
C 	 -60.2378 	 13.852 	 -95.447 	 
C 	 -59.8993 	 15.2494 	 -95.2031 	 
H 	 -62.0135 	 12.6864 	 -96.1912 	 
C 	 -59.323 	 12.6721 	 -95.0296 	 
H 	 -58.2812 	 12.9003 	 -94.8783 	 
H 	 -59.4576 	 11.9653 	 -95.842 	 
C 	 -59.7971 	 11.9764 	 -93.7716 	 
H 	 -60.8627 	 12.0752 	 -93.6428 	 
H 	 -59.2914 	 12.4472 	 -92.9817 	 
C 	 -59.4891 	 10.494 	 -93.7559 	 
H 	 -59.8853 	 9.99935 	 -94.6184 	 
H 	 -59.9842 	 10.0189 	 -92.8612 	 
H 	 -58.4666 	 10.3318 	 -93.8459 	 
H 	 -56.9938 	 17.8159 	 -92.0794 	 
H 	 -63.206 	 14.9634 	 -96.558 	 
*
