! wB97X-D3 SP def2-SVP
%pal
nprocs 24
end

* xyz 0 1
S 	 -101.28 	 2.65349 	 -123.324 	 
C 	 -102.364 	 3.0934 	 -122.1 	 
C 	 -102.864 	 1.92067 	 -121.526 	 
C 	 -102.196 	 0.730515 	 -121.901 	 
C 	 -101.292 	 0.980366 	 -122.9 	 
H 	 -102.396 	 -0.26327 	 -121.581 	 
C 	 -104.024 	 1.82603 	 -120.52 	 
H 	 -104.664 	 0.999455 	 -120.77 	 
H 	 -104.61 	 2.73569 	 -120.612 	 
C 	 -103.611 	 1.79352 	 -119.078 	 
H 	 -103.068 	 0.865419 	 -118.86 	 
H 	 -102.962 	 2.55959 	 -118.795 	 
C 	 -104.785 	 1.93318 	 -118.11 	 
H 	 -105.135 	 2.96481 	 -118.125 	 
H 	 -105.57 	 1.12921 	 -118.136 	 
H 	 -104.39 	 1.82963 	 -117.143 	 
S 	 -100.882 	 0.11432 	 -125.453 	 
C 	 -99.5222 	 -0.90863 	 -125.893 	 
C 	 -98.8504 	 -1.14139 	 -124.709 	 
C 	 -99.4953 	 -0.737853 	 -123.5 	 
C 	 -100.576 	 0.0800744 	 -123.739 	 
H 	 -97.9086 	 -1.64837 	 -124.763 	 
C 	 -98.9583 	 -1.06632 	 -122.177 	 
H 	 -98.267 	 -1.94103 	 -122.357 	 
H 	 -99.7848 	 -1.40687 	 -121.478 	 
C 	 -98.0771 	 0.00466458 	 -121.447 	 
H 	 -97.8255 	 -0.647414 	 -120.588 	 
H 	 -98.6647 	 0.846897 	 -121.052 	 
C 	 -96.9497 	 0.611928 	 -122.246 	 
H 	 -97.3875 	 1.279 	 -122.983 	 
H 	 -96.3185 	 -0.0835646 	 -122.836 	 
H 	 -96.2635 	 1.14645 	 -121.697 	 
H 	 -102.95 	 4.02858 	 -122.127 	 
H 	 -99.0167 	 -0.984071 	 -126.811 	 
*
