! wB97X-D3 SP def2-SVP
%pal
nprocs 24
end

* xyz 0 1
S 	 -135.195 	 27.3535 	 -19.4727 	 
C 	 -133.946 	 26.6293 	 -18.5286 	 
C 	 -132.732 	 27.2069 	 -18.8645 	 
C 	 -132.746 	 28.1335 	 -19.9355 	 
C 	 -134.023 	 28.3428 	 -20.3324 	 
H 	 -131.89 	 28.6264 	 -20.4071 	 
C 	 -131.37 	 26.8541 	 -18.1921 	 
H 	 -130.643 	 26.7641 	 -19.0026 	 
H 	 -131.407 	 25.9304 	 -17.6232 	 
C 	 -130.874 	 27.9256 	 -17.2315 	 
H 	 -130.181 	 27.4849 	 -16.5532 	 
H 	 -130.479 	 28.7533 	 -17.8334 	 
C 	 -131.924 	 28.5333 	 -16.2984 	 
H 	 -131.434 	 29.2 	 -15.5384 	 
H 	 -132.604 	 29.1347 	 -16.9144 	 
H 	 -132.55 	 27.8054 	 -15.7411 	 
S 	 -134.929 	 28.454 	 -22.9353 	 
C 	 -135.219 	 30.0279 	 -23.6379 	 
C 	 -135.081 	 31.014 	 -22.7004 	 
C 	 -134.599 	 30.5712 	 -21.4369 	 
C 	 -134.374 	 29.2216 	 -21.435 	 
H 	 -135.298 	 31.9924 	 -23.0222 	 
C 	 -134.203 	 31.477 	 -20.2207 	 
H 	 -133.908 	 30.8108 	 -19.3995 	 
H 	 -134.99 	 32.0564 	 -19.7505 	 
C 	 -133.08 	 32.4555 	 -20.6166 	 
H 	 -133.445 	 33.1051 	 -21.4168 	 
H 	 -132.194 	 31.9034 	 -20.993 	 
C 	 -132.737 	 33.3466 	 -19.4885 	 
H 	 -131.991 	 34.0702 	 -19.6506 	 
H 	 -132.298 	 32.7212 	 -18.7298 	 
H 	 -133.582 	 33.8987 	 -19.205 	 
H 	 -134.046 	 25.9239 	 -17.7272 	 
H 	 -135.34 	 30.2026 	 -24.7049 	 
*
