! wB97X-D3 SP def2-SVP
%pal
nprocs 24
end

* xyz 0 1
S 	 -15.9325 	 -25.748 	 -97.2315 	 
C 	 -14.815 	 -27.0969 	 -97.1788 	 
C 	 -15.4414 	 -28.3204 	 -96.9201 	 
C 	 -16.8842 	 -28.142 	 -96.8705 	 
C 	 -17.2732 	 -26.8003 	 -97.1092 	 
H 	 -17.6557 	 -28.8772 	 -96.586 	 
C 	 -14.8338 	 -29.6662 	 -96.6953 	 
H 	 -15.3932 	 -30.1879 	 -95.9904 	 
H 	 -14.0137 	 -29.3448 	 -96.008 	 
C 	 -14.3726 	 -30.5365 	 -97.8903 	 
H 	 -14.0473 	 -31.5142 	 -97.5643 	 
H 	 -15.3103 	 -30.7556 	 -98.444 	 
C 	 -13.5019 	 -29.7372 	 -98.8074 	 
H 	 -14.0498 	 -28.8744 	 -99.2486 	 
H 	 -12.6987 	 -29.4067 	 -98.1972 	 
H 	 -13.2414 	 -30.3494 	 -99.686 	 
S 	 -19.2582 	 -26.0208 	 -95.4108 	 
C 	 -20.9331 	 -25.8504 	 -95.9057 	 
C 	 -20.9973 	 -26.0745 	 -97.2826 	 
C 	 -19.7622 	 -26.4132 	 -97.9309 	 
C 	 -18.7041 	 -26.3983 	 -97.0135 	 
H 	 -22.0011 	 -26.0933 	 -97.8457 	 
C 	 -19.6789 	 -26.6641 	 -99.4266 	 
H 	 -20.6807 	 -27.1403 	 -99.7394 	 
H 	 -18.8961 	 -27.3426 	 -99.5874 	 
C 	 -19.3197 	 -25.3955 	 -100.28 	 
H 	 -19.9253 	 -24.4955 	 -100.103 	 
H 	 -19.4285 	 -25.6154 	 -101.31 	 
C 	 -17.8712 	 -25.0185 	 -100.207 	 
H 	 -17.5654 	 -24.7289 	 -99.1671 	 
H 	 -17.4887 	 -24.0702 	 -100.698 	 
H 	 -17.1229 	 -25.7623 	 -100.61 	 
H 	 -13.7617 	 -26.9392 	 -97.2755 	 
H 	 -21.8394 	 -25.5852 	 -95.3638 	 
*
