! wB97X-D3 SP def2-SVP
%pal
nprocs 24
end

* xyz 0 1
S 	 -132.836 	 67.5764 	 -61.7796 	 
C 	 -132.376 	 66.1237 	 -62.6464 	 
C 	 -133.438 	 65.3592 	 -63.1369 	 
C 	 -134.698 	 65.995 	 -62.8111 	 
C 	 -134.491 	 67.2335 	 -62.2445 	 
H 	 -135.646 	 65.6311 	 -63.2297 	 
C 	 -133.407 	 64.2119 	 -64.1482 	 
H 	 -132.302 	 64.0032 	 -64.3307 	 
H 	 -133.847 	 64.5894 	 -65.0514 	 
C 	 -134.108 	 62.8767 	 -63.7455 	 
H 	 -135.197 	 62.9837 	 -63.4792 	 
H 	 -134.186 	 62.3644 	 -64.6744 	 
C 	 -133.41 	 61.9487 	 -62.7365 	 
H 	 -133.11 	 62.6758 	 -61.9736 	 
H 	 -133.952 	 61.1404 	 -62.3091 	 
H 	 -132.426 	 61.6307 	 -63.1077 	 
S 	 -136.369 	 68.3171 	 -60.529 	 
C 	 -137.486 	 69.5064 	 -61.2041 	 
C 	 -137.209 	 69.7795 	 -62.5446 	 
C 	 -136.099 	 69.014 	 -63.0797 	 
C 	 -135.549 	 68.1498 	 -62.1093 	 
H 	 -137.695 	 70.5393 	 -63.0573 	 
C 	 -135.607 	 69.1382 	 -64.4847 	 
H 	 -134.628 	 68.7471 	 -64.351 	 
H 	 -135.663 	 70.1887 	 -64.7091 	 
C 	 -136.321 	 68.2521 	 -65.4869 	 
H 	 -137.35 	 68.5696 	 -65.6601 	 
H 	 -136.391 	 67.1721 	 -65.0602 	 
C 	 -135.712 	 68.2706 	 -66.8951 	 
H 	 -135.697 	 69.2261 	 -67.4627 	 
H 	 -136.357 	 67.6622 	 -67.5709 	 
H 	 -134.704 	 67.8798 	 -67.061 	 
H 	 -131.38 	 65.9629 	 -63.0166 	 
H 	 -138.14 	 70.1246 	 -60.5541 	 
*
