! wB97X-D3 SP def2-SVP
%pal
nprocs 24
end

* xyz 0 1
S 	 -44.6349 	 15.8772 	 -100.363 	 
C 	 -46.2698 	 16.5421 	 -100.161 	 
C 	 -46.1061 	 17.9455 	 -100.33 	 
C 	 -44.8047 	 18.3336 	 -100.849 	 
C 	 -43.8907 	 17.3246 	 -101.018 	 
H 	 -44.6481 	 19.2929 	 -101.041 	 
C 	 -47.2083 	 18.9765 	 -100.116 	 
H 	 -48.1933 	 18.6626 	 -100.53 	 
H 	 -46.9795 	 19.9003 	 -100.648 	 
C 	 -47.3687 	 19.3089 	 -98.6358 	 
H 	 -46.4071 	 19.3714 	 -98.2158 	 
H 	 -47.7388 	 20.3378 	 -98.6176 	 
C 	 -48.2351 	 18.2987 	 -97.9023 	 
H 	 -49.2311 	 18.2013 	 -98.3376 	 
H 	 -47.8497 	 17.3467 	 -97.871 	 
H 	 -48.4084 	 18.5668 	 -96.8737 	 
S 	 -41.3082 	 16.5067 	 -100.295 	 
C 	 -39.9909 	 17.2618 	 -101.115 	 
C 	 -40.3716 	 18.0153 	 -102.227 	 
C 	 -41.8033 	 18.0778 	 -102.357 	 
C 	 -42.4805 	 17.3855 	 -101.35 	 
H 	 -39.7062 	 18.4575 	 -103.007 	 
C 	 -42.3592 	 18.637 	 -103.708 	 
H 	 -41.7215 	 19.5277 	 -103.974 	 
H 	 -43.3265 	 19.0314 	 -103.626 	 
C 	 -42.3023 	 17.6389 	 -104.862 	 
H 	 -42.8646 	 16.7615 	 -104.533 	 
H 	 -41.2633 	 17.23 	 -104.88 	 
C 	 -42.8025 	 18.2093 	 -106.198 	 
H 	 -43.5858 	 18.957 	 -106.018 	 
H 	 -43.272 	 17.4883 	 -106.823 	 
H 	 -42.0201 	 18.7511 	 -106.706 	 
H 	 -47.2415 	 15.9981 	 -99.9194 	 
H 	 -38.9891 	 17.0119 	 -100.886 	 
*
