! wB97X-D3 SP def2-SVP
%pal
nprocs 24
end

* xyz 0 1
S 	 -35.7499 	 13.8852 	 15.5796 	 
C 	 -35.4281 	 15.0927 	 16.7884 	 
C 	 -34.8746 	 16.2308 	 16.1218 	 
C 	 -34.3622 	 15.9563 	 14.8207 	 
C 	 -35 	 14.8326 	 14.3186 	 
H 	 -33.8093 	 16.5838 	 14.1016 	 
C 	 -34.6571 	 17.5171 	 16.837 	 
H 	 -35.5589 	 17.9203 	 17.3176 	 
H 	 -34.3836 	 18.2675 	 16.0989 	 
C 	 -33.7199 	 17.4259 	 18.0843 	 
H 	 -34.2099 	 16.7119 	 18.7657 	 
H 	 -32.7532 	 16.9967 	 17.642 	 
C 	 -33.4592 	 18.7949 	 18.7299 	 
H 	 -34.3615 	 19.2449 	 19.2267 	 
H 	 -32.69 	 18.7415 	 19.4438 	 
H 	 -33.173 	 19.4906 	 18.017 	 
S 	 -34.5398 	 12.8323 	 12.59 	 
C 	 -34.9319 	 13.0988 	 10.8777 	 
C 	 -35.0325 	 14.4767 	 10.6174 	 
C 	 -34.9686 	 15.3048 	 11.7548 	 
C 	 -34.8979 	 14.4932 	 12.8858 	 
H 	 -35.1121 	 14.8332 	 9.63408 	 
C 	 -35.1876 	 16.8357 	 11.7259 	 
H 	 -35.7104 	 17.0854 	 12.638 	 
H 	 -35.8719 	 17.1175 	 10.9124 	 
C 	 -33.9739 	 17.7573 	 11.6759 	 
H 	 -33.5703 	 17.5023 	 10.7011 	 
H 	 -33.209 	 17.3872 	 12.3841 	 
C 	 -34.1482 	 19.2808 	 11.8642 	 
H 	 -34.5055 	 19.5402 	 12.8585 	 
H 	 -34.8968 	 19.5342 	 11.0537 	 
H 	 -33.2511 	 19.7717 	 11.6027 	 
H 	 -35.7537 	 15.0801 	 17.8089 	 
H 	 -34.9894 	 12.3434 	 10.1512 	 
*
