! wB97X-D3 SP def2-SVP
%pal
nprocs 24
end

* xyz 0 1
S 	 5.17775 	 -21.3852 	 -113.057 	 
C 	 4.217 	 -20.1388 	 -113.673 	 
C 	 2.90319 	 -20.3602 	 -113.279 	 
C 	 2.68547 	 -21.6579 	 -112.834 	 
C 	 3.82721 	 -22.4162 	 -112.755 	 
H 	 1.81925 	 -22.1179 	 -112.566 	 
C 	 1.86616 	 -19.284 	 -113.295 	 
H 	 2.35639 	 -18.3055 	 -113.378 	 
H 	 1.38363 	 -19.1239 	 -112.287 	 
C 	 0.766638 	 -19.3726 	 -114.335 	 
H 	 0.284053 	 -20.3459 	 -114.192 	 
H 	 0.0167573 	 -18.6414 	 -114.063 	 
C 	 1.20638 	 -19.0991 	 -115.783 	 
H 	 1.31251 	 -18.0391 	 -115.94 	 
H 	 2.21043 	 -19.5303 	 -115.936 	 
H 	 0.520274 	 -19.4829 	 -116.522 	 
S 	 3.42971 	 -23.9617 	 -110.579 	 
C 	 4.09051 	 -25.5883 	 -110.521 	 
C 	 4.71598 	 -25.9049 	 -111.721 	 
C 	 4.74756 	 -24.8099 	 -112.669 	 
C 	 4.00606 	 -23.772 	 -112.212 	 
H 	 5.2676 	 -26.8501 	 -111.756 	 
C 	 5.37377 	 -24.8857 	 -114.059 	 
H 	 5.35973 	 -23.9931 	 -114.712 	 
H 	 4.74619 	 -25.6874 	 -114.605 	 
C 	 6.80358 	 -25.3588 	 -114.149 	 
H 	 7.06898 	 -25.5597 	 -115.2 	 
H 	 6.94704 	 -26.2647 	 -113.643 	 
C 	 7.82483 	 -24.319 	 -113.653 	 
H 	 7.42455 	 -23.3653 	 -114.016 	 
H 	 8.82464 	 -24.4791 	 -114.087 	 
H 	 7.93434 	 -24.2143 	 -112.638 	 
H 	 4.60452 	 -19.1662 	 -114.023 	 
H 	 3.88811 	 -26.2445 	 -109.712 	 
*
