! wB97X-D3 SP def2-SVP
%pal
nprocs 24
end

* xyz 0 1
S 	 -44.766 	 14.5396 	 30.1634 	 
C 	 -44.6608 	 16.1173 	 29.3547 	 
C 	 -45.8866 	 16.5195 	 28.8378 	 
C 	 -46.9577 	 15.5609 	 29.1044 	 
C 	 -46.5031 	 14.5027 	 29.8965 	 
H 	 -48.0533 	 15.5832 	 28.7581 	 
C 	 -46.0074 	 17.7459 	 27.9571 	 
H 	 -46.9692 	 18.2219 	 27.9195 	 
H 	 -45.8421 	 17.3562 	 26.9572 	 
C 	 -45.0912 	 18.9722 	 28.2071 	 
H 	 -44.087 	 18.6737 	 27.989 	 
H 	 -45.3564 	 19.7553 	 27.4896 	 
C 	 -45.2517 	 19.5889 	 29.5354 	 
H 	 -44.7353 	 20.5024 	 29.6155 	 
H 	 -46.2469 	 19.7862 	 29.6819 	 
H 	 -44.7591 	 18.9298 	 30.2489 	 
S 	 -47.3671 	 11.8572 	 30.1294 	 
C 	 -48.531 	 11.5245 	 31.4352 	 
C 	 -49.0055 	 12.6901 	 31.9875 	 
C 	 -48.2085 	 13.8424 	 31.6752 	 
C 	 -47.3141 	 13.5753 	 30.5974 	 
H 	 -49.7953 	 12.6878 	 32.7306 	 
C 	 -48.4948 	 15.1227 	 32.3256 	 
H 	 -47.8313 	 15.9025 	 32.0422 	 
H 	 -48.4297 	 15.0459 	 33.4289 	 
C 	 -49.9055 	 15.7527 	 32.0724 	 
H 	 -49.9336 	 16.583 	 32.7087 	 
H 	 -50.6446 	 15.1011 	 32.5686 	 
C 	 -50.1753 	 16.0842 	 30.6332 	 
H 	 -49.2359 	 16.5305 	 30.252 	 
H 	 -51.0469 	 16.6825 	 30.4063 	 
H 	 -50.2724 	 15.1659 	 30.0219 	 
H 	 -43.7654 	 16.6722 	 29.26 	 
H 	 -48.8566 	 10.6087 	 31.7356 	 
*
