! wB97X-D3 SP def2-SVP
%pal
nprocs 24
end

* xyz 0 1
S 	 -144.697 	 28.8249 	 -16.716 	 
C 	 -145.283 	 27.4477 	 -17.6216 	 
C 	 -144.324 	 26.4735 	 -17.8129 	 
C 	 -143.19 	 26.7425 	 -16.98 	 
C 	 -143.193 	 28.0444 	 -16.3975 	 
H 	 -142.56 	 26.0295 	 -16.557 	 
C 	 -144.485 	 25.1374 	 -18.4812 	 
H 	 -143.759 	 25.1952 	 -19.3403 	 
H 	 -145.481 	 25.0665 	 -18.9924 	 
C 	 -144.324 	 23.9125 	 -17.5627 	 
H 	 -143.314 	 23.8844 	 -17.154 	 
H 	 -144.876 	 24.1192 	 -16.7801 	 
C 	 -144.485 	 22.6445 	 -18.2895 	 
H 	 -143.809 	 22.4551 	 -19.0997 	 
H 	 -144.464 	 21.8059 	 -17.585 	 
H 	 -145.501 	 22.5286 	 -18.6698 	 
S 	 -143.107 	 29.2691 	 -14.0133 	 
C 	 -141.54 	 29.3754 	 -13.149 	 
C 	 -140.539 	 28.8219 	 -13.8372 	 
C 	 -140.992 	 28.164 	 -15.0459 	 
C 	 -142.326 	 28.4495 	 -15.321 	 
H 	 -139.57 	 28.658 	 -13.3578 	 
C 	 -139.95 	 27.6675 	 -15.9034 	 
H 	 -140.438 	 26.9435 	 -16.5816 	 
H 	 -139.148 	 27.3292 	 -15.331 	 
C 	 -139.228 	 28.7344 	 -16.7378 	 
H 	 -138.312 	 28.2929 	 -17.082 	 
H 	 -138.935 	 29.5495 	 -16.1079 	 
C 	 -139.949 	 29.3471 	 -17.9143 	 
H 	 -140.951 	 29.7031 	 -17.6726 	 
H 	 -140.087 	 28.603 	 -18.693 	 
H 	 -139.373 	 30.208 	 -18.3494 	 
H 	 -146.263 	 27.5188 	 -18.0815 	 
H 	 -141.376 	 29.864 	 -12.1882 	 
*
