! wB97X-D3 SP def2-SVP
%pal
nprocs 24
end

* xyz 0 1
S 	 -107.082 	 42.8607 	 -10.4434 	 
C 	 -108.2 	 44.2432 	 -10.72 	 
C 	 -109.456 	 43.7793 	 -10.6786 	 
C 	 -109.622 	 42.417 	 -10.2849 	 
C 	 -108.409 	 41.7957 	 -10.0229 	 
H 	 -110.487 	 41.7707 	 -10.2028 	 
C 	 -110.72 	 44.6485 	 -11.131 	 
H 	 -110.408 	 45.7107 	 -11.1218 	 
H 	 -111.482 	 44.5918 	 -10.3289 	 
C 	 -111.535 	 44.2459 	 -12.4363 	 
H 	 -112.118 	 44.9336 	 -12.9224 	 
H 	 -110.767 	 43.8608 	 -13.132 	 
C 	 -112.557 	 43.0693 	 -12.1351 	 
H 	 -113.179 	 43.2569 	 -11.2773 	 
H 	 -113.12 	 42.7713 	 -12.996 	 
H 	 -112.057 	 42.0945 	 -11.9401 	 
S 	 -108.993 	 39.3206 	 -10.9272 	 
C 	 -108.796 	 37.9568 	 -9.87839 	 
C 	 -108.039 	 38.3086 	 -8.76915 	 
C 	 -107.728 	 39.7027 	 -8.78105 	 
C 	 -108.251 	 40.4392 	 -9.7976 	 
H 	 -107.827 	 37.5887 	 -8.04654 	 
C 	 -106.936 	 40.3172 	 -7.64884 	 
H 	 -106.783 	 41.3269 	 -7.83752 	 
H 	 -106.018 	 39.7563 	 -7.52188 	 
C 	 -107.603 	 40.306 	 -6.28569 	 
H 	 -106.891 	 40.6816 	 -5.48193 	 
H 	 -107.802 	 39.2958 	 -5.91253 	 
C 	 -108.887 	 41.067 	 -6.30845 	 
H 	 -109.256 	 41.1464 	 -5.26761 	 
H 	 -109.6 	 40.406 	 -6.84799 	 
H 	 -108.783 	 42.0561 	 -6.80921 	 
H 	 -107.884 	 45.2213 	 -11.0354 	 
H 	 -109.254 	 37.0257 	 -10.0568 	 
*
