! wB97X-D3 SP def2-SVP
%pal
nprocs 24
end

* xyz 0 1
S 	 -84.6797 	 1.42785 	 -116.8 	 
C 	 -84.8271 	 -0.304723 	 -116.726 	 
C 	 -84.8748 	 -0.842273 	 -117.99 	 
C 	 -84.7892 	 0.123641 	 -119.015 	 
C 	 -84.6391 	 1.40611 	 -118.533 	 
H 	 -84.7045 	 -0.0748729 	 -120.105 	 
C 	 -84.974 	 -2.38598 	 -118.171 	 
H 	 -84.7289 	 -2.71472 	 -117.192 	 
H 	 -84.2311 	 -2.69634 	 -118.858 	 
C 	 -86.3512 	 -3.02015 	 -118.336 	 
H 	 -86.1836 	 -4.08124 	 -118.552 	 
H 	 -86.8223 	 -2.9828 	 -117.348 	 
C 	 -87.2093 	 -2.44773 	 -119.472 	 
H 	 -87.9641 	 -3.15488 	 -119.751 	 
H 	 -87.6741 	 -1.52834 	 -119.369 	 
H 	 -86.6604 	 -2.25525 	 -120.402 	 
S 	 -82.9972 	 3.21971 	 -119.694 	 
C 	 -83.6234 	 4.5945 	 -120.516 	 
C 	 -84.965 	 4.70137 	 -120.322 	 
C 	 -85.5371 	 3.55744 	 -119.725 	 
C 	 -84.5392 	 2.66341 	 -119.261 	 
H 	 -85.5619 	 5.55026 	 -120.597 	 
C 	 -87.0559 	 3.41407 	 -119.579 	 
H 	 -87.4427 	 3.86771 	 -118.689 	 
H 	 -87.1403 	 2.35451 	 -119.342 	 
C 	 -87.8719 	 3.77399 	 -120.788 	 
H 	 -87.527 	 3.245 	 -121.616 	 
H 	 -87.7585 	 4.81394 	 -121.062 	 
C 	 -89.3637 	 3.42677 	 -120.622 	 
H 	 -89.881 	 4.04702 	 -119.921 	 
H 	 -89.4491 	 2.40144 	 -120.331 	 
H 	 -89.9245 	 3.6484 	 -121.572 	 
H 	 -84.9665 	 -0.964542 	 -115.858 	 
H 	 -83.066 	 5.37067 	 -120.991 	 
*
