! wB97X-D3 SP def2-SVP
%pal
nprocs 24
end

* xyz 0 1
S 	 27.2123 	 -8.911 	 -113.986 	 
C 	 28.0184 	 -9.82137 	 -112.801 	 
C 	 27.1624 	 -10.2608 	 -111.784 	 
C 	 25.871 	 -9.72582 	 -111.899 	 
C 	 25.7296 	 -8.89791 	 -113.033 	 
H 	 24.9475 	 -9.9472 	 -111.37 	 
C 	 27.5885 	 -11.1459 	 -110.597 	 
H 	 28.3064 	 -11.8716 	 -110.923 	 
H 	 26.7147 	 -11.6512 	 -110.244 	 
C 	 28.2812 	 -10.2263 	 -109.553 	 
H 	 29.0234 	 -9.54848 	 -109.989 	 
H 	 27.5492 	 -9.42495 	 -109.381 	 
C 	 28.7748 	 -10.8839 	 -108.192 	 
H 	 29.7513 	 -11.3617 	 -108.344 	 
H 	 28.8513 	 -10.2479 	 -107.297 	 
H 	 28.0354 	 -11.6062 	 -107.907 	 
S 	 24.2411 	 -8.41473 	 -115.169 	 
C 	 22.7663 	 -7.36854 	 -115.021 	 
C 	 22.5777 	 -6.96808 	 -113.758 	 
C 	 23.5506 	 -7.46142 	 -112.851 	 
C 	 24.4745 	 -8.29845 	 -113.464 	 
H 	 21.7623 	 -6.26325 	 -113.562 	 
C 	 23.5005 	 -7.1035 	 -111.397 	 
H 	 23.9074 	 -6.09525 	 -111.262 	 
H 	 24.1502 	 -7.74074 	 -110.843 	 
C 	 22.1441 	 -7.06498 	 -110.714 	 
H 	 21.6045 	 -7.98742 	 -110.776 	 
H 	 21.4973 	 -6.41896 	 -111.283 	 
C 	 22.1492 	 -6.72154 	 -109.24 	 
H 	 21.1695 	 -6.28115 	 -108.963 	 
H 	 22.7684 	 -5.87885 	 -108.985 	 
H 	 22.3862 	 -7.53987 	 -108.627 	 
H 	 29.1185 	 -10.0009 	 -112.788 	 
H 	 22.0946 	 -7.07664 	 -115.751 	 
*
