! wB97X-D3 SP def2-SVP
%pal
nprocs 24
end

* xyz 0 1
S 	 -120.297 	 62.7765 	 -54.0296 	 
C 	 -119.84 	 64.4714 	 -54.2552 	 
C 	 -120.852 	 65.3345 	 -53.9508 	 
C 	 -122.071 	 64.6923 	 -53.6071 	 
C 	 -121.923 	 63.3132 	 -53.5978 	 
H 	 -123.038 	 65.1583 	 -53.4481 	 
C 	 -120.718 	 66.8395 	 -54.009 	 
H 	 -119.81 	 67.0005 	 -53.5111 	 
H 	 -121.431 	 67.2933 	 -53.2887 	 
C 	 -120.707 	 67.5106 	 -55.4147 	 
H 	 -120.454 	 68.6057 	 -55.2895 	 
H 	 -119.769 	 67.1406 	 -55.8881 	 
C 	 -121.999 	 67.2091 	 -56.1382 	 
H 	 -122.203 	 68.0039 	 -56.7974 	 
H 	 -122.094 	 66.2136 	 -56.5703 	 
H 	 -122.867 	 67.3382 	 -55.527 	 
S 	 -123.482 	 61.3295 	 -54.7799 	 
C 	 -124.678 	 60.589 	 -53.8026 	 
C 	 -124.619 	 61.0022 	 -52.4855 	 
C 	 -123.612 	 61.9728 	 -52.2732 	 
C 	 -122.987 	 62.3296 	 -53.4308 	 
H 	 -125.267 	 60.5436 	 -51.8101 	 
C 	 -123.415 	 62.5234 	 -50.8564 	 
H 	 -124.324 	 62.4513 	 -50.3047 	 
H 	 -123.301 	 63.6199 	 -50.9791 	 
C 	 -122.192 	 62.0049 	 -50.0363 	 
H 	 -122.085 	 62.5019 	 -49.0221 	 
H 	 -121.291 	 62.1372 	 -50.6223 	 
C 	 -122.361 	 60.5564 	 -49.5994 	 
H 	 -121.468 	 60.0914 	 -49.0779 	 
H 	 -122.45 	 60.0665 	 -50.5522 	 
H 	 -123.251 	 60.3362 	 -49.0574 	 
H 	 -118.855 	 64.8661 	 -54.5549 	 
H 	 -125.371 	 59.8386 	 -54.2822 	 
*
