! wB97X-D3 SP def2-SVP
%pal
nprocs 24
end

* xyz 0 1
S 	 -64.5171 	 14.7588 	 -121.051 	 
C 	 -63.5221 	 13.6737 	 -120.123 	 
C 	 -64.1211 	 12.4384 	 -120.013 	 
C 	 -65.2805 	 12.3231 	 -120.809 	 
C 	 -65.6239 	 13.4828 	 -121.427 	 
H 	 -66.0562 	 11.5636 	 -120.815 	 
C 	 -63.6517 	 11.3407 	 -119.078 	 
H 	 -64.5963 	 11.0551 	 -118.599 	 
H 	 -62.9904 	 11.6979 	 -118.255 	 
C 	 -62.9388 	 10.1856 	 -119.744 	 
H 	 -63.6304 	 9.57043 	 -120.34 	 
H 	 -62.1486 	 10.4649 	 -120.401 	 
C 	 -62.3745 	 9.30551 	 -118.638 	 
H 	 -61.6597 	 9.72307 	 -117.933 	 
H 	 -63.1274 	 8.82714 	 -118.056 	 
H 	 -61.8139 	 8.47642 	 -119.111 	 
S 	 -66.5964 	 13.7454 	 -124.04 	 
C 	 -68.3122 	 14.0012 	 -124.206 	 
C 	 -68.8951 	 14.2964 	 -123.004 	 
C 	 -68.0046 	 14.2757 	 -121.846 	 
C 	 -66.7688 	 13.7902 	 -122.264 	 
H 	 -69.9263 	 14.5713 	 -122.966 	 
C 	 -68.3695 	 14.709 	 -120.46 	 
H 	 -67.7907 	 15.6177 	 -120.227 	 
H 	 -67.9219 	 13.9406 	 -119.787 	 
C 	 -69.8292 	 14.7516 	 -120.009 	 
H 	 -70.2151 	 13.7164 	 -119.84 	 
H 	 -70.4624 	 15.2801 	 -120.809 	 
C 	 -70.2362 	 15.5476 	 -118.683 	 
H 	 -69.7767 	 15.0917 	 -117.797 	 
H 	 -71.2763 	 15.3627 	 -118.551 	 
H 	 -70.0205 	 16.5708 	 -118.747 	 
H 	 -62.7063 	 13.9229 	 -119.431 	 
H 	 -68.8088 	 14.4389 	 -125.1 	 
*
