! wB97X-D3 SP def2-SVP
%pal
nprocs 24
end

* xyz 0 1
S 	 -47.9663 	 3.77942 	 -23.7169 	 
C 	 -47.0436 	 2.36305 	 -23.9932 	 
C 	 -47.5424 	 1.2977 	 -23.273 	 
C 	 -48.7272 	 1.66435 	 -22.5496 	 
C 	 -49.0873 	 3.00595 	 -22.6415 	 
H 	 -49.1968 	 0.994769 	 -21.9112 	 
C 	 -46.8681 	 0.00227008 	 -23.0234 	 
H 	 -47.573 	 -0.802885 	 -22.7757 	 
H 	 -46.2967 	 0.0607762 	 -22.17 	 
C 	 -46.0191 	 -0.597874 	 -24.1078 	 
H 	 -46.56 	 -1.15799 	 -24.8526 	 
H 	 -45.4129 	 0.165257 	 -24.5973 	 
C 	 -45.0258 	 -1.67757 	 -23.4861 	 
H 	 -43.9889 	 -1.28654 	 -23.5111 	 
H 	 -45.3476 	 -1.99668 	 -22.4677 	 
H 	 -44.886 	 -2.52363 	 -24.1663 	 
S 	 -50.9423 	 4.94808 	 -22.9011 	 
C 	 -52.2216 	 5.08482 	 -21.6671 	 
C 	 -52.1294 	 4.08521 	 -20.678 	 
C 	 -50.8786 	 3.43012 	 -20.7843 	 
C 	 -50.181 	 3.70735 	 -21.9852 	 
H 	 -52.9036 	 3.97034 	 -20.0139 	 
C 	 -50.5334 	 2.39717 	 -19.7118 	 
H 	 -50.3031 	 1.49025 	 -20.1722 	 
H 	 -51.4482 	 2.29325 	 -19.1666 	 
C 	 -49.5355 	 2.79629 	 -18.5118 	 
H 	 -49.1374 	 1.90527 	 -17.9181 	 
H 	 -50.0245 	 3.53352 	 -17.8538 	 
C 	 -48.3443 	 3.55363 	 -19.1024 	 
H 	 -47.4332 	 3.62397 	 -18.4779 	 
H 	 -48.7014 	 4.60834 	 -19.3209 	 
H 	 -47.9515 	 3.19466 	 -20.1217 	 
H 	 -46.1981 	 2.19687 	 -24.66 	 
H 	 -53.1195 	 5.66071 	 -21.6911 	 
*
