! wB97X-D3 SP def2-SVP
%pal
nprocs 24
end

* xyz 0 1
S 	 -103.797 	 44.0228 	 -97.3522 	 
C 	 -104.02 	 42.7312 	 -96.2153 	 
C 	 -104.285 	 43.1023 	 -94.9233 	 
C 	 -104.365 	 44.5316 	 -94.8392 	 
C 	 -104.123 	 45.1879 	 -96.0516 	 
H 	 -104.607 	 45.1125 	 -93.9523 	 
C 	 -104.454 	 42.2379 	 -93.7034 	 
H 	 -105.377 	 41.5944 	 -93.8129 	 
H 	 -104.649 	 42.8609 	 -92.7791 	 
C 	 -103.384 	 41.2402 	 -93.487 	 
H 	 -103.366 	 40.7157 	 -94.475 	 
H 	 -102.413 	 41.7737 	 -93.4348 	 
C 	 -103.626 	 40.1955 	 -92.4253 	 
H 	 -103.487 	 40.6524 	 -91.3936 	 
H 	 -104.62 	 39.8906 	 -92.4967 	 
H 	 -102.925 	 39.3422 	 -92.5926 	 
S 	 -105.222 	 47.6463 	 -95.4337 	 
C 	 -104.508 	 49.0389 	 -96.1816 	 
C 	 -103.27 	 48.7599 	 -96.7415 	 
C 	 -102.984 	 47.3298 	 -96.7704 	 
C 	 -103.913 	 46.6167 	 -96.065 	 
H 	 -102.631 	 49.61 	 -97.0491 	 
C 	 -101.75 	 46.6702 	 -97.3595 	 
H 	 -101.985 	 46.2882 	 -98.3472 	 
H 	 -101.51 	 45.8997 	 -96.5993 	 
C 	 -100.49 	 47.5494 	 -97.527 	 
H 	 -100.333 	 48.1975 	 -96.7012 	 
H 	 -100.654 	 48.3224 	 -98.2571 	 
C 	 -99.2109 	 46.7381 	 -97.627 	 
H 	 -99.1708 	 46.0535 	 -98.4732 	 
H 	 -99.1349 	 46.1542 	 -96.6383 	 
H 	 -98.2972 	 47.3437 	 -97.7741 	 
H 	 -103.802 	 41.6855 	 -96.5118 	 
H 	 -104.919 	 49.9786 	 -96.0141 	 
*
