! wB97X-D3 SP def2-SVP
%pal
nprocs 24
end

* xyz 0 1
S 	 -48.5977 	 14.0688 	 22.3222 	 
C 	 -50.3311 	 13.6167 	 22.2908 	 
C 	 -51.1507 	 14.7069 	 22.1887 	 
C 	 -50.3898 	 15.8807 	 21.8021 	 
C 	 -48.982 	 15.7279 	 21.7753 	 
H 	 -50.8287 	 16.8342 	 21.6296 	 
C 	 -52.6808 	 14.816 	 22.3478 	 
H 	 -53.1837 	 13.9029 	 22.4054 	 
H 	 -52.9963 	 15.1694 	 21.403 	 
C 	 -53.1143 	 15.8485 	 23.3642 	 
H 	 -52.7487 	 15.563 	 24.302 	 
H 	 -52.6981 	 16.8267 	 23.0667 	 
C 	 -54.6418 	 15.8958 	 23.4174 	 
H 	 -55.0649 	 14.8496 	 23.6309 	 
H 	 -54.9781 	 16.5418 	 24.2766 	 
H 	 -55.1331 	 16.3212 	 22.5363 	 
S 	 -46.503 	 15.8191 	 20.679 	 
C 	 -45.8246 	 17.3081 	 20.4158 	 
C 	 -46.73 	 18.3419 	 20.3198 	 
C 	 -47.9592 	 17.9638 	 20.9561 	 
C 	 -47.9464 	 16.6245 	 21.28 	 
H 	 -46.4238 	 19.3524 	 20.1674 	 
C 	 -48.9681 	 19.0018 	 21.2451 	 
H 	 -50.0246 	 18.6196 	 21.1195 	 
H 	 -48.929 	 19.8592 	 20.5451 	 
C 	 -49.0302 	 19.5698 	 22.7051 	 
H 	 -49.4112 	 18.7346 	 23.331 	 
H 	 -49.7413 	 20.4158 	 22.7471 	 
C 	 -47.6183 	 19.9729 	 23.2146 	 
H 	 -47.1424 	 20.6892 	 22.6109 	 
H 	 -46.9324 	 19.1125 	 23.1248 	 
H 	 -47.6219 	 20.2938 	 24.1952 	 
H 	 -50.7035 	 12.6306 	 22.38 	 
H 	 -44.7642 	 17.5059 	 20.3105 	 
*
