! wB97X-D3 SP def2-SVP
%pal
nprocs 24
end

* xyz 0 1
S 	 -130.39 	 57.6024 	 -60.7692 	 
C 	 -131.28 	 58.5503 	 -61.8025 	 
C 	 -132.421 	 57.984 	 -62.2028 	 
C 	 -132.641 	 56.7195 	 -61.5827 	 
C 	 -131.567 	 56.3356 	 -60.7932 	 
H 	 -133.505 	 56.0552 	 -61.7359 	 
C 	 -133.467 	 58.4856 	 -63.1052 	 
H 	 -134.166 	 57.7246 	 -63.3707 	 
H 	 -132.946 	 58.6542 	 -64.0758 	 
C 	 -134.166 	 59.791 	 -62.687 	 
H 	 -134.491 	 59.7152 	 -61.6625 	 
H 	 -133.465 	 60.5891 	 -62.7594 	 
C 	 -135.329 	 60.2252 	 -63.5995 	 
H 	 -135.548 	 61.2563 	 -63.4329 	 
H 	 -135.261 	 60.1107 	 -64.6819 	 
H 	 -136.156 	 59.6964 	 -63.3053 	 
S 	 -131.743 	 55.0014 	 -58.3626 	 
C 	 -132.069 	 53.2925 	 -58.4234 	 
C 	 -131.666 	 52.7544 	 -59.6068 	 
C 	 -131.247 	 53.7228 	 -60.5803 	 
C 	 -131.359 	 55.0349 	 -60.1116 	 
H 	 -131.842 	 51.6832 	 -59.7838 	 
C 	 -130.729 	 53.3756 	 -62.0094 	 
H 	 -129.692 	 53.7307 	 -62.1315 	 
H 	 -131.393 	 53.8818 	 -62.6412 	 
C 	 -130.724 	 51.8278 	 -62.3409 	 
H 	 -131.749 	 51.4304 	 -62.2983 	 
H 	 -130.244 	 51.2902 	 -61.5439 	 
C 	 -129.927 	 51.4909 	 -63.6093 	 
H 	 -129.466 	 50.5042 	 -63.5374 	 
H 	 -129.253 	 52.2913 	 -63.9414 	 
H 	 -130.617 	 51.3784 	 -64.4753 	 
H 	 -131.066 	 59.5077 	 -62.1688 	 
H 	 -132.597 	 52.7296 	 -57.599 	 
*
