! wB97X-D3 SP def2-SVP
%pal
nprocs 24
end

* xyz 0 1
S 	 -39.114 	 18.7429 	 -99.1863 	 
C 	 -38.0028 	 18.3624 	 -100.502 	 
C 	 -36.9665 	 17.5812 	 -100.051 	 
C 	 -36.9812 	 17.3574 	 -98.6659 	 
C 	 -38.1599 	 17.8055 	 -98.0402 	 
H 	 -36.2812 	 16.8628 	 -98.0281 	 
C 	 -35.93 	 17.0921 	 -100.969 	 
H 	 -35.2009 	 16.4222 	 -100.41 	 
H 	 -35.2635 	 17.8397 	 -101.109 	 
C 	 -36.4304 	 16.308 	 -102.226 	 
H 	 -37.0574 	 16.9981 	 -102.804 	 
H 	 -35.506 	 16.143 	 -102.857 	 
C 	 -37.1587 	 14.9706 	 -101.88 	 
H 	 -37.4068 	 14.4205 	 -102.744 	 
H 	 -36.7103 	 14.2543 	 -101.218 	 
H 	 -38.1329 	 15.1481 	 -101.456 	 
S 	 -38.2505 	 18.7146 	 -95.4259 	 
C 	 -38.7422 	 17.6266 	 -94.1627 	 
C 	 -39.2299 	 16.3979 	 -94.6372 	 
C 	 -39.1742 	 16.3922 	 -96.0886 	 
C 	 -38.5355 	 17.5466 	 -96.6327 	 
H 	 -39.5936 	 15.6445 	 -93.9818 	 
C 	 -39.7612 	 15.2707 	 -96.8855 	 
H 	 -40.0791 	 15.7787 	 -97.8428 	 
H 	 -40.716 	 15.0516 	 -96.4063 	 
C 	 -38.9199 	 14.0111 	 -97.1148 	 
H 	 -38.8072 	 13.654 	 -96.0863 	 
H 	 -37.9372 	 14.2425 	 -97.4783 	 
C 	 -39.622 	 12.9755 	 -98.0252 	 
H 	 -39.6349 	 13.3224 	 -99.0873 	 
H 	 -40.667 	 12.6369 	 -97.6406 	 
H 	 -39.0747 	 12.0109 	 -98.1511 	 
H 	 -38.1191 	 18.8311 	 -101.509 	 
H 	 -38.9044 	 18.0004 	 -93.1843 	 
*
