! wB97X-D3 SP def2-SVP
%pal
nprocs 24
end

* xyz 0 1
S 	 -51.3195 	 -44.2203 	 -76.4128 	 
C 	 -52.2559 	 -42.7948 	 -76.2038 	 
C 	 -53.2088 	 -42.5919 	 -77.1615 	 
C 	 -53.1895 	 -43.5783 	 -78.1867 	 
C 	 -52.1462 	 -44.5074 	 -78.0071 	 
H 	 -53.7845 	 -43.6454 	 -79.0525 	 
C 	 -54.3317 	 -41.5232 	 -77.2279 	 
H 	 -54.8867 	 -41.5266 	 -76.2867 	 
H 	 -55.0477 	 -41.8431 	 -78.0614 	 
C 	 -53.889 	 -40.2115 	 -77.5516 	 
H 	 -53.0726 	 -40.0427 	 -76.827 	 
H 	 -53.4705 	 -40.2078 	 -78.5882 	 
C 	 -54.9555 	 -39.1736 	 -77.4805 	 
H 	 -55.4672 	 -39.1644 	 -76.5104 	 
H 	 -54.42 	 -38.2581 	 -77.4325 	 
H 	 -55.6067 	 -39.184 	 -78.3492 	 
S 	 -51.7561 	 -47.2534 	 -78.1459 	 
C 	 -51.6826 	 -48.1616 	 -79.6897 	 
C 	 -51.6455 	 -47.2039 	 -80.6726 	 
C 	 -51.7156 	 -45.8264 	 -80.2593 	 
C 	 -51.8416 	 -45.6615 	 -78.8438 	 
H 	 -51.5834 	 -47.5089 	 -81.6559 	 
C 	 -51.6152 	 -44.6838 	 -81.2836 	 
H 	 -52.6929 	 -44.3211 	 -81.2458 	 
H 	 -51.4858 	 -45.0212 	 -82.3042 	 
C 	 -50.5271 	 -43.6555 	 -80.9611 	 
H 	 -50.5217 	 -43.3049 	 -79.9265 	 
H 	 -50.7362 	 -42.7885 	 -81.6104 	 
C 	 -49.2064 	 -44.1738 	 -81.4391 	 
H 	 -49.2243 	 -44.4545 	 -82.4747 	 
H 	 -48.9077 	 -45.0126 	 -80.8381 	 
H 	 -48.301 	 -43.5133 	 -81.4809 	 
H 	 -52.4198 	 -42.211 	 -75.2785 	 
H 	 -51.7057 	 -49.2507 	 -79.8002 	 
*
