! wB97X-D3 SP def2-SVP
%pal
nprocs 24
end

* xyz 0 1
S 	 -95.3476 	 11.7998 	 -119.084 	 
C 	 -94.6819 	 11.7712 	 -117.449 	 
C 	 -95.3078 	 12.6591 	 -116.571 	 
C 	 -96.3965 	 13.2946 	 -117.175 	 
C 	 -96.6694 	 12.7289 	 -118.454 	 
H 	 -97.0998 	 14.001 	 -116.791 	 
C 	 -94.8531 	 13.1144 	 -115.183 	 
H 	 -94.5057 	 14.153 	 -115.128 	 
H 	 -93.9596 	 12.5045 	 -114.987 	 
C 	 -95.829 	 12.9875 	 -114.099 	 
H 	 -95.4823 	 13.5651 	 -113.278 	 
H 	 -96.7948 	 13.4615 	 -114.324 	 
C 	 -96.2299 	 11.5876 	 -113.595 	 
H 	 -95.9548 	 10.9023 	 -114.414 	 
H 	 -95.6024 	 11.2085 	 -112.709 	 
H 	 -97.2647 	 11.5217 	 -113.402 	 
S 	 -97.3946 	 14.1994 	 -120.61 	 
C 	 -99.0682 	 14.4388 	 -120.933 	 
C 	 -99.9266 	 13.8572 	 -120.077 	 
C 	 -99.1933 	 13.0128 	 -119.187 	 
C 	 -97.8035 	 13.1369 	 -119.286 	 
H 	 -101.001 	 14.0027 	 -120.24 	 
C 	 -99.9341 	 12.3005 	 -118.039 	 
H 	 -99.1611 	 12.0638 	 -117.293 	 
H 	 -100.364 	 11.354 	 -118.257 	 
C 	 -101.091 	 13.0791 	 -117.35 	 
H 	 -102.01 	 12.7352 	 -117.769 	 
H 	 -101.021 	 14.181 	 -117.354 	 
C 	 -101.037 	 12.6621 	 -115.883 	 
H 	 -100.042 	 12.7732 	 -115.388 	 
H 	 -101.507 	 11.6621 	 -115.851 	 
H 	 -101.685 	 13.3206 	 -115.35 	 
H 	 -93.7017 	 11.4774 	 -117.187 	 
H 	 -99.3441 	 15.0671 	 -121.825 	 
*
