! wB97X-D3 SP def2-SVP
%pal
nprocs 24
end

* xyz 0 1
S 	 -37.7708 	 -50.9505 	 -71.3453 	 
C 	 -38.3256 	 -50.0722 	 -72.7414 	 
C 	 -39.4911 	 -49.3839 	 -72.4261 	 
C 	 -39.917 	 -49.4565 	 -71.0013 	 
C 	 -39.1471 	 -50.3493 	 -70.2703 	 
H 	 -40.5853 	 -48.9215 	 -70.4756 	 
C 	 -40.3529 	 -48.4951 	 -73.4255 	 
H 	 -39.6877 	 -47.7866 	 -73.9134 	 
H 	 -41.0278 	 -47.7865 	 -72.8894 	 
C 	 -41.1017 	 -49.0814 	 -74.6058 	 
H 	 -41.5953 	 -48.2611 	 -75.1794 	 
H 	 -40.5159 	 -49.5884 	 -75.2723 	 
C 	 -42.1861 	 -50.1707 	 -74.1852 	 
H 	 -42.6202 	 -50.6213 	 -75.1125 	 
H 	 -41.6311 	 -50.8706 	 -73.5668 	 
H 	 -42.9342 	 -49.7409 	 -73.5666 	 
S 	 -38.1594 	 -50.9913 	 -67.8077 	 
C 	 -39.2023 	 -51.6135 	 -66.5261 	 
C 	 -40.4279 	 -51.885 	 -67.1055 	 
C 	 -40.6168 	 -51.4956 	 -68.4432 	 
C 	 -39.4939 	 -50.8933 	 -68.9481 	 
H 	 -41.2466 	 -52.393 	 -66.4699 	 
C 	 -41.9331 	 -51.6323 	 -69.188 	 
H 	 -42.377 	 -52.5151 	 -68.7503 	 
H 	 -41.6594 	 -51.9503 	 -70.2139 	 
C 	 -42.8369 	 -50.4161 	 -69.2262 	 
H 	 -42.3334 	 -49.5874 	 -69.7593 	 
H 	 -43.0473 	 -50.0706 	 -68.2013 	 
C 	 -44.1824 	 -50.7325 	 -69.9811 	 
H 	 -44.944 	 -51.3626 	 -69.3719 	 
H 	 -43.9799 	 -51.2782 	 -70.9221 	 
H 	 -44.5858 	 -49.7927 	 -70.2638 	 
H 	 -37.7793 	 -50.0765 	 -73.7373 	 
H 	 -38.9041 	 -51.8521 	 -65.497 	 
*
