! wB97X-D3 SP def2-SVP
%pal
nprocs 24
end

* xyz 0 1
S 	 39.9857 	 -27.0764 	 -127.04 	 
C 	 39.5042 	 -25.4083 	 -127.509 	 
C 	 40.427 	 -24.7536 	 -128.267 	 
C 	 41.6175 	 -25.591 	 -128.396 	 
C 	 41.5593 	 -26.8564 	 -127.816 	 
H 	 42.4306 	 -25.313 	 -129.048 	 
C 	 40.1591 	 -23.4833 	 -129.091 	 
H 	 41.0257 	 -22.988 	 -129.25 	 
H 	 39.6707 	 -22.7503 	 -128.492 	 
C 	 39.4416 	 -23.6885 	 -130.458 	 
H 	 40.1264 	 -24.1991 	 -131.037 	 
H 	 38.6866 	 -24.4878 	 -130.34 	 
C 	 38.8421 	 -22.4804 	 -131.135 	 
H 	 38.4828 	 -22.8452 	 -132.048 	 
H 	 37.9544 	 -22.0017 	 -130.668 	 
H 	 39.5836 	 -21.7516 	 -131.428 	 
S 	 42.0423 	 -29.3678 	 -128.617 	 
C 	 43.7288 	 -29.9528 	 -128.76 	 
C 	 44.5982 	 -29.0993 	 -128.112 	 
C 	 44.0002 	 -27.8359 	 -127.839 	 
C 	 42.6096 	 -27.8549 	 -127.9 	 
H 	 45.7114 	 -29.332 	 -128.045 	 
C 	 44.7757 	 -26.6993 	 -127.167 	 
H 	 45.5922 	 -27.163 	 -126.575 	 
H 	 44.2493 	 -26.0936 	 -126.399 	 
C 	 45.5447 	 -25.8927 	 -128.197 	 
H 	 45.0012 	 -25.6069 	 -129.118 	 
H 	 46.1726 	 -26.7003 	 -128.668 	 
C 	 46.2425 	 -24.6809 	 -127.523 	 
H 	 47.0306 	 -24.9582 	 -126.792 	 
H 	 45.3614 	 -24.0138 	 -127.176 	 
H 	 46.7257 	 -24.2253 	 -128.39 	 
H 	 38.5216 	 -24.9975 	 -127.278 	 
H 	 44.0625 	 -30.8833 	 -129.195 	 
*
