! wB97X-D3 SP def2-SVP
%pal
nprocs 24
end

* xyz 0 1
S 	 -32.5551 	 6.35694 	 16.3756 	 
C 	 -31.7396 	 7.63628 	 15.578 	 
C 	 -32.6363 	 8.30596 	 14.7307 	 
C 	 -33.8969 	 7.64771 	 14.5558 	 
C 	 -33.9819 	 6.55944 	 15.4236 	 
H 	 -34.6759 	 7.9047 	 13.8826 	 
C 	 -32.3462 	 9.5421 	 13.942 	 
H 	 -31.3161 	 9.79299 	 14.1326 	 
H 	 -32.8355 	 10.3488 	 14.4701 	 
C 	 -32.6445 	 9.54193 	 12.4041 	 
H 	 -32.5117 	 8.60175 	 11.9546 	 
H 	 -33.6945 	 9.83626 	 12.4215 	 
C 	 -31.7776 	 10.5986 	 11.7014 	 
H 	 -30.7232 	 10.1993 	 11.6889 	 
H 	 -32.1135 	 10.7485 	 10.7107 	 
H 	 -31.8578 	 11.5092 	 12.2194 	 
S 	 -35.9148 	 5.87106 	 17.2196 	 
C 	 -36.9187 	 4.50907 	 16.9532 	 
C 	 -36.8527 	 4.13559 	 15.6792 	 
C 	 -35.9672 	 4.88708 	 14.8992 	 
C 	 -35.1498 	 5.77736 	 15.6743 	 
H 	 -37.5894 	 3.33188 	 15.3521 	 
C 	 -35.9302 	 4.68548 	 13.4133 	 
H 	 -36.0281 	 3.58851 	 13.2177 	 
H 	 -34.9364 	 4.95985 	 13.1233 	 
C 	 -37.0156 	 5.48536 	 12.6023 	 
H 	 -36.7868 	 6.50495 	 12.8089 	 
H 	 -38.0403 	 5.24066 	 13.053 	 
C 	 -36.9294 	 5.28494 	 11.1394 	 
H 	 -35.9283 	 4.91399 	 10.8124 	 
H 	 -37.2605 	 6.20936 	 10.6267 	 
H 	 -37.5565 	 4.44713 	 10.7364 	 
H 	 -30.709 	 7.85961 	 15.8208 	 
H 	 -37.4474 	 4.06831 	 17.7219 	 
*
