! wB97X-D3 SP def2-SVP
%pal
nprocs 24
end

* xyz 0 1
S 	 -120.329 	 24.3512 	 -16.6245 	 
C 	 -119.186 	 24.7564 	 -17.9007 	 
C 	 -118.284 	 25.7011 	 -17.4806 	 
C 	 -118.665 	 26.2556 	 -16.1872 	 
C 	 -119.766 	 25.6646 	 -15.5679 	 
H 	 -118.042 	 26.922 	 -15.6339 	 
C 	 -117.056 	 26.1097 	 -18.2923 	 
H 	 -117.256 	 26.008 	 -19.3801 	 
H 	 -116.229 	 25.3977 	 -18.0949 	 
C 	 -116.383 	 27.5174 	 -17.9859 	 
H 	 -117.161 	 28.2886 	 -18.0327 	 
H 	 -115.954 	 27.5646 	 -16.9924 	 
C 	 -115.247 	 28.0056 	 -18.9242 	 
H 	 -114.272 	 27.6839 	 -18.6779 	 
H 	 -115.459 	 27.8082 	 -19.924 	 
H 	 -115.286 	 29.0547 	 -18.7356 	 
S 	 -119.613 	 24.7141 	 -13.0385 	 
C 	 -120.148 	 25.6124 	 -11.7028 	 
C 	 -120.703 	 26.8168 	 -12.137 	 
C 	 -120.79 	 26.9211 	 -13.5592 	 
C 	 -120.198 	 25.863 	 -14.1811 	 
H 	 -121.019 	 27.5523 	 -11.4552 	 
C 	 -121.433 	 28.0638 	 -14.3007 	 
H 	 -120.698 	 28.4075 	 -15.0535 	 
H 	 -121.658 	 28.9205 	 -13.7329 	 
C 	 -122.791 	 27.6955 	 -14.9413 	 
H 	 -122.77 	 26.8805 	 -15.7257 	 
H 	 -123.139 	 28.5454 	 -15.5401 	 
C 	 -123.926 	 27.282 	 -13.9327 	 
H 	 -124.087 	 28.0242 	 -13.1446 	 
H 	 -123.657 	 26.3602 	 -13.459 	 
H 	 -124.857 	 27.2599 	 -14.5326 	 
H 	 -118.995 	 24.4177 	 -18.8829 	 
H 	 -119.885 	 25.401 	 -10.7274 	 
*
