! wB97X-D3 SP def2-SVP
%pal
nprocs 24
end

* xyz 0 1
S 	 -43.0453 	 18.5843 	 -92.1795 	 
C 	 -41.3426 	 18.939 	 -92.2517 	 
C 	 -40.7645 	 18.3319 	 -93.3311 	 
C 	 -41.6333 	 17.4713 	 -94.041 	 
C 	 -42.9499 	 17.6527 	 -93.6778 	 
H 	 -41.2189 	 16.8833 	 -94.8745 	 
C 	 -39.2555 	 18.3019 	 -93.4848 	 
H 	 -39.096 	 17.3689 	 -94.0398 	 
H 	 -38.8028 	 18.1292 	 -92.5516 	 
C 	 -38.6262 	 19.4122 	 -94.2968 	 
H 	 -38.9188 	 20.4321 	 -94.0084 	 
H 	 -37.6018 	 19.4379 	 -94.0087 	 
C 	 -38.8303 	 19.1435 	 -95.8054 	 
H 	 -38.6217 	 19.951 	 -96.5113 	 
H 	 -38.0385 	 18.458 	 -96.1424 	 
H 	 -39.8031 	 18.6985 	 -95.949 	 
S 	 -45.3057 	 16.3126 	 -93.22 	 
C 	 -46.4084 	 16.0901 	 -94.5123 	 
C 	 -45.9111 	 16.4697 	 -95.7454 	 
C 	 -44.6221 	 17.0918 	 -95.5986 	 
C 	 -44.1162 	 17.105 	 -94.2941 	 
H 	 -46.5582 	 16.2683 	 -96.5672 	 
C 	 -43.8883 	 17.7655 	 -96.7993 	 
H 	 -43.1708 	 18.4401 	 -96.4816 	 
H 	 -44.5908 	 18.539 	 -97.138 	 
C 	 -43.3376 	 16.9524 	 -97.9688 	 
H 	 -42.9981 	 16.0251 	 -97.5034 	 
H 	 -42.4852 	 17.6268 	 -98.2912 	 
C 	 -44.2796 	 16.9015 	 -99.1994 	 
H 	 -43.9044 	 16.3228 	 -100.04 	 
H 	 -44.5174 	 17.9202 	 -99.4983 	 
H 	 -45.3151 	 16.5799 	 -98.9849 	 
H 	 -40.7022 	 19.618 	 -91.6268 	 
H 	 -47.3575 	 15.6305 	 -94.4244 	 
*
