! wB97X-D3 SP def2-SVP
%pal
nprocs 24
end

* xyz 0 1
S 	 -35.0975 	 -33.7339 	 -95.18 	 
C 	 -35.6292 	 -32.9402 	 -96.6127 	 
C 	 -35.3805 	 -31.5762 	 -96.5868 	 
C 	 -34.8835 	 -31.1522 	 -95.3343 	 
C 	 -34.5077 	 -32.2263 	 -94.4987 	 
H 	 -34.665 	 -30.1715 	 -94.9046 	 
C 	 -35.524 	 -30.5848 	 -97.7659 	 
H 	 -35.6255 	 -29.489 	 -97.558 	 
H 	 -36.5222 	 -30.8102 	 -98.1697 	 
C 	 -34.416 	 -30.8397 	 -98.8 	 
H 	 -34.7601 	 -31.7221 	 -99.3086 	 
H 	 -34.4452 	 -29.9974 	 -99.5385 	 
C 	 -33.0885 	 -30.88 	 -98.1088 	 
H 	 -32.9109 	 -29.8819 	 -97.7354 	 
H 	 -33.0973 	 -31.647 	 -97.3089 	 
H 	 -32.2949 	 -31.1934 	 -98.7848 	 
S 	 -34.1769 	 -32.8468 	 -91.8649 	 
C 	 -32.6394 	 -32.5541 	 -91.1147 	 
C 	 -31.8885 	 -31.6627 	 -91.8769 	 
C 	 -32.3846 	 -31.5365 	 -93.1928 	 
C 	 -33.6465 	 -32.1404 	 -93.3421 	 
H 	 -30.9567 	 -31.275 	 -91.5361 	 
C 	 -31.6677 	 -30.6756 	 -94.2536 	 
H 	 -31.5165 	 -31.3173 	 -95.1331 	 
H 	 -30.5967 	 -30.7722 	 -94.0145 	 
C 	 -32.085 	 -29.1503 	 -94.2243 	 
H 	 -31.8095 	 -28.6917 	 -93.3082 	 
H 	 -33.1912 	 -29.0205 	 -94.2243 	 
C 	 -31.5111 	 -28.3844 	 -95.3914 	 
H 	 -31.1587 	 -27.368 	 -95.1823 	 
H 	 -32.296 	 -28.2551 	 -96.1658 	 
H 	 -30.7238 	 -28.9176 	 -95.9412 	 
H 	 -35.8062 	 -33.5078 	 -97.5067 	 
H 	 -32.3377 	 -32.7562 	 -90.0978 	 
*
