! wB97X-D3 SP def2-SVP
%pal
nprocs 24
end

* xyz 0 1
S 	 -145.305 	 28.5882 	 -16.1953 	 
C 	 -144.81 	 29.5602 	 -17.5839 	 
C 	 -144.54 	 30.8652 	 -17.2561 	 
C 	 -144.916 	 31.1148 	 -15.9296 	 
C 	 -145.337 	 30.0012 	 -15.2166 	 
H 	 -144.988 	 32.0424 	 -15.4083 	 
C 	 -144.267 	 32.0092 	 -18.1705 	 
H 	 -145.235 	 32.2256 	 -18.6405 	 
H 	 -143.625 	 31.6346 	 -18.9861 	 
C 	 -143.52 	 33.173 	 -17.711 	 
H 	 -144.128 	 33.8484 	 -17.1102 	 
H 	 -142.648 	 32.9655 	 -17.0941 	 
C 	 -143.05 	 33.9606 	 -18.8939 	 
H 	 -142.564 	 34.9136 	 -18.6263 	 
H 	 -142.319 	 33.4429 	 -19.4409 	 
H 	 -143.894 	 34.4112 	 -19.4264 	 
S 	 -144.699 	 28.9763 	 -12.7634 	 
C 	 -145.376 	 29.6632 	 -11.3809 	 
C 	 -146.399 	 30.5553 	 -11.6932 	 
C 	 -146.525 	 30.8812 	 -13.0922 	 
C 	 -145.712 	 30.0081 	 -13.8029 	 
H 	 -146.998 	 30.8698 	 -10.8644 	 
C 	 -147.465 	 31.9339 	 -13.5859 	 
H 	 -148.525 	 31.6693 	 -13.2683 	 
H 	 -147.49 	 31.7686 	 -14.6546 	 
C 	 -147.049 	 33.4107 	 -13.2185 	 
H 	 -147.552 	 34.1844 	 -13.7521 	 
H 	 -146.058 	 33.6837 	 -13.4188 	 
C 	 -147.254 	 33.7738 	 -11.7628 	 
H 	 -148.284 	 33.4269 	 -11.3431 	 
H 	 -147.301 	 34.8763 	 -11.6926 	 
H 	 -146.543 	 33.308 	 -11.0543 	 
H 	 -144.65 	 29.171 	 -18.5594 	 
H 	 -145.178 	 29.207 	 -10.4097 	 
*
