! wB97X-D3 SP def2-SVP
%pal
nprocs 24
end

* xyz 0 1
S 	 -94.5672 	 -24.8249 	 -59.8224 	 
C 	 -94.4952 	 -23.3967 	 -58.8684 	 
C 	 -93.2461 	 -22.7173 	 -58.8537 	 
C 	 -92.2727 	 -23.6567 	 -59.384 	 
C 	 -92.7746 	 -24.8025 	 -59.9876 	 
H 	 -91.2494 	 -23.4117 	 -59.3858 	 
C 	 -92.8598 	 -21.4735 	 -57.9733 	 
H 	 -93.8047 	 -21.1222 	 -57.501 	 
H 	 -92.5148 	 -20.68 	 -58.5941 	 
C 	 -91.8804 	 -21.6927 	 -56.8239 	 
H 	 -92.1338 	 -22.6433 	 -56.3185 	 
H 	 -90.8888 	 -21.9008 	 -57.2788 	 
C 	 -91.6885 	 -20.5068 	 -55.8111 	 
H 	 -91.5446 	 -19.5319 	 -56.3534 	 
H 	 -92.5619 	 -20.3987 	 -55.1734 	 
H 	 -90.7806 	 -20.5816 	 -55.2304 	 
S 	 -92.6084 	 -26.1825 	 -62.3527 	 
C 	 -91.4055 	 -27.4537 	 -62.4944 	 
C 	 -90.5536 	 -27.4977 	 -61.3766 	 
C 	 -90.9654 	 -26.6301 	 -60.3233 	 
C 	 -92.0599 	 -25.8519 	 -60.6967 	 
H 	 -89.8358 	 -28.1644 	 -61.3391 	 
C 	 -90.317 	 -26.5937 	 -58.9537 	 
H 	 -90.1777 	 -25.566 	 -58.7061 	 
H 	 -89.3267 	 -27.0125 	 -59.1148 	 
C 	 -91.1679 	 -27.3543 	 -57.8721 	 
H 	 -91.271 	 -28.261 	 -58.4548 	 
H 	 -92.1025 	 -26.8699 	 -57.7235 	 
C 	 -90.4362 	 -27.4807 	 -56.6027 	 
H 	 -90.1195 	 -26.5263 	 -56.149 	 
H 	 -89.5081 	 -27.9998 	 -56.6986 	 
H 	 -90.9448 	 -28.1164 	 -55.9414 	 
H 	 -95.3865 	 -22.9684 	 -58.4369 	 
H 	 -91.1593 	 -27.9815 	 -63.3653 	 
*
