! wB97X-D3 SP def2-SVP
%pal
nprocs 24
end

* xyz 0 1
S 	 -144.694 	 28.1145 	 -21.7415 	 
C 	 -145.614 	 26.6279 	 -21.8173 	 
C 	 -144.717 	 25.5242 	 -21.7331 	 
C 	 -143.293 	 25.8698 	 -21.5311 	 
C 	 -143.1 	 27.2381 	 -21.6488 	 
H 	 -142.365 	 25.2417 	 -21.4675 	 
C 	 -145.126 	 24.1373 	 -21.8536 	 
H 	 -144.764 	 23.8241 	 -22.8572 	 
H 	 -146.259 	 24.1102 	 -21.9364 	 
C 	 -144.545 	 23.0236 	 -20.9313 	 
H 	 -143.446 	 23.0719 	 -20.8896 	 
H 	 -144.982 	 23.2765 	 -19.968 	 
C 	 -144.971 	 21.6064 	 -21.235 	 
H 	 -144.462 	 21.274 	 -22.1713 	 
H 	 -144.64 	 20.983 	 -20.3442 	 
H 	 -146.019 	 21.5202 	 -21.2801 	 
S 	 -141.82 	 29.7124 	 -21.616 	 
C 	 -140.183 	 29.8471 	 -20.9575 	 
C 	 -139.57 	 28.641 	 -20.7059 	 
C 	 -140.568 	 27.6028 	 -20.8637 	 
C 	 -141.871 	 27.9896 	 -21.2678 	 
H 	 -138.529 	 28.6173 	 -20.3366 	 
C 	 -140.133 	 26.1533 	 -20.6452 	 
H 	 -140.062 	 25.6058 	 -21.526 	 
H 	 -140.888 	 25.7016 	 -20.033 	 
C 	 -138.746 	 25.973 	 -19.9754 	 
H 	 -138.765 	 26.4655 	 -19.0366 	 
H 	 -137.97 	 26.3337 	 -20.6548 	 
C 	 -138.427 	 24.5435 	 -19.6209 	 
H 	 -137.452 	 24.4714 	 -19.1245 	 
H 	 -138.309 	 23.9465 	 -20.5236 	 
H 	 -139.171 	 24.0442 	 -18.9778 	 
H 	 -146.705 	 26.648 	 -21.9488 	 
H 	 -139.594 	 30.8124 	 -20.8876 	 
*
