! wB97X-D3 SP def2-SVP
%pal
nprocs 24
end

* xyz 0 1
S 	 -88.4475 	 2.756 	 -117.197 	 
C 	 -87.8652 	 1.09847 	 -117.393 	 
C 	 -88.3329 	 0.477263 	 -118.521 	 
C 	 -89.298 	 1.27642 	 -119.217 	 
C 	 -89.4142 	 2.55292 	 -118.597 	 
H 	 -89.8973 	 1.0005 	 -120.107 	 
C 	 -87.9536 	 -0.980352 	 -118.92 	 
H 	 -86.9222 	 -0.893279 	 -119.236 	 
H 	 -88.5664 	 -1.36681 	 -119.729 	 
C 	 -87.9084 	 -2.07584 	 -117.838 	 
H 	 -87.4391 	 -2.96577 	 -118.288 	 
H 	 -87.3879 	 -1.6834 	 -116.957 	 
C 	 -89.2347 	 -2.62315 	 -117.401 	 
H 	 -89.5775 	 -1.93063 	 -116.635 	 
H 	 -90.0368 	 -2.78511 	 -118.176 	 
H 	 -89.0623 	 -3.56156 	 -116.881 	 
S 	 -89.1213 	 4.92984 	 -119.918 	 
C 	 -90.4847 	 5.49784 	 -120.798 	 
C 	 -91.6509 	 4.89402 	 -120.433 	 
C 	 -91.4485 	 3.85021 	 -119.467 	 
C 	 -90.0967 	 3.7129 	 -119.155 	 
H 	 -92.5651 	 5.15318 	 -120.949 	 
C 	 -92.5883 	 3.03051 	 -118.93 	 
H 	 -92.3503 	 2.28832 	 -118.18 	 
H 	 -92.8289 	 2.38366 	 -119.782 	 
C 	 -93.8332 	 3.88126 	 -118.412 	 
H 	 -94.2994 	 4.51936 	 -119.162 	 
H 	 -93.4197 	 4.43001 	 -117.618 	 
C 	 -94.9548 	 3.14044 	 -117.721 	 
H 	 -95.7865 	 3.84367 	 -117.368 	 
H 	 -94.5083 	 2.6473 	 -116.872 	 
H 	 -95.3969 	 2.30184 	 -118.286 	 
H 	 -86.9992 	 0.698646 	 -116.79 	 
H 	 -90.3121 	 6.04546 	 -121.823 	 
*
