! wB97X-D3 SP def2-SVP
%pal
nprocs 24
end

* xyz 0 1
S 	 -59.4646 	 17.7655 	 -93.7725 	 
C 	 -58.1502 	 18.8764 	 -93.7665 	 
C 	 -56.9221 	 18.2796 	 -94.0467 	 
C 	 -57.1103 	 16.9587 	 -94.527 	 
C 	 -58.3823 	 16.5256 	 -94.4865 	 
H 	 -56.316 	 16.3563 	 -94.8558 	 
C 	 -55.5988 	 18.9837 	 -94.2423 	 
H 	 -54.7646 	 18.26 	 -94.1138 	 
H 	 -55.5209 	 19.7534 	 -93.4314 	 
C 	 -55.4928 	 19.7619 	 -95.538 	 
H 	 -56.2716 	 20.5058 	 -95.5703 	 
H 	 -54.5252 	 20.2619 	 -95.6287 	 
C 	 -55.6154 	 18.8495 	 -96.7745 	 
H 	 -55.1777 	 19.4537 	 -97.5833 	 
H 	 -55.1569 	 17.8309 	 -96.6199 	 
H 	 -56.6492 	 18.6601 	 -97.0789 	 
S 	 -60.4646 	 15.4765 	 -95.932 	 
C 	 -60.3514 	 13.7998 	 -96.4932 	 
C 	 -59.2152 	 13.223 	 -96.0861 	 
C 	 -58.4175 	 14.0322 	 -95.2259 	 
C 	 -58.8645 	 15.3453 	 -95.1208 	 
H 	 -59.2157 	 12.1726 	 -96.3244 	 
C 	 -57.2506 	 13.3605 	 -94.4353 	 
H 	 -56.4095 	 13.9646 	 -94.5336 	 
H 	 -56.9963 	 12.4863 	 -95.0307 	 
C 	 -57.4718 	 13.0017 	 -92.956 	 
H 	 -58.2344 	 12.203 	 -92.7761 	 
H 	 -57.8092 	 13.7624 	 -92.287 	 
C 	 -56.207 	 12.5564 	 -92.2674 	 
H 	 -55.6734 	 13.3265 	 -91.716 	 
H 	 -55.4656 	 12.0529 	 -92.939 	 
H 	 -56.4252 	 11.7797 	 -91.579 	 
H 	 -58.2273 	 19.9782 	 -93.5813 	 
H 	 -61.1749 	 13.1863 	 -96.922 	 
*
