! wB97X-D3 SP def2-SVP
%pal
nprocs 24
end

* xyz 0 1
S 	 -104.154 	 -1.98872 	 -108.756 	 
C 	 -105.076 	 -1.50099 	 -110.165 	 
C 	 -106.322 	 -1.1299 	 -109.772 	 
C 	 -106.623 	 -1.32928 	 -108.429 	 
C 	 -105.516 	 -1.67672 	 -107.74 	 
H 	 -107.536 	 -1.04775 	 -107.966 	 
C 	 -107.341 	 -0.846093 	 -110.874 	 
H 	 -108.263 	 -1.1662 	 -110.397 	 
H 	 -107.175 	 -1.58851 	 -111.656 	 
C 	 -107.433 	 0.673587 	 -111.233 	 
H 	 -107.338 	 1.31093 	 -110.321 	 
H 	 -106.676 	 0.948163 	 -112.026 	 
C 	 -108.824 	 0.957695 	 -111.866 	 
H 	 -108.816 	 2.04703 	 -112.11 	 
H 	 -108.927 	 0.273855 	 -112.665 	 
H 	 -109.625 	 0.737649 	 -111.171 	 
S 	 -104.779 	 -3.32076 	 -105.59 	 
C 	 -105.764 	 -3.14748 	 -104.145 	 
C 	 -106.334 	 -1.89682 	 -104.117 	 
C 	 -106.129 	 -1.14634 	 -105.345 	 
C 	 -105.372 	 -1.81378 	 -106.294 	 
H 	 -107.043 	 -1.63995 	 -103.333 	 
C 	 -106.643 	 0.29024 	 -105.481 	 
H 	 -107.563 	 0.347994 	 -104.872 	 
H 	 -106.981 	 0.476929 	 -106.473 	 
C 	 -105.734 	 1.34032 	 -104.937 	 
H 	 -105.842 	 1.50855 	 -103.872 	 
H 	 -106.168 	 2.3489 	 -105.171 	 
C 	 -104.199 	 1.2995 	 -105.251 	 
H 	 -103.786 	 0.368744 	 -104.891 	 
H 	 -103.802 	 2.16749 	 -104.76 	 
H 	 -104.048 	 1.23297 	 -106.324 	 
H 	 -104.81 	 -1.72508 	 -111.204 	 
H 	 -105.834 	 -3.8248 	 -103.321 	 
*
