! wB97X-D3 SP def2-SVP
%pal
nprocs 24
end

* xyz 0 1
S 	 -146.346 	 1.94117 	 13.3079 	 
C 	 -145.324 	 1.66618 	 11.8859 	 
C 	 -144.05 	 2.14046 	 12.1474 	 
C 	 -143.891 	 2.57247 	 13.4678 	 
C 	 -145.014 	 2.68732 	 14.2842 	 
H 	 -142.887 	 2.83741 	 13.7914 	 
C 	 -142.848 	 2.02179 	 11.2507 	 
H 	 -142.594 	 3.02383 	 10.8611 	 
H 	 -143.193 	 1.32863 	 10.4548 	 
C 	 -141.564 	 1.35653 	 11.9029 	 
H 	 -141.209 	 1.92271 	 12.7596 	 
H 	 -141.895 	 0.534561 	 12.5654 	 
C 	 -140.461 	 1.07146 	 10.8765 	 
H 	 -139.549 	 0.601142 	 11.2307 	 
H 	 -140.907 	 0.515185 	 9.99956 	 
H 	 -140.193 	 2.07588 	 10.5597 	 
S 	 -143.705 	 2.64075 	 16.7957 	 
C 	 -144.514 	 3.37022 	 18.1089 	 
C 	 -145.614 	 4.08671 	 17.748 	 
C 	 -146.029 	 3.87882 	 16.3673 	 
C 	 -145.044 	 3.14247 	 15.7504 	 
H 	 -146.276 	 4.53874 	 18.4903 	 
C 	 -147.361 	 4.34378 	 15.8336 	 
H 	 -148.11 	 4.09743 	 16.6327 	 
H 	 -147.674 	 3.91918 	 14.8792 	 
C 	 -147.512 	 5.87255 	 15.655 	 
H 	 -146.832 	 6.17336 	 14.8824 	 
H 	 -147.081 	 6.39464 	 16.4704 	 
C 	 -148.928 	 6.44004 	 15.2749 	 
H 	 -149.651 	 6.16228 	 16.0121 	 
H 	 -149.187 	 6.15966 	 14.2569 	 
H 	 -148.79 	 7.5378 	 15.3998 	 
H 	 -145.544 	 1.23545 	 10.9304 	 
H 	 -144.149 	 3.48976 	 19.141 	 
*
