! wB97X-D3 SP def2-SVP
%pal
nprocs 24
end

* xyz 0 1
S 	 -53.435 	 -43.8292 	 -76.5771 	 
C 	 -54.2944 	 -43.4931 	 -78.1353 	 
C 	 -53.3363 	 -43.7501 	 -79.1739 	 
C 	 -52.1302 	 -44.3772 	 -78.6748 	 
C 	 -52.075 	 -44.517 	 -77.3109 	 
H 	 -51.2611 	 -44.6968 	 -79.2783 	 
C 	 -53.6794 	 -43.5147 	 -80.6402 	 
H 	 -54.0772 	 -42.5286 	 -80.6116 	 
H 	 -54.4715 	 -44.3034 	 -80.8441 	 
C 	 -52.461 	 -43.6033 	 -81.5954 	 
H 	 -51.6843 	 -42.9475 	 -81.2687 	 
H 	 -52.1204 	 -44.6708 	 -81.6397 	 
C 	 -52.9377 	 -43.2499 	 -83.0426 	 
H 	 -53.8764 	 -43.6903 	 -83.3054 	 
H 	 -53.2515 	 -42.2794 	 -83.3101 	 
H 	 -52.2705 	 -43.6184 	 -83.843 	 
S 	 -51.6325 	 -46.6435 	 -75.6073 	 
C 	 -50.0096 	 -47.1823 	 -75.3544 	 
C 	 -49.0442 	 -46.264 	 -75.775 	 
C 	 -49.6752 	 -45.246 	 -76.5899 	 
C 	 -51.0839 	 -45.3336 	 -76.5705 	 
H 	 -47.992 	 -46.4321 	 -75.692 	 
C 	 -48.735 	 -44.2869 	 -77.2238 	 
H 	 -48.15 	 -43.7971 	 -76.4902 	 
H 	 -49.4438 	 -43.4421 	 -77.4939 	 
C 	 -48.0462 	 -44.7121 	 -78.4547 	 
H 	 -48.7047 	 -45.1725 	 -79.179 	 
H 	 -47.4013 	 -45.5184 	 -78.181 	 
C 	 -47.33 	 -43.5976 	 -79.2251 	 
H 	 -47.9632 	 -43.2479 	 -80.0259 	 
H 	 -46.4372 	 -43.9499 	 -79.6316 	 
H 	 -46.9916 	 -42.7377 	 -78.5812 	 
H 	 -55.2451 	 -42.9324 	 -78.1865 	 
H 	 -49.6218 	 -48.0764 	 -74.9649 	 
*
