! wB97X-D3 SP def2-SVP
%pal
nprocs 24
end

* xyz 0 1
S 	 -105.948 	 1.04304 	 -114.276 	 
C 	 -107.374 	 1.90541 	 -114.619 	 
C 	 -108.534 	 1.21838 	 -114.336 	 
C 	 -108.235 	 -0.0959521 	 -113.861 	 
C 	 -106.879 	 -0.368857 	 -113.761 	 
H 	 -108.801 	 -0.93384 	 -113.702 	 
C 	 -109.966 	 1.72898 	 -114.581 	 
H 	 -110.183 	 2.34735 	 -115.517 	 
H 	 -110.146 	 2.33371 	 -113.76 	 
C 	 -111.31 	 0.830744 	 -114.572 	 
H 	 -112.138 	 1.25489 	 -115.178 	 
H 	 -110.924 	 -0.137453 	 -114.986 	 
C 	 -111.851 	 0.450634 	 -113.169 	 
H 	 -111.185 	 -0.260043 	 -112.732 	 
H 	 -111.837 	 1.33183 	 -112.53 	 
H 	 -112.953 	 0.207591 	 -113.18 	 
S 	 -105.045 	 -2.28502 	 -114.756 	 
C 	 -104.553 	 -3.6261 	 -113.74 	 
C 	 -105.281 	 -3.53249 	 -112.539 	 
C 	 -106.247 	 -2.46797 	 -112.458 	 
C 	 -106.185 	 -1.62279 	 -113.506 	 
H 	 -105.032 	 -4.13338 	 -111.701 	 
C 	 -107.235 	 -2.42241 	 -111.288 	 
H 	 -107.633 	 -1.41769 	 -111.211 	 
H 	 -106.761 	 -2.56775 	 -110.317 	 
C 	 -108.521 	 -3.27439 	 -111.382 	 
H 	 -109.169 	 -2.93733 	 -112.209 	 
H 	 -109.138 	 -3.3058 	 -110.408 	 
C 	 -108.131 	 -4.76019 	 -111.528 	 
H 	 -108.982 	 -5.3492 	 -111.695 	 
H 	 -107.672 	 -5.14339 	 -110.634 	 
H 	 -107.531 	 -4.92606 	 -112.463 	 
H 	 -107.409 	 2.914 	 -114.962 	 
H 	 -103.738 	 -4.28542 	 -113.89 	 
*
