! wB97X-D3 SP def2-SVP
%pal
nprocs 24
end

* xyz 0 1
S 	 34.7986 	 -28.1011 	 -126.783 	 
C 	 36.2275 	 -29.0067 	 -127.111 	 
C 	 35.9525 	 -30.0755 	 -127.872 	 
C 	 34.5592 	 -30.1971 	 -128.172 	 
C 	 33.7522 	 -29.1499 	 -127.641 	 
H 	 34.0769 	 -30.8593 	 -128.925 	 
C 	 36.9667 	 -31.0394 	 -128.41 	 
H 	 37.9488 	 -30.649 	 -128.121 	 
H 	 36.9806 	 -30.8761 	 -129.517 	 
C 	 36.8532 	 -32.549 	 -128.214 	 
H 	 35.8668 	 -32.9574 	 -128.593 	 
H 	 37.5833 	 -33.0484 	 -128.839 	 
C 	 37.1005 	 -33.1512 	 -126.831 	 
H 	 36.8008 	 -34.2797 	 -126.891 	 
H 	 38.1061 	 -33.0974 	 -126.51 	 
H 	 36.4153 	 -32.7717 	 -126.022 	 
S 	 31.6725 	 -28.1108 	 -129.085 	 
C 	 30.0859 	 -28.5695 	 -128.703 	 
C 	 29.9837 	 -29.2327 	 -127.551 	 
C 	 31.2556 	 -29.6127 	 -127.061 	 
C 	 32.3056 	 -28.9727 	 -127.736 	 
H 	 29.0365 	 -29.5576 	 -127.138 	 
C 	 31.5303 	 -30.5854 	 -125.917 	 
H 	 30.8294 	 -30.7304 	 -125.263 	 
H 	 32.2975 	 -30.202 	 -125.337 	 
C 	 31.8965 	 -31.9618 	 -126.425 	 
H 	 32.2948 	 -31.8977 	 -127.446 	 
H 	 30.9778 	 -32.4817 	 -126.582 	 
C 	 32.8985 	 -32.6381 	 -125.529 	 
H 	 32.5212 	 -32.9982 	 -124.558 	 
H 	 33.7329 	 -32.0759 	 -125.38 	 
H 	 33.2596 	 -33.5918 	 -126.029 	 
H 	 37.1785 	 -28.8295 	 -126.738 	 
H 	 29.2619 	 -28.1713 	 -129.182 	 
*
