! wB97X-D3 SP def2-SVP
%pal
nprocs 24
end

* xyz 0 1
S 	 -50.9997 	 16.6266 	 -99.6103 	 
C 	 -52.7452 	 16.7894 	 -99.4265 	 
C 	 -53.3164 	 17.6248 	 -100.399 	 
C 	 -52.3173 	 18.1137 	 -101.314 	 
C 	 -50.9876 	 17.7231 	 -101.012 	 
H 	 -52.5527 	 18.9007 	 -102.041 	 
C 	 -54.7924 	 17.89 	 -100.57 	 
H 	 -55.2664 	 16.9071 	 -100.526 	 
H 	 -54.905 	 18.2114 	 -101.612 	 
C 	 -55.424 	 18.8937 	 -99.6063 	 
H 	 -54.8852 	 19.8491 	 -99.7436 	 
H 	 -56.49 	 18.9888 	 -99.7559 	 
C 	 -55.2373 	 18.5747 	 -98.0759 	 
H 	 -55.2016 	 17.5432 	 -97.823 	 
H 	 -54.2927 	 18.9046 	 -97.7043 	 
H 	 -55.9704 	 19.0975 	 -97.529 	 
S 	 -48.6988 	 19.2633 	 -100.804 	 
C 	 -47.5163 	 19.162 	 -102.196 	 
C 	 -48.036 	 18.4795 	 -103.274 	 
C 	 -49.2737 	 17.867 	 -102.964 	 
C 	 -49.7691 	 18.1786 	 -101.664 	 
H 	 -47.38 	 18.2959 	 -104.143 	 
C 	 -49.9172 	 16.8414 	 -103.855 	 
H 	 -50.9574 	 16.9434 	 -103.569 	 
H 	 -49.5409 	 15.8295 	 -103.494 	 
C 	 -49.89 	 17.1425 	 -105.394 	 
H 	 -50.3941 	 16.2986 	 -105.9 	 
H 	 -48.854 	 17.1178 	 -105.697 	 
C 	 -50.5163 	 18.4208 	 -105.929 	 
H 	 -49.9188 	 19.2661 	 -105.619 	 
H 	 -51.5156 	 18.5039 	 -105.808 	 
H 	 -50.4796 	 18.4136 	 -106.952 	 
H 	 -53.2528 	 16.1565 	 -98.7717 	 
H 	 -46.579 	 19.6463 	 -102.273 	 
*
