! wB97X-D3 SP def2-SVP
%pal
nprocs 24
end

* xyz 0 1
S 	 -102.57 	 60.9312 	 -95.9619 	 
C 	 -104.013 	 60.3896 	 -96.8077 	 
C 	 -103.614 	 59.6734 	 -97.9063 	 
C 	 -102.204 	 59.6284 	 -98.1138 	 
C 	 -101.474 	 60.1643 	 -97.0803 	 
H 	 -101.753 	 59.1355 	 -98.8873 	 
C 	 -104.56 	 59.1348 	 -98.944 	 
H 	 -105.365 	 58.6697 	 -98.2986 	 
H 	 -104.096 	 58.2324 	 -99.3452 	 
C 	 -105.037 	 60.18 	 -99.995 	 
H 	 -105.532 	 60.9657 	 -99.516 	 
H 	 -104.192 	 60.6206 	 -100.455 	 
C 	 -105.949 	 59.5802 	 -100.995 	 
H 	 -105.449 	 58.7342 	 -101.564 	 
H 	 -106.797 	 59.136 	 -100.48 	 
H 	 -106.386 	 60.3596 	 -101.664 	 
S 	 -99.2773 	 61.349 	 -98.2198 	 
C 	 -97.7206 	 60.7634 	 -97.7593 	 
C 	 -97.7454 	 59.7736 	 -96.8383 	 
C 	 -99.0376 	 59.5057 	 -96.3548 	 
C 	 -100.03 	 60.2753 	 -97.0238 	 
H 	 -96.8392 	 59.3666 	 -96.6315 	 
C 	 -99.2205 	 58.2486 	 -95.4595 	 
H 	 -100.204 	 57.8466 	 -95.6149 	 
H 	 -99.2405 	 58.6994 	 -94.4875 	 
C 	 -98.0218 	 57.1923 	 -95.5058 	 
H 	 -98.1155 	 56.4622 	 -94.6891 	 
H 	 -97.1028 	 57.6966 	 -95.3942 	 
C 	 -97.8318 	 56.4229 	 -96.8562 	 
H 	 -96.9468 	 55.7476 	 -96.8452 	 
H 	 -97.5237 	 57.1247 	 -97.6434 	 
H 	 -98.7079 	 55.8241 	 -97.0402 	 
H 	 -105.052 	 60.6732 	 -96.5593 	 
H 	 -96.7922 	 61.1557 	 -98.1579 	 
*
