! wB97X-D3 SP def2-SVP
%pal
nprocs 24
end

* xyz 0 1
S 	 -84.578 	 -42.0281 	 -91.25 	 
C 	 -83.4392 	 -40.7592 	 -91.3563 	 
C 	 -82.3418 	 -41.0387 	 -90.5279 	 
C 	 -82.4997 	 -42.2779 	 -89.8208 	 
C 	 -83.547 	 -43.0263 	 -90.2455 	 
H 	 -81.7835 	 -42.6978 	 -89.1472 	 
C 	 -81.1894 	 -40.0207 	 -90.35 	 
H 	 -81.5839 	 -38.9864 	 -90.1219 	 
H 	 -80.8641 	 -39.912 	 -91.3152 	 
C 	 -79.9922 	 -40.3141 	 -89.4304 	 
H 	 -80.3059 	 -40.048 	 -88.3847 	 
H 	 -79.6163 	 -41.3448 	 -89.4641 	 
C 	 -78.822 	 -39.3134 	 -89.6417 	 
H 	 -77.9721 	 -39.6515 	 -89.04 	 
H 	 -78.459 	 -39.1793 	 -90.6378 	 
H 	 -79.0552 	 -38.388 	 -89.1368 	 
S 	 -85.5655 	 -44.9563 	 -89.7773 	 
C 	 -85.1269 	 -46.6021 	 -89.7655 	 
C 	 -83.8526 	 -46.7072 	 -89.4301 	 
C 	 -83.0694 	 -45.5235 	 -89.6624 	 
C 	 -83.8804 	 -44.4287 	 -89.9464 	 
H 	 -83.5208 	 -47.7503 	 -89.2217 	 
C 	 -81.5942 	 -45.5133 	 -89.5312 	 
H 	 -81.2088 	 -46.4269 	 -89.0434 	 
H 	 -81.4665 	 -44.7856 	 -88.8085 	 
C 	 -80.6774 	 -45.2557 	 -90.7168 	 
H 	 -79.6387 	 -45.2783 	 -90.3754 	 
H 	 -80.8378 	 -44.182 	 -90.8641 	 
C 	 -81.029 	 -46.0245 	 -91.9898 	 
H 	 -80.8089 	 -47.1008 	 -91.9418 	 
H 	 -80.5205 	 -45.6662 	 -92.8533 	 
H 	 -82.0905 	 -46.0812 	 -92.1985 	 
H 	 -83.3828 	 -39.9007 	 -92.0117 	 
H 	 -85.8237 	 -47.4364 	 -89.6984 	 
*
