! wB97X-D3 SP def2-SVP
%pal
nprocs 24
end

* xyz 0 1
S 	 -51.1465 	 -48.1226 	 -78.8065 	 
C 	 -50.2433 	 -46.7605 	 -78.1793 	 
C 	 -49.0283 	 -47.1822 	 -77.659 	 
C 	 -48.9296 	 -48.6413 	 -77.7555 	 
C 	 -49.964 	 -49.2408 	 -78.3734 	 
H 	 -48.1049 	 -49.2226 	 -77.5148 	 
C 	 -48.0791 	 -46.2338 	 -76.9864 	 
H 	 -47.4734 	 -46.833 	 -76.2833 	 
H 	 -48.7088 	 -45.5643 	 -76.4345 	 
C 	 -47.0295 	 -45.4394 	 -77.8711 	 
H 	 -46.5058 	 -44.7086 	 -77.3221 	 
H 	 -46.3519 	 -46.1769 	 -78.3089 	 
C 	 -47.5628 	 -44.6894 	 -79.0834 	 
H 	 -48.624 	 -44.3466 	 -78.7352 	 
H 	 -46.888 	 -43.9169 	 -79.3543 	 
H 	 -47.6999 	 -45.3827 	 -79.9234 	 
S 	 -51.1548 	 -51.757 	 -78.1332 	 
C 	 -50.749 	 -53.0313 	 -79.2388 	 
C 	 -49.6459 	 -52.6083 	 -79.9427 	 
C 	 -49.1066 	 -51.3072 	 -79.6326 	 
C 	 -49.9755 	 -50.6258 	 -78.7737 	 
H 	 -49.2087 	 -53.3329 	 -80.6096 	 
C 	 -47.9208 	 -50.6923 	 -80.3593 	 
H 	 -47.2176 	 -51.4555 	 -80.7056 	 
H 	 -47.3976 	 -50.2004 	 -79.6256 	 
C 	 -48.2564 	 -49.6681 	 -81.4536 	 
H 	 -48.8239 	 -48.8894 	 -80.9635 	 
H 	 -48.9133 	 -50.1176 	 -82.1478 	 
C 	 -47.0848 	 -49.2766 	 -82.372 	 
H 	 -47.409 	 -48.7407 	 -83.2371 	 
H 	 -46.6134 	 -50.1222 	 -82.8294 	 
H 	 -46.211 	 -48.6312 	 -82.0156 	 
H 	 -50.6522 	 -45.795 	 -78.13 	 
H 	 -51.2189 	 -53.9604 	 -79.191 	 
*
