! wB97X-D3 SP def2-SVP
%pal
nprocs 24
end

* xyz 0 1
S 	 -37.627 	 4.3541 	 -2.41891 	 
C 	 -39.3765 	 4.244 	 -2.66352 	 
C 	 -40.0877 	 4.77024 	 -1.59577 	 
C 	 -39.2344 	 5.36147 	 -0.629975 	 
C 	 -37.8843 	 5.34559 	 -0.953896 	 
H 	 -39.4685 	 5.93849 	 0.34577 	 
C 	 -41.618 	 4.72928 	 -1.3797 	 
H 	 -41.936 	 4.15703 	 -2.26964 	 
H 	 -41.9684 	 5.74198 	 -1.47339 	 
C 	 -42.1079 	 4.05716 	 -0.00994376 	 
H 	 -41.7679 	 4.48004 	 1.02857 	 
H 	 -43.1615 	 4.23524 	 -0.056568 	 
C 	 -41.7944 	 2.55513 	 0.173934 	 
H 	 -42.4013 	 2.24118 	 1.05524 	 
H 	 -41.8867 	 1.90761 	 -0.72487 	 
H 	 -40.6954 	 2.52119 	 0.527502 	 
S 	 -35.3947 	 4.98692 	 0.333711 	 
C 	 -34.6656 	 6.23786 	 1.23496 	 
C 	 -35.4864 	 7.35507 	 1.1835 	 
C 	 -36.6639 	 7.24089 	 0.324727 	 
C 	 -36.7485 	 5.952 	 -0.146461 	 
H 	 -35.2442 	 8.27795 	 1.65377 	 
C 	 -37.6539 	 8.38462 	 0.0719457 	 
H 	 -38.3982 	 8.03115 	 -0.559164 	 
H 	 -37.0202 	 9.0677 	 -0.452267 	 
C 	 -38.3202 	 9.05053 	 1.35563 	 
H 	 -38.7939 	 9.966 	 0.988611 	 
H 	 -37.5946 	 9.31872 	 2.08703 	 
C 	 -39.3612 	 8.13367 	 2.09103 	 
H 	 -39.0778 	 7.08807 	 2.33243 	 
H 	 -40.2581 	 8.00011 	 1.49206 	 
H 	 -39.5275 	 8.54569 	 3.06381 	 
H 	 -39.9525 	 3.6629 	 -3.43709 	 
H 	 -33.9731 	 5.9686 	 1.97318 	 
*
