! wB97X-D3 SP def2-SVP
%pal
nprocs 24
end

* xyz 0 1
S 	 -79.1917 	 -5.56987 	 3.22682 	 
C 	 -77.8568 	 -4.64327 	 2.72191 	 
C 	 -77.239 	 -5.12446 	 1.55279 	 
C 	 -77.7176 	 -6.49641 	 1.30423 	 
C 	 -78.6407 	 -6.90951 	 2.23675 	 
H 	 -77.407 	 -7.23682 	 0.578868 	 
C 	 -76.1197 	 -4.42572 	 0.695874 	 
H 	 -76.5377 	 -3.45335 	 0.312308 	 
H 	 -75.9995 	 -4.99273 	 -0.256584 	 
C 	 -74.7689 	 -4.21193 	 1.3724 	 
H 	 -74.027 	 -3.94249 	 0.639824 	 
H 	 -74.9696 	 -3.41537 	 2.10666 	 
C 	 -74.1974 	 -5.54825 	 1.96892 	 
H 	 -73.1227 	 -5.58519 	 2.18266 	 
H 	 -74.61 	 -5.67419 	 2.95834 	 
H 	 -74.3861 	 -6.3806 	 1.31508 	 
S 	 -81.0263 	 -8.34665 	 2.15478 	 
C 	 -81.0178 	 -10.0811 	 2.44828 	 
C 	 -79.7111 	 -10.4823 	 2.73321 	 
C 	 -78.7284 	 -9.49444 	 2.51621 	 
C 	 -79.264 	 -8.23291 	 2.33464 	 
H 	 -79.4388 	 -11.5362 	 2.84658 	 
C 	 -77.2412 	 -9.65322 	 2.49633 	 
H 	 -77.0293 	 -10.054 	 3.55224 	 
H 	 -76.8119 	 -8.63328 	 2.32812 	 
C 	 -76.7573 	 -10.6067 	 1.45107 	 
H 	 -77.1796 	 -10.2162 	 0.475208 	 
H 	 -77.1408 	 -11.6223 	 1.70735 	 
C 	 -75.2454 	 -10.6011 	 1.38623 	 
H 	 -74.8043 	 -11.0987 	 0.51886 	 
H 	 -74.9154 	 -11.2836 	 2.23764 	 
H 	 -74.7644 	 -9.67468 	 1.60924 	 
H 	 -77.729 	 -3.58199 	 2.97399 	 
H 	 -81.948 	 -10.6352 	 2.42296 	 
*
