! wB97X-D3 SP def2-SVP
%pal
nprocs 24
end

* xyz 0 1
S 	 -1.05677 	 -27.6103 	 -115.63 	 
C 	 -0.186744 	 -26.1743 	 -115.16 	 
C 	 -0.0300994 	 -26.1001 	 -113.773 	 
C 	 -0.78223 	 -27.1038 	 -113.09 	 
C 	 -1.48709 	 -27.9006 	 -113.954 	 
H 	 -0.819072 	 -27.1521 	 -112.021 	 
C 	 0.79161 	 -25.029 	 -113.104 	 
H 	 1.41501 	 -24.7161 	 -113.921 	 
H 	 1.23002 	 -25.6788 	 -112.396 	 
C 	 0.0328073 	 -23.8866 	 -112.305 	 
H 	 0.852247 	 -23.3501 	 -111.888 	 
H 	 -0.421593 	 -23.1164 	 -112.912 	 
C 	 -0.922802 	 -24.3961 	 -111.252 	 
H 	 -1.21564 	 -23.6653 	 -110.508 	 
H 	 -1.85495 	 -24.734 	 -111.692 	 
H 	 -0.52551 	 -25.1383 	 -110.563 	 
S 	 -1.58558 	 -30.6404 	 -113.609 	 
C 	 -2.90135 	 -31.3239 	 -112.744 	 
C 	 -3.73584 	 -30.3081 	 -112.294 	 
C 	 -3.37668 	 -29.0274 	 -112.845 	 
C 	 -2.29553 	 -29.0843 	 -113.669 	 
H 	 -4.54263 	 -30.6065 	 -111.717 	 
C 	 -4.19208 	 -27.7767 	 -112.688 	 
H 	 -3.78766 	 -27.1018 	 -113.438 	 
H 	 -4.07166 	 -27.2369 	 -111.743 	 
C 	 -5.67793 	 -28.0213 	 -112.817 	 
H 	 -5.99256 	 -28.2899 	 -111.754 	 
H 	 -5.85085 	 -28.9127 	 -113.439 	 
C 	 -6.43255 	 -26.776 	 -113.387 	 
H 	 -6.32456 	 -26.6723 	 -114.459 	 
H 	 -6.10305 	 -25.8648 	 -112.859 	 
H 	 -7.46938 	 -26.9258 	 -113.189 	 
H 	 0.288821 	 -25.5005 	 -115.873 	 
H 	 -3.09429 	 -32.368 	 -112.614 	 
*
