! wB97X-D3 SP def2-SVP
%pal
nprocs 24
end

* xyz 0 1
S 	 -128.165 	 9.22653 	 -10.995 	 
C 	 -126.492 	 9.43761 	 -10.6029 	 
C 	 -125.744 	 9.8301 	 -11.7092 	 
C 	 -126.543 	 9.81679 	 -12.914 	 
C 	 -127.877 	 9.64072 	 -12.6904 	 
H 	 -126.085 	 9.99434 	 -13.8533 	 
C 	 -124.253 	 10.134 	 -11.7057 	 
H 	 -123.682 	 9.5916 	 -12.4686 	 
H 	 -123.946 	 9.80542 	 -10.6822 	 
C 	 -123.932 	 11.576 	 -11.8725 	 
H 	 -122.847 	 11.6303 	 -11.9293 	 
H 	 -124.213 	 11.901 	 -12.8633 	 
C 	 -124.583 	 12.5699 	 -10.853 	 
H 	 -124.332 	 12.4084 	 -9.80406 	 
H 	 -124.112 	 13.5258 	 -11.1165 	 
H 	 -125.729 	 12.674 	 -10.8868 	 
S 	 -129.874 	 11.0547 	 -13.726 	 
C 	 -130.899 	 10.361 	 -14.9381 	 
C 	 -130.414 	 9.1484 	 -15.3922 	 
C 	 -129.312 	 8.67621 	 -14.6841 	 
C 	 -128.92 	 9.61812 	 -13.6671 	 
H 	 -131.02 	 8.65766 	 -16.2272 	 
C 	 -128.488 	 7.43595 	 -15.0893 	 
H 	 -127.442 	 7.59399 	 -15.074 	 
H 	 -128.75 	 7.23394 	 -16.0846 	 
C 	 -128.897 	 6.16356 	 -14.187 	 
H 	 -128.417 	 6.26918 	 -13.1725 	 
H 	 -128.397 	 5.30574 	 -14.5758 	 
C 	 -130.457 	 5.90328 	 -14.153 	 
H 	 -130.892 	 5.24629 	 -13.3503 	 
H 	 -130.829 	 5.51903 	 -15.1604 	 
H 	 -130.93 	 6.83508 	 -14.0158 	 
H 	 -126.074 	 9.26675 	 -9.64046 	 
H 	 -131.707 	 10.9938 	 -15.2663 	 
*
