! wB97X-D3 SP def2-SVP
%pal
nprocs 24
end

* xyz 0 1
S 	 -53.3219 	 13.0645 	 21.8565 	 
C 	 -53.7403 	 11.97 	 20.5601 	 
C 	 -54.7837 	 11.0999 	 20.8851 	 
C 	 -55.249 	 11.2677 	 22.1718 	 
C 	 -54.481 	 12.1884 	 22.9155 	 
H 	 -56.0362 	 10.6826 	 22.6367 	 
C 	 -55.5256 	 10.1858 	 19.9501 	 
H 	 -55.7442 	 9.2114 	 20.4173 	 
H 	 -54.7063 	 9.90549 	 19.2096 	 
C 	 -56.6704 	 10.731 	 19.1756 	 
H 	 -57.381 	 11.2404 	 19.899 	 
H 	 -56.2037 	 11.5122 	 18.549 	 
C 	 -57.5546 	 9.79562 	 18.3162 	 
H 	 -58.1289 	 9.1437 	 18.9486 	 
H 	 -58.2703 	 10.4084 	 17.765 	 
H 	 -57.0389 	 9.20378 	 17.5265 	 
S 	 -55.6871 	 13.853 	 24.881 	 
C 	 -55.4464 	 13.4708 	 26.5437 	 
C 	 -54.6067 	 12.357 	 26.682 	 
C 	 -54.1628 	 11.8394 	 25.4169 	 
C 	 -54.6795 	 12.5188 	 24.3054 	 
H 	 -54.3158 	 12.0547 	 27.6522 	 
C 	 -53.1263 	 10.7514 	 25.3713 	 
H 	 -52.5711 	 10.7716 	 26.3008 	 
H 	 -52.3991 	 11.1209 	 24.7227 	 
C 	 -53.6606 	 9.34078 	 25.1371 	 
H 	 -52.9124 	 8.54678 	 25.0318 	 
H 	 -54.0408 	 9.32124 	 24.1461 	 
C 	 -54.6592 	 8.79579 	 26.143 	 
H 	 -55.4252 	 9.63687 	 26.32 	 
H 	 -54.2501 	 8.46589 	 27.1248 	 
H 	 -55.2016 	 7.87756 	 25.7965 	 
H 	 -53.4387 	 12.1162 	 19.5542 	 
H 	 -56.0642 	 13.7992 	 27.3459 	 
*
