! wB97X-D3 SP def2-SVP
%pal
nprocs 24
end

* xyz 0 1
S 	 31.9017 	 -37.382 	 -128.926 	 
C 	 31.4823 	 -36.4167 	 -127.608 	 
C 	 31.4142 	 -35.0574 	 -127.936 	 
C 	 31.8152 	 -34.8812 	 -129.295 	 
C 	 32.1517 	 -36.0403 	 -129.997 	 
H 	 31.9783 	 -33.9919 	 -129.843 	 
C 	 30.7567 	 -33.9105 	 -127.142 	 
H 	 31.4559 	 -33.1331 	 -127.088 	 
H 	 30.4736 	 -34.2525 	 -126.11 	 
C 	 29.4786 	 -33.3471 	 -127.764 	 
H 	 29.181 	 -32.4202 	 -127.19 	 
H 	 29.6598 	 -32.9461 	 -128.771 	 
C 	 28.3345 	 -34.3658 	 -127.783 	 
H 	 28.4918 	 -35.1441 	 -128.561 	 
H 	 28.1635 	 -34.8266 	 -126.817 	 
H 	 27.5681 	 -33.6882 	 -127.986 	 
S 	 31.3052 	 -37.3043 	 -132.205 	 
C 	 32.0168 	 -36.9029 	 -133.746 	 
C 	 33.0678 	 -35.9428 	 -133.625 	 
C 	 33.2908 	 -35.5699 	 -132.27 	 
C 	 32.4601 	 -36.2822 	 -131.376 	 
H 	 33.6259 	 -35.7299 	 -134.471 	 
C 	 34.3319 	 -34.5093 	 -131.831 	 
H 	 34.5211 	 -34.6492 	 -130.759 	 
H 	 33.963 	 -33.4813 	 -131.954 	 
C 	 35.6054 	 -34.5904 	 -132.549 	 
H 	 35.465 	 -34.4757 	 -133.609 	 
H 	 36.0659 	 -35.5757 	 -132.398 	 
C 	 36.5996 	 -33.542 	 -132.032 	 
H 	 36.2789 	 -32.5595 	 -132.236 	 
H 	 37.5334 	 -33.6452 	 -132.562 	 
H 	 36.8005 	 -33.5633 	 -130.972 	 
H 	 31.1237 	 -36.7872 	 -126.644 	 
H 	 31.7923 	 -37.3909 	 -134.749 	 
*
