! wB97X-D3 SP def2-SVP
%pal
nprocs 24
end

* xyz 0 1
S 	 2.6918 	 -24.6449 	 -114.358 	 
C 	 3.37915 	 -24.9703 	 -115.933 	 
C 	 3.69315 	 -26.3468 	 -115.956 	 
C 	 3.36138 	 -27.0866 	 -114.812 	 
C 	 2.79557 	 -26.2936 	 -113.799 	 
H 	 3.57309 	 -28.1183 	 -114.558 	 
C 	 4.27342 	 -27.0322 	 -117.176 	 
H 	 5.19542 	 -26.4483 	 -117.489 	 
H 	 3.53902 	 -26.7813 	 -117.913 	 
C 	 4.63227 	 -28.5319 	 -117.086 	 
H 	 5.23335 	 -28.8163 	 -116.205 	 
H 	 3.63523 	 -29.0323 	 -116.924 	 
C 	 5.42411 	 -29.026 	 -118.314 	 
H 	 6.35771 	 -28.3355 	 -118.476 	 
H 	 5.79614 	 -30.0773 	 -118.148 	 
H 	 4.67229 	 -29.0416 	 -119.135 	 
S 	 2.3204 	 -25.4124 	 -111.22 	 
C 	 2.06925 	 -26.5584 	 -109.909 	 
C 	 2.18637 	 -27.8583 	 -110.378 	 
C 	 2.31136 	 -27.9102 	 -111.834 	 
C 	 2.47478 	 -26.7038 	 -112.448 	 
H 	 2.14361 	 -28.6474 	 -109.646 	 
C 	 2.22834 	 -29.2475 	 -112.476 	 
H 	 2.33748 	 -29.2405 	 -113.583 	 
H 	 1.21074 	 -29.5482 	 -112.424 	 
C 	 3.21658 	 -30.2383 	 -111.952 	 
H 	 3.0789 	 -30.4096 	 -110.928 	 
H 	 4.21652 	 -29.9026 	 -112.081 	 
C 	 3.29561 	 -31.5689 	 -112.751 	 
H 	 3.41557 	 -31.4589 	 -113.844 	 
H 	 2.40767 	 -32.0717 	 -112.383 	 
H 	 4.15378 	 -32.0243 	 -112.451 	 
H 	 3.69748 	 -24.2584 	 -116.637 	 
H 	 1.48641 	 -26.3318 	 -108.996 	 
*
