! wB97X-D3 SP def2-SVP
%pal
nprocs 24
end

* xyz 0 1
S 	 41.5369 	 -19.0827 	 -106.422 	 
C 	 40.5652 	 -19.4213 	 -107.814 	 
C 	 39.2086 	 -19.5547 	 -107.467 	 
C 	 38.9732 	 -19.5005 	 -106.08 	 
C 	 40.1304 	 -19.4402 	 -105.355 	 
H 	 37.9277 	 -19.3482 	 -105.673 	 
C 	 38.1325 	 -19.8376 	 -108.438 	 
H 	 38.5319 	 -19.2848 	 -109.295 	 
H 	 37.1911 	 -19.365 	 -108.063 	 
C 	 37.9656 	 -21.3856 	 -108.798 	 
H 	 37.5996 	 -21.4861 	 -109.845 	 
H 	 39.0076 	 -21.8698 	 -108.75 	 
C 	 37.0019 	 -22.0175 	 -107.856 	 
H 	 36.0094 	 -21.9874 	 -108.267 	 
H 	 37.2262 	 -23.1034 	 -107.899 	 
H 	 37.0169 	 -21.5349 	 -106.809 	 
S 	 40.9564 	 -17.6298 	 -103.382 	 
C 	 40.7049 	 -18.1925 	 -101.785 	 
C 	 40.2893 	 -19.468 	 -101.627 	 
C 	 40.1171 	 -20.0573 	 -102.908 	 
C 	 40.2021 	 -19.1515 	 -103.961 	 
H 	 40.0773 	 -19.9826 	 -100.725 	 
C 	 39.8175 	 -21.5472 	 -103.055 	 
H 	 39.2421 	 -21.8063 	 -103.946 	 
H 	 39.1094 	 -21.818 	 -102.235 	 
C 	 41.0698 	 -22.4657 	 -103.151 	 
H 	 41.8831 	 -22.1664 	 -102.517 	 
H 	 41.4127 	 -22.1643 	 -104.144 	 
C 	 40.735 	 -23.9286 	 -102.875 	 
H 	 40.0907 	 -24.0691 	 -101.939 	 
H 	 41.6592 	 -24.5999 	 -102.897 	 
H 	 40.1189 	 -24.1279 	 -103.758 	 
H 	 40.7795 	 -19.3392 	 -108.833 	 
H 	 40.7115 	 -17.5925 	 -100.894 	 
*
