! wB97X-D3 SP def2-SVP
%pal
nprocs 24
end

* xyz 0 1
S 	 -105.446 	 24.8462 	 -110.232 	 
C 	 -105.763 	 23.9234 	 -111.583 	 
C 	 -105.24 	 24.3934 	 -112.753 	 
C 	 -104.46 	 25.5655 	 -112.498 	 
C 	 -104.511 	 25.9704 	 -111.166 	 
H 	 -103.931 	 26.2176 	 -113.154 	 
C 	 -105.249 	 23.6412 	 -113.993 	 
H 	 -105.23 	 24.3484 	 -114.75 	 
H 	 -106.142 	 23.0576 	 -114.144 	 
C 	 -104.109 	 22.6858 	 -114.234 	 
H 	 -104.16 	 22.5572 	 -115.266 	 
H 	 -103.128 	 23.0515 	 -113.9 	 
C 	 -104.271 	 21.3388 	 -113.449 	 
H 	 -105.198 	 20.8504 	 -113.688 	 
H 	 -103.506 	 20.5378 	 -113.657 	 
H 	 -104.33 	 21.613 	 -112.391 	 
S 	 -105.379 	 28.0016 	 -109.553 	 
C 	 -104.487 	 29.4467 	 -109.378 	 
C 	 -103.417 	 29.4827 	 -110.236 	 
C 	 -103.191 	 28.205 	 -110.918 	 
C 	 -104.263 	 27.3366 	 -110.738 	 
H 	 -102.721 	 30.2771 	 -110.127 	 
C 	 -101.892 	 27.9668 	 -111.732 	 
H 	 -101.588 	 26.8957 	 -111.679 	 
H 	 -101.058 	 28.4617 	 -111.185 	 
C 	 -101.925 	 28.3819 	 -113.224 	 
H 	 -102.14 	 29.4596 	 -113.201 	 
H 	 -102.754 	 28.0048 	 -113.799 	 
C 	 -100.522 	 27.9798 	 -113.813 	 
H 	 -100.405 	 28.5237 	 -114.704 	 
H 	 -100.543 	 26.9213 	 -114.11 	 
H 	 -99.7595 	 28.0494 	 -113.087 	 
H 	 -106.368 	 22.9747 	 -111.414 	 
H 	 -104.749 	 30.2018 	 -108.662 	 
*
