! wB97X-D3 SP def2-SVP
%pal
nprocs 24
end

* xyz 0 1
S 	 -120.452 	 51.5478 	 -31.1681 	 
C 	 -119.944 	 50.5619 	 -32.5579 	 
C 	 -120.659 	 49.4464 	 -32.7455 	 
C 	 -121.751 	 49.3615 	 -31.7884 	 
C 	 -121.755 	 50.4487 	 -30.8841 	 
H 	 -122.388 	 48.4672 	 -31.6836 	 
C 	 -120.438 	 48.3986 	 -33.853 	 
H 	 -121.183 	 47.6525 	 -33.6186 	 
H 	 -119.573 	 47.8417 	 -33.8127 	 
C 	 -120.658 	 48.8562 	 -35.2565 	 
H 	 -121.54 	 49.4357 	 -35.2275 	 
H 	 -119.839 	 49.4937 	 -35.5702 	 
C 	 -120.616 	 47.7252 	 -36.2981 	 
H 	 -120.647 	 48.0924 	 -37.3548 	 
H 	 -119.811 	 46.9802 	 -36.2791 	 
H 	 -121.575 	 47.1572 	 -36.3796 	 
S 	 -121.861 	 50.6611 	 -28.1208 	 
C 	 -123.361 	 50.6252 	 -27.3392 	 
C 	 -124.337 	 50.3046 	 -28.2086 	 
C 	 -123.936 	 50.2679 	 -29.6035 	 
C 	 -122.565 	 50.4926 	 -29.6762 	 
H 	 -125.405 	 50.2201 	 -27.9725 	 
C 	 -124.864 	 49.9737 	 -30.7744 	 
H 	 -125.527 	 49.132 	 -30.5787 	 
H 	 -124.374 	 49.7299 	 -31.6482 	 
C 	 -125.807 	 51.1731 	 -31.1872 	 
H 	 -125.344 	 51.9211 	 -31.7156 	 
H 	 -126.083 	 51.7305 	 -30.2766 	 
C 	 -127.038 	 50.575 	 -31.9435 	 
H 	 -127.61 	 51.2911 	 -32.6417 	 
H 	 -127.79 	 50.1816 	 -31.2269 	 
H 	 -126.846 	 49.7797 	 -32.6423 	 
H 	 -119.126 	 50.8797 	 -33.099 	 
H 	 -123.523 	 50.7645 	 -26.3225 	 
*
