! wB97X-D3 SP def2-SVP
%pal
nprocs 24
end

* xyz 0 1
S 	 -91.2408 	 -31.5423 	 -72.2406 	 
C 	 -90.152 	 -33.0279 	 -72.3075 	 
C 	 -89.1681 	 -32.8857 	 -73.234 	 
C 	 -89.3055 	 -31.6836 	 -73.9559 	 
C 	 -90.3388 	 -30.8592 	 -73.5788 	 
H 	 -88.6257 	 -31.3307 	 -74.7121 	 
C 	 -88.076 	 -33.9447 	 -73.395 	 
H 	 -88.1562 	 -34.503 	 -72.4763 	 
H 	 -87.0606 	 -33.5811 	 -73.3805 	 
C 	 -88.3092 	 -34.9465 	 -74.5407 	 
H 	 -87.8826 	 -35.848 	 -74.2878 	 
H 	 -89.4655 	 -34.9918 	 -74.6673 	 
C 	 -87.7015 	 -34.3725 	 -75.8115 	 
H 	 -87.984 	 -34.9469 	 -76.6448 	 
H 	 -88.0981 	 -33.3191 	 -76.0334 	 
H 	 -86.6 	 -34.2853 	 -75.7101 	 
S 	 -90.7149 	 -28.2784 	 -72.8823 	 
C 	 -90.733 	 -27.0753 	 -74.1292 	 
C 	 -90.5086 	 -27.5658 	 -75.4048 	 
C 	 -90.4188 	 -29.0077 	 -75.398 	 
C 	 -90.5531 	 -29.5036 	 -74.0741 	 
H 	 -90.6072 	 -27.0109 	 -76.3016 	 
C 	 -90.459 	 -29.8361 	 -76.6471 	 
H 	 -91.4166 	 -29.5333 	 -77.0945 	 
H 	 -90.8302 	 -30.8153 	 -76.4093 	 
C 	 -89.2129 	 -29.9079 	 -77.6681 	 
H 	 -88.4262 	 -30.5459 	 -77.198 	 
H 	 -88.7575 	 -28.9084 	 -77.7549 	 
C 	 -89.4256 	 -30.5339 	 -79.0454 	 
H 	 -89.98 	 -31.4727 	 -78.9746 	 
H 	 -88.5347 	 -30.7021 	 -79.6005 	 
H 	 -89.9576 	 -29.8449 	 -79.6548 	 
H 	 -90.1355 	 -33.832 	 -71.6098 	 
H 	 -90.9693 	 -26.0191 	 -73.8847 	 
*
