! wB97X-D3 SP def2-SVP
%pal
nprocs 24
end

* xyz 0 1
S 	 -86.5847 	 -33.4397 	 -77.6682 	 
C 	 -85.2677 	 -33.7654 	 -78.7572 	 
C 	 -85.7107 	 -34.0013 	 -80.0736 	 
C 	 -87.1322 	 -33.9522 	 -80.1373 	 
C 	 -87.7314 	 -33.4902 	 -78.9643 	 
H 	 -87.6552 	 -34.0094 	 -81.1497 	 
C 	 -84.9133 	 -34.3428 	 -81.2499 	 
H 	 -85.2362 	 -35.3838 	 -81.5485 	 
H 	 -83.8856 	 -34.4972 	 -81.0783 	 
C 	 -84.9075 	 -33.2959 	 -82.3755 	 
H 	 -84.3248 	 -33.7122 	 -83.2115 	 
H 	 -85.8306 	 -33.2818 	 -82.872 	 
C 	 -84.3718 	 -31.8653 	 -82.0351 	 
H 	 -84.4665 	 -31.1676 	 -82.8352 	 
H 	 -84.8579 	 -31.4421 	 -81.1446 	 
H 	 -83.3373 	 -31.8298 	 -81.8427 	 
S 	 -89.9287 	 -33.7794 	 -77.3032 	 
C 	 -91.4039 	 -32.9492 	 -77.5596 	 
C 	 -91.3958 	 -32.3383 	 -78.7997 	 
C 	 -90.1513 	 -32.4684 	 -79.521 	 
C 	 -89.1698 	 -33.1358 	 -78.7693 	 
H 	 -92.2821 	 -31.847 	 -79.1515 	 
C 	 -90.015 	 -31.8322 	 -80.8836 	 
H 	 -88.9952 	 -31.584 	 -81.1425 	 
H 	 -90.4877 	 -30.8361 	 -80.9696 	 
C 	 -90.7144 	 -32.6497 	 -82.0548 	 
H 	 -91.6247 	 -33.1258 	 -81.6638 	 
H 	 -90.1149 	 -33.5752 	 -82.1544 	 
C 	 -90.9462 	 -31.9654 	 -83.4314 	 
H 	 -89.9805 	 -32.0056 	 -83.942 	 
H 	 -91.136 	 -30.934 	 -83.305 	 
H 	 -91.7856 	 -32.4243 	 -83.9553 	 
H 	 -84.2657 	 -33.7965 	 -78.3558 	 
H 	 -92.2853 	 -33.0906 	 -76.9541 	 
*
