! wB97X-D3 SP def2-SVP
%pal
nprocs 24
end

* xyz 0 1
S 	 -33.6603 	 -6.56056 	 7.87284 	 
C 	 -32.8982 	 -6.34449 	 9.4484 	 
C 	 -33.8119 	 -6.36004 	 10.4707 	 
C 	 -35.1662 	 -6.62693 	 10.0253 	 
C 	 -35.2534 	 -6.70685 	 8.62979 	 
H 	 -36.0652 	 -6.72583 	 10.5926 	 
C 	 -33.5189 	 -6.11637 	 11.9199 	 
H 	 -34.3933 	 -5.66317 	 12.3593 	 
H 	 -32.863 	 -5.24206 	 12.0224 	 
C 	 -33.1188 	 -7.42437 	 12.7896 	 
H 	 -34.0077 	 -8.19159 	 12.8703 	 
H 	 -32.3861 	 -8.01495 	 12.2995 	 
C 	 -32.4704 	 -7.01002 	 14.1398 	 
H 	 -33.2239 	 -6.44784 	 14.6785 	 
H 	 -32.1914 	 -7.84614 	 14.734 	 
H 	 -31.5805 	 -6.36312 	 14.046 	 
S 	 -36.4288 	 -7.84624 	 6.42064 	 
C 	 -38.084 	 -7.642 	 6.06807 	 
C 	 -38.7225 	 -7.08331 	 7.13732 	 
C 	 -37.8682 	 -6.53167 	 8.10051 	 
C 	 -36.5178 	 -6.85351 	 7.83433 	 
H 	 -39.7984 	 -7.05197 	 7.11141 	 
C 	 -38.3695 	 -5.64354 	 9.23946 	 
H 	 -37.5917 	 -4.96995 	 9.59514 	 
H 	 -38.4728 	 -6.20226 	 10.1606 	 
C 	 -39.6747 	 -4.91846 	 8.98921 	 
H 	 -40.5275 	 -5.57941 	 9.13047 	 
H 	 -39.7462 	 -4.56242 	 7.94603 	 
C 	 -39.7848 	 -3.69055 	 9.89687 	 
H 	 -39.1961 	 -2.7879 	 9.6018 	 
H 	 -39.6774 	 -4.01988 	 10.9961 	 
H 	 -40.8089 	 -3.35222 	 9.83889 	 
H 	 -31.8409 	 -6.35629 	 9.57624 	 
H 	 -38.5082 	 -8.19816 	 5.27031 	 
*
