! wB97X-D3 SP def2-SVP
%pal
nprocs 24
end

* xyz 0 1
S 	 31.0457 	 -31.3817 	 -110.798 	 
C 	 32.1455 	 -31.1455 	 -109.463 	 
C 	 33.4565 	 -31.4728 	 -109.79 	 
C 	 33.5966 	 -31.7239 	 -111.181 	 
C 	 32.3816 	 -31.746 	 -111.876 	 
H 	 34.5248 	 -32.0471 	 -111.757 	 
C 	 34.632 	 -31.3439 	 -108.815 	 
H 	 35.557 	 -31.6789 	 -109.304 	 
H 	 34.418 	 -32.0578 	 -107.979 	 
C 	 34.8693 	 -29.9306 	 -108.27 	 
H 	 34.0193 	 -29.5483 	 -107.743 	 
H 	 35.7222 	 -29.8835 	 -107.571 	 
C 	 35.4611 	 -28.9602 	 -109.344 	 
H 	 34.7362 	 -28.6983 	 -110.024 	 
H 	 35.8125 	 -28.0284 	 -108.867 	 
H 	 36.2919 	 -29.388 	 -109.863 	 
S 	 32.1117 	 -30.5774 	 -114.339 	 
C 	 32.0519 	 -31.5391 	 -115.766 	 
C 	 32.144 	 -32.9273 	 -115.536 	 
C 	 32.4011 	 -33.1809 	 -114.129 	 
C 	 32.2652 	 -32.0236 	 -113.298 	 
H 	 32.1024 	 -33.6638 	 -116.287 	 
C 	 32.8154 	 -34.4779 	 -113.703 	 
H 	 33.6176 	 -34.3124 	 -113.023 	 
H 	 33.4338 	 -35.126 	 -114.4 	 
C 	 31.8434 	 -35.3716 	 -112.937 	 
H 	 31.2074 	 -35.8575 	 -113.52 	 
H 	 31.1756 	 -34.6208 	 -112.505 	 
C 	 32.5486 	 -36.4479 	 -112.033 	 
H 	 33.4045 	 -36.0124 	 -111.404 	 
H 	 32.9452 	 -37.3097 	 -112.603 	 
H 	 31.7588 	 -36.8866 	 -111.453 	 
H 	 31.8678 	 -30.7304 	 -108.422 	 
H 	 31.8115 	 -31.1561 	 -116.691 	 
*
