! wB97X-D3 SP def2-SVP
%pal
nprocs 24
end

* xyz 0 1
S 	 -106.492 	 2.05846 	 -110.863 	 
C 	 -106.884 	 3.75672 	 -110.94 	 
C 	 -105.859 	 4.51483 	 -110.508 	 
C 	 -104.789 	 3.80644 	 -109.897 	 
C 	 -104.899 	 2.41312 	 -110.149 	 
H 	 -103.915 	 4.15992 	 -109.313 	 
C 	 -105.854 	 6.00473 	 -110.69 	 
H 	 -105.894 	 6.41533 	 -109.636 	 
H 	 -106.656 	 6.36614 	 -111.255 	 
C 	 -104.627 	 6.58199 	 -111.449 	 
H 	 -103.83 	 6.62872 	 -110.72 	 
H 	 -104.28 	 6.06093 	 -112.33 	 
C 	 -104.831 	 8.12402 	 -111.775 	 
H 	 -103.941 	 8.47264 	 -112.267 	 
H 	 -105.746 	 8.26665 	 -112.365 	 
H 	 -104.997 	 8.66933 	 -110.789 	 
S 	 -103.814 	 0.452864 	 -108.508 	 
C 	 -102.364 	 -0.445565 	 -109.037 	 
C 	 -102.025 	 -0.0364777 	 -110.275 	 
C 	 -102.856 	 0.984396 	 -110.787 	 
C 	 -103.834 	 1.41894 	 -109.959 	 
H 	 -101.233 	 -0.610696 	 -110.86 	 
C 	 -102.742 	 1.49785 	 -112.161 	 
H 	 -103.223 	 2.45644 	 -112.249 	 
H 	 -103.386 	 0.811555 	 -112.813 	 
C 	 -101.262 	 1.69421 	 -112.758 	 
H 	 -101.125 	 2.17796 	 -113.743 	 
H 	 -100.785 	 0.649668 	 -112.775 	 
C 	 -100.216 	 2.48543 	 -111.862 	 
H 	 -100.315 	 2.02708 	 -110.849 	 
H 	 -100.54 	 3.498 	 -111.658 	 
H 	 -99.187 	 2.34988 	 -112.347 	 
H 	 -107.836 	 4.17957 	 -111.319 	 
H 	 -101.888 	 -1.24855 	 -108.436 	 
*
