! wB97X-D3 SP def2-SVP
%pal
nprocs 24
end

* xyz 0 1
S 	 41.0168 	 -19.4477 	 -112.343 	 
C 	 40.6354 	 -20.6858 	 -113.487 	 
C 	 39.4278 	 -21.3421 	 -113.116 	 
C 	 38.7567 	 -20.653 	 -112.063 	 
C 	 39.5681 	 -19.6752 	 -111.494 	 
H 	 37.7515 	 -20.9091 	 -111.704 	 
C 	 38.9259 	 -22.6514 	 -113.823 	 
H 	 39.7618 	 -23.3556 	 -113.868 	 
H 	 38.6042 	 -22.3136 	 -114.836 	 
C 	 37.7697 	 -23.4214 	 -113.218 	 
H 	 37.8672 	 -23.4171 	 -112.135 	 
H 	 36.8774 	 -22.8648 	 -113.456 	 
C 	 37.5057 	 -24.7819 	 -113.86 	 
H 	 38.2708 	 -25.4677 	 -113.626 	 
H 	 36.6503 	 -25.1203 	 -113.335 	 
H 	 37.416 	 -24.7661 	 -114.922 	 
S 	 38.8465 	 -17.3738 	 -110.269 	 
C 	 39.1304 	 -17.147 	 -108.543 	 
C 	 39.9431 	 -18.1641 	 -108.093 	 
C 	 40.1324 	 -19.1983 	 -109.014 	 
C 	 39.433 	 -19.0002 	 -110.188 	 
H 	 40.2846 	 -18.0844 	 -107.062 	 
C 	 41.2192 	 -20.3617 	 -108.751 	 
H 	 42.1131 	 -19.8767 	 -108.438 	 
H 	 41.511 	 -20.9012 	 -109.733 	 
C 	 40.8858 	 -21.4997 	 -107.734 	 
H 	 41.7079 	 -22.1499 	 -107.366 	 
H 	 40.3039 	 -22.144 	 -108.366 	 
C 	 40.0933 	 -21.0929 	 -106.447 	 
H 	 39.0471 	 -20.8743 	 -106.687 	 
H 	 40.6994 	 -20.2365 	 -106.071 	 
H 	 39.9822 	 -21.8635 	 -105.722 	 
H 	 41.1865 	 -21.1132 	 -114.259 	 
H 	 38.9353 	 -16.2557 	 -108.003 	 
*
