! wB97X-D3 SP def2-SVP
%pal
nprocs 24
end

* xyz 0 1
S 	 -85.5169 	 2.82274 	 -115.746 	 
C 	 -84.9857 	 4.20444 	 -116.649 	 
C 	 -85.9188 	 5.26139 	 -116.558 	 
C 	 -87.0644 	 4.96963 	 -115.727 	 
C 	 -86.978 	 3.67846 	 -115.195 	 
H 	 -87.9527 	 5.5779 	 -115.667 	 
C 	 -85.7245 	 6.51265 	 -117.468 	 
H 	 -84.7136 	 6.93018 	 -117.435 	 
H 	 -86.3345 	 7.28877 	 -117.124 	 
C 	 -86.1195 	 6.34854 	 -118.969 	 
H 	 -85.8368 	 7.16888 	 -119.582 	 
H 	 -85.6396 	 5.38265 	 -119.266 	 
C 	 -87.6946 	 6.20002 	 -119.152 	 
H 	 -88.1084 	 5.37548 	 -118.615 	 
H 	 -88.1264 	 7.11578 	 -118.805 	 
H 	 -88.1858 	 6.18584 	 -120.116 	 
S 	 -87.422 	 1.37378 	 -113.872 	 
C 	 -89.0145 	 0.772754 	 -113.626 	 
C 	 -89.9414 	 1.76013 	 -113.715 	 
C 	 -89.3857 	 3.00598 	 -114.147 	 
C 	 -88.0216 	 2.89719 	 -114.523 	 
H 	 -90.9941 	 1.56499 	 -113.5 	 
C 	 -90.1951 	 4.23706 	 -114.383 	 
H 	 -89.5715 	 5.13521 	 -114.226 	 
H 	 -91.149 	 4.09637 	 -113.76 	 
C 	 -90.8626 	 4.32194 	 -115.791 	 
H 	 -91.2921 	 3.36675 	 -115.995 	 
H 	 -90.0443 	 4.48837 	 -116.589 	 
C 	 -91.9723 	 5.35852 	 -115.952 	 
H 	 -92.8559 	 5.11038 	 -115.253 	 
H 	 -92.2243 	 5.36194 	 -116.986 	 
H 	 -91.7235 	 6.37186 	 -115.719 	 
H 	 -84.1088 	 4.07315 	 -117.232 	 
H 	 -89.1439 	 -0.19392 	 -113.333 	 
*
