! wB97X-D3 SP def2-SVP
%pal
nprocs 24
end

* xyz 0 1
S 	 -114.872 	 40.5073 	 -114.984 	 
C 	 -114.524 	 40.6043 	 -116.669 	 
C 	 -113.527 	 39.7086 	 -116.985 	 
C 	 -113.132 	 38.8965 	 -115.877 	 
C 	 -113.83 	 39.1623 	 -114.757 	 
H 	 -112.335 	 38.2042 	 -115.914 	 
C 	 -112.915 	 39.4865 	 -118.346 	 
H 	 -113.444 	 40.11 	 -119.004 	 
H 	 -112.997 	 38.3822 	 -118.541 	 
C 	 -111.418 	 39.735 	 -118.662 	 
H 	 -111.117 	 40.7929 	 -118.461 	 
H 	 -110.797 	 39.0562 	 -118.062 	 
C 	 -110.898 	 39.5489 	 -120.058 	 
H 	 -111.11 	 38.5188 	 -120.374 	 
H 	 -111.452 	 40.229 	 -120.67 	 
H 	 -109.853 	 39.8469 	 -120.187 	 
S 	 -114.105 	 39.3921 	 -112.089 	 
C 	 -113.948 	 37.9412 	 -110.986 	 
C 	 -113.709 	 36.8112 	 -111.767 	 
C 	 -113.862 	 37.0733 	 -113.168 	 
C 	 -113.913 	 38.4174 	 -113.525 	 
H 	 -113.615 	 35.8487 	 -111.354 	 
C 	 -113.631 	 36.0194 	 -114.209 	 
H 	 -113.088 	 35.2432 	 -113.663 	 
H 	 -112.786 	 36.302 	 -114.877 	 
C 	 -114.856 	 35.5094 	 -115.043 	 
H 	 -115.29 	 36.3486 	 -115.531 	 
H 	 -115.549 	 35.1026 	 -114.222 	 
C 	 -114.46 	 34.2751 	 -115.96 	 
H 	 -115.361 	 33.9378 	 -116.587 	 
H 	 -114.283 	 33.3783 	 -115.369 	 
H 	 -113.557 	 34.6523 	 -116.536 	 
H 	 -115.05 	 41.1967 	 -117.37 	 
H 	 -114.071 	 37.9751 	 -109.864 	 
*
