! wB97X-D3 SP def2-SVP
%pal
nprocs 24
end

* xyz 0 1
S 	 -54.0066 	 2.20228 	 -31.3631 	 
C 	 -53.4173 	 0.690057 	 -31.7799 	 
C 	 -53.4725 	 0.524968 	 -33.1583 	 
C 	 -54.0213 	 1.6561 	 -33.8459 	 
C 	 -54.1524 	 2.6933 	 -32.9942 	 
H 	 -54.1591 	 1.72722 	 -34.9147 	 
C 	 -53.2685 	 -0.770551 	 -33.8251 	 
H 	 -54.173 	 -0.806916 	 -34.4748 	 
H 	 -53.1253 	 -1.55715 	 -33.0671 	 
C 	 -52.0828 	 -0.699582 	 -34.7451 	 
H 	 -52.06 	 -1.54912 	 -35.394 	 
H 	 -52.2008 	 0.19151 	 -35.3096 	 
C 	 -50.6959 	 -0.613406 	 -34.1496 	 
H 	 -49.9324 	 -0.549759 	 -35.0086 	 
H 	 -50.571 	 0.291886 	 -33.5211 	 
H 	 -50.2421 	 -1.5026 	 -33.574 	 
S 	 -55.9644 	 4.73849 	 -32.7546 	 
C 	 -55.734 	 6.21611 	 -33.6488 	 
C 	 -54.6445 	 6.15659 	 -34.4586 	 
C 	 -53.8803 	 4.97258 	 -34.1797 	 
C 	 -54.4556 	 4.06711 	 -33.3188 	 
H 	 -54.2464 	 6.94369 	 -35.0952 	 
C 	 -52.5616 	 4.79718 	 -34.8358 	 
H 	 -52.7292 	 4.59913 	 -35.8601 	 
H 	 -52.1541 	 3.93524 	 -34.4281 	 
C 	 -51.4975 	 5.96563 	 -34.616 	 
H 	 -51.4037 	 6.16969 	 -33.5459 	 
H 	 -51.9148 	 6.82733 	 -35.0802 	 
C 	 -50.2101 	 5.53053 	 -35.2073 	 
H 	 -49.7849 	 4.65052 	 -34.7449 	 
H 	 -49.4376 	 6.37938 	 -35.141 	 
H 	 -50.4148 	 5.34221 	 -36.2715 	 
H 	 -53.1366 	 -0.234827 	 -31.2233 	 
H 	 -56.1813 	 7.15719 	 -33.3362 	 
*
