! wB97X-D3 SP def2-SVP
%pal
nprocs 24
end

* xyz 0 1
S 	 23.011 	 0.114492 	 -114.287 	 
C 	 21.6051 	 0.00316977 	 -115.318 	 
C 	 20.5882 	 0.810708 	 -114.787 	 
C 	 21.1197 	 1.7512 	 -113.781 	 
C 	 22.4161 	 1.52636 	 -113.439 	 
H 	 20.5462 	 2.49762 	 -113.277 	 
C 	 19.0878 	 0.774641 	 -115.306 	 
H 	 18.4136 	 0.270196 	 -114.654 	 
H 	 19.2161 	 0.245926 	 -116.217 	 
C 	 18.6725 	 2.12508 	 -115.735 	 
H 	 18.4463 	 2.89593 	 -114.957 	 
H 	 19.4946 	 2.58628 	 -116.239 	 
C 	 17.3775 	 2.11857 	 -116.47 	 
H 	 17.3475 	 1.27059 	 -117.235 	 
H 	 16.6232 	 1.77094 	 -115.783 	 
H 	 17.0475 	 3.09714 	 -116.898 	 
S 	 24.7163 	 2.7523 	 -113.393 	 
C 	 25.1255 	 3.79682 	 -112.139 	 
C 	 24.1875 	 3.73224 	 -111.086 	 
C 	 23.0293 	 3.01429 	 -111.394 	 
C 	 23.2158 	 2.3138 	 -112.568 	 
H 	 24.2783 	 4.33416 	 -110.248 	 
C 	 21.7237 	 3.09618 	 -110.581 	 
H 	 21.0973 	 3.55265 	 -111.334 	 
H 	 22.0034 	 3.87711 	 -109.727 	 
C 	 21.1511 	 1.86585 	 -109.925 	 
H 	 22.0323 	 1.54063 	 -109.473 	 
H 	 20.9179 	 1.0887 	 -110.672 	 
C 	 20.0002 	 1.96202 	 -108.908 	 
H 	 19.6615 	 1.06698 	 -108.412 	 
H 	 19.1186 	 2.34336 	 -109.463 	 
H 	 20.2982 	 2.68782 	 -108.097 	 
H 	 21.5494 	 -0.69351 	 -116.136 	 
H 	 26.0615 	 4.37851 	 -112.147 	 
*
