! wB97X-D3 SP def2-SVP
%pal
nprocs 24
end

* xyz 0 1
S 	 -39.0508 	 -49.9771 	 -74.9921 	 
C 	 -39.5424 	 -48.9992 	 -76.3408 	 
C 	 -38.5499 	 -48.1404 	 -76.7828 	 
C 	 -37.3592 	 -48.3175 	 -75.9751 	 
C 	 -37.4042 	 -49.3237 	 -74.9767 	 
H 	 -36.4273 	 -47.6832 	 -76.0709 	 
C 	 -38.7101 	 -46.9676 	 -77.7237 	 
H 	 -39.5924 	 -47.2416 	 -78.3276 	 
H 	 -37.954 	 -46.7753 	 -78.5161 	 
C 	 -38.9605 	 -45.6311 	 -77.0049 	 
H 	 -38.1281 	 -45.4373 	 -76.2786 	 
H 	 -38.9604 	 -44.8725 	 -77.7973 	 
C 	 -40.2092 	 -45.5565 	 -76.125 	 
H 	 -41.1278 	 -45.6377 	 -76.6888 	 
H 	 -40.2413 	 -46.4401 	 -75.3973 	 
H 	 -40.2528 	 -44.6238 	 -75.5235 	 
S 	 -36.1272 	 -51.5384 	 -73.8861 	 
C 	 -34.7976 	 -51.3814 	 -72.8279 	 
C 	 -34.3372 	 -50.0871 	 -72.8926 	 
C 	 -35.2403 	 -49.1709 	 -73.5613 	 
C 	 -36.3156 	 -49.8029 	 -74.1484 	 
H 	 -33.3674 	 -49.816 	 -72.4775 	 
C 	 -34.867 	 -47.7139 	 -73.7395 	 
H 	 -34.7587 	 -47.265 	 -72.7694 	 
H 	 -35.639 	 -47.0901 	 -74.1747 	 
C 	 -33.5043 	 -47.4865 	 -74.5052 	 
H 	 -32.6425 	 -47.7797 	 -73.8565 	 
H 	 -33.3899 	 -46.3949 	 -74.6698 	 
C 	 -33.3631 	 -48.2418 	 -75.9237 	 
H 	 -32.4923 	 -47.8995 	 -76.5014 	 
H 	 -34.2469 	 -48.0829 	 -76.6079 	 
H 	 -33.4785 	 -49.2632 	 -75.8432 	 
H 	 -40.6457 	 -48.9109 	 -76.6991 	 
H 	 -34.1845 	 -52.2108 	 -72.4114 	 
*
