! wB97X-D3 SP def2-SVP
%pal
nprocs 24
end

* xyz 0 1
S 	 -61.2367 	 9.96984 	 -96.4973 	 
C 	 -60.8201 	 11.6743 	 -96.1369 	 
C 	 -60.041 	 12.2542 	 -97.0956 	 
C 	 -59.5596 	 11.2446 	 -98.0315 	 
C 	 -60.1895 	 10.022 	 -97.8936 	 
H 	 -58.7723 	 11.3801 	 -98.7748 	 
C 	 -59.535 	 13.7148 	 -97.0909 	 
H 	 -60.0888 	 14.2326 	 -96.3048 	 
H 	 -59.7586 	 14.204 	 -98.0153 	 
C 	 -58.0389 	 13.8399 	 -96.7576 	 
H 	 -57.5139 	 13.1774 	 -97.4611 	 
H 	 -57.6449 	 14.8508 	 -96.9305 	 
C 	 -57.7001 	 13.5062 	 -95.2851 	 
H 	 -57.9622 	 12.4585 	 -95.0491 	 
H 	 -56.6991 	 13.4621 	 -95.2426 	 
H 	 -58.2457 	 14.1803 	 -94.5555 	 
S 	 -58.9323 	 7.61437 	 -97.853 	 
C 	 -58.3968 	 6.90541 	 -99.3476 	 
C 	 -59.0558 	 7.50637 	 -100.369 	 
C 	 -59.799 	 8.63762 	 -100.053 	 
C 	 -59.7804 	 8.84145 	 -98.6885 	 
H 	 -58.8572 	 7.08901 	 -101.313 	 
C 	 -60.4045 	 9.58569 	 -101.128 	 
H 	 -60.3028 	 9.16374 	 -102.111 	 
H 	 -59.829 	 10.4943 	 -101.286 	 
C 	 -61.8825 	 9.81134 	 -100.966 	 
H 	 -62.0862 	 10.1802 	 -99.9339 	 
H 	 -62.2518 	 8.79467 	 -100.886 	 
C 	 -62.4997 	 10.6984 	 -102.026 	 
H 	 -62.0593 	 11.6919 	 -101.961 	 
H 	 -63.5144 	 10.9737 	 -101.83 	 
H 	 -62.3317 	 10.3685 	 -103.024 	 
H 	 -61.1684 	 12.3174 	 -95.364 	 
H 	 -57.6921 	 6.04136 	 -99.4398 	 
*
