! wB97X-D3 SP def2-SVP
%pal
nprocs 24
end

* xyz 0 1
S 	 -103.881 	 20.4185 	 -110.881 	 
C 	 -104.084 	 19.5987 	 -109.304 	 
C 	 -105.322 	 19.7559 	 -108.824 	 
C 	 -106.167 	 20.5519 	 -109.676 	 
C 	 -105.543 	 20.9414 	 -110.8 	 
H 	 -107.236 	 20.8241 	 -109.604 	 
C 	 -105.804 	 19.2422 	 -107.502 	 
H 	 -105.781 	 18.1553 	 -107.683 	 
H 	 -106.827 	 19.5607 	 -107.257 	 
C 	 -104.818 	 19.5582 	 -106.329 	 
H 	 -105.236 	 19.0842 	 -105.408 	 
H 	 -103.887 	 19.1102 	 -106.499 	 
C 	 -104.6 	 21.0522 	 -105.999 	 
H 	 -104.13 	 20.9908 	 -104.964 	 
H 	 -104.022 	 21.5614 	 -106.63 	 
H 	 -105.515 	 21.5576 	 -106.023 	 
S 	 -106.148 	 21.0228 	 -113.378 	 
C 	 -106.929 	 22.4766 	 -114.052 	 
C 	 -107.146 	 23.4309 	 -113.103 	 
C 	 -106.739 	 22.9972 	 -111.811 	 
C 	 -106.034 	 21.7841 	 -111.85 	 
H 	 -107.816 	 24.2763 	 -113.305 	 
C 	 -107.066 	 23.8058 	 -110.681 	 
H 	 -107.569 	 23.184 	 -109.928 	 
H 	 -107.793 	 24.5607 	 -111.068 	 
C 	 -105.807 	 24.3999 	 -109.979 	 
H 	 -105.348 	 25.0685 	 -110.722 	 
H 	 -104.941 	 23.7279 	 -109.688 	 
C 	 -106.321 	 25.4274 	 -108.865 	 
H 	 -105.642 	 26.2747 	 -108.551 	 
H 	 -106.671 	 24.8225 	 -108.043 	 
H 	 -107.244 	 25.962 	 -109.186 	 
H 	 -103.352 	 18.9895 	 -108.897 	 
H 	 -107.307 	 22.4704 	 -115.097 	 
*
