! wB97X-D3 SP def2-SVP
%pal
nprocs 24
end

* xyz 0 1
S 	 -49.413 	 2.39865 	 -22.6589 	 
C 	 -48.0996 	 1.26183 	 -22.5671 	 
C 	 -48.509 	 -0.0509057 	 -22.7721 	 
C 	 -49.9202 	 -0.1154 	 -23.0048 	 
C 	 -50.5551 	 1.14114 	 -22.9922 	 
H 	 -50.4972 	 -1.04516 	 -23.1043 	 
C 	 -47.6255 	 -1.26604 	 -22.8401 	 
H 	 -46.9889 	 -1.29511 	 -23.7063 	 
H 	 -48.2257 	 -2.14555 	 -22.6442 	 
C 	 -46.6051 	 -1.2918 	 -21.7206 	 
H 	 -45.8982 	 -0.423589 	 -21.7104 	 
H 	 -47.1525 	 -1.11116 	 -20.8559 	 
C 	 -45.7949 	 -2.61308 	 -21.655 	 
H 	 -45.3586 	 -2.85407 	 -22.6015 	 
H 	 -44.8883 	 -2.53253 	 -21.0735 	 
H 	 -46.3789 	 -3.50549 	 -21.3235 	 
S 	 -52.6367 	 2.00603 	 -24.5988 	 
C 	 -54.2997 	 1.98884 	 -23.9074 	 
C 	 -54.2815 	 1.51206 	 -22.6243 	 
C 	 -52.9401 	 1.25839 	 -22.1112 	 
C 	 -51.9628 	 1.43386 	 -23.1025 	 
H 	 -55.1921 	 1.50262 	 -22.0188 	 
C 	 -52.6813 	 0.779998 	 -20.6344 	 
H 	 -51.8265 	 1.35844 	 -20.2093 	 
H 	 -52.3288 	 -0.267955 	 -20.6921 	 
C 	 -53.7989 	 0.764461 	 -19.6431 	 
H 	 -53.3406 	 0.189447 	 -18.8606 	 
H 	 -54.5037 	 0.0598825 	 -20.0011 	 
C 	 -54.4455 	 2.06096 	 -19.0683 	 
H 	 -55.2166 	 1.71843 	 -18.3712 	 
H 	 -54.7617 	 2.70966 	 -19.8722 	 
H 	 -53.6631 	 2.53692 	 -18.4972 	 
H 	 -47.1386 	 1.49107 	 -22.6716 	 
H 	 -55.1761 	 2.33753 	 -24.5271 	 
*
