! wB97X-D3 SP def2-SVP
%pal
nprocs 24
end

* xyz 0 1
S 	 -64.8192 	 18.072 	 -115.65 	 
C 	 -65.6754 	 16.6134 	 -115.19 	 
C 	 -66.0453 	 16.704 	 -113.892 	 
C 	 -65.6369 	 17.8865 	 -113.208 	 
C 	 -65.0694 	 18.8249 	 -114.027 	 
H 	 -65.6793 	 18.1028 	 -112.202 	 
C 	 -66.929 	 15.6372 	 -113.212 	 
H 	 -67.4718 	 15.0979 	 -113.993 	 
H 	 -67.5833 	 16.1494 	 -112.523 	 
C 	 -66.0325 	 14.5844 	 -112.615 	 
H 	 -65.5321 	 14.001 	 -113.397 	 
H 	 -65.2381 	 15.0387 	 -112.026 	 
C 	 -66.8115 	 13.5583 	 -111.772 	 
H 	 -66.2972 	 12.6634 	 -111.441 	 
H 	 -67.2104 	 13.999 	 -110.805 	 
H 	 -67.7296 	 13.1907 	 -112.294 	 
S 	 -64.6582 	 21.4974 	 -114.982 	 
C 	 -63.6359 	 22.5319 	 -113.976 	 
C 	 -63.3447 	 22.0022 	 -112.71 	 
C 	 -63.8235 	 20.6335 	 -112.572 	 
C 	 -64.55 	 20.1709 	 -113.707 	 
H 	 -62.8398 	 22.6196 	 -111.998 	 
C 	 -63.5044 	 19.7923 	 -111.39 	 
H 	 -62.4622 	 19.8095 	 -111.353 	 
H 	 -63.5666 	 18.6919 	 -111.575 	 
C 	 -64.1723 	 20.1887 	 -110.086 	 
H 	 -65.248 	 19.9883 	 -110.036 	 
H 	 -63.9692 	 21.2247 	 -109.923 	 
C 	 -63.5367 	 19.424 	 -108.889 	 
H 	 -63.6298 	 18.3917 	 -108.923 	 
H 	 -63.984 	 19.8421 	 -108.02 	 
H 	 -62.5102 	 19.7067 	 -108.694 	 
H 	 -65.9272 	 15.8407 	 -115.856 	 
H 	 -63.5844 	 23.5602 	 -114.209 	 
*
