! wB97X-D3 SP def2-SVP
%pal
nprocs 24
end

* xyz 0 1
S 	 -63.0365 	 20.6676 	 -72.0397 	 
C 	 -63.1448 	 19.4931 	 -73.3678 	 
C 	 -64.3543 	 18.8128 	 -73.4549 	 
C 	 -65.2761 	 19.3364 	 -72.4733 	 
C 	 -64.8078 	 20.3881 	 -71.7536 	 
H 	 -66.3473 	 19.0814 	 -72.3487 	 
C 	 -64.6823 	 17.6326 	 -74.407 	 
H 	 -64.3543 	 16.6411 	 -74.0291 	 
H 	 -64.0602 	 17.7781 	 -75.227 	 
C 	 -66.0914 	 17.5626 	 -75.036 	 
H 	 -66.8642 	 17.22 	 -74.354 	 
H 	 -66.438 	 18.5298 	 -75.3177 	 
C 	 -66.1155 	 16.5494 	 -76.1823 	 
H 	 -66.2917 	 15.4572 	 -75.929 	 
H 	 -66.8151 	 16.926 	 -76.8913 	 
H 	 -65.2165 	 16.6376 	 -76.8381 	 
S 	 -64.7501 	 21.9341 	 -69.3947 	 
C 	 -66.3139 	 22.7103 	 -68.9157 	 
C 	 -67.2712 	 22.7075 	 -69.9155 	 
C 	 -66.7796 	 21.9796 	 -71.0411 	 
C 	 -65.5367 	 21.3332 	 -70.8815 	 
H 	 -68.2484 	 23.1811 	 -69.7263 	 
C 	 -67.5063 	 22.0081 	 -72.3943 	 
H 	 -66.9879 	 21.3939 	 -73.1813 	 
H 	 -67.3376 	 23.0108 	 -72.8096 	 
C 	 -69.0098 	 21.7533 	 -72.3126 	 
H 	 -69.5382 	 21.9838 	 -73.2855 	 
H 	 -69.4117 	 22.6413 	 -71.7201 	 
C 	 -69.3087 	 20.3712 	 -71.7713 	 
H 	 -70.4453 	 20.2766 	 -71.639 	 
H 	 -68.9239 	 20.1955 	 -70.7895 	 
H 	 -69.0915 	 19.5735 	 -72.496 	 
H 	 -62.2711 	 19.1855 	 -73.9586 	 
H 	 -66.4941 	 23.3611 	 -68.0886 	 
*
