! wB97X-D3 SP def2-SVP
%pal
nprocs 24
end

* xyz 0 1
S 	 -41.6211 	 -7.60524 	 7.81754 	 
C 	 -40.7725 	 -8.95116 	 8.50678 	 
C 	 -40.5265 	 -8.71858 	 9.8811 	 
C 	 -40.8314 	 -7.34408 	 10.3179 	 
C 	 -41.1369 	 -6.59331 	 9.21289 	 
H 	 -40.6656 	 -6.7158 	 11.2643 	 
C 	 -39.7976 	 -9.58807 	 10.8894 	 
H 	 -40.5275 	 -10.4062 	 11.0793 	 
H 	 -39.6256 	 -9.01404 	 11.8387 	 
C 	 -38.5178 	 -10.4031 	 10.4734 	 
H 	 -38.2158 	 -11.0085 	 11.3628 	 
H 	 -38.7528 	 -11.0262 	 9.6426 	 
C 	 -37.3246 	 -9.53285 	 10.0619 	 
H 	 -37.4741 	 -8.41171 	 9.9656 	 
H 	 -36.3706 	 -9.63275 	 10.6745 	 
H 	 -37.1604 	 -9.89193 	 9.05618 	 
S 	 -43.0325 	 -4.60731 	 8.84891 	 
C 	 -42.5642 	 -2.97383 	 8.9848 	 
C 	 -41.2803 	 -2.80673 	 9.40927 	 
C 	 -40.6005 	 -4.08867 	 9.53067 	 
C 	 -41.4117 	 -5.16627 	 9.21104 	 
H 	 -40.9567 	 -1.78937 	 9.65821 	 
C 	 -39.1424 	 -4.11646 	 10.0558 	 
H 	 -39.0989 	 -4.87993 	 10.7948 	 
H 	 -39.0461 	 -3.15751 	 10.5433 	 
C 	 -38.0479 	 -4.28902 	 8.94724 	 
H 	 -38.2062 	 -3.53907 	 8.13032 	 
H 	 -38.0595 	 -5.32556 	 8.59145 	 
C 	 -36.6344 	 -3.98118 	 9.41355 	 
H 	 -36.4003 	 -2.94338 	 9.41745 	 
H 	 -35.8506 	 -4.50585 	 8.80484 	 
H 	 -36.4792 	 -4.3069 	 10.4326 	 
H 	 -40.5574 	 -9.85045 	 8.00447 	 
H 	 -43.2367 	 -2.16677 	 8.79195 	 
*
