! wB97X-D3 SP def2-SVP
%pal
nprocs 24
end

* xyz 0 1
S 	 -143.755 	 1.40522 	 14.8956 	 
C 	 -144.814 	 0.788031 	 13.6186 	 
C 	 -145.261 	 1.80659 	 12.8198 	 
C 	 -144.983 	 3.09708 	 13.4181 	 
C 	 -144.13 	 3.08974 	 14.4995 	 
H 	 -145.39 	 4.04011 	 12.9841 	 
C 	 -146.352 	 1.65942 	 11.7281 	 
H 	 -147.343 	 1.62464 	 12.2833 	 
H 	 -146.198 	 0.718603 	 11.3107 	 
C 	 -146.477 	 2.74847 	 10.6442 	 
H 	 -146.772 	 3.67176 	 11.1451 	 
H 	 -145.408 	 2.98656 	 10.2923 	 
C 	 -147.469 	 2.42477 	 9.4853 	 
H 	 -146.945 	 1.79455 	 8.74182 	 
H 	 -148.415 	 1.929 	 9.89897 	 
H 	 -147.657 	 3.21167 	 8.79631 	 
S 	 -141.792 	 3.98982 	 15.5482 	 
C 	 -141.614 	 5.65157 	 15.9867 	 
C 	 -142.838 	 6.34449 	 15.8833 	 
C 	 -143.891 	 5.50155 	 15.3302 	 
C 	 -143.514 	 4.19409 	 15.1984 	 
H 	 -142.995 	 7.39448 	 16.0894 	 
C 	 -145.202 	 6.17934 	 14.8162 	 
H 	 -146.069 	 5.55188 	 15.0994 	 
H 	 -145.111 	 6.22417 	 13.7872 	 
C 	 -145.539 	 7.6061 	 15.329 	 
H 	 -144.754 	 8.32948 	 15.1045 	 
H 	 -145.465 	 7.60321 	 16.4277 	 
C 	 -146.88 	 8.22969 	 14.8603 	 
H 	 -147.679 	 7.58409 	 15.2361 	 
H 	 -146.831 	 8.36225 	 13.8222 	 
H 	 -146.983 	 9.17814 	 15.368 	 
H 	 -144.783 	 -0.308089 	 13.3272 	 
H 	 -140.716 	 6.18359 	 16.4163 	 
*
