! wB97X-D3 SP def2-SVP
%pal
nprocs 24
end

* xyz 0 1
S 	 -35.355 	 0.428665 	 10.0606 	 
C 	 -34.0041 	 -0.270535 	 10.9997 	 
C 	 -34.442 	 -0.46424 	 12.2815 	 
C 	 -35.8675 	 -0.258431 	 12.4921 	 
C 	 -36.4889 	 0.289366 	 11.3872 	 
H 	 -36.4389 	 -0.612233 	 13.2888 	 
C 	 -33.5062 	 -0.908807 	 13.3353 	 
H 	 -32.8588 	 -1.54572 	 12.9002 	 
H 	 -34.1554 	 -1.53272 	 13.976 	 
C 	 -32.7875 	 0.13517 	 14.2291 	 
H 	 -32.2551 	 -0.497157 	 14.9301 	 
H 	 -31.9002 	 0.509728 	 13.6968 	 
C 	 -33.7351 	 1.18154 	 14.8291 	 
H 	 -34.5563 	 0.699648 	 15.3653 	 
H 	 -33.2231 	 1.89119 	 15.4655 	 
H 	 -34.2234 	 1.6885 	 14.019 	 
S 	 -38.5435 	 0.416777 	 9.50672 	 
C 	 -40.1295 	 1.00868 	 9.89416 	 
C 	 -40.1964 	 0.964861 	 11.3031 	 
C 	 -38.9341 	 0.731627 	 12.0021 	 
C 	 -37.8545 	 0.66634 	 11.0819 	 
H 	 -41.1189 	 1.18702 	 11.7775 	 
C 	 -38.8664 	 0.767429 	 13.4941 	 
H 	 -39.3397 	 1.72471 	 13.7319 	 
H 	 -37.9376 	 0.969908 	 13.9701 	 
C 	 -39.6773 	 -0.324407 	 14.2511 	 
H 	 -39.0655 	 -1.13785 	 14.3385 	 
H 	 -40.5681 	 -0.651491 	 13.756 	 
C 	 -40.2352 	 0.261652 	 15.5581 	 
H 	 -40.7069 	 -0.545547 	 16.1055 	 
H 	 -41.0138 	 0.992306 	 15.3756 	 
H 	 -39.454 	 0.662159 	 16.2103 	 
H 	 -32.9744 	 -0.430927 	 10.6571 	 
H 	 -40.9721 	 1.1427 	 9.18992 	 
*
