! wB97X-D3 SP def2-SVP
%pal
nprocs 24
end

* xyz 0 1
S 	 -51.7076 	 -53.7884 	 -82.6484 	 
C 	 -52.7545 	 -52.6324 	 -81.8559 	 
C 	 -53.9732 	 -53.2476 	 -81.5261 	 
C 	 -54.0204 	 -54.6131 	 -81.9371 	 
C 	 -52.8952 	 -55.0716 	 -82.6552 	 
H 	 -54.8533 	 -55.3064 	 -81.8892 	 
C 	 -55.0935 	 -52.4675 	 -80.7886 	 
H 	 -55.0087 	 -52.4641 	 -79.7378 	 
H 	 -55.9675 	 -53.0288 	 -81.0928 	 
C 	 -55.4058 	 -50.9927 	 -81.263 	 
H 	 -54.6339 	 -50.2513 	 -81.1677 	 
H 	 -55.3478 	 -51.016 	 -82.3802 	 
C 	 -56.7409 	 -50.3304 	 -80.8294 	 
H 	 -57.6526 	 -50.877 	 -80.8881 	 
H 	 -56.6529 	 -50.0488 	 -79.7979 	 
H 	 -56.8049 	 -49.4191 	 -81.3306 	 
S 	 -51.7807 	 -57.4624 	 -82.713 	 
C 	 -52.1756 	 -58.6853 	 -83.8995 	 
C 	 -53.1333 	 -58.2134 	 -84.7848 	 
C 	 -53.5513 	 -56.8331 	 -84.4235 	 
C 	 -52.8216 	 -56.2958 	 -83.364 	 
H 	 -53.5718 	 -58.89 	 -85.5056 	 
C 	 -54.6467 	 -56.0546 	 -85.1396 	 
H 	 -55.2376 	 -55.5562 	 -84.4015 	 
H 	 -55.2109 	 -56.8747 	 -85.4137 	 
C 	 -54.0628 	 -55.1183 	 -86.2573 	 
H 	 -54.8715 	 -54.9225 	 -86.9862 	 
H 	 -53.3214 	 -55.5993 	 -86.8487 	 
C 	 -53.3975 	 -53.8037 	 -85.8128 	 
H 	 -53.1265 	 -53.1431 	 -86.6821 	 
H 	 -52.4188 	 -54.0542 	 -85.4252 	 
H 	 -53.8643 	 -53.1415 	 -85.1427 	 
H 	 -52.4769 	 -51.5862 	 -81.614 	 
H 	 -51.6826 	 -59.6109 	 -84.0014 	 
*
