! wB97X-D3 SP def2-SVP
%pal
nprocs 24
end

* xyz 0 1
S 	 -52.3087 	 17.2759 	 24.6684 	 
C 	 -50.7442 	 16.9362 	 23.8794 	 
C 	 -49.6532 	 17.4404 	 24.4963 	 
C 	 -50.0882 	 18.1414 	 25.6818 	 
C 	 -51.4202 	 18.0456 	 25.9922 	 
H 	 -49.447 	 18.656 	 26.3816 	 
C 	 -48.2032 	 17.4592 	 24.0294 	 
H 	 -47.5635 	 18.1219 	 24.6162 	 
H 	 -48.0878 	 17.8924 	 23.1207 	 
C 	 -47.4556 	 16.1423 	 24.1432 	 
H 	 -47.8911 	 15.5217 	 23.421 	 
H 	 -46.4074 	 16.2951 	 24.0511 	 
C 	 -47.5872 	 15.4392 	 25.5156 	 
H 	 -46.8537 	 14.6291 	 25.5981 	 
H 	 -47.4629 	 16.1044 	 26.3605 	 
H 	 -48.5061 	 14.9524 	 25.7666 	 
S 	 -52.7707 	 20.0291 	 27.3079 	 
C 	 -53.0931 	 19.9424 	 28.983 	 
C 	 -52.5182 	 18.8321 	 29.504 	 
C 	 -51.854 	 18.0075 	 28.5357 	 
C 	 -52.0167 	 18.4417 	 27.2561 	 
H 	 -52.5667 	 18.5963 	 30.5783 	 
C 	 -51.1621 	 16.7302 	 28.9666 	 
H 	 -50.7964 	 16.1317 	 28.1042 	 
H 	 -52.007 	 16.0996 	 29.3384 	 
C 	 -50.0772 	 16.9912 	 30.0007 	 
H 	 -49.7887 	 16.0265 	 30.5022 	 
H 	 -50.4748 	 17.5571 	 30.8337 	 
C 	 -48.8687 	 17.7365 	 29.423 	 
H 	 -49.1143 	 18.5525 	 28.71 	 
H 	 -48.162 	 16.991 	 28.9725 	 
H 	 -48.2397 	 18.1389 	 30.1944 	 
H 	 -50.6533 	 16.3652 	 22.9869 	 
H 	 -53.6168 	 20.5907 	 29.6319 	 
*
