! wB97X-D3 SP def2-SVP
%pal
nprocs 24
end

* xyz 0 1
S 	 -37.7166 	 10.5091 	 -4.46877 	 
C 	 -37.985 	 8.75628 	 -4.54224 	 
C 	 -36.7772 	 8.01717 	 -4.48642 	 
C 	 -35.6383 	 8.88467 	 -4.33478 	 
C 	 -35.9292 	 10.2604 	 -4.42097 	 
H 	 -34.6434 	 8.56611 	 -4.18921 	 
C 	 -36.6693 	 6.51602 	 -4.60785 	 
H 	 -37.6406 	 6.18639 	 -4.18126 	 
H 	 -35.9283 	 6.15277 	 -3.84378 	 
C 	 -36.3419 	 5.97134 	 -5.98712 	 
H 	 -36.4289 	 4.86131 	 -5.84435 	 
H 	 -37.1217 	 6.33626 	 -6.66752 	 
C 	 -34.9922 	 6.49067 	 -6.33447 	 
H 	 -34.2568 	 6.35982 	 -5.5577 	 
H 	 -34.6737 	 5.73121 	 -7.17578 	 
H 	 -35.053 	 7.5137 	 -6.74328 	 
S 	 -35.602 	 12.6892 	 -3.27494 	 
C 	 -34.0497 	 13.5111 	 -3.42475 	 
C 	 -33.1595 	 12.7285 	 -3.96422 	 
C 	 -33.6613 	 11.5016 	 -4.49132 	 
C 	 -34.9984 	 11.3537 	 -4.24156 	 
H 	 -32.0995 	 13.0195 	 -3.99042 	 
C 	 -32.791 	 10.4896 	 -5.24967 	 
H 	 -32.874 	 9.49627 	 -4.85414 	 
H 	 -31.7046 	 10.7019 	 -5.11516 	 
C 	 -33.1725 	 10.4345 	 -6.75659 	 
H 	 -32.9632 	 11.3434 	 -7.29547 	 
H 	 -34.2427 	 10.3114 	 -6.91087 	 
C 	 -32.5997 	 9.15236 	 -7.40262 	 
H 	 -32.6706 	 8.32331 	 -6.79992 	 
H 	 -31.5384 	 9.19231 	 -7.56776 	 
H 	 -33.0958 	 8.88044 	 -8.30206 	 
H 	 -38.9629 	 8.36207 	 -4.70018 	 
H 	 -33.8696 	 14.5341 	 -3.09125 	 
*
