! wB97X-D3 SP def2-SVP
%pal
nprocs 24
end

* xyz 0 1
S 	 -113.829 	 57.9884 	 -92.6955 	 
C 	 -112.984 	 58.5253 	 -91.2792 	 
C 	 -111.629 	 58.6924 	 -91.5258 	 
C 	 -111.265 	 58.2901 	 -92.8566 	 
C 	 -112.311 	 57.6901 	 -93.5559 	 
H 	 -110.329 	 58.3736 	 -93.2834 	 
C 	 -110.662 	 59.3053 	 -90.4988 	 
H 	 -109.93 	 58.5149 	 -90.3391 	 
H 	 -111.104 	 59.2391 	 -89.5137 	 
C 	 -109.965 	 60.6869 	 -90.837 	 
H 	 -109.341 	 60.8322 	 -90.0009 	 
H 	 -109.39 	 60.743 	 -91.7281 	 
C 	 -110.974 	 61.8678 	 -90.8355 	 
H 	 -111.588 	 61.8774 	 -91.7174 	 
H 	 -111.636 	 61.6555 	 -89.9725 	 
H 	 -110.476 	 62.8583 	 -90.7007 	 
S 	 -113.565 	 57.4393 	 -96.0015 	 
C 	 -112.726 	 56.6334 	 -97.3539 	 
C 	 -111.526 	 56.1411 	 -96.9481 	 
C 	 -111.184 	 56.5623 	 -95.6381 	 
C 	 -112.22 	 57.1629 	 -94.9198 	 
H 	 -110.913 	 55.5367 	 -97.6224 	 
C 	 -109.782 	 56.1136 	 -95.0833 	 
H 	 -109.548 	 55.1157 	 -95.3433 	 
H 	 -109.961 	 55.9967 	 -94.0245 	 
C 	 -108.565 	 56.962 	 -95.4005 	 
H 	 -108.714 	 57.915 	 -94.8728 	 
H 	 -108.387 	 57.1875 	 -96.3833 	 
C 	 -107.26 	 56.4254 	 -94.7389 	 
H 	 -106.583 	 57.3262 	 -94.482 	 
H 	 -106.672 	 55.7875 	 -95.4246 	 
H 	 -107.515 	 55.9972 	 -93.7443 	 
H 	 -113.479 	 58.9242 	 -90.3646 	 
H 	 -112.953 	 56.6745 	 -98.3879 	 
*
