! wB97X-D3 SP def2-SVP
%pal
nprocs 24
end

* xyz 0 1
S 	 -38.4873 	 -47.6176 	 -74.1551 	 
C 	 -40.2728 	 -47.4155 	 -74.333 	 
C 	 -40.7944 	 -48.2202 	 -75.3205 	 
C 	 -39.7323 	 -49.0543 	 -75.8984 	 
C 	 -38.4419 	 -48.8053 	 -75.436 	 
H 	 -39.7913 	 -49.7357 	 -76.7214 	 
C 	 -42.0633 	 -47.9758 	 -76.0575 	 
H 	 -42.7828 	 -47.7832 	 -75.2691 	 
H 	 -42.3027 	 -48.9133 	 -76.5055 	 
C 	 -41.9948 	 -46.9021 	 -77.1243 	 
H 	 -41.205 	 -46.9833 	 -77.8387 	 
H 	 -42.8999 	 -46.8934 	 -77.7325 	 
C 	 -41.7479 	 -45.5309 	 -76.553 	 
H 	 -41.1477 	 -45.4569 	 -75.6238 	 
H 	 -41.3561 	 -44.9555 	 -77.4173 	 
H 	 -42.7533 	 -45.0569 	 -76.4039 	 
S 	 -37.1807 	 -51.1469 	 -76.1737 	 
C 	 -35.576 	 -51.0965 	 -76.7488 	 
C 	 -35.1827 	 -49.7953 	 -76.9279 	 
C 	 -36.0961 	 -48.8403 	 -76.4358 	 
C 	 -37.2182 	 -49.4012 	 -75.8972 	 
H 	 -34.2299 	 -49.6358 	 -77.4746 	 
C 	 -35.7932 	 -47.3707 	 -76.4979 	 
H 	 -34.9405 	 -47.0208 	 -75.8695 	 
H 	 -36.604 	 -46.8402 	 -76.0424 	 
C 	 -35.6378 	 -46.8773 	 -77.9167 	 
H 	 -34.8059 	 -47.33 	 -78.3822 	 
H 	 -35.2112 	 -45.8878 	 -77.7721 	 
C 	 -36.8739 	 -46.9392 	 -78.856 	 
H 	 -36.6982 	 -46.546 	 -79.8591 	 
H 	 -37.6382 	 -46.2518 	 -78.4963 	 
H 	 -37.2148 	 -47.945 	 -79.0579 	 
H 	 -40.8511 	 -46.8208 	 -73.6336 	 
H 	 -35.0092 	 -51.9272 	 -77.1775 	 
*
