! wB97X-D3 SP def2-SVP
%pal
nprocs 24
end

* xyz 0 1
S 	 -131.147 	 60.647 	 -61.4255 	 
C 	 -131.377 	 62.3858 	 -61.6784 	 
C 	 -131.779 	 62.9999 	 -60.4862 	 
C 	 -131.879 	 62.0353 	 -59.4129 	 
C 	 -131.608 	 60.695 	 -59.7349 	 
H 	 -132.073 	 62.1865 	 -58.3581 	 
C 	 -132.447 	 64.391 	 -60.4508 	 
H 	 -131.89 	 65.1756 	 -61.064 	 
H 	 -132.414 	 64.8342 	 -59.4782 	 
C 	 -133.911 	 64.4408 	 -60.8701 	 
H 	 -134.498 	 63.8111 	 -60.2421 	 
H 	 -134.294 	 65.4436 	 -60.7214 	 
C 	 -134.282 	 64.0991 	 -62.3546 	 
H 	 -135.293 	 63.95 	 -62.6231 	 
H 	 -134.04 	 64.8847 	 -62.9649 	 
H 	 -133.887 	 63.1628 	 -62.8172 	 
S 	 -132.26 	 57.992 	 -59.8332 	 
C 	 -132.373 	 57.0681 	 -58.3426 	 
C 	 -132.174 	 57.8755 	 -57.2708 	 
C 	 -131.87 	 59.2098 	 -57.556 	 
C 	 -131.848 	 59.4709 	 -58.9436 	 
H 	 -132.165 	 57.4377 	 -56.2773 	 
C 	 -131.941 	 60.2065 	 -56.3965 	 
H 	 -131.508 	 61.1442 	 -56.7327 	 
H 	 -131.414 	 59.7427 	 -55.5871 	 
C 	 -133.395 	 60.6676 	 -56.0204 	 
H 	 -133.973 	 59.83 	 -55.6834 	 
H 	 -134.002 	 61.086 	 -56.8201 	 
C 	 -133.522 	 61.5779 	 -54.7558 	 
H 	 -132.896 	 61.1708 	 -53.9411 	 
H 	 -134.523 	 61.7031 	 -54.4192 	 
H 	 -133.155 	 62.5854 	 -55.0001 	 
H 	 -131.331 	 62.9444 	 -62.6402 	 
H 	 -132.596 	 56.015 	 -58.3586 	 
*
