! wB97X-D3 SP def2-SVP
%pal
nprocs 24
end

* xyz 0 1
S 	 -51.8468 	 21.3477 	 -97.9587 	 
C 	 -51.6846 	 19.7943 	 -97.2496 	 
C 	 -51.9262 	 18.7074 	 -98.0777 	 
C 	 -52.2155 	 19.1519 	 -99.3878 	 
C 	 -52.1187 	 20.5494 	 -99.5504 	 
H 	 -52.2426 	 18.6742 	 -100.299 	 
C 	 -51.7153 	 17.2808 	 -97.6193 	 
H 	 -51.9588 	 17.3608 	 -96.5497 	 
H 	 -50.5867 	 17.1658 	 -97.7286 	 
C 	 -52.4514 	 16.1187 	 -98.2678 	 
H 	 -52.157 	 16.0344 	 -99.2919 	 
H 	 -51.9932 	 15.199 	 -97.8916 	 
C 	 -53.9679 	 16.1452 	 -97.9494 	 
H 	 -54.0659 	 16.0038 	 -96.8777 	 
H 	 -54.3735 	 17.2176 	 -98.0856 	 
H 	 -54.5002 	 15.4661 	 -98.5858 	 
S 	 -53.7847 	 22.5304 	 -100.59 	 
C 	 -53.5994 	 22.8389 	 -102.321 	 
C 	 -52.5975 	 22.0899 	 -102.872 	 
C 	 -52.0353 	 21.1292 	 -102.04 	 
C 	 -52.4567 	 21.3267 	 -100.717 	 
H 	 -52.4228 	 22.2477 	 -103.916 	 
C 	 -50.9759 	 20.1482 	 -102.543 	 
H 	 -50.5391 	 19.7539 	 -101.681 	 
H 	 -50.1503 	 20.7123 	 -102.991 	 
C 	 -51.3915 	 19.0928 	 -103.549 	 
H 	 -50.4815 	 18.6439 	 -103.945 	 
H 	 -51.9122 	 19.6269 	 -104.371 	 
C 	 -52.454 	 18.0663 	 -103.123 	 
H 	 -53.3681 	 18.5221 	 -102.689 	 
H 	 -51.8689 	 17.5259 	 -102.357 	 
H 	 -52.6674 	 17.2125 	 -103.837 	 
H 	 -51.2403 	 19.7354 	 -96.2805 	 
H 	 -54.2508 	 23.4494 	 -102.945 	 
*
