! wB97X-D3 SP def2-SVP
%pal
nprocs 24
end

* xyz 0 1
S 	 -88.8567 	 52.153 	 -96.772 	 
C 	 -89.2327 	 51.3138 	 -95.2212 	 
C 	 -90.4717 	 50.7656 	 -95.2909 	 
C 	 -91.1615 	 51.0169 	 -96.5566 	 
C 	 -90.4841 	 51.8358 	 -97.4182 	 
H 	 -92.1224 	 50.7319 	 -96.9652 	 
C 	 -91.0189 	 49.703 	 -94.3271 	 
H 	 -90.2687 	 49.6493 	 -93.5294 	 
H 	 -90.946 	 48.7227 	 -94.8394 	 
C 	 -92.4082 	 49.9408 	 -93.8244 	 
H 	 -92.4238 	 51.0559 	 -93.7175 	 
H 	 -93.1537 	 49.7066 	 -94.6546 	 
C 	 -92.7952 	 49.2863 	 -92.5759 	 
H 	 -92.634 	 48.2688 	 -92.6108 	 
H 	 -92.4902 	 49.7596 	 -91.6577 	 
H 	 -93.8898 	 49.291 	 -92.5502 	 
S 	 -89.7584 	 52.3353 	 -100.047 	 
C 	 -91.0681 	 52.9413 	 -101.13 	 
C 	 -92.3231 	 52.8223 	 -100.538 	 
C 	 -92.2487 	 52.6496 	 -99.1517 	 
C 	 -90.9889 	 52.2722 	 -98.7325 	 
H 	 -93.2038 	 53.0973 	 -101.043 	 
C 	 -93.4859 	 52.9211 	 -98.2551 	 
H 	 -93.6334 	 52.1305 	 -97.5849 	 
H 	 -94.3404 	 52.8562 	 -98.8398 	 
C 	 -93.3215 	 54.3287 	 -97.5711 	 
H 	 -93.3682 	 55.1063 	 -98.3783 	 
H 	 -92.3302 	 54.4282 	 -97.0543 	 
C 	 -94.5291 	 54.7272 	 -96.6301 	 
H 	 -95.503 	 54.3255 	 -96.9207 	 
H 	 -94.566 	 55.8254 	 -96.5853 	 
H 	 -94.3231 	 54.4117 	 -95.65 	 
H 	 -88.5665 	 51.1108 	 -94.3639 	 
H 	 -90.9538 	 53.147 	 -102.189 	 
*
