! wB97X-D3 SP def2-SVP
%pal
nprocs 24
end

* xyz 0 1
S 	 4.51206 	 -23.5004 	 -113.616 	 
C 	 4.2357 	 -22.4108 	 -112.324 	 
C 	 3.06555 	 -21.6901 	 -112.562 	 
C 	 2.5006 	 -21.881 	 -113.867 	 
C 	 3.14999 	 -22.8573 	 -114.533 	 
H 	 1.65175 	 -21.3941 	 -114.247 	 
C 	 2.50712 	 -20.6347 	 -111.578 	 
H 	 2.05545 	 -19.8001 	 -112.068 	 
H 	 3.41739 	 -20.2118 	 -111.063 	 
C 	 1.6168 	 -21.1653 	 -110.524 	 
H 	 2.22882 	 -21.4002 	 -109.632 	 
H 	 0.829462 	 -20.3021 	 -110.364 	 
C 	 0.80942 	 -22.4276 	 -110.871 	 
H 	 0.167879 	 -22.5725 	 -110.042 	 
H 	 0.313131 	 -22.3908 	 -111.873 	 
H 	 1.42141 	 -23.3117 	 -110.981 	 
S 	 1.338 	 -24.0722 	 -116.304 	 
C 	 1.96646 	 -24.6397 	 -117.822 	 
C 	 3.18532 	 -24.0381 	 -118.073 	 
C 	 3.77515 	 -23.2671 	 -116.962 	 
C 	 2.89443 	 -23.3088 	 -115.889 	 
H 	 3.64589 	 -24.1645 	 -119.074 	 
C 	 5.13114 	 -22.6097 	 -116.971 	 
H 	 5.42881 	 -22.3683 	 -115.926 	 
H 	 5.01549 	 -21.6762 	 -117.571 	 
C 	 6.2638 	 -23.4277 	 -117.736 	 
H 	 7.15639 	 -22.8377 	 -117.578 	 
H 	 6.12364 	 -23.5018 	 -118.871 	 
C 	 6.40913 	 -24.8899 	 -117.255 	 
H 	 6.92092 	 -24.9626 	 -116.241 	 
H 	 7.0159 	 -25.4621 	 -117.922 	 
H 	 5.43479 	 -25.3491 	 -117.151 	 
H 	 4.76163 	 -22.4827 	 -111.386 	 
H 	 1.53674 	 -25.3821 	 -118.472 	 
*
