! wB97X-D3 SP def2-SVP
%pal
nprocs 24
end

* xyz 0 1
S 	 -117.588 	 28.5533 	 -20.1555 	 
C 	 -117.721 	 28.4839 	 -21.8926 	 
C 	 -117.68 	 29.6795 	 -22.5059 	 
C 	 -117.66 	 30.7307 	 -21.542 	 
C 	 -117.582 	 30.3154 	 -20.2322 	 
H 	 -117.787 	 31.7869 	 -21.8138 	 
C 	 -117.436 	 29.9196 	 -23.9922 	 
H 	 -116.598 	 29.2443 	 -24.2511 	 
H 	 -116.923 	 30.8918 	 -24.0975 	 
C 	 -118.638 	 29.9278 	 -24.8956 	 
H 	 -119.16 	 30.8494 	 -24.8662 	 
H 	 -118.324 	 29.894 	 -25.9378 	 
C 	 -119.577 	 28.7493 	 -24.5722 	 
H 	 -120.069 	 28.9188 	 -23.5861 	 
H 	 -120.498 	 28.5322 	 -25.2001 	 
H 	 -119.088 	 27.8268 	 -24.4919 	 
S 	 -118.795 	 31.1219 	 -17.9661 	 
C 	 -118.046 	 32.3465 	 -16.9674 	 
C 	 -116.87 	 32.8303 	 -17.5292 	 
C 	 -116.561 	 32.1671 	 -18.7451 	 
C 	 -117.462 	 31.1651 	 -19.0148 	 
H 	 -116.286 	 33.4782 	 -16.8697 	 
C 	 -115.358 	 32.6456 	 -19.5193 	 
H 	 -114.701 	 33.3665 	 -18.9305 	 
H 	 -115.607 	 33.279 	 -20.339 	 
C 	 -114.396 	 31.5246 	 -19.9902 	 
H 	 -114.212 	 31.8167 	 -21.0925 	 
H 	 -114.881 	 30.5657 	 -19.9012 	 
C 	 -113.149 	 31.5608 	 -19.0378 	 
H 	 -112.576 	 30.6898 	 -19.3973 	 
H 	 -113.419 	 31.4333 	 -17.9474 	 
H 	 -112.547 	 32.4269 	 -19.2073 	 
H 	 -117.698 	 27.5546 	 -22.519 	 
H 	 -118.369 	 32.6836 	 -16.0068 	 
*
