! wB97X-D3 SP def2-SVP
%pal
nprocs 24
end

* xyz 0 1
S 	 -87.2809 	 -31.9144 	 -62.3182 	 
C 	 -88.6493 	 -32.1098 	 -63.3936 	 
C 	 -89.6098 	 -33.0471 	 -63.015 	 
C 	 -89.1652 	 -33.6182 	 -61.8166 	 
C 	 -88.146 	 -32.9724 	 -61.1795 	 
H 	 -89.6324 	 -34.3582 	 -61.1943 	 
C 	 -90.7015 	 -33.5297 	 -63.9397 	 
H 	 -90.9947 	 -32.6482 	 -64.584 	 
H 	 -91.4664 	 -34.0112 	 -63.2451 	 
C 	 -90.2133 	 -34.6942 	 -64.8527 	 
H 	 -89.1707 	 -34.5609 	 -65.1319 	 
H 	 -90.2211 	 -35.5982 	 -64.2611 	 
C 	 -91.0948 	 -34.8218 	 -66.1134 	 
H 	 -92.156 	 -34.9717 	 -65.9471 	 
H 	 -90.9313 	 -33.9054 	 -66.6343 	 
H 	 -90.6829 	 -35.5586 	 -66.8335 	 
S 	 -86.5912 	 -34.48 	 -59.5369 	 
C 	 -86.6423 	 -34.1657 	 -57.9161 	 
C 	 -87.3848 	 -33.0765 	 -57.5338 	 
C 	 -87.9812 	 -32.4649 	 -58.6593 	 
C 	 -87.7772 	 -33.2181 	 -59.8316 	 
H 	 -87.3734 	 -32.6743 	 -56.5431 	 
C 	 -88.9222 	 -31.3045 	 -58.5437 	 
H 	 -89.1965 	 -30.9913 	 -59.6109 	 
H 	 -88.3306 	 -30.5368 	 -58.1067 	 
C 	 -90.2744 	 -31.4951 	 -57.7844 	 
H 	 -90.5904 	 -30.4759 	 -57.5614 	 
H 	 -90.0431 	 -31.9086 	 -56.7903 	 
C 	 -91.2052 	 -32.3863 	 -58.6191 	 
H 	 -92.0897 	 -32.4958 	 -57.9499 	 
H 	 -90.7887 	 -33.3292 	 -58.8055 	 
H 	 -91.503 	 -31.9077 	 -59.6036 	 
H 	 -88.7949 	 -31.7192 	 -64.356 	 
H 	 -86.0536 	 -34.7789 	 -57.288 	 
*
