! wB97X-D3 SP def2-SVP
%pal
nprocs 24
end

* xyz 0 1
S 	 31.1922 	 -37.0602 	 -128.474 	 
C 	 31.7009 	 -35.9173 	 -127.259 	 
C 	 31.5884 	 -34.6141 	 -127.623 	 
C 	 31.274 	 -34.5071 	 -129.032 	 
C 	 31.1512 	 -35.7207 	 -129.645 	 
H 	 31.3065 	 -33.6237 	 -129.636 	 
C 	 31.7842 	 -33.4473 	 -126.72 	 
H 	 32.5936 	 -32.9922 	 -127.285 	 
H 	 32.2969 	 -33.782 	 -125.787 	 
C 	 30.613 	 -32.4496 	 -126.52 	 
H 	 31.0803 	 -31.5658 	 -126.286 	 
H 	 30.1167 	 -32.3169 	 -127.466 	 
C 	 29.6718 	 -32.8354 	 -125.401 	 
H 	 29.0837 	 -31.9456 	 -125.052 	 
H 	 29.0992 	 -33.6777 	 -125.778 	 
H 	 30.2854 	 -33.1842 	 -124.6 	 
S 	 29.1864 	 -36.4056 	 -131.504 	 
C 	 29.5576 	 -36.1147 	 -133.197 	 
C 	 30.8877 	 -35.8359 	 -133.368 	 
C 	 31.5261 	 -35.4432 	 -132.196 	 
C 	 30.7526 	 -35.833 	 -131.057 	 
H 	 31.1327 	 -35.7904 	 -134.431 	 
C 	 32.9569 	 -34.9082 	 -132.111 	 
H 	 33.183 	 -34.5378 	 -131.113 	 
H 	 32.9921 	 -34.1766 	 -132.889 	 
C 	 34.0794 	 -35.9065 	 -132.485 	 
H 	 33.6509 	 -36.4837 	 -133.27 	 
H 	 34.3342 	 -36.5602 	 -131.623 	 
C 	 35.3854 	 -35.1794 	 -132.982 	 
H 	 36.1912 	 -35.8167 	 -133.111 	 
H 	 35.7415 	 -34.4746 	 -132.202 	 
H 	 35.3342 	 -34.5261 	 -133.901 	 
H 	 31.8766 	 -36.1287 	 -126.218 	 
H 	 28.9797 	 -36.4215 	 -134.033 	 
*
