! wB97X-D3 SP def2-SVP
%pal
nprocs 24
end

* xyz 0 1
S 	 -50.3291 	 18.9419 	 -89.6957 	 
C 	 -49.6904 	 19.9877 	 -88.4686 	 
C 	 -49.8797 	 21.3586 	 -88.8002 	 
C 	 -50.289 	 21.5037 	 -90.1602 	 
C 	 -50.4724 	 20.2982 	 -90.8123 	 
H 	 -50.4372 	 22.3618 	 -90.8339 	 
C 	 -49.6176 	 22.5805 	 -87.9314 	 
H 	 -49.4929 	 22.2768 	 -86.8916 	 
H 	 -50.5367 	 23.047 	 -87.9946 	 
C 	 -48.3024 	 23.5102 	 -88.1816 	 
H 	 -48.3343 	 24.0018 	 -89.0573 	 
H 	 -48.1839 	 24.2951 	 -87.3708 	 
C 	 -47.0171 	 22.7237 	 -88.3089 	 
H 	 -46.8433 	 22.0152 	 -87.4623 	 
H 	 -47.0958 	 22.1737 	 -89.2357 	 
H 	 -46.2224 	 23.4162 	 -88.4616 	 
S 	 -52.8939 	 19.9667 	 -91.8695 	 
C 	 -53.0564 	 19.8514 	 -93.5985 	 
C 	 -51.8332 	 19.8484 	 -94.2656 	 
C 	 -50.6964 	 20.0258 	 -93.4118 	 
C 	 -51.1235 	 20.1054 	 -92.079 	 
H 	 -51.8698 	 19.6299 	 -95.3441 	 
C 	 -49.2744 	 19.9988 	 -93.7823 	 
H 	 -48.7099 	 20.4111 	 -92.8999 	 
H 	 -48.9747 	 20.6694 	 -94.6355 	 
C 	 -48.7261 	 18.5865 	 -94.1148 	 
H 	 -48.9922 	 17.7433 	 -93.5169 	 
H 	 -47.6224 	 18.7086 	 -93.9823 	 
C 	 -48.758 	 18.2136 	 -95.5424 	 
H 	 -48.3476 	 17.1936 	 -95.6022 	 
H 	 -48.1643 	 18.8052 	 -96.2632 	 
H 	 -49.7162 	 18.1786 	 -95.9522 	 
H 	 -49.4428 	 19.6154 	 -87.4715 	 
H 	 -53.9392 	 19.8273 	 -94.1719 	 
*
