! wB97X-D3 SP def2-SVP
%pal
nprocs 24
end

* xyz 0 1
S 	 -98.1139 	 -2.9851 	 -104.102 	 
C 	 -97.7 	 -2.17693 	 -105.553 	 
C 	 -98.6094 	 -1.19376 	 -105.967 	 
C 	 -99.764 	 -1.19915 	 -105.071 	 
C 	 -99.6116 	 -2.10183 	 -104.025 	 
H 	 -100.653 	 -0.544059 	 -105.106 	 
C 	 -98.5535 	 -0.39239 	 -107.232 	 
H 	 -97.4787 	 -0.447044 	 -107.619 	 
H 	 -98.7574 	 0.671214 	 -106.872 	 
C 	 -99.4422 	 -0.738159 	 -108.38 	 
H 	 -100.489 	 -0.623295 	 -108.061 	 
H 	 -99.3961 	 0.0318415 	 -109.13 	 
C 	 -99.0875 	 -2.03231 	 -109.092 	 
H 	 -98.0686 	 -2.25667 	 -109.1 	 
H 	 -99.639 	 -2.92556 	 -108.696 	 
H 	 -99.3562 	 -1.92642 	 -110.153 	 
S 	 -100.643 	 -0.726507 	 -101.89 	 
C 	 -101.874 	 -1.42197 	 -100.848 	 
C 	 -102.126 	 -2.70379 	 -101.262 	 
C 	 -101.437 	 -3.12976 	 -102.448 	 
C 	 -100.476 	 -2.21643 	 -102.853 	 
H 	 -102.807 	 -3.27865 	 -100.623 	 
C 	 -101.584 	 -4.5255 	 -102.98 	 
H 	 -100.611 	 -4.69677 	 -103.561 	 
H 	 -102.476 	 -4.37508 	 -103.657 	 
C 	 -101.812 	 -5.69174 	 -102.013 	 
H 	 -102.71 	 -5.63929 	 -101.426 	 
H 	 -100.89 	 -5.66961 	 -101.38 	 
C 	 -101.873 	 -7.0854 	 -102.689 	 
H 	 -101.038 	 -7.25733 	 -103.388 	 
H 	 -102.685 	 -6.94118 	 -103.42 	 
H 	 -101.929 	 -7.89061 	 -101.968 	 
H 	 -96.761 	 -2.40262 	 -105.964 	 
H 	 -102.204 	 -1.05932 	 -99.9242 	 
*
