! wB97X-D3 SP def2-SVP
%pal
nprocs 24
end

* xyz 0 1
S 	 -66.1418 	 -46.3693 	 -91.3609 	 
C 	 -65.3937 	 -46.6734 	 -92.9 	 
C 	 -64.2662 	 -47.4864 	 -92.8076 	 
C 	 -64.1226 	 -47.9773 	 -91.4389 	 
C 	 -65.0362 	 -47.4372 	 -90.5912 	 
H 	 -63.3592 	 -48.6633 	 -91.159 	 
C 	 -63.2673 	 -48.0156 	 -93.7955 	 
H 	 -63.6606 	 -47.6206 	 -94.7596 	 
H 	 -63.3106 	 -49.1486 	 -93.7591 	 
C 	 -61.8465 	 -47.4535 	 -93.6844 	 
H 	 -61.8842 	 -46.4177 	 -93.3964 	 
H 	 -61.3711 	 -47.9368 	 -92.8386 	 
C 	 -61.1059 	 -47.5743 	 -95.0505 	 
H 	 -60.9859 	 -48.6677 	 -95.2509 	 
H 	 -61.6352 	 -47.0783 	 -95.8831 	 
H 	 -60.0988 	 -47.1002 	 -95.127 	 
S 	 -65.1896 	 -45.9853 	 -88.2491 	 
C 	 -65.0981 	 -46.8548 	 -86.8027 	 
C 	 -65.0777 	 -48.2297 	 -86.8942 	 
C 	 -65.1491 	 -48.6706 	 -88.2635 	 
C 	 -65.091 	 -47.5547 	 -89.1461 	 
H 	 -65.035 	 -48.7925 	 -85.9411 	 
C 	 -65.0112 	 -50.167 	 -88.6876 	 
H 	 -64.5527 	 -50.7354 	 -87.8978 	 
H 	 -64.2804 	 -50.2773 	 -89.6158 	 
C 	 -66.4202 	 -50.805 	 -88.9297 	 
H 	 -66.3583 	 -51.9008 	 -89.1181 	 
H 	 -66.8318 	 -50.3651 	 -89.8506 	 
C 	 -67.4065 	 -50.671 	 -87.7903 	 
H 	 -68.2543 	 -51.3161 	 -88.0049 	 
H 	 -67.8862 	 -49.7157 	 -87.5959 	 
H 	 -66.981 	 -50.9478 	 -86.8248 	 
H 	 -65.791 	 -46.1351 	 -93.7285 	 
H 	 -65.0524 	 -46.3024 	 -85.8937 	 
*
