! wB97X-D3 SP def2-SVP
%pal
nprocs 24
end

* xyz 0 1
S 	 -78.4727 	 -4.33872 	 5.89516 	 
C 	 -77.9782 	 -3.30443 	 4.63704 	 
C 	 -77.8902 	 -3.95584 	 3.4556 	 
C 	 -78.5068 	 -5.28117 	 3.49706 	 
C 	 -78.9328 	 -5.60623 	 4.77662 	 
H 	 -78.6306 	 -5.89444 	 2.67768 	 
C 	 -77.5159 	 -3.26816 	 2.18278 	 
H 	 -78.035 	 -2.33706 	 2.20207 	 
H 	 -77.8314 	 -3.84155 	 1.30163 	 
C 	 -76.0715 	 -2.76088 	 2.05719 	 
H 	 -75.9057 	 -2.18855 	 1.1459 	 
H 	 -75.9116 	 -1.94453 	 2.77819 	 
C 	 -74.9266 	 -3.71127 	 2.19905 	 
H 	 -74.9554 	 -4.39234 	 1.32319 	 
H 	 -73.9711 	 -3.18941 	 2.2118 	 
H 	 -75.1272 	 -4.49696 	 3.0222 	 
S 	 -81.3463 	 -6.58256 	 5.45157 	 
C 	 -81.3226 	 -8.32034 	 5.92609 	 
C 	 -80.1738 	 -8.95481 	 5.61969 	 
C 	 -79.1078 	 -8.07919 	 5.28449 	 
C 	 -79.565 	 -6.75832 	 5.22081 	 
H 	 -80.2232 	 -10.0115 	 5.73495 	 
C 	 -77.6914 	 -8.55294 	 5.10801 	 
H 	 -77.4755 	 -9.33381 	 5.82872 	 
H 	 -76.9889 	 -7.7833 	 5.36118 	 
C 	 -77.3734 	 -8.95548 	 3.65143 	 
H 	 -77.638 	 -8.04605 	 3.09097 	 
H 	 -77.9312 	 -9.80494 	 3.30013 	 
C 	 -75.8686 	 -9.12337 	 3.27954 	 
H 	 -75.1843 	 -8.26163 	 3.44314 	 
H 	 -75.6899 	 -9.29877 	 2.19227 	 
H 	 -75.4339 	 -10.0071 	 3.73206 	 
H 	 -77.5722 	 -2.29354 	 4.76051 	 
H 	 -82.2628 	 -8.81577 	 6.16481 	 
*
