! wB97X-D3 SP def2-SVP
%pal
nprocs 24
end

* xyz 0 1
S 	 -52.4167 	 -51.3685 	 -77.9398 	 
C 	 -51.5669 	 -51.2294 	 -79.4709 	 
C 	 -52.0029 	 -50.0277 	 -80.0703 	 
C 	 -52.8535 	 -49.2201 	 -79.225 	 
C 	 -53.1779 	 -49.8112 	 -78.0075 	 
H 	 -53.1149 	 -48.1553 	 -79.5209 	 
C 	 -51.6272 	 -49.6213 	 -81.4846 	 
H 	 -52.3715 	 -48.8736 	 -81.7936 	 
H 	 -51.6808 	 -50.3926 	 -82.2592 	 
C 	 -50.2564 	 -48.948 	 -81.7339 	 
H 	 -50.1801 	 -48.6319 	 -82.781 	 
H 	 -50.113 	 -48.0058 	 -81.1208 	 
C 	 -48.9887 	 -49.7928 	 -81.4027 	 
H 	 -48.9576 	 -50.6734 	 -81.9914 	 
H 	 -48.003 	 -49.3142 	 -81.5855 	 
H 	 -48.8548 	 -49.9124 	 -80.3705 	 
S 	 -52.5602 	 -49.1572 	 -75.442 	 
C 	 -53.8515 	 -48.7752 	 -74.2953 	 
C 	 -54.8721 	 -48.2387 	 -75.0568 	 
C 	 -54.9243 	 -48.6636 	 -76.4385 	 
C 	 -53.7332 	 -49.2153 	 -76.7902 	 
H 	 -55.6365 	 -47.5936 	 -74.6158 	 
C 	 -56.0705 	 -48.395 	 -77.3813 	 
H 	 -56.1221 	 -49.3708 	 -77.9733 	 
H 	 -55.8175 	 -47.6382 	 -78.0963 	 
C 	 -57.4561 	 -48.0726 	 -76.8036 	 
H 	 -57.3874 	 -47.1942 	 -76.1421 	 
H 	 -57.6998 	 -48.9336 	 -76.1173 	 
C 	 -58.4973 	 -47.8662 	 -77.9053 	 
H 	 -59.1748 	 -47.1473 	 -77.572 	 
H 	 -58.889 	 -48.731 	 -78.2774 	 
H 	 -58.1084 	 -47.3126 	 -78.7762 	 
H 	 -51.1282 	 -52.0222 	 -80.0348 	 
H 	 -53.6442 	 -48.4365 	 -73.2847 	 
*
