! wB97X-D3 SP def2-SVP
%pal
nprocs 24
end

* xyz 0 1
S 	 -67.0099 	 15.5333 	 -71.2264 	 
C 	 -66.2156 	 14.0992 	 -70.7215 	 
C 	 -66.2653 	 13.9187 	 -69.3534 	 
C 	 -66.9535 	 15.0132 	 -68.6526 	 
C 	 -67.305 	 16.0362 	 -69.4862 	 
H 	 -66.9611 	 15.1878 	 -67.6022 	 
C 	 -65.6244 	 12.7257 	 -68.6498 	 
H 	 -65.8368 	 11.9007 	 -69.3159 	 
H 	 -66.2159 	 12.534 	 -67.7097 	 
C 	 -64.1762 	 12.8579 	 -68.1991 	 
H 	 -63.8024 	 11.8635 	 -67.9862 	 
H 	 -63.7101 	 13.2806 	 -69.1001 	 
C 	 -63.9258 	 13.8892 	 -67.0323 	 
H 	 -64.5161 	 13.6346 	 -66.176 	 
H 	 -62.8896 	 13.7019 	 -66.663 	 
H 	 -64.0965 	 14.9186 	 -67.34 	 
S 	 -67.5743 	 18.8308 	 -69.7721 	 
C 	 -68.8264 	 19.6256 	 -68.7633 	 
C 	 -69.5793 	 18.691 	 -68.097 	 
C 	 -69.0773 	 17.3632 	 -68.2495 	 
C 	 -68.0306 	 17.2639 	 -69.0981 	 
H 	 -70.4134 	 19.0499 	 -67.5265 	 
C 	 -69.7319 	 16.1989 	 -67.6036 	 
H 	 -70.5006 	 16.5465 	 -66.936 	 
H 	 -69.0748 	 15.5776 	 -66.9374 	 
C 	 -70.3991 	 15.2671 	 -68.6486 	 
H 	 -70.8958 	 14.4732 	 -68.0904 	 
H 	 -69.6401 	 14.6584 	 -69.2988 	 
C 	 -71.5257 	 15.7746 	 -69.4835 	 
H 	 -72.0313 	 16.5434 	 -68.8723 	 
H 	 -72.19 	 14.8842 	 -69.7766 	 
H 	 -71.2061 	 16.2811 	 -70.4007 	 
H 	 -65.9263 	 13.4557 	 -71.5192 	 
H 	 -69.0372 	 20.6693 	 -68.6221 	 
*
