! wB97X-D3 SP def2-SVP
%pal
nprocs 24
end

* xyz 0 1
S 	 -91.5389 	 -3.57683 	 -120.06 	 
C 	 -90.5868 	 -3.25155 	 -121.47 	 
C 	 -90.8188 	 -4.25387 	 -122.384 	 
C 	 -91.5562 	 -5.39452 	 -121.886 	 
C 	 -91.9825 	 -5.18337 	 -120.628 	 
H 	 -91.7901 	 -6.27137 	 -122.393 	 
C 	 -90.1697 	 -4.39598 	 -123.805 	 
H 	 -90.1979 	 -3.38936 	 -124.246 	 
H 	 -90.8778 	 -5.02075 	 -124.339 	 
C 	 -88.7799 	 -5.02732 	 -123.855 	 
H 	 -88.1125 	 -4.36702 	 -123.257 	 
H 	 -88.8793 	 -6.05834 	 -123.446 	 
C 	 -88.1376 	 -4.9895 	 -125.239 	 
H 	 -88.5276 	 -5.67891 	 -125.956 	 
H 	 -88.1794 	 -3.97734 	 -125.673 	 
H 	 -87.1227 	 -5.28007 	 -125.113 	 
S 	 -94.1981 	 -5.86002 	 -119.138 	 
C 	 -94.2282 	 -7.39603 	 -118.353 	 
C 	 -93.1179 	 -8.14636 	 -118.57 	 
C 	 -92.1246 	 -7.45449 	 -119.377 	 
C 	 -92.5558 	 -6.18204 	 -119.744 	 
H 	 -93.1096 	 -9.21882 	 -118.233 	 
C 	 -90.8133 	 -8.06656 	 -119.747 	 
H 	 -90.4953 	 -7.71954 	 -120.734 	 
H 	 -90.9504 	 -9.17263 	 -119.855 	 
C 	 -89.7862 	 -7.80403 	 -118.672 	 
H 	 -90.0783 	 -8.22201 	 -117.666 	 
H 	 -89.4931 	 -6.71879 	 -118.431 	 
C 	 -88.3817 	 -8.32379 	 -118.925 	 
H 	 -87.6588 	 -8.11957 	 -118.108 	 
H 	 -88.0668 	 -7.91715 	 -119.837 	 
H 	 -88.3516 	 -9.345 	 -118.927 	 
H 	 -90.0691 	 -2.3565 	 -121.64 	 
H 	 -95.1307 	 -7.69773 	 -117.907 	 
*
