! wB97X-D3 SP def2-SVP
%pal
nprocs 24
end

* xyz 0 1
S 	 -116.613 	 28.6752 	 -21.085 	 
C 	 -116.686 	 28.0515 	 -22.7252 	 
C 	 -116.735 	 29.1297 	 -23.5803 	 
C 	 -116.819 	 30.4021 	 -22.9736 	 
C 	 -116.827 	 30.3268 	 -21.5926 	 
H 	 -116.94 	 31.3295 	 -23.437 	 
C 	 -116.732 	 29.0312 	 -25.1264 	 
H 	 -116.817 	 27.9674 	 -25.4637 	 
H 	 -115.776 	 29.3429 	 -25.4454 	 
C 	 -117.81 	 29.8663 	 -25.7904 	 
H 	 -117.623 	 30.871 	 -25.4773 	 
H 	 -117.615 	 29.9108 	 -26.8437 	 
C 	 -119.331 	 29.3216 	 -25.7184 	 
H 	 -119.557 	 29.071 	 -24.7155 	 
H 	 -120.019 	 30.0961 	 -26.2512 	 
H 	 -119.535 	 28.4118 	 -26.2913 	 
S 	 -118.96 	 31.0044 	 -19.9244 	 
C 	 -119.111 	 32.7106 	 -19.408 	 
C 	 -117.919 	 33.397 	 -19.7346 	 
C 	 -116.993 	 32.6128 	 -20.5141 	 
C 	 -117.421 	 31.3453 	 -20.7265 	 
H 	 -117.771 	 34.4467 	 -19.4982 	 
C 	 -115.693 	 33.0903 	 -21.1151 	 
H 	 -115.696 	 34.1343 	 -21.3429 	 
H 	 -115.448 	 32.761 	 -22.1326 	 
C 	 -114.483 	 32.845 	 -20.1749 	 
H 	 -113.513 	 32.8984 	 -20.6225 	 
H 	 -114.382 	 31.8001 	 -19.8688 	 
C 	 -114.427 	 33.7696 	 -18.9058 	 
H 	 -113.426 	 33.8023 	 -18.5654 	 
H 	 -114.971 	 33.3924 	 -17.9401 	 
H 	 -114.807 	 34.7243 	 -19.1252 	 
H 	 -116.534 	 27.0471 	 -23.0758 	 
H 	 -119.816 	 33.0993 	 -18.5916 	 
*
