! wB97X-D3 SP def2-SVP
%pal
nprocs 24
end

* xyz 0 1
S 	 -88.3673 	 -30.3473 	 -56.7431 	 
C 	 -86.7129 	 -30.6609 	 -57.0117 	 
C 	 -85.9404 	 -29.9635 	 -56.0251 	 
C 	 -86.803 	 -29.2306 	 -55.1007 	 
C 	 -88.1409 	 -29.3127 	 -55.424 	 
H 	 -86.5069 	 -28.6133 	 -54.3121 	 
C 	 -84.4724 	 -30.1091 	 -55.832 	 
H 	 -84.1754 	 -29.0767 	 -55.8829 	 
H 	 -83.9409 	 -30.5756 	 -56.6398 	 
C 	 -83.9422 	 -30.6656 	 -54.5203 	 
H 	 -82.8239 	 -30.7276 	 -54.5633 	 
H 	 -84.3036 	 -29.9678 	 -53.7427 	 
C 	 -84.494 	 -32.0289 	 -54.0817 	 
H 	 -83.8309 	 -32.3688 	 -53.2851 	 
H 	 -85.4601 	 -31.9393 	 -53.604 	 
H 	 -84.5544 	 -32.7831 	 -54.793 	 
S 	 -90.6207 	 -28.1688 	 -55.7934 	 
C 	 -91.4128 	 -27.3004 	 -54.4556 	 
C 	 -90.7032 	 -27.4324 	 -53.271 	 
C 	 -89.4502 	 -28.0982 	 -53.4034 	 
C 	 -89.2258 	 -28.5833 	 -54.7409 	 
H 	 -91.1574 	 -27.0079 	 -52.3484 	 
C 	 -88.4795 	 -28.1125 	 -52.1707 	 
H 	 -88.3968 	 -27.1463 	 -51.7621 	 
H 	 -87.4622 	 -28.3475 	 -52.509 	 
C 	 -89.0501 	 -28.95 	 -50.9864 	 
H 	 -89.2217 	 -30.012 	 -51.2585 	 
H 	 -89.9626 	 -28.4824 	 -50.6197 	 
C 	 -88.195 	 -29.0333 	 -49.7586 	 
H 	 -87.4209 	 -29.7762 	 -49.8957 	 
H 	 -88.8426 	 -29.4717 	 -49.0263 	 
H 	 -87.8208 	 -28.044 	 -49.4216 	 
H 	 -86.3175 	 -31.4753 	 -57.6051 	 
H 	 -92.3906 	 -26.8316 	 -54.4154 	 
*
