! wB97X-D3 SP def2-SVP
%pal
nprocs 24
end

* xyz 0 1
S 	 -94.6944 	 43.6198 	 -91.2811 	 
C 	 -94.2582 	 41.9451 	 -91.3484 	 
C 	 -95.3925 	 41.1286 	 -91.3422 	 
C 	 -96.5701 	 41.853 	 -91.189 	 
C 	 -96.3198 	 43.1687 	 -90.9786 	 
H 	 -97.5309 	 41.3994 	 -90.9999 	 
C 	 -95.3285 	 39.5724 	 -91.41 	 
H 	 -94.7713 	 39.3537 	 -92.365 	 
H 	 -96.3311 	 39.2478 	 -91.4976 	 
C 	 -94.8089 	 38.7112 	 -90.1954 	 
H 	 -93.7951 	 38.461 	 -90.5335 	 
H 	 -94.6607 	 39.3383 	 -89.3131 	 
C 	 -95.527 	 37.4134 	 -89.8701 	 
H 	 -96.544 	 37.6866 	 -89.5955 	 
H 	 -95.4532 	 36.7064 	 -90.7697 	 
H 	 -95.0129 	 36.9224 	 -89.0097 	 
S 	 -97.3023 	 44.6008 	 -88.8083 	 
C 	 -98.6467 	 45.7347 	 -89.0949 	 
C 	 -98.8669 	 45.9339 	 -90.4432 	 
C 	 -98.0085 	 45.0597 	 -91.2518 	 
C 	 -97.2642 	 44.1874 	 -90.5166 	 
H 	 -99.6246 	 46.6491 	 -90.8306 	 
C 	 -97.9441 	 45.1699 	 -92.7775 	 
H 	 -98.9678 	 45.2387 	 -93.0662 	 
H 	 -97.6277 	 44.1839 	 -93.0767 	 
C 	 -97.1445 	 46.3013 	 -93.4404 	 
H 	 -96.2711 	 45.8112 	 -93.9587 	 
H 	 -96.7538 	 46.8879 	 -92.6321 	 
C 	 -97.9302 	 47.1713 	 -94.4092 	 
H 	 -97.3479 	 48.0702 	 -94.6832 	 
H 	 -98.8672 	 47.6019 	 -93.9178 	 
H 	 -98.181 	 46.7134 	 -95.3761 	 
H 	 -93.2943 	 41.5381 	 -91.5776 	 
H 	 -99.1119 	 46.3939 	 -88.3476 	 
*
