! wB97X-D3 SP def2-SVP
%pal
nprocs 24
end

* xyz 0 1
S 	 -134.825 	 72.9772 	 -67.4261 	 
C 	 -133.288 	 73.8042 	 -67.3049 	 
C 	 -132.712 	 73.6238 	 -66.0178 	 
C 	 -133.525 	 72.8746 	 -65.2019 	 
C 	 -134.659 	 72.3672 	 -65.8118 	 
H 	 -133.463 	 72.5975 	 -64.196 	 
C 	 -131.384 	 74.2196 	 -65.4697 	 
H 	 -130.587 	 74.4422 	 -66.2248 	 
H 	 -130.851 	 73.3835 	 -64.991 	 
C 	 -131.55 	 75.3889 	 -64.4952 	 
H 	 -132.279 	 75.2287 	 -63.6864 	 
H 	 -130.639 	 75.5496 	 -64.0092 	 
C 	 -131.821 	 76.6662 	 -65.2196 	 
H 	 -132.769 	 76.6316 	 -65.765 	 
H 	 -131.995 	 77.5605 	 -64.577 	 
H 	 -131.105 	 76.9722 	 -66.0274 	 
S 	 -135.631 	 69.8437 	 -65.3878 	 
C 	 -137.185 	 69.7075 	 -64.6248 	 
C 	 -137.672 	 70.9017 	 -64.1039 	 
C 	 -136.884 	 72.0322 	 -64.5256 	 
C 	 -135.733 	 71.5651 	 -65.2019 	 
H 	 -138.53 	 71.0094 	 -63.4948 	 
C 	 -137.266 	 73.3701 	 -64.0056 	 
H 	 -136.322 	 73.8837 	 -63.5807 	 
H 	 -137.778 	 73.255 	 -63.0864 	 
C 	 -137.951 	 74.3329 	 -64.9883 	 
H 	 -138.845 	 73.9273 	 -65.2702 	 
H 	 -137.44 	 74.5388 	 -65.9195 	 
C 	 -138.22 	 75.7646 	 -64.4272 	 
H 	 -138.636 	 75.8228 	 -63.4014 	 
H 	 -138.839 	 76.3007 	 -65.1786 	 
H 	 -137.348 	 76.3015 	 -64.4189 	 
H 	 -132.92 	 74.63 	 -67.8599 	 
H 	 -137.7 	 68.772 	 -64.3654 	 
*
