! wB97X-D3 SP def2-SVP
%pal
nprocs 24
end

* xyz 0 1
S 	 -124.252 	 65.831 	 -40.8044 	 
C 	 -124.904 	 67.3614 	 -41.3225 	 
C 	 -123.98 	 68.1818 	 -41.9396 	 
C 	 -122.879 	 67.3589 	 -42.3801 	 
C 	 -122.884 	 66.0313 	 -41.8408 	 
H 	 -122.032 	 67.7014 	 -42.9259 	 
C 	 -124.194 	 69.6401 	 -42.2957 	 
H 	 -124.042 	 70.1289 	 -41.295 	 
H 	 -125.169 	 69.7329 	 -42.6846 	 
C 	 -123.257 	 70.2621 	 -43.3873 	 
H 	 -122.26 	 70.245 	 -42.8389 	 
H 	 -123.176 	 69.6016 	 -44.2299 	 
C 	 -123.557 	 71.7083 	 -43.8804 	 
H 	 -122.709 	 72.0962 	 -44.403 	 
H 	 -124.398 	 71.8001 	 -44.601 	 
H 	 -123.84 	 72.3927 	 -43.0546 	 
S 	 -121.09 	 64.1715 	 -40.7848 	 
C 	 -120.056 	 63.3012 	 -41.8429 	 
C 	 -120.291 	 63.641 	 -43.1543 	 
C 	 -121.172 	 64.7525 	 -43.3113 	 
C 	 -121.862 	 65.0069 	 -42.0998 	 
H 	 -119.726 	 63.1346 	 -43.9678 	 
C 	 -121.491 	 65.2456 	 -44.7294 	 
H 	 -122.276 	 66.01 	 -44.8047 	 
H 	 -121.865 	 64.4161 	 -45.4263 	 
C 	 -120.305 	 65.8301 	 -45.4467 	 
H 	 -120.641 	 66.0848 	 -46.489 	 
H 	 -119.55 	 65.1308 	 -45.7819 	 
C 	 -119.54 	 66.9717 	 -44.707 	 
H 	 -119.17 	 66.6278 	 -43.7639 	 
H 	 -120.172 	 67.8765 	 -44.4504 	 
H 	 -118.595 	 67.2673 	 -45.2081 	 
H 	 -125.874 	 67.7485 	 -41.0021 	 
H 	 -119.47 	 62.4475 	 -41.4078 	 
*
