! wB97X-D3 SP def2-SVP
%pal
nprocs 24
end

* xyz 0 1
S 	 -101.912 	 0.698621 	 -106.478 	 
C 	 -101.848 	 -0.128572 	 -108.02 	 
C 	 -102.732 	 -1.15943 	 -108.033 	 
C 	 -103.571 	 -1.24726 	 -106.887 	 
C 	 -103.191 	 -0.302866 	 -105.958 	 
H 	 -104.409 	 -1.91138 	 -106.715 	 
C 	 -102.914 	 -2.15492 	 -109.247 	 
H 	 -102.114 	 -2.06078 	 -109.997 	 
H 	 -103.891 	 -1.92942 	 -109.789 	 
C 	 -102.747 	 -3.64062 	 -108.846 	 
H 	 -101.859 	 -3.64338 	 -108.226 	 
H 	 -103.477 	 -3.94434 	 -108.079 	 
C 	 -102.628 	 -4.60591 	 -110.055 	 
H 	 -103.509 	 -4.50303 	 -110.7 	 
H 	 -101.699 	 -4.4029 	 -110.687 	 
H 	 -102.675 	 -5.64746 	 -109.663 	 
S 	 -102.553 	 -0.0682476 	 -103.323 	 
C 	 -103.801 	 -0.368432 	 -102.089 	 
C 	 -105.034 	 -0.560636 	 -102.634 	 
C 	 -104.99 	 -0.502642 	 -104.093 	 
C 	 -103.742 	 -0.147453 	 -104.644 	 
H 	 -105.865 	 -0.772426 	 -101.989 	 
C 	 -106.245 	 -0.780717 	 -104.897 	 
H 	 -106.045 	 -0.549191 	 -105.975 	 
H 	 -106.979 	 -0.089276 	 -104.481 	 
C 	 -106.7 	 -2.22172 	 -104.79 	 
H 	 -106.955 	 -2.59791 	 -103.73 	 
H 	 -105.934 	 -2.90103 	 -105.23 	 
C 	 -107.961 	 -2.35824 	 -105.62 	 
H 	 -108.744 	 -1.79743 	 -105.315 	 
H 	 -108.33 	 -3.41596 	 -105.686 	 
H 	 -107.964 	 -1.97677 	 -106.686 	 
H 	 -101.21 	 0.124498 	 -108.838 	 
H 	 -103.641 	 -0.109858 	 -101.072 	 
*
