! wB97X-D3 SP def2-SVP
%pal
nprocs 24
end

* xyz 0 1
S 	 -100.798 	 -1.62914 	 -110.377 	 
C 	 -102.174 	 -1.64278 	 -111.47 	 
C 	 -103.326 	 -2.0095 	 -110.761 	 
C 	 -103.132 	 -2.18624 	 -109.357 	 
C 	 -101.773 	 -2.16117 	 -109.027 	 
H 	 -103.83 	 -2.46136 	 -108.599 	 
C 	 -104.679 	 -2.12086 	 -111.393 	 
H 	 -105.033 	 -1.15745 	 -111.797 	 
H 	 -105.341 	 -2.30422 	 -110.617 	 
C 	 -104.803 	 -3.32776 	 -112.435 	 
H 	 -104.097 	 -3.1164 	 -113.268 	 
H 	 -104.429 	 -4.20407 	 -111.962 	 
C 	 -106.196 	 -3.74815 	 -112.924 	 
H 	 -106.06 	 -4.65054 	 -113.648 	 
H 	 -106.911 	 -3.72425 	 -112.116 	 
H 	 -106.502 	 -2.82546 	 -113.432 	 
S 	 -100.42 	 -4.12334 	 -107.511 	 
C 	 -100.103 	 -3.80598 	 -105.8 	 
C 	 -100.543 	 -2.54805 	 -105.459 	 
C 	 -100.983 	 -1.75081 	 -106.577 	 
C 	 -101.19 	 -2.51999 	 -107.73 	 
H 	 -100.389 	 -2.19769 	 -104.464 	 
C 	 -101.321 	 -0.289687 	 -106.425 	 
H 	 -101.997 	 -0.126675 	 -105.555 	 
H 	 -101.942 	 -0.0452136 	 -107.316 	 
C 	 -100.11 	 0.684943 	 -106.35 	 
H 	 -99.573 	 0.400136 	 -105.405 	 
H 	 -100.541 	 1.6903 	 -106.18 	 
C 	 -99.0898 	 0.702781 	 -107.533 	 
H 	 -99.4048 	 1.40877 	 -108.303 	 
H 	 -98.9791 	 -0.319678 	 -107.977 	 
H 	 -98.1087 	 0.946214 	 -107.318 	 
H 	 -102.104 	 -1.44465 	 -112.513 	 
H 	 -99.5514 	 -4.51441 	 -105.193 	 
*
