! wB97X-D3 SP def2-SVP
%pal
nprocs 24
end

* xyz 0 1
S 	 -137.42 	 15.0384 	 -3.55433 	 
C 	 -136.04 	 16.1209 	 -3.65184 	 
C 	 -135.035 	 15.8616 	 -2.71604 	 
C 	 -135.428 	 14.7796 	 -1.86405 	 
C 	 -136.609 	 14.1473 	 -2.31488 	 
H 	 -134.901 	 14.2492 	 -1.04296 	 
C 	 -133.779 	 16.6757 	 -2.49776 	 
H 	 -134.075 	 17.6221 	 -1.89095 	 
H 	 -133.502 	 17.0187 	 -3.49437 	 
C 	 -132.522 	 16.0488 	 -1.90958 	 
H 	 -131.925 	 16.9225 	 -1.587 	 
H 	 -132.748 	 15.5584 	 -1.01023 	 
C 	 -131.812 	 14.9716 	 -2.71803 	 
H 	 -132.156 	 15.0531 	 -3.8006 	 
H 	 -130.74 	 15.161 	 -2.66951 	 
H 	 -132.194 	 13.9633 	 -2.40147 	 
S 	 -138.913 	 12.7099 	 -1.76309 	 
C 	 -138.789 	 11.3325 	 -0.661231 	 
C 	 -137.46 	 11.0644 	 -0.330197 	 
C 	 -136.517 	 11.9188 	 -0.973558 	 
C 	 -137.124 	 12.8719 	 -1.83751 	 
H 	 -137.269 	 10.3496 	 0.423774 	 
C 	 -135.055 	 11.6441 	 -0.754317 	 
H 	 -134.911 	 10.8297 	 -0.07511 	 
H 	 -134.625 	 12.5304 	 -0.1418 	 
C 	 -134.294 	 11.2788 	 -2.03158 	 
H 	 -134.329 	 12.1421 	 -2.67095 	 
H 	 -134.88 	 10.6095 	 -2.67917 	 
C 	 -132.868 	 10.6872 	 -1.82279 	 
H 	 -132.826 	 9.63555 	 -1.41148 	 
H 	 -132.268 	 11.4408 	 -1.357 	 
H 	 -132.442 	 10.5763 	 -2.82059 	 
H 	 -135.982 	 16.8697 	 -4.41422 	 
H 	 -139.658 	 10.9043 	 -0.209676 	 
*
