! wB97X-D3 SP def2-SVP
%pal
nprocs 24
end

* xyz 0 1
S 	 -105.537 	 49.8033 	 -9.76382 	 
C 	 -106.737 	 50.9331 	 -9.59704 	 
C 	 -106.456 	 52.0973 	 -10.2728 	 
C 	 -105.264 	 51.998 	 -11.0504 	 
C 	 -104.649 	 50.747 	 -10.9116 	 
H 	 -104.781 	 52.817 	 -11.6242 	 
C 	 -107.208 	 53.3958 	 -10.1975 	 
H 	 -106.559 	 54.2775 	 -10.2603 	 
H 	 -107.583 	 53.5031 	 -9.22691 	 
C 	 -108.333 	 53.6613 	 -11.2559 	 
H 	 -108.618 	 54.7115 	 -11.0697 	 
H 	 -108 	 53.6224 	 -12.3035 	 
C 	 -109.563 	 52.7408 	 -11.2051 	 
H 	 -110.281 	 52.917 	 -12.0662 	 
H 	 -109.37 	 51.6883 	 -11.3155 	 
H 	 -110.104 	 52.8114 	 -10.2857 	 
S 	 -101.923 	 50.371 	 -10.8806 	 
C 	 -101.169 	 49.454 	 -12.1339 	 
C 	 -102.087 	 48.9398 	 -13.0145 	 
C 	 -103.42 	 49.4208 	 -12.7724 	 
C 	 -103.503 	 50.2518 	 -11.6252 	 
H 	 -101.678 	 48.3241 	 -13.7003 	 
C 	 -104.587 	 49.1175 	 -13.686 	 
H 	 -104.382 	 49.5319 	 -14.6542 	 
H 	 -105.454 	 49.633 	 -13.2545 	 
C 	 -105.08 	 47.6344 	 -13.7363 	 
H 	 -104.222 	 46.8776 	 -13.5946 	 
H 	 -105.582 	 47.3355 	 -14.6789 	 
C 	 -106.048 	 47.2898 	 -12.5725 	 
H 	 -106.207 	 46.2308 	 -12.5369 	 
H 	 -107.036 	 47.6574 	 -12.6198 	 
H 	 -105.658 	 47.5455 	 -11.5512 	 
H 	 -107.535 	 50.8037 	 -8.92786 	 
H 	 -100.134 	 49.1719 	 -12.1371 	 
*
