! wB97X-D3 SP def2-SVP
%pal
nprocs 24
end

* xyz 0 1
S 	 -59.1755 	 15.1923 	 -90.9992 	 
C 	 -57.9884 	 16.5286 	 -90.9797 	 
C 	 -56.7044 	 16.0436 	 -91.1875 	 
C 	 -56.6484 	 14.6337 	 -91.2869 	 
C 	 -57.8803 	 14.004 	 -91.1622 	 
H 	 -55.7202 	 14.1584 	 -91.5919 	 
C 	 -55.536 	 16.8782 	 -91.6532 	 
H 	 -54.6219 	 16.2529 	 -91.6113 	 
H 	 -55.2722 	 17.6115 	 -90.8344 	 
C 	 -55.7954 	 17.6342 	 -92.9428 	 
H 	 -56.667 	 18.3387 	 -92.7759 	 
H 	 -54.9489 	 18.2413 	 -93.2517 	 
C 	 -55.9203 	 16.6028 	 -94.0954 	 
H 	 -56.7879 	 15.8741 	 -94.0942 	 
H 	 -56.1861 	 17.1157 	 -95.0703 	 
H 	 -54.9249 	 16.1934 	 -94.2313 	 
S 	 -59.6804 	 12.1573 	 -92.1128 	 
C 	 -59.3628 	 10.4749 	 -91.9135 	 
C 	 -58.0871 	 10.2697 	 -91.3545 	 
C 	 -57.3588 	 11.4701 	 -91.1091 	 
C 	 -58.1176 	 12.5962 	 -91.3958 	 
H 	 -57.8188 	 9.22108 	 -91.2772 	 
C 	 -56.0285 	 11.3417 	 -90.3938 	 
H 	 -56.1463 	 10.3986 	 -89.8307 	 
H 	 -55.8699 	 12.1874 	 -89.8595 	 
C 	 -54.816 	 10.9657 	 -91.1898 	 
H 	 -54.726 	 11.4887 	 -92.1226 	 
H 	 -54.7701 	 9.87328 	 -91.4599 	 
C 	 -53.5348 	 11.276 	 -90.3896 	 
H 	 -53.3724 	 12.36 	 -90.4242 	 
H 	 -52.7159 	 10.6744 	 -90.7204 	 
H 	 -53.6689 	 11.0773 	 -89.3444 	 
H 	 -58.3723 	 17.479 	 -91.0196 	 
H 	 -59.9941 	 9.63708 	 -92.1493 	 
*
