! wB97X-D3 SP def2-SVP
%pal
nprocs 24
end

* xyz 0 1
S 	 -108.225 	 35.0854 	 -17.5159 	 
C 	 -107.021 	 35.2012 	 -16.2474 	 
C 	 -105.808 	 35.5343 	 -16.7145 	 
C 	 -105.781 	 35.5637 	 -18.2019 	 
C 	 -107.009 	 35.3032 	 -18.7613 	 
H 	 -104.983 	 35.9635 	 -18.8483 	 
C 	 -104.569 	 35.7991 	 -15.8449 	 
H 	 -104.853 	 36.1602 	 -14.8773 	 
H 	 -104.236 	 36.6968 	 -16.3838 	 
C 	 -103.455 	 34.8019 	 -15.8722 	 
H 	 -103.79 	 33.8109 	 -15.5155 	 
H 	 -103.224 	 34.6045 	 -16.8814 	 
C 	 -102.135 	 35.182 	 -15.1114 	 
H 	 -102.208 	 35.1028 	 -14.023 	 
H 	 -101.346 	 34.5673 	 -15.5832 	 
H 	 -101.812 	 36.1982 	 -15.3774 	 
S 	 -108.366 	 36.734 	 -20.6502 	 
C 	 -108.001 	 36.4633 	 -22.3721 	 
C 	 -107.292 	 35.2592 	 -22.5319 	 
C 	 -106.851 	 34.7073 	 -21.2815 	 
C 	 -107.312 	 35.4031 	 -20.1739 	 
H 	 -107.021 	 34.9678 	 -23.5164 	 
C 	 -105.938 	 33.4505 	 -21.3065 	 
H 	 -105.272 	 33.5457 	 -20.4254 	 
H 	 -105.4 	 33.4247 	 -22.254 	 
C 	 -106.645 	 32.0585 	 -21.1896 	 
H 	 -107.181 	 31.9878 	 -20.266 	 
H 	 -105.847 	 31.3328 	 -21.1824 	 
C 	 -107.597 	 31.7159 	 -22.2588 	 
H 	 -108.213 	 30.8256 	 -22.1766 	 
H 	 -107.163 	 31.69 	 -23.2842 	 
H 	 -108.294 	 32.5964 	 -22.4104 	 
H 	 -107.267 	 35.2728 	 -15.1642 	 
H 	 -108.385 	 36.897 	 -23.2612 	 
*
