! wB97X-D3 SP def2-SVP
%pal
nprocs 24
end

* xyz 0 1
S 	 -63.3579 	 14.307 	 -89.706 	 
C 	 -63.672 	 16.0471 	 -89.7366 	 
C 	 -62.7433 	 16.7314 	 -89.021 	 
C 	 -61.7745 	 15.8931 	 -88.4212 	 
C 	 -61.9176 	 14.5373 	 -88.7191 	 
H 	 -60.9989 	 16.1684 	 -87.7462 	 
C 	 -62.6409 	 18.2291 	 -88.7777 	 
H 	 -61.8537 	 18.6457 	 -89.4336 	 
H 	 -62.2997 	 18.3237 	 -87.7632 	 
C 	 -63.8623 	 19.1627 	 -88.8136 	 
H 	 -64.7011 	 18.8244 	 -88.2268 	 
H 	 -63.4333 	 20.1483 	 -88.5405 	 
C 	 -64.4721 	 19.4152 	 -90.1741 	 
H 	 -64.7135 	 18.6008 	 -90.7382 	 
H 	 -65.3233 	 20.1334 	 -90.2209 	 
H 	 -63.6754 	 19.9459 	 -90.7257 	 
S 	 -61.8459 	 11.9599 	 -87.5938 	 
C 	 -60.3274 	 11.1547 	 -87.5387 	 
C 	 -59.32 	 11.9847 	 -87.9342 	 
C 	 -59.7006 	 13.3341 	 -88.2385 	 
C 	 -61.0704 	 13.4715 	 -88.2322 	 
H 	 -58.3023 	 11.6042 	 -87.9789 	 
C 	 -58.6666 	 14.3091 	 -88.7493 	 
H 	 -59.1599 	 15.2572 	 -89.0124 	 
H 	 -58.2267 	 13.9484 	 -89.7233 	 
C 	 -57.586 	 14.7033 	 -87.766 	 
H 	 -57.0366 	 13.8806 	 -87.373 	 
H 	 -57.9915 	 15.2295 	 -86.8614 	 
C 	 -56.5792 	 15.6905 	 -88.3321 	 
H 	 -57.138 	 16.6076 	 -88.5751 	 
H 	 -56.1756 	 15.3342 	 -89.2294 	 
H 	 -55.7413 	 16.0475 	 -87.6505 	 
H 	 -64.4051 	 16.6089 	 -90.3422 	 
H 	 -60.1108 	 10.0789 	 -87.4144 	 
*
