! wB97X-D3 SP def2-SVP
%pal
nprocs 24
end

* xyz 0 1
S 	 -46.0678 	 11.6736 	 27.4673 	 
C 	 -45.1702 	 13.0875 	 27.9358 	 
C 	 -45.2018 	 14.1191 	 27.0428 	 
C 	 -46.0786 	 13.7029 	 25.9225 	 
C 	 -46.4521 	 12.3519 	 25.8948 	 
H 	 -46.3017 	 14.3227 	 25.1063 	 
C 	 -44.6824 	 15.5843 	 27.141 	 
H 	 -44.6557 	 15.9805 	 26.1645 	 
H 	 -43.7126 	 15.5561 	 27.5351 	 
C 	 -45.5934 	 16.5133 	 27.9102 	 
H 	 -45.2464 	 16.4281 	 28.9531 	 
H 	 -45.5949 	 17.5498 	 27.6416 	 
C 	 -47.1443 	 16.1861 	 28.0236 	 
H 	 -47.3475 	 15.3251 	 28.5956 	 
H 	 -47.6347 	 17.0583 	 28.4825 	 
H 	 -47.5719 	 16.0526 	 27.0472 	 
S 	 -48.0136 	 10.0819 	 25.5229 	 
C 	 -49.0696 	 10.0018 	 24.0976 	 
C 	 -48.7005 	 10.9645 	 23.2091 	 
C 	 -47.71 	 11.8727 	 23.6853 	 
C 	 -47.3556 	 11.659 	 25.0174 	 
H 	 -49.1251 	 10.9976 	 22.193 	 
C 	 -47.2449 	 12.9308 	 22.7312 	 
H 	 -47.1778 	 12.556 	 21.7213 	 
H 	 -46.2477 	 13.15 	 22.9842 	 
C 	 -47.97 	 14.3185 	 22.7631 	 
H 	 -48.0292 	 14.6754 	 23.82 	 
H 	 -48.9982 	 14.2274 	 22.4163 	 
C 	 -47.3908 	 15.3615 	 21.8796 	 
H 	 -47.877 	 16.338 	 22.0912 	 
H 	 -47.2793 	 15.1606 	 20.8072 	 
H 	 -46.3735 	 15.521 	 22.1983 	 
H 	 -44.5688 	 13.2008 	 28.812 	 
H 	 -49.8114 	 9.30394 	 23.8183 	 
*
