! wB97X-D3 SP def2-SVP
%pal
nprocs 24
end

* xyz 0 1
S 	 -105.869 	 1.7307 	 -112.5 	 
C 	 -107.01 	 3.0405 	 -112.032 	 
C 	 -108.332 	 2.49572 	 -112.082 	 
C 	 -108.35 	 1.08987 	 -112.405 	 
C 	 -107.113 	 0.526045 	 -112.625 	 
H 	 -109.26 	 0.456258 	 -112.477 	 
C 	 -109.599 	 3.24198 	 -111.725 	 
H 	 -109.143 	 4.21363 	 -111.386 	 
H 	 -110.073 	 2.68686 	 -110.926 	 
C 	 -110.644 	 3.31262 	 -112.849 	 
H 	 -110.144 	 3.5721 	 -113.745 	 
H 	 -111.16 	 2.32992 	 -112.885 	 
C 	 -111.891 	 4.23416 	 -112.528 	 
H 	 -112.382 	 3.95076 	 -111.594 	 
H 	 -111.628 	 5.25812 	 -112.504 	 
H 	 -112.672 	 4.12628 	 -113.306 	 
S 	 -105.678 	 -1.1926 	 -114.246 	 
C 	 -105.988 	 -2.93321 	 -114.02 	 
C 	 -106.914 	 -3.20877 	 -112.996 	 
C 	 -107.392 	 -2.02799 	 -112.375 	 
C 	 -106.806 	 -0.856308 	 -112.938 	 
H 	 -107.163 	 -4.20024 	 -112.829 	 
C 	 -108.608 	 -2.11569 	 -111.411 	 
H 	 -109.392 	 -2.33709 	 -112.07 	 
H 	 -108.707 	 -1.19099 	 -110.994 	 
C 	 -108.544 	 -3.04161 	 -110.21 	 
H 	 -108.541 	 -4.04389 	 -110.498 	 
H 	 -109.544 	 -2.96703 	 -109.687 	 
C 	 -107.311 	 -2.88434 	 -109.328 	 
H 	 -106.512 	 -3.31181 	 -109.907 	 
H 	 -107.326 	 -3.44192 	 -108.408 	 
H 	 -107.014 	 -1.90682 	 -109.05 	 
H 	 -106.814 	 4.06267 	 -111.912 	 
H 	 -105.654 	 -3.70034 	 -114.678 	 
*
