! wB97X-D3 SP def2-SVP
%pal
nprocs 24
end

* xyz 0 1
S 	 -27.9989 	 -34.7269 	 -91.0987 	 
C 	 -28.8738 	 -35.7502 	 -92.2334 	 
C 	 -28.1368 	 -36.8181 	 -92.6281 	 
C 	 -26.7739 	 -36.7589 	 -92.1363 	 
C 	 -26.471 	 -35.6555 	 -91.3439 	 
H 	 -25.948 	 -37.4376 	 -92.4091 	 
C 	 -28.6116 	 -37.9158 	 -93.5083 	 
H 	 -27.8308 	 -38.2163 	 -94.1196 	 
H 	 -29.3832 	 -37.442 	 -94.1842 	 
C 	 -29.1702 	 -39.1708 	 -92.8703 	 
H 	 -28.3191 	 -39.7976 	 -92.5435 	 
H 	 -29.8318 	 -39.0183 	 -92.0842 	 
C 	 -29.762 	 -40.153 	 -93.864 	 
H 	 -29.0475 	 -40.3426 	 -94.6993 	 
H 	 -30.0824 	 -41.0703 	 -93.3956 	 
H 	 -30.6677 	 -39.685 	 -94.2982 	 
S 	 -23.9005 	 -36.2985 	 -90.8662 	 
C 	 -22.7893 	 -35.219 	 -90.021 	 
C 	 -23.4509 	 -34.0916 	 -89.6462 	 
C 	 -24.8752 	 -34.065 	 -90.0075 	 
C 	 -25.2835 	 -35.2352 	 -90.6301 	 
H 	 -22.9107 	 -33.4117 	 -89.0044 	 
C 	 -25.667 	 -32.8264 	 -89.5605 	 
H 	 -25.2522 	 -32.4061 	 -88.6416 	 
H 	 -26.617 	 -33.2159 	 -89.173 	 
C 	 -25.9563 	 -31.809 	 -90.6636 	 
H 	 -26.1866 	 -32.2408 	 -91.6386 	 
H 	 -24.9307 	 -31.2853 	 -90.852 	 
C 	 -27.0606 	 -30.7694 	 -90.3043 	 
H 	 -27.0229 	 -29.9267 	 -90.9723 	 
H 	 -26.7768 	 -30.3126 	 -89.4002 	 
H 	 -28.0222 	 -31.3587 	 -90.1646 	 
H 	 -29.923 	 -35.586 	 -92.5658 	 
H 	 -21.7687 	 -35.4075 	 -89.7776 	 
*
