! wB97X-D3 SP def2-SVP
%pal
nprocs 24
end

* xyz 0 1
S 	 -105.457 	 64.3969 	 -8.88319 	 
C 	 -105.419 	 65.7853 	 -9.92205 	 
C 	 -104.129 	 66.2658 	 -10.2218 	 
C 	 -103.192 	 65.219 	 -9.83218 	 
C 	 -103.726 	 64.1875 	 -9.05613 	 
H 	 -102.127 	 65.11 	 -10.1577 	 
C 	 -103.872 	 67.4626 	 -11.0299 	 
H 	 -104.796 	 68.0224 	 -11.2009 	 
H 	 -103.731 	 67.0497 	 -12.1001 	 
C 	 -102.667 	 68.3153 	 -10.6913 	 
H 	 -102.633 	 68.4517 	 -9.66005 	 
H 	 -101.788 	 67.6846 	 -10.7039 	 
C 	 -102.579 	 69.564 	 -11.5572 	 
H 	 -103.504 	 70.162 	 -11.5105 	 
H 	 -101.736 	 70.1825 	 -11.1918 	 
H 	 -102.297 	 69.4641 	 -12.6119 	 
S 	 -103.953 	 61.591 	 -8.71866 	 
C 	 -102.71 	 60.6534 	 -8.044 	 
C 	 -101.612 	 61.4156 	 -7.65677 	 
C 	 -101.785 	 62.7984 	 -8.02256 	 
C 	 -103.076 	 63.0248 	 -8.51965 	 
H 	 -100.704 	 60.9843 	 -7.27671 	 
C 	 -100.591 	 63.8117 	 -7.81552 	 
H 	 -100.731 	 64.8489 	 -8.16234 	 
H 	 -99.6945 	 63.3392 	 -8.22314 	 
C 	 -100.227 	 64.0248 	 -6.33437 	 
H 	 -99.2976 	 64.4533 	 -6.36836 	 
H 	 -100.034 	 63.1461 	 -5.75219 	 
C 	 -101.22 	 64.9509 	 -5.62065 	 
H 	 -102.32 	 64.6116 	 -5.65676 	 
H 	 -101.194 	 65.8737 	 -6.15717 	 
H 	 -100.886 	 65.1568 	 -4.62029 	 
H 	 -106.337 	 66.2808 	 -10.2892 	 
H 	 -102.702 	 59.5692 	 -7.96163 	 
*
