! wB97X-D3 SP def2-SVP
%pal
nprocs 24
end

* xyz 0 1
S 	 -41.3917 	 -49.7543 	 -74.5163 	 
C 	 -42.0571 	 -48.1744 	 -74.4347 	 
C 	 -41.1315 	 -47.2956 	 -73.9472 	 
C 	 -39.9021 	 -47.9497 	 -73.5411 	 
C 	 -39.8488 	 -49.2623 	 -73.8353 	 
H 	 -39.0639 	 -47.424 	 -73.2062 	 
C 	 -41.3698 	 -45.7761 	 -73.531 	 
H 	 -41.4873 	 -45.6852 	 -72.42 	 
H 	 -42.3502 	 -45.562 	 -74.0399 	 
C 	 -40.6566 	 -44.7232 	 -74.2826 	 
H 	 -40.5615 	 -44.9544 	 -75.3088 	 
H 	 -41.1026 	 -43.7573 	 -74.2204 	 
C 	 -39.314 	 -44.4743 	 -73.6683 	 
H 	 -39.345 	 -43.9367 	 -72.7217 	 
H 	 -38.6444 	 -45.3442 	 -73.624 	 
H 	 -38.7396 	 -43.7218 	 -74.2749 	 
S 	 -39.3607 	 -51.2983 	 -72.1317 	 
C 	 -37.6178 	 -51.796 	 -72.0025 	 
C 	 -36.7949 	 -51.2983 	 -72.9198 	 
C 	 -37.4633 	 -50.3304 	 -73.709 	 
C 	 -38.8444 	 -50.222 	 -73.4064 	 
H 	 -35.7452 	 -51.6536 	 -72.9552 	 
C 	 -36.6748 	 -49.5211 	 -74.6924 	 
H 	 -35.7267 	 -49.2223 	 -74.1708 	 
H 	 -37.0532 	 -48.63 	 -74.9963 	 
C 	 -36.23 	 -50.2753 	 -75.9565 	 
H 	 -37.1099 	 -50.4407 	 -76.5294 	 
H 	 -35.8178 	 -51.2397 	 -75.7934 	 
C 	 -35.2676 	 -49.447 	 -76.8732 	 
H 	 -35.6689 	 -48.5798 	 -77.2752 	 
H 	 -34.8668 	 -49.9473 	 -77.7459 	 
H 	 -34.341 	 -49.2446 	 -76.3067 	 
H 	 -43.0778 	 -47.9188 	 -74.6695 	 
H 	 -37.3604 	 -52.6708 	 -71.4891 	 
*
