! wB97X-D3 SP def2-SVP
%pal
nprocs 24
end

* xyz 0 1
S 	 -61.2884 	 13.1394 	 -92.4479 	 
C 	 -61.3561 	 14.0742 	 -93.8715 	 
C 	 -62.1428 	 15.1764 	 -93.6616 	 
C 	 -62.472 	 15.3917 	 -92.3032 	 
C 	 -62.0486 	 14.3844 	 -91.5065 	 
H 	 -63.0283 	 16.2758 	 -91.9571 	 
C 	 -62.6305 	 16.1318 	 -94.6999 	 
H 	 -61.7774 	 16.1659 	 -95.3643 	 
H 	 -62.6835 	 17.1364 	 -94.2811 	 
C 	 -63.9222 	 15.7007 	 -95.3485 	 
H 	 -63.9898 	 16.3819 	 -96.1955 	 
H 	 -63.7864 	 14.6406 	 -95.6219 	 
C 	 -65.1489 	 15.8176 	 -94.5 	 
H 	 -66.0888 	 15.6042 	 -95.0287 	 
H 	 -65.0453 	 15.1809 	 -93.6901 	 
H 	 -65.2515 	 16.8466 	 -94.0678 	 
S 	 -63.2183 	 12.7477 	 -89.6341 	 
C 	 -63.2369 	 13.1906 	 -87.9571 	 
C 	 -62.4707 	 14.3046 	 -87.7204 	 
C 	 -61.9512 	 14.9248 	 -88.9095 	 
C 	 -62.3018 	 14.1885 	 -90.0726 	 
H 	 -62.4015 	 14.7283 	 -86.6672 	 
C 	 -61.0726 	 16.1472 	 -88.8442 	 
H 	 -61.555 	 16.7698 	 -88.0823 	 
H 	 -60.9656 	 16.6955 	 -89.7671 	 
C 	 -59.6468 	 15.7093 	 -88.4193 	 
H 	 -59.3318 	 14.9475 	 -89.1265 	 
H 	 -59.7618 	 15.1106 	 -87.4557 	 
C 	 -58.6339 	 16.8753 	 -88.2831 	 
H 	 -58.9234 	 17.6225 	 -87.5411 	 
H 	 -58.4117 	 17.2969 	 -89.2404 	 
H 	 -57.7277 	 16.4326 	 -87.843 	 
H 	 -60.9208 	 13.8232 	 -94.8005 	 
H 	 -63.7669 	 12.676 	 -87.1851 	 
*
