! wB97X-D3 SP def2-SVP
%pal
nprocs 24
end

* xyz 0 1
S 	 -57.714 	 16.3774 	 -99.4349 	 
C 	 -58.772 	 16.2761 	 -100.826 	 
C 	 -59.8382 	 15.3901 	 -100.664 	 
C 	 -59.8905 	 14.8919 	 -99.3238 	 
C 	 -58.7518 	 15.2536 	 -98.609 	 
H 	 -60.5279 	 14.1996 	 -98.8464 	 
C 	 -61.0038 	 15.2532 	 -101.579 	 
H 	 -61.1097 	 16.0664 	 -102.25 	 
H 	 -61.8731 	 15.1655 	 -100.974 	 
C 	 -60.7973 	 13.9766 	 -102.543 	 
H 	 -59.8687 	 14.1413 	 -103.066 	 
H 	 -60.5271 	 13.1464 	 -101.883 	 
C 	 -61.8468 	 13.6295 	 -103.533 	 
H 	 -61.4276 	 12.9548 	 -104.278 	 
H 	 -62.681 	 13.0953 	 -103.073 	 
H 	 -62.1844 	 14.5598 	 -104.02 	 
S 	 -57.9026 	 15.7442 	 -96.0773 	 
C 	 -58.1271 	 14.4794 	 -94.8971 	 
C 	 -58.267 	 13.2337 	 -95.4583 	 
C 	 -58.4173 	 13.2799 	 -96.867 	 
C 	 -58.3963 	 14.6049 	 -97.315 	 
H 	 -58.2492 	 12.3476 	 -94.7798 	 
C 	 -58.7321 	 12.1001 	 -97.7025 	 
H 	 -57.9077 	 11.369 	 -97.7337 	 
H 	 -58.6814 	 12.4498 	 -98.7477 	 
C 	 -60.1105 	 11.4824 	 -97.5492 	 
H 	 -60.7834 	 12.3218 	 -97.6777 	 
H 	 -60.1204 	 11.2364 	 -96.4678 	 
C 	 -60.3633 	 10.3114 	 -98.4296 	 
H 	 -59.6298 	 9.56311 	 -98.1819 	 
H 	 -60.1224 	 10.4475 	 -99.4576 	 
H 	 -61.2392 	 9.79861 	 -98.2976 	 
H 	 -58.6977 	 16.7829 	 -101.743 	 
H 	 -57.9657 	 14.7186 	 -93.8434 	 
*
