! wB97X-D3 SP def2-SVP
%pal
nprocs 24
end

* xyz 0 1
S 	 -130.455 	 23.8337 	 -19.151 	 
C 	 -129.987 	 24.9645 	 -17.9292 	 
C 	 -128.63 	 25.3456 	 -18.0652 	 
C 	 -128.034 	 24.8353 	 -19.2752 	 
C 	 -128.89 	 23.9844 	 -19.9686 	 
H 	 -127.077 	 24.965 	 -19.5888 	 
C 	 -127.945 	 26.2213 	 -16.9749 	 
H 	 -128.482 	 26.3203 	 -16.0166 	 
H 	 -127.984 	 27.1818 	 -17.3901 	 
C 	 -126.509 	 25.8297 	 -16.7455 	 
H 	 -126.421 	 24.7515 	 -16.4539 	 
H 	 -125.945 	 25.9343 	 -17.6647 	 
C 	 -125.794 	 26.8321 	 -15.7781 	 
H 	 -124.808 	 26.96 	 -16.2598 	 
H 	 -126.268 	 27.7946 	 -15.5732 	 
H 	 -125.613 	 26.4311 	 -14.7955 	 
S 	 -129.8 	 23.683 	 -22.5186 	 
C 	 -128.834 	 22.7152 	 -23.7102 	 
C 	 -127.579 	 22.3071 	 -23.1366 	 
C 	 -127.526 	 22.635 	 -21.7574 	 
C 	 -128.577 	 23.3979 	 -21.2646 	 
H 	 -126.823 	 21.9192 	 -23.7792 	 
C 	 -126.225 	 22.3482 	 -21.0264 	 
H 	 -126.447 	 22.2954 	 -19.9495 	 
H 	 -125.446 	 23.1669 	 -21.2627 	 
C 	 -125.532 	 21.0371 	 -21.3498 	 
H 	 -125.327 	 20.9148 	 -22.405 	 
H 	 -126.253 	 20.2659 	 -21.0167 	 
C 	 -124.25 	 20.9494 	 -20.5121 	 
H 	 -124.148 	 20.124 	 -19.9526 	 
H 	 -124.13 	 21.8794 	 -19.9004 	 
H 	 -123.3 	 20.8908 	 -21.0307 	 
H 	 -130.624 	 25.3209 	 -17.0649 	 
H 	 -128.954 	 22.6296 	 -24.7603 	 
*
