! wB97X-D3 SP def2-SVP
%pal
nprocs 24
end

* xyz 0 1
S 	 -47.7476 	 9.22465 	 -23.8024 	 
C 	 -48.4627 	 8.51969 	 -22.3349 	 
C 	 -48.9837 	 9.513 	 -21.4802 	 
C 	 -48.9309 	 10.8188 	 -22.091 	 
C 	 -48.335 	 10.8357 	 -23.301 	 
H 	 -49.2443 	 11.7722 	 -21.5749 	 
C 	 -49.5342 	 9.29612 	 -20.1082 	 
H 	 -49.3199 	 8.30626 	 -19.8101 	 
H 	 -50.5776 	 9.15228 	 -20.2555 	 
C 	 -49.1027 	 10.2568 	 -18.9508 	 
H 	 -49.3671 	 11.3045 	 -19.0511 	 
H 	 -49.6875 	 9.9239 	 -18.1186 	 
C 	 -47.6601 	 10.1903 	 -18.6501 	 
H 	 -47.4806 	 9.15643 	 -18.2581 	 
H 	 -47.0002 	 10.3289 	 -19.5059 	 
H 	 -47.2678 	 10.8872 	 -17.8968 	 
S 	 -49.695 	 12.7556 	 -24.7506 	 
C 	 -48.6796 	 14.0852 	 -25.3939 	 
C 	 -47.3095 	 13.8582 	 -25.2825 	 
C 	 -47.0107 	 12.7296 	 -24.4487 	 
C 	 -48.1992 	 11.9984 	 -24.132 	 
H 	 -46.7664 	 14.6181 	 -25.7749 	 
C 	 -45.5837 	 12.275 	 -24.1463 	 
H 	 -45.0019 	 12.7108 	 -24.9822 	 
H 	 -45.678 	 11.2307 	 -24.1452 	 
C 	 -45.0008 	 12.8755 	 -22.8683 	 
H 	 -45.6827 	 12.6461 	 -22.0807 	 
H 	 -44.8966 	 13.9705 	 -22.8222 	 
C 	 -43.792 	 12.1751 	 -22.2818 	 
H 	 -43.6458 	 12.5156 	 -21.2463 	 
H 	 -42.8848 	 12.5786 	 -22.8188 	 
H 	 -43.7878 	 11.0413 	 -22.3388 	 
H 	 -48.5481 	 7.50119 	 -22.0817 	 
H 	 -48.9934 	 14.8603 	 -26.0735 	 
*
