! wB97X-D3 SP def2-SVP
%pal
nprocs 24
end

* xyz 0 1
S 	 -100.472 	 11.9743 	 -123.699 	 
C 	 -99.4949 	 13.3343 	 -123.335 	 
C 	 -99.7622 	 13.9906 	 -122.177 	 
C 	 -100.99 	 13.4532 	 -121.588 	 
C 	 -101.571 	 12.4407 	 -122.334 	 
H 	 -101.541 	 13.6701 	 -120.661 	 
C 	 -98.8753 	 15.008 	 -121.516 	 
H 	 -98.0306 	 15.2041 	 -122.238 	 
H 	 -98.3657 	 14.546 	 -120.673 	 
C 	 -99.6047 	 16.3281 	 -121.288 	 
H 	 -100.185 	 16.5355 	 -122.173 	 
H 	 -100.278 	 16.0696 	 -120.463 	 
C 	 -98.6499 	 17.4625 	 -120.968 	 
H 	 -98.1209 	 17.3809 	 -119.994 	 
H 	 -97.9811 	 17.7392 	 -121.819 	 
H 	 -99.2517 	 18.3557 	 -120.795 	 
S 	 -104.242 	 12.911 	 -122.41 	 
C 	 -105.326 	 11.8304 	 -121.656 	 
C 	 -104.673 	 10.7816 	 -121.011 	 
C 	 -103.26 	 10.8042 	 -121.244 	 
C 	 -102.879 	 11.8983 	 -122.053 	 
H 	 -105.209 	 10.0581 	 -120.461 	 
C 	 -102.314 	 9.84019 	 -120.675 	 
H 	 -101.328 	 9.96296 	 -121.172 	 
H 	 -102.691 	 8.81661 	 -120.685 	 
C 	 -101.939 	 10.1468 	 -119.204 	 
H 	 -102.861 	 10.0142 	 -118.62 	 
H 	 -101.627 	 11.1752 	 -119.018 	 
C 	 -100.82 	 9.16674 	 -118.727 	 
H 	 -99.8246 	 9.42141 	 -119.133 	 
H 	 -100.954 	 8.07326 	 -118.816 	 
H 	 -100.629 	 9.37188 	 -117.669 	 
H 	 -98.6621 	 13.6037 	 -123.991 	 
H 	 -106.346 	 11.9461 	 -121.411 	 
*
