! wB97X-D3 SP def2-SVP
%pal
nprocs 24
end

* xyz 0 1
S 	 -97.0471 	 -27.834 	 -63.4393 	 
C 	 -96.537 	 -26.4666 	 -64.4099 	 
C 	 -96.1699 	 -25.3959 	 -63.6194 	 
C 	 -96.2493 	 -25.719 	 -62.2466 	 
C 	 -96.8027 	 -26.9674 	 -62.002 	 
H 	 -95.9772 	 -25.0509 	 -61.3966 	 
C 	 -95.4367 	 -24.1085 	 -64.1616 	 
H 	 -96.0551 	 -23.235 	 -63.8491 	 
H 	 -95.5967 	 -24.0972 	 -65.2549 	 
C 	 -94.0203 	 -23.9477 	 -63.7281 	 
H 	 -93.7602 	 -24.3837 	 -62.7808 	 
H 	 -93.3582 	 -24.4989 	 -64.4017 	 
C 	 -93.5348 	 -22.4384 	 -63.7678 	 
H 	 -92.4287 	 -22.4514 	 -63.8104 	 
H 	 -93.8905 	 -21.8406 	 -64.6072 	 
H 	 -93.8263 	 -21.875 	 -62.8656 	 
S 	 -96.4047 	 -29.228 	 -60.3838 	 
C 	 -97.1971 	 -29.3452 	 -58.8682 	 
C 	 -97.9385 	 -28.2691 	 -58.584 	 
C 	 -97.8733 	 -27.2437 	 -59.5451 	 
C 	 -97.1263 	 -27.5817 	 -60.6987 	 
H 	 -98.4181 	 -28.1514 	 -57.6313 	 
C 	 -98.5548 	 -25.8882 	 -59.3698 	 
H 	 -99.6002 	 -26.0156 	 -59.1376 	 
H 	 -98.6625 	 -25.3651 	 -60.2957 	 
C 	 -97.9769 	 -24.9762 	 -58.2938 	 
H 	 -96.9473 	 -24.8657 	 -58.4102 	 
H 	 -98.0894 	 -25.5075 	 -57.3206 	 
C 	 -98.7075 	 -23.6286 	 -58.0211 	 
H 	 -99.759 	 -23.8464 	 -57.8735 	 
H 	 -98.5421 	 -22.957 	 -58.8569 	 
H 	 -98.2192 	 -23.0804 	 -57.1422 	 
H 	 -96.5898 	 -26.5204 	 -65.4553 	 
H 	 -97.1055 	 -30.2024 	 -58.1872 	 
*
