! wB97X-D3 SP def2-SVP
%pal
nprocs 24
end

* xyz 0 1
S 	 -37.3391 	 -45.9195 	 -73.1177 	 
C 	 -38.4242 	 -44.8633 	 -73.9938 	 
C 	 -37.8121 	 -44.3592 	 -75.1783 	 
C 	 -36.4189 	 -44.753 	 -75.1534 	 
C 	 -35.9639 	 -45.4762 	 -74.0527 	 
H 	 -35.7709 	 -44.4694 	 -75.9899 	 
C 	 -38.3671 	 -43.4288 	 -76.1659 	 
H 	 -38.9116 	 -42.6594 	 -75.7624 	 
H 	 -39.1398 	 -43.9984 	 -76.6735 	 
C 	 -37.3829 	 -42.7884 	 -77.2096 	 
H 	 -36.7557 	 -43.4633 	 -77.8278 	 
H 	 -38.0846 	 -42.3875 	 -77.9486 	 
C 	 -36.5116 	 -41.6954 	 -76.6698 	 
H 	 -35.8473 	 -41.333 	 -77.4504 	 
H 	 -37.1626 	 -40.8561 	 -76.3449 	 
H 	 -35.8902 	 -41.9963 	 -75.768 	 
S 	 -33.7131 	 -46.3942 	 -75.2259 	 
C 	 -32.5048 	 -47.2607 	 -74.312 	 
C 	 -32.7366 	 -47.1275 	 -72.9339 	 
C 	 -33.9221 	 -46.3149 	 -72.6375 	 
C 	 -34.6794 	 -46.0331 	 -73.7711 	 
H 	 -32.0733 	 -47.3523 	 -72.1692 	 
C 	 -34.282 	 -45.9778 	 -71.2077 	 
H 	 -34.9347 	 -45.1659 	 -71.1334 	 
H 	 -33.3805 	 -45.6047 	 -70.7159 	 
C 	 -34.9931 	 -47.0636 	 -70.4265 	 
H 	 -34.3119 	 -47.8308 	 -70.1951 	 
H 	 -35.8091 	 -47.356 	 -71.0167 	 
C 	 -35.6487 	 -46.5487 	 -69.1089 	 
H 	 -34.9819 	 -46.1379 	 -68.2904 	 
H 	 -36.2232 	 -47.3248 	 -68.752 	 
H 	 -36.3904 	 -45.8263 	 -69.3461 	 
H 	 -39.3535 	 -44.5339 	 -73.6933 	 
H 	 -31.6642 	 -47.7469 	 -74.7523 	 
*
