! wB97X-D3 SP def2-SVP
%pal
nprocs 24
end

* xyz 0 1
S 	 -48.5806 	 23.1022 	 25.0826 	 
C 	 -50.2695 	 23.6516 	 24.9662 	 
C 	 -50.8168 	 23.1651 	 23.7538 	 
C 	 -49.9304 	 22.4278 	 22.9911 	 
C 	 -48.6956 	 22.2828 	 23.5677 	 
H 	 -50.3005 	 21.7545 	 22.2265 	 
C 	 -52.2834 	 23.4446 	 23.3272 	 
H 	 -52.5298 	 23.0657 	 22.3556 	 
H 	 -52.4644 	 24.5241 	 23.2967 	 
C 	 -53.2584 	 22.7369 	 24.2899 	 
H 	 -52.9602 	 22.9377 	 25.3065 	 
H 	 -54.3005 	 23.1258 	 24.1573 	 
C 	 -53.0672 	 21.2367 	 24.1676 	 
H 	 -53.6901 	 20.6554 	 24.8597 	 
H 	 -53.2835 	 20.8167 	 23.2052 	 
H 	 -52.0388 	 20.9745 	 24.4349 	 
S 	 -46.3412 	 20.9169 	 24.2769 	 
C 	 -45.4846 	 19.9807 	 23.0497 	 
C 	 -45.784 	 20.5597 	 21.8527 	 
C 	 -46.9578 	 21.3893 	 21.8287 	 
C 	 -47.4725 	 21.593 	 23.1031 	 
H 	 -45.1483 	 20.2904 	 21.0649 	 
C 	 -47.5318 	 21.9573 	 20.5812 	 
H 	 -46.795 	 22.4167 	 19.9629 	 
H 	 -48.1879 	 22.7871 	 20.8122 	 
C 	 -48.3396 	 20.9503 	 19.7261 	 
H 	 -48.9537 	 20.4859 	 20.528 	 
H 	 -47.6134 	 20.171 	 19.2916 	 
C 	 -49.1382 	 21.4919 	 18.5722 	 
H 	 -49.3577 	 22.5773 	 18.5978 	 
H 	 -49.9738 	 20.8425 	 18.3958 	 
H 	 -48.6289 	 21.382 	 17.6383 	 
H 	 -50.8251 	 24.0258 	 25.7983 	 
H 	 -44.7042 	 19.2691 	 23.3171 	 
*
