! wB97X-D3 SP def2-SVP
%pal
nprocs 24
end

* xyz 0 1
S 	 -87.0168 	 -7.19816 	 -60.5972 	 
C 	 -88.7078 	 -7.40495 	 -61.0684 	 
C 	 -89.554 	 -6.52025 	 -60.4123 	 
C 	 -88.8173 	 -5.55204 	 -59.6993 	 
C 	 -87.4686 	 -5.72899 	 -59.7264 	 
H 	 -89.1636 	 -4.73345 	 -59.1242 	 
C 	 -91.1041 	 -6.43859 	 -60.4827 	 
H 	 -91.5437 	 -7.04905 	 -59.7058 	 
H 	 -91.4965 	 -6.80892 	 -61.3922 	 
C 	 -91.5579 	 -4.96857 	 -60.2494 	 
H 	 -91.4487 	 -4.66473 	 -59.2139 	 
H 	 -91.0234 	 -4.20417 	 -60.7884 	 
C 	 -93.0268 	 -4.65786 	 -60.6101 	 
H 	 -93.1777 	 -4.87692 	 -61.6663 	 
H 	 -93.7237 	 -5.32525 	 -60.1129 	 
H 	 -93.3363 	 -3.63133 	 -60.2376 	 
S 	 -85.3481 	 -6.08434 	 -58.0599 	 
C 	 -84.4935 	 -4.59867 	 -57.5185 	 
C 	 -85.1394 	 -3.4298 	 -57.8995 	 
C 	 -86.201 	 -3.66942 	 -58.7528 	 
C 	 -86.4783 	 -5.06399 	 -58.9072 	 
H 	 -84.7518 	 -2.47558 	 -57.627 	 
C 	 -86.8749 	 -2.52749 	 -59.4599 	 
H 	 -86.8445 	 -1.70983 	 -58.8061 	 
H 	 -87.9688 	 -2.7028 	 -59.7432 	 
C 	 -86.0531 	 -2.08451 	 -60.6425 	 
H 	 -85.7901 	 -2.97016 	 -61.1644 	 
H 	 -85.2076 	 -1.58797 	 -60.28 	 
C 	 -86.8166 	 -1.15708 	 -61.555 	 
H 	 -86.2828 	 -0.843886 	 -62.5116 	 
H 	 -87.0485 	 -0.240217 	 -61.0086 	 
H 	 -87.7188 	 -1.58868 	 -61.8037 	 
H 	 -88.9638 	 -8.33407 	 -61.5782 	 
H 	 -83.7851 	 -4.58658 	 -56.6686 	 
*
