! wB97X-D3 SP def2-SVP
%pal
nprocs 24
end

* xyz 0 1
S 	 -35.1325 	 12.9957 	 7.984 	 
C 	 -35.1532 	 14.5919 	 7.20961 	 
C 	 -33.8732 	 15.0364 	 6.91768 	 
C 	 -32.896 	 14.2746 	 7.63 	 
C 	 -33.3818 	 13.171 	 8.32396 	 
H 	 -31.8752 	 14.5561 	 7.75438 	 
C 	 -33.4977 	 16.0779 	 5.91767 	 
H 	 -32.5053 	 16.5963 	 6.11989 	 
H 	 -34.2735 	 16.7778 	 6.02053 	 
C 	 -33.4102 	 15.4942 	 4.44014 	 
H 	 -32.7293 	 14.6604 	 4.58953 	 
H 	 -34.359 	 14.9951 	 4.19698 	 
C 	 -32.9783 	 16.5551 	 3.27808 	 
H 	 -32.0714 	 17.0649 	 3.40787 	 
H 	 -32.9063 	 16.1443 	 2.27163 	 
H 	 -33.6943 	 17.3512 	 3.27074 	 
S 	 -32.5557 	 10.6082 	 8.05503 	 
C 	 -31.4535 	 9.94538 	 9.18064 	 
C 	 -31.2831 	 10.7543 	 10.2534 	 
C 	 -31.9992 	 11.9983 	 10.1305 	 
C 	 -32.61 	 12.0837 	 8.87059 	 
H 	 -30.6124 	 10.4499 	 11.0246 	 
C 	 -32.1465 	 13.0413 	 11.2967 	 
H 	 -32.163 	 12.5426 	 12.2531 	 
H 	 -33.1523 	 13.3873 	 11.1216 	 
C 	 -30.9073 	 14.0515 	 11.377 	 
H 	 -31.0307 	 14.8695 	 12.1369 	 
H 	 -30.8125 	 14.6195 	 10.4293 	 
C 	 -29.5411 	 13.4306 	 11.752 	 
H 	 -29.1965 	 12.5466 	 11.2052 	 
H 	 -29.6388 	 13.0167 	 12.7575 	 
H 	 -28.7063 	 14.0973 	 11.8003 	 
H 	 -36.1085 	 15.0329 	 6.96682 	 
H 	 -31.1356 	 8.90463 	 9.16551 	 
*
