! wB97X-D3 SP def2-SVP
%pal
nprocs 24
end

* xyz 0 1
S 	 -110.584 	 53.7997 	 -87.6045 	 
C 	 -112.097 	 54.6678 	 -87.3552 	 
C 	 -112.224 	 55.8266 	 -88.1408 	 
C 	 -110.953 	 56.118 	 -88.7689 	 
C 	 -109.972 	 55.2613 	 -88.4731 	 
H 	 -110.648 	 56.9193 	 -89.4253 	 
C 	 -113.442 	 56.7995 	 -88.1181 	 
H 	 -114.364 	 56.2222 	 -87.9944 	 
H 	 -113.393 	 57.2363 	 -89.1088 	 
C 	 -113.226 	 57.9325 	 -87.1055 	 
H 	 -112.18 	 57.8875 	 -86.7903 	 
H 	 -113.411 	 58.9864 	 -87.5453 	 
C 	 -114.116 	 57.7911 	 -85.9155 	 
H 	 -114.183 	 58.7559 	 -85.4103 	 
H 	 -115.153 	 57.6282 	 -86.0913 	 
H 	 -113.772 	 56.975 	 -85.178 	 
S 	 -107.808 	 53.9092 	 -89.3934 	 
C 	 -106.228 	 54.687 	 -89.3243 	 
C 	 -106.389 	 56.039 	 -89.2785 	 
C 	 -107.717 	 56.4388 	 -88.9886 	 
C 	 -108.56 	 55.3746 	 -88.8586 	 
H 	 -105.585 	 56.7796 	 -89.4202 	 
C 	 -108.097 	 57.9076 	 -88.7422 	 
H 	 -108.829 	 57.882 	 -87.927 	 
H 	 -108.616 	 58.1861 	 -89.7073 	 
C 	 -106.983 	 58.9456 	 -88.5338 	 
H 	 -106.416 	 59.0716 	 -89.401 	 
H 	 -106.301 	 58.4827 	 -87.8315 	 
C 	 -107.513 	 60.2044 	 -87.9215 	 
H 	 -106.726 	 60.7745 	 -87.5962 	 
H 	 -108.105 	 60.0129 	 -87.0985 	 
H 	 -108.136 	 60.8406 	 -88.5909 	 
H 	 -112.798 	 54.2452 	 -86.6526 	 
H 	 -105.312 	 54.2511 	 -89.4311 	 
*
