! wB97X-D3 SP def2-SVP
%pal
nprocs 24
end

* xyz 0 1
S 	 -116.359 	 52.5211 	 -94.7382 	 
C 	 -116.703 	 53.7446 	 -95.9669 	 
C 	 -115.501 	 54.4065 	 -96.2302 	 
C 	 -114.464 	 54.1008 	 -95.2983 	 
C 	 -114.811 	 53.2268 	 -94.2793 	 
H 	 -113.465 	 54.4698 	 -95.4341 	 
C 	 -115.159 	 55.3054 	 -97.4516 	 
H 	 -115.221 	 54.6139 	 -98.3104 	 
H 	 -114.155 	 55.6679 	 -97.3088 	 
C 	 -116.205 	 56.4654 	 -97.6506 	 
H 	 -117.195 	 55.9611 	 -97.6785 	 
H 	 -116.117 	 56.9767 	 -96.7191 	 
C 	 -115.928 	 57.18 	 -98.9243 	 
H 	 -116.203 	 56.6122 	 -99.8042 	 
H 	 -116.569 	 58.1029 	 -99.0046 	 
H 	 -114.831 	 57.4554 	 -98.9158 	 
S 	 -112.371 	 52.148 	 -93.4768 	 
C 	 -112.017 	 51.9029 	 -91.7815 	 
C 	 -113.121 	 52.3697 	 -91.0888 	 
C 	 -114.3 	 52.6772 	 -91.8349 	 
C 	 -113.943 	 52.7785 	 -93.188 	 
H 	 -113.145 	 52.4028 	 -90.0814 	 
C 	 -115.595 	 52.9816 	 -91.1244 	 
H 	 -116.223 	 53.5236 	 -91.8824 	 
H 	 -115.288 	 53.6669 	 -90.3304 	 
C 	 -116.317 	 51.7302 	 -90.5652 	 
H 	 -115.708 	 51.2229 	 -89.8033 	 
H 	 -116.268 	 50.8479 	 -91.2771 	 
C 	 -117.757 	 52.1407 	 -90.1123 	 
H 	 -117.663 	 52.6958 	 -89.1565 	 
H 	 -118.34 	 51.2831 	 -89.8855 	 
H 	 -118.314 	 52.6022 	 -90.8797 	 
H 	 -117.596 	 53.7309 	 -96.5799 	 
H 	 -111.096 	 51.4578 	 -91.4413 	 
*
