! wB97X-D3 SP def2-SVP
%pal
nprocs 24
end

* xyz 0 1
S 	 -109.229 	 18.5511 	 -119.808 	 
C 	 -109.401 	 19.9841 	 -118.762 	 
C 	 -108.269 	 20.1306 	 -117.973 	 
C 	 -107.249 	 19.1813 	 -118.303 	 
C 	 -107.639 	 18.1112 	 -119.106 	 
H 	 -106.332 	 18.9657 	 -117.815 	 
C 	 -108.24 	 21.0985 	 -116.84 	 
H 	 -109.259 	 21.3833 	 -116.584 	 
H 	 -107.721 	 22.0182 	 -117.168 	 
C 	 -107.471 	 20.6287 	 -115.554 	 
H 	 -106.454 	 20.5154 	 -115.917 	 
H 	 -107.497 	 21.3898 	 -114.805 	 
C 	 -107.98 	 19.2947 	 -114.897 	 
H 	 -108.015 	 18.5176 	 -115.62 	 
H 	 -107.264 	 19.0655 	 -114.098 	 
H 	 -108.944 	 19.4709 	 -114.46 	 
S 	 -106.501 	 16.8707 	 -121.176 	 
C 	 -105.388 	 15.529 	 -120.898 	 
C 	 -105.265 	 15.1763 	 -119.61 	 
C 	 -106.083 	 15.9851 	 -118.75 	 
C 	 -106.824 	 16.9446 	 -119.523 	 
H 	 -104.573 	 14.4036 	 -119.199 	 
C 	 -106.165 	 15.7959 	 -117.201 	 
H 	 -105.853 	 16.7946 	 -116.799 	 
H 	 -105.357 	 15.115 	 -116.838 	 
C 	 -107.538 	 15.3959 	 -116.689 	 
H 	 -107.847 	 14.5763 	 -117.332 	 
H 	 -108.272 	 16.2093 	 -116.93 	 
C 	 -107.395 	 14.9598 	 -115.228 	 
H 	 -106.839 	 14.0816 	 -115.319 	 
H 	 -108.376 	 14.7467 	 -114.707 	 
H 	 -106.778 	 15.7318 	 -114.742 	 
H 	 -110.32 	 20.515 	 -118.569 	 
H 	 -104.765 	 15.1623 	 -121.702 	 
*
