! wB97X-D3 SP def2-SVP
%pal
nprocs 24
end

* xyz 0 1
S 	 -132.824 	 64.0746 	 -57.0816 	 
C 	 -132.232 	 65.6232 	 -56.6073 	 
C 	 -132.725 	 66.6355 	 -57.4544 	 
C 	 -133.339 	 66.08 	 -58.6317 	 
C 	 -133.438 	 64.7448 	 -58.5369 	 
H 	 -133.715 	 66.6763 	 -59.442 	 
C 	 -132.443 	 68.1004 	 -57.3791 	 
H 	 -132.228 	 68.3437 	 -56.3619 	 
H 	 -133.386 	 68.7286 	 -57.6078 	 
C 	 -131.318 	 68.5209 	 -58.3619 	 
H 	 -131.617 	 68.4647 	 -59.4158 	 
H 	 -131.185 	 69.5693 	 -58.1146 	 
C 	 -130.035 	 67.7329 	 -58.3819 	 
H 	 -129.429 	 68.0252 	 -59.224 	 
H 	 -129.427 	 67.7018 	 -57.4433 	 
H 	 -130.108 	 66.6439 	 -58.5589 	 
S 	 -135.663 	 63.3966 	 -59.2366 	 
C 	 -135.775 	 62.8677 	 -60.8598 	 
C 	 -134.644 	 62.9791 	 -61.5524 	 
C 	 -133.603 	 63.5653 	 -60.7912 	 
C 	 -134.07 	 63.9199 	 -59.5682 	 
H 	 -134.576 	 62.6271 	 -62.554 	 
C 	 -132.221 	 63.7452 	 -61.3921 	 
H 	 -132.306 	 64.8164 	 -61.6141 	 
H 	 -132.09 	 63.1755 	 -62.3182 	 
C 	 -130.982 	 63.4166 	 -60.4623 	 
H 	 -131.072 	 62.3036 	 -60.2137 	 
H 	 -131.089 	 63.8704 	 -59.5098 	 
C 	 -129.631 	 63.695 	 -61.1051 	 
H 	 -129.486 	 63.2868 	 -62.0669 	 
H 	 -128.913 	 63.1708 	 -60.472 	 
H 	 -129.351 	 64.7087 	 -61.141 	 
H 	 -131.517 	 65.7451 	 -55.8137 	 
H 	 -136.67 	 62.3649 	 -61.1977 	 
*
