! wB97X-D3 SP def2-SVP
%pal
nprocs 24
end

* xyz 0 1
S 	 -122.872 	 66.6109 	 -37.2569 	 
C 	 -122.466 	 66.4455 	 -35.5175 	 
C 	 -123.641 	 66.2867 	 -34.7408 	 
C 	 -124.769 	 65.9733 	 -35.6123 	 
C 	 -124.477 	 66.0037 	 -36.9486 	 
H 	 -125.882 	 65.8579 	 -35.3913 	 
C 	 -123.69 	 66.376 	 -33.2415 	 
H 	 -124.709 	 66.6916 	 -33.0957 	 
H 	 -122.987 	 67.1518 	 -33.0258 	 
C 	 -123.517 	 65.0511 	 -32.6048 	 
H 	 -123.82 	 65.0925 	 -31.4957 	 
H 	 -124.154 	 64.2531 	 -33.0145 	 
C 	 -122.184 	 64.6395 	 -32.8181 	 
H 	 -121.993 	 64.0993 	 -33.7194 	 
H 	 -121.537 	 65.555 	 -32.6472 	 
H 	 -121.98 	 63.9296 	 -31.9926 	 
S 	 -125.381 	 67.08 	 -39.2474 	 
C 	 -126.31 	 66.0613 	 -40.3679 	 
C 	 -126.661 	 64.8673 	 -39.7987 	 
C 	 -126.123 	 64.7632 	 -38.4592 	 
C 	 -125.355 	 65.8255 	 -38.0673 	 
H 	 -127.295 	 64.1571 	 -40.2052 	 
C 	 -126.46 	 63.4819 	 -37.7257 	 
H 	 -127.124 	 62.8157 	 -38.3132 	 
H 	 -126.912 	 63.6101 	 -36.7265 	 
C 	 -125.157 	 62.7674 	 -37.3866 	 
H 	 -124.519 	 63.4591 	 -36.8577 	 
H 	 -124.689 	 62.5226 	 -38.3315 	 
C 	 -125.377 	 61.5039 	 -36.4927 	 
H 	 -126.369 	 61.1468 	 -36.7561 	 
H 	 -125.46 	 61.8933 	 -35.4615 	 
H 	 -124.617 	 60.7348 	 -36.6314 	 
H 	 -121.526 	 66.7016 	 -35.14 	 
H 	 -126.566 	 66.3759 	 -41.3654 	 
*
