! wB97X-D3 SP def2-SVP
%pal
nprocs 24
end

* xyz 0 1
S 	 -83.2745 	 -33.6804 	 -53.8819 	 
C 	 -81.5806 	 -33.6774 	 -53.5873 	 
C 	 -81.1598 	 -32.4991 	 -53.0781 	 
C 	 -82.2546 	 -31.6519 	 -52.7153 	 
C 	 -83.51 	 -32.2206 	 -53.0031 	 
H 	 -82.1207 	 -30.7194 	 -52.2302 	 
C 	 -79.7381 	 -32.1423 	 -53.029 	 
H 	 -79.2211 	 -33.0517 	 -52.6448 	 
H 	 -79.6332 	 -31.2693 	 -52.3269 	 
C 	 -78.9567 	 -31.9126 	 -54.3167 	 
H 	 -77.8625 	 -31.8112 	 -54.1518 	 
H 	 -79.0923 	 -32.7554 	 -55.0726 	 
C 	 -79.5164 	 -30.5949 	 -54.9694 	 
H 	 -80.6268 	 -30.6539 	 -55.1149 	 
H 	 -79.372 	 -29.7048 	 -54.4175 	 
H 	 -79.0541 	 -30.4747 	 -55.9766 	 
S 	 -85.3844 	 -30.7014 	 -54.1385 	 
C 	 -86.7637 	 -30.0472 	 -53.1322 	 
C 	 -86.6991 	 -30.5896 	 -51.8621 	 
C 	 -85.5398 	 -31.461 	 -51.6705 	 
C 	 -84.755 	 -31.5299 	 -52.776 	 
H 	 -87.4744 	 -30.5147 	 -51.11 	 
C 	 -85.2562 	 -32.233 	 -50.359 	 
H 	 -85.5427 	 -31.5555 	 -49.5256 	 
H 	 -84.2781 	 -32.6297 	 -50.3818 	 
C 	 -86.2156 	 -33.3879 	 -50.1247 	 
H 	 -87.2111 	 -32.9754 	 -50.0595 	 
H 	 -85.8475 	 -33.7891 	 -49.1515 	 
C 	 -86.2864 	 -34.3647 	 -51.3624 	 
H 	 -85.2545 	 -34.6711 	 -51.6563 	 
H 	 -86.783 	 -33.7276 	 -52.1019 	 
H 	 -86.8866 	 -35.1725 	 -51.1013 	 
H 	 -80.8154 	 -34.3451 	 -53.9983 	 
H 	 -87.4634 	 -29.3253 	 -53.4326 	 
*
