! wB97X-D3 SP def2-SVP
%pal
nprocs 24
end

* xyz 0 1
S 	 -39.373 	 14.2968 	 13.9358 	 
C 	 -40.3862 	 14.2964 	 15.3308 	 
C 	 -40.8418 	 15.545 	 15.6262 	 
C 	 -40.5262 	 16.5119 	 14.5596 	 
C 	 -39.6197 	 15.956 	 13.5813 	 
H 	 -40.9738 	 17.4731 	 14.3275 	 
C 	 -41.7685 	 15.9547 	 16.7396 	 
H 	 -41.4929 	 17.0338 	 16.994 	 
H 	 -41.3891 	 15.527 	 17.6181 	 
C 	 -43.2907 	 15.9356 	 16.4452 	 
H 	 -43.6051 	 16.1929 	 15.4092 	 
H 	 -43.6494 	 14.9868 	 16.7707 	 
C 	 -44.0868 	 16.7859 	 17.4322 	 
H 	 -45.0064 	 17.1266 	 16.9217 	 
H 	 -44.3427 	 16.2977 	 18.3258 	 
H 	 -43.6679 	 17.7595 	 17.6806 	 
S 	 -40.377 	 16.1812 	 11.0352 	 
C 	 -39.6955 	 17.466 	 10.1112 	 
C 	 -38.7261 	 18.1407 	 10.7531 	 
C 	 -38.48 	 17.6991 	 12.0523 	 
C 	 -39.3253 	 16.5975 	 12.3643 	 
H 	 -38.1948 	 18.9731 	 10.3007 	 
C 	 -37.5017 	 18.4231 	 12.9645 	 
H 	 -38.0082 	 19.0192 	 13.681 	 
H 	 -36.9347 	 19.0614 	 12.2746 	 
C 	 -36.3989 	 17.5889 	 13.6688 	 
H 	 -36.8564 	 16.9038 	 14.4501 	 
H 	 -35.705 	 18.2012 	 14.2127 	 
C 	 -35.5233 	 16.7521 	 12.8 	 
H 	 -36.0065 	 15.8543 	 12.4082 	 
H 	 -34.6839 	 16.4326 	 13.3452 	 
H 	 -35.1024 	 17.3028 	 11.9671 	 
H 	 -40.6322 	 13.3012 	 15.6796 	 
H 	 -39.9512 	 17.7546 	 9.09873 	 
*
