! wB97X-D3 SP def2-SVP
%pal
nprocs 24
end

* xyz 0 1
S 	 33.6637 	 -36.5789 	 -130.194 	 
C 	 34.0205 	 -34.9708 	 -129.547 	 
C 	 33.9943 	 -34.0539 	 -130.586 	 
C 	 33.5414 	 -34.6311 	 -131.829 	 
C 	 33.2948 	 -35.9699 	 -131.742 	 
H 	 33.3711 	 -34.2397 	 -132.781 	 
C 	 34.259 	 -32.5507 	 -130.487 	 
H 	 34.9148 	 -32.2386 	 -131.26 	 
H 	 34.5761 	 -32.3442 	 -129.469 	 
C 	 32.976 	 -31.7465 	 -130.738 	 
H 	 32.6605 	 -32.0089 	 -131.769 	 
H 	 32.0591 	 -32.0146 	 -130.13 	 
C 	 33.1279 	 -30.2543 	 -130.567 	 
H 	 33.136 	 -29.9378 	 -129.557 	 
H 	 34.0053 	 -29.8763 	 -131.153 	 
H 	 32.3235 	 -29.6854 	 -130.957 	 
S 	 33.9049 	 -38.0084 	 -133.488 	 
C 	 32.6115 	 -38.6917 	 -134.523 	 
C 	 31.4748 	 -37.9656 	 -134.437 	 
C 	 31.5131 	 -36.9096 	 -133.454 	 
C 	 32.7716 	 -36.8663 	 -132.812 	 
H 	 30.6502 	 -38.3147 	 -135.025 	 
C 	 30.3412 	 -35.9663 	 -133.175 	 
H 	 29.5228 	 -36.3075 	 -133.846 	 
H 	 30.6812 	 -34.9415 	 -133.293 	 
C 	 29.8629 	 -36.1316 	 -131.675 	 
H 	 28.9701 	 -35.5145 	 -131.456 	 
H 	 30.5911 	 -35.6869 	 -130.928 	 
C 	 29.6803 	 -37.5609 	 -131.221 	 
H 	 29.2198 	 -37.4738 	 -130.221 	 
H 	 30.6598 	 -38.0893 	 -131.161 	 
H 	 29.0106 	 -38.1939 	 -131.858 	 
H 	 34.2855 	 -34.7611 	 -128.471 	 
H 	 32.6721 	 -39.623 	 -135.045 	 
*
