! wB97X-D3 SP def2-SVP
%pal
nprocs 24
end

* xyz 0 1
S 	 -106.608 	 56.73 	 -90.8978 	 
C 	 -105.014 	 57.1853 	 -90.4246 	 
C 	 -104.447 	 56.356 	 -89.5475 	 
C 	 -105.304 	 55.2876 	 -89.1653 	 
C 	 -106.522 	 55.3196 	 -89.7993 	 
H 	 -104.929 	 54.4648 	 -88.5045 	 
C 	 -103.054 	 56.4838 	 -89.0828 	 
H 	 -102.948 	 55.8876 	 -88.1655 	 
H 	 -102.796 	 57.5057 	 -88.7778 	 
C 	 -102.002 	 55.9301 	 -90.0696 	 
H 	 -102.005 	 54.8656 	 -90.2069 	 
H 	 -102.324 	 56.4122 	 -91.0316 	 
C 	 -100.563 	 56.3268 	 -89.7061 	 
H 	 -100.498 	 57.3765 	 -89.5925 	 
H 	 -100.158 	 55.8881 	 -88.8366 	 
H 	 -99.9385 	 56.0267 	 -90.5274 	 
S 	 -108.487 	 54.1561 	 -88.2117 	 
C 	 -109.192 	 52.6827 	 -88.7702 	 
C 	 -108.911 	 52.4798 	 -90.0917 	 
C 	 -108.123 	 53.4974 	 -90.6773 	 
C 	 -107.59 	 54.3237 	 -89.7354 	 
H 	 -109.243 	 51.5684 	 -90.592 	 
C 	 -107.873 	 53.6189 	 -92.1438 	 
H 	 -107.698 	 52.6192 	 -92.5867 	 
H 	 -106.902 	 54.1598 	 -92.2595 	 
C 	 -108.974 	 54.2442 	 -93.0102 	 
H 	 -109.375 	 55.0818 	 -92.4465 	 
H 	 -109.684 	 53.5189 	 -93.1589 	 
C 	 -108.372 	 54.5646 	 -94.4607 	 
H 	 -109.021 	 54.9399 	 -95.2017 	 
H 	 -107.905 	 53.6469 	 -94.9256 	 
H 	 -107.589 	 55.2641 	 -94.2996 	 
H 	 -104.504 	 58.1308 	 -90.6832 	 
H 	 -109.813 	 52.1456 	 -88.1327 	 
*
