! wB97X-D3 SP def2-SVP
%pal
nprocs 24
end

* xyz 0 1
S 	 -1.06215 	 -14.8142 	 -101.681 	 
C 	 0.0109366 	 -16.0558 	 -101.168 	 
C 	 0.591795 	 -16.7471 	 -102.272 	 
C 	 0.152716 	 -16.1706 	 -103.546 	 
C 	 -0.86434 	 -15.2177 	 -103.387 	 
H 	 0.533487 	 -16.2292 	 -104.6 	 
C 	 1.44475 	 -17.9264 	 -102.246 	 
H 	 1.64388 	 -18.1511 	 -103.282 	 
H 	 0.809492 	 -18.7061 	 -101.918 	 
C 	 2.67735 	 -17.9138 	 -101.354 	 
H 	 3.14854 	 -16.9617 	 -101.518 	 
H 	 2.48181 	 -17.9085 	 -100.326 	 
C 	 3.67067 	 -19.0079 	 -101.666 	 
H 	 3.73869 	 -19.3763 	 -102.73 	 
H 	 4.63095 	 -18.6721 	 -101.319 	 
H 	 3.32077 	 -19.8502 	 -101.085 	 
S 	 -1.78082 	 -15.3597 	 -106.087 	 
C 	 -2.53328 	 -13.9636 	 -106.863 	 
C 	 -2.77993 	 -12.9908 	 -105.923 	 
C 	 -2.34423 	 -13.2587 	 -104.591 	 
C 	 -1.63119 	 -14.5358 	 -104.495 	 
H 	 -3.31983 	 -12.1497 	 -106.322 	 
C 	 -2.38086 	 -12.236 	 -103.486 	 
H 	 -2.1096 	 -11.2606 	 -103.99 	 
H 	 -1.70253 	 -12.4103 	 -102.71 	 
C 	 -3.73049 	 -12.066 	 -102.86 	 
H 	 -4.12768 	 -13.04 	 -102.485 	 
H 	 -4.53601 	 -11.8464 	 -103.622 	 
C 	 -3.86291 	 -11.0056 	 -101.777 	 
H 	 -3.5511 	 -9.985 	 -102.061 	 
H 	 -3.3055 	 -11.363 	 -100.974 	 
H 	 -4.90208 	 -10.8661 	 -101.371 	 
H 	 0.198979 	 -16.2975 	 -100.115 	 
H 	 -2.98283 	 -13.883 	 -107.84 	 
*
