! wB97X-D3 SP def2-SVP
%pal
nprocs 24
end

* xyz 0 1
S 	 -40.681 	 -48.8145 	 -71.7006 	 
C 	 -41.1283 	 -47.194 	 -72.3259 	 
C 	 -40.3662 	 -46.7895 	 -73.4002 	 
C 	 -39.3404 	 -47.7247 	 -73.6652 	 
C 	 -39.3703 	 -48.841 	 -72.8037 	 
H 	 -38.5537 	 -47.4848 	 -74.3828 	 
C 	 -40.4413 	 -45.4351 	 -74.0856 	 
H 	 -39.7133 	 -45.5334 	 -74.8968 	 
H 	 -39.9143 	 -44.8372 	 -73.3972 	 
C 	 -41.6285 	 -44.6927 	 -74.3451 	 
H 	 -42.132 	 -44.4393 	 -73.4033 	 
H 	 -41.3673 	 -43.7466 	 -74.7387 	 
C 	 -42.5297 	 -45.5031 	 -75.3766 	 
H 	 -42.0716 	 -45.5718 	 -76.3216 	 
H 	 -42.8741 	 -46.4753 	 -75.0488 	 
H 	 -43.5154 	 -45.0263 	 -75.5454 	 
S 	 -39.0751 	 -51.5216 	 -72.4217 	 
C 	 -37.5821 	 -52.3715 	 -72.7968 	 
C 	 -36.5878 	 -51.4561 	 -73.1731 	 
C 	 -37.0542 	 -50.0867 	 -73.1391 	 
C 	 -38.3822 	 -49.9418 	 -72.8214 	 
H 	 -35.6532 	 -51.8234 	 -73.5615 	 
C 	 -36.1971 	 -48.9206 	 -73.6206 	 
H 	 -36.661 	 -48.5593 	 -74.4929 	 
H 	 -35.231 	 -49.3898 	 -73.9055 	 
C 	 -35.9018 	 -47.7366 	 -72.6687 	 
H 	 -35.3896 	 -48.0737 	 -71.6896 	 
H 	 -36.8203 	 -47.2396 	 -72.469 	 
C 	 -34.9442 	 -46.7422 	 -73.3409 	 
H 	 -34.3868 	 -46.2351 	 -72.5525 	 
H 	 -35.5503 	 -46.0226 	 -73.9481 	 
H 	 -34.3098 	 -47.2514 	 -74.0833 	 
H 	 -41.8028 	 -46.547 	 -71.875 	 
H 	 -37.4384 	 -53.395 	 -72.8904 	 
*
