! wB97X-D3 SP def2-SVP
%pal
nprocs 24
end

* xyz 0 1
S 	 19.7306 	 -5.74716 	 -115.938 	 
C 	 21.4183 	 -5.50658 	 -115.378 	 
C 	 22.1821 	 -4.97391 	 -116.372 	 
C 	 21.4815 	 -4.81323 	 -117.582 	 
C 	 20.176 	 -5.18345 	 -117.533 	 
H 	 21.8407 	 -4.32714 	 -118.51 	 
C 	 23.6553 	 -4.60275 	 -116.142 	 
H 	 23.8925 	 -4.35203 	 -115.063 	 
H 	 23.796 	 -3.63798 	 -116.71 	 
C 	 24.6039 	 -5.75691 	 -116.691 	 
H 	 24.4505 	 -5.88905 	 -117.739 	 
H 	 25.603 	 -5.48771 	 -116.712 	 
C 	 24.4372 	 -7.07205 	 -115.85 	 
H 	 23.5335 	 -7.6112 	 -116.102 	 
H 	 25.243 	 -7.6828 	 -116.05 	 
H 	 24.45 	 -6.89425 	 -114.772 	 
S 	 19.5539 	 -5.81729 	 -120.129 	 
C 	 17.9928 	 -5.41421 	 -120.76 	 
C 	 17.3758 	 -4.52003 	 -119.912 	 
C 	 18.0075 	 -4.26593 	 -118.641 	 
C 	 19.1785 	 -5.10298 	 -118.572 	 
H 	 16.4981 	 -3.96551 	 -120.14 	 
C 	 17.5264 	 -3.31393 	 -117.486 	 
H 	 18.3875 	 -2.68717 	 -117.367 	 
H 	 17.4817 	 -3.88178 	 -116.568 	 
C 	 16.3211 	 -2.35167 	 -117.628 	 
H 	 15.4167 	 -2.90287 	 -117.819 	 
H 	 16.4752 	 -1.65467 	 -118.509 	 
C 	 16.0748 	 -1.41669 	 -116.434 	 
H 	 16.9498 	 -0.862078 	 -116.073 	 
H 	 15.7683 	 -1.91392 	 -115.516 	 
H 	 15.2981 	 -0.679409 	 -116.651 	 
H 	 21.9055 	 -5.83325 	 -114.41 	 
H 	 17.6525 	 -5.74892 	 -121.678 	 
*
