! wB97X-D3 SP def2-SVP
%pal
nprocs 24
end

* xyz 0 1
S 	 -137.656 	 23.4919 	 -20.3809 	 
C 	 -138.781 	 22.1488 	 -20.6424 	 
C 	 -138.152 	 20.9884 	 -20.3791 	 
C 	 -136.771 	 21.124 	 -20.0665 	 
C 	 -136.242 	 22.3724 	 -20.2546 	 
H 	 -136.039 	 20.4104 	 -19.8577 	 
C 	 -138.878 	 19.673 	 -20.4093 	 
H 	 -138.193 	 18.9483 	 -20.9052 	 
H 	 -139.554 	 19.6717 	 -21.2672 	 
C 	 -139.462 	 19.1794 	 -19.0525 	 
H 	 -139.797 	 18.1921 	 -19.2946 	 
H 	 -138.704 	 18.9528 	 -18.3604 	 
C 	 -140.557 	 19.9875 	 -18.2881 	 
H 	 -140.066 	 20.8694 	 -17.8684 	 
H 	 -141.423 	 20.168 	 -18.9944 	 
H 	 -140.97 	 19.358 	 -17.4956 	 
S 	 -134.256 	 22.629 	 -18.3476 	 
C 	 -132.687 	 22.8225 	 -18.9498 	 
C 	 -132.652 	 23.3363 	 -20.2226 	 
C 	 -133.939 	 23.3736 	 -20.7909 	 
C 	 -134.907 	 22.8283 	 -19.9868 	 
H 	 -131.679 	 23.2976 	 -20.7416 	 
C 	 -134.171 	 23.7838 	 -22.2686 	 
H 	 -133.748 	 24.6744 	 -22.5259 	 
H 	 -135.189 	 24.1675 	 -22.4287 	 
C 	 -133.806 	 22.705 	 -23.28 	 
H 	 -134.608 	 21.9274 	 -23.3864 	 
H 	 -132.879 	 22.2269 	 -23.0181 	 
C 	 -133.639 	 23.1767 	 -24.7027 	 
H 	 -132.78 	 23.8493 	 -24.7774 	 
H 	 -134.55 	 23.6352 	 -25.1193 	 
H 	 -133.448 	 22.3481 	 -25.4264 	 
H 	 -139.837 	 22.1744 	 -20.787 	 
H 	 -131.774 	 22.53 	 -18.4996 	 
*
