! wB97X-D3 SP def2-SVP
%pal
nprocs 24
end

* xyz 0 1
S 	 -120.591 	 50.3647 	 -31.5422 	 
C 	 -120.989 	 50.2073 	 -33.2422 	 
C 	 -121.136 	 51.4353 	 -33.8471 	 
C 	 -120.725 	 52.4789 	 -32.9539 	 
C 	 -120.449 	 52.1041 	 -31.6835 	 
H 	 -120.59 	 53.5164 	 -33.272 	 
C 	 -121.398 	 51.702 	 -35.2975 	 
H 	 -121.1 	 50.7234 	 -35.7761 	 
H 	 -120.686 	 52.4137 	 -35.7185 	 
C 	 -122.814 	 51.9443 	 -35.7209 	 
H 	 -123.094 	 52.9312 	 -35.5201 	 
H 	 -122.792 	 51.7732 	 -36.7725 	 
C 	 -123.724 	 50.9597 	 -35.0753 	 
H 	 -124.74 	 51.2621 	 -35.3339 	 
H 	 -123.55 	 49.9117 	 -35.351 	 
H 	 -123.677 	 51.1258 	 -33.9756 	 
S 	 -118.437 	 53.1071 	 -30.0608 	 
C 	 -118.854 	 53.9416 	 -28.5979 	 
C 	 -120.174 	 54.2564 	 -28.6134 	 
C 	 -120.914 	 53.6938 	 -29.735 	 
C 	 -120.082 	 52.8876 	 -30.5092 	 
H 	 -120.656 	 54.833 	 -27.8572 	 
C 	 -122.404 	 53.9277 	 -29.8561 	 
H 	 -122.883 	 54.1166 	 -28.8452 	 
H 	 -122.851 	 53.0253 	 -30.2158 	 
C 	 -122.929 	 55.0439 	 -30.7564 	 
H 	 -123.985 	 54.78 	 -31.0117 	 
H 	 -122.356 	 55.1521 	 -31.7607 	 
C 	 -123.02 	 56.3788 	 -29.9822 	 
H 	 -123.537 	 57.0632 	 -30.6476 	 
H 	 -121.989 	 56.8056 	 -29.7601 	 
H 	 -123.521 	 56.1603 	 -29.009 	 
H 	 -121.079 	 49.2511 	 -33.8323 	 
H 	 -118.193 	 54.076 	 -27.7337 	 
*
