! wB97X-D3 SP def2-SVP
%pal
nprocs 24
end

* xyz 0 1
S 	 -41.2533 	 -50.9641 	 -68.1732 	 
C 	 -39.5736 	 -51.2665 	 -68.1137 	 
C 	 -39.0443 	 -51.5107 	 -69.4053 	 
C 	 -40.0404 	 -51.6079 	 -70.3831 	 
C 	 -41.3248 	 -51.4571 	 -69.9338 	 
H 	 -39.9349 	 -51.9078 	 -71.4635 	 
C 	 -37.6632 	 -51.8903 	 -69.7238 	 
H 	 -37.2836 	 -51.8383 	 -70.7263 	 
H 	 -37.597 	 -52.9061 	 -69.4507 	 
C 	 -36.6116 	 -51.1223 	 -69.0389 	 
H 	 -36.4028 	 -50.1947 	 -69.6594 	 
H 	 -36.915 	 -50.6893 	 -68.0527 	 
C 	 -35.2745 	 -51.9052 	 -68.8288 	 
H 	 -34.8117 	 -52.4293 	 -69.6802 	 
H 	 -34.5832 	 -51.0994 	 -68.4905 	 
H 	 -35.3343 	 -52.6659 	 -68.0273 	 
S 	 -43.6197 	 -50.0309 	 -70.7721 	 
C 	 -44.7164 	 -50.7583 	 -71.8861 	 
C 	 -44.268 	 -52.0006 	 -72.2395 	 
C 	 -43.0926 	 -52.477 	 -71.6022 	 
C 	 -42.6171 	 -51.4983 	 -70.7088 	 
H 	 -44.8134 	 -52.6126 	 -72.8329 	 
C 	 -42.4109 	 -53.6976 	 -71.96 	 
H 	 -41.4479 	 -53.4522 	 -72.2972 	 
H 	 -42.8877 	 -54.0763 	 -72.8525 	 
C 	 -42.4941 	 -54.8878 	 -70.9925 	 
H 	 -42.1149 	 -55.6975 	 -71.6042 	 
H 	 -43.5624 	 -54.9184 	 -70.7118 	 
C 	 -41.5489 	 -54.9039 	 -69.7246 	 
H 	 -41.6361 	 -55.7119 	 -69.0129 	 
H 	 -41.6339 	 -54.0732 	 -68.9582 	 
H 	 -40.5307 	 -54.6817 	 -69.9715 	 
H 	 -38.9109 	 -51.3001 	 -67.3151 	 
H 	 -45.5636 	 -50.3454 	 -72.3327 	 
*
