! wB97X-D3 SP def2-SVP
%pal
nprocs 24
end

* xyz 0 1
S 	 -57.7786 	 5.87051 	 -16.2968 	 
C 	 -57.4693 	 4.47881 	 -17.2909 	 
C 	 -58.6896 	 3.78604 	 -17.4182 	 
C 	 -59.8177 	 4.63263 	 -17.1031 	 
C 	 -59.4974 	 5.93261 	 -16.7293 	 
H 	 -60.857 	 4.36407 	 -17.2069 	 
C 	 -58.7459 	 2.27652 	 -17.6969 	 
H 	 -58.0848 	 1.99183 	 -18.4815 	 
H 	 -59.7336 	 2.09017 	 -18.0818 	 
C 	 -58.3242 	 1.41186 	 -16.5718 	 
H 	 -57.4533 	 1.74619 	 -16.0107 	 
H 	 -59.0891 	 1.43639 	 -15.77 	 
C 	 -58.1853 	 -0.0669723 	 -16.9645 	 
H 	 -59.0605 	 -0.519328 	 -17.3957 	 
H 	 -57.3201 	 -0.257364 	 -17.6682 	 
H 	 -57.9585 	 -0.715407 	 -16.0955 	 
S 	 -60.7067 	 7.02065 	 -14.5129 	 
C 	 -61.8219 	 8.38177 	 -14.7187 	 
C 	 -62.349 	 8.42231 	 -15.9783 	 
C 	 -61.5829 	 7.58536 	 -16.9131 	 
C 	 -60.5124 	 6.895 	 -16.3038 	 
H 	 -63.2014 	 9.03692 	 -16.2453 	 
C 	 -61.8948 	 7.56083 	 -18.4178 	 
H 	 -61.1289 	 7.02074 	 -18.9584 	 
H 	 -61.8076 	 8.5499 	 -18.8013 	 
C 	 -63.1785 	 6.8459 	 -18.8381 	 
H 	 -63.491 	 7.14707 	 -19.8539 	 
H 	 -63.995 	 7.22119 	 -18.2453 	 
C 	 -63.1845 	 5.35816 	 -19.028 	 
H 	 -62.5882 	 5.01435 	 -19.9124 	 
H 	 -64.2139 	 4.97216 	 -19.2864 	 
H 	 -62.8006 	 4.7719 	 -18.1885 	 
H 	 -56.5712 	 3.89207 	 -17.4164 	 
H 	 -62.4986 	 8.75436 	 -13.9248 	 
*
