! wB97X-D3 SP def2-SVP
%pal
nprocs 24
end

* xyz 0 1
S 	 20.3292 	 -6.54058 	 -115.65 	 
C 	 21.4886 	 -6.18016 	 -114.473 	 
C 	 22.6475 	 -5.80048 	 -115.082 	 
C 	 22.6037 	 -5.90148 	 -116.541 	 
C 	 21.3547 	 -6.22024 	 -116.949 	 
H 	 23.3772 	 -5.92411 	 -117.252 	 
C 	 23.85 	 -5.44691 	 -114.273 	 
H 	 24.72 	 -5.5315 	 -114.99 	 
H 	 24.036 	 -6.20445 	 -113.493 	 
C 	 23.7761 	 -4.01302 	 -113.668 	 
H 	 23.6707 	 -3.28608 	 -114.567 	 
H 	 22.8748 	 -3.88631 	 -113.181 	 
C 	 25.0514 	 -3.77121 	 -112.853 	 
H 	 25.0565 	 -2.67361 	 -112.625 	 
H 	 25.0014 	 -4.43423 	 -111.976 	 
H 	 25.9949 	 -3.9544 	 -113.483 	 
S 	 20.1035 	 -7.88928 	 -118.622 	 
C 	 19.861 	 -7.43686 	 -120.358 	 
C 	 20.6757 	 -6.35069 	 -120.668 	 
C 	 21.2941 	 -5.74239 	 -119.506 	 
C 	 20.9114 	 -6.33208 	 -118.315 	 
H 	 20.756 	 -5.98515 	 -121.739 	 
C 	 22.1699 	 -4.47123 	 -119.68 	 
H 	 23.1342 	 -4.7316 	 -120.223 	 
H 	 22.4421 	 -4.12965 	 -118.732 	 
C 	 21.4474 	 -3.30631 	 -120.395 	 
H 	 20.4976 	 -3.17498 	 -119.848 	 
H 	 21.1586 	 -3.54309 	 -121.386 	 
C 	 22.2481 	 -2.03661 	 -120.559 	 
H 	 23.1983 	 -2.20855 	 -120.997 	 
H 	 22.4296 	 -1.43203 	 -119.642 	 
H 	 21.7988 	 -1.24871 	 -121.214 	 
H 	 21.3643 	 -6.39762 	 -113.423 	 
H 	 19.3922 	 -8.05737 	 -121.153 	 
*
