! wB97X-D3 SP def2-SVP
%pal
nprocs 24
end

* xyz 0 1
S 	 -65.3308 	 13.9511 	 -106.521 	 
C 	 -66.1224 	 15.592 	 -106.394 	 
C 	 -65.3978 	 16.4561 	 -105.597 	 
C 	 -64.2534 	 15.8577 	 -105.044 	 
C 	 -64.0947 	 14.5525 	 -105.421 	 
H 	 -63.5101 	 16.2846 	 -104.41 	 
C 	 -65.7396 	 17.9147 	 -105.38 	 
H 	 -65.4447 	 18.1886 	 -104.308 	 
H 	 -66.8181 	 18.1021 	 -105.35 	 
C 	 -65.2198 	 18.7767 	 -106.508 	 
H 	 -64.1082 	 18.6389 	 -106.671 	 
H 	 -65.6463 	 18.356 	 -107.448 	 
C 	 -65.5041 	 20.2403 	 -106.298 	 
H 	 -66.5959 	 20.4531 	 -106.301 	 
H 	 -65.1678 	 20.5336 	 -105.327 	 
H 	 -64.9612 	 20.883 	 -106.978 	 
S 	 -63.468 	 12.2499 	 -103.862 	 
C 	 -61.8195 	 11.668 	 -103.912 	 
C 	 -60.9739 	 12.6448 	 -104.497 	 
C 	 -61.719 	 13.8078 	 -104.962 	 
C 	 -63.1003 	 13.6953 	 -104.85 	 
H 	 -59.9264 	 12.462 	 -104.612 	 
C 	 -60.9899 	 14.8776 	 -105.768 	 
H 	 -61.6825 	 15.561 	 -106.228 	 
H 	 -60.4891 	 14.4561 	 -106.633 	 
C 	 -60.0608 	 15.7599 	 -104.957 	 
H 	 -59.1763 	 15.0286 	 -104.726 	 
H 	 -60.5301 	 16.0602 	 -104.03 	 
C 	 -59.4961 	 17.0253 	 -105.627 	 
H 	 -58.701 	 16.836 	 -106.346 	 
H 	 -59.1055 	 17.7195 	 -104.893 	 
H 	 -60.3799 	 17.5121 	 -106.086 	 
H 	 -66.9502 	 15.892 	 -107.08 	 
H 	 -61.5175 	 10.7557 	 -103.499 	 
*
