! wB97X-D3 SP def2-SVP
%pal
nprocs 24
end

* xyz 0 1
S 	 -102.988 	 0.851004 	 -104.681 	 
C 	 -103.761 	 0.448549 	 -103.158 	 
C 	 -103.164 	 -0.67295 	 -102.55 	 
C 	 -101.911 	 -0.988092 	 -103.214 	 
C 	 -101.687 	 -0.242531 	 -104.339 	 
H 	 -101.259 	 -1.83448 	 -102.906 	 
C 	 -103.625 	 -1.24588 	 -101.297 	 
H 	 -104.612 	 -0.950372 	 -101.064 	 
H 	 -103.166 	 -0.672069 	 -100.504 	 
C 	 -103.461 	 -2.72612 	 -101.175 	 
H 	 -104.163 	 -3.16328 	 -101.927 	 
H 	 -102.468 	 -3.18281 	 -101.476 	 
C 	 -103.916 	 -3.28017 	 -99.756 	 
H 	 -103.1 	 -3.1805 	 -99.0129 	 
H 	 -104.786 	 -2.72894 	 -99.377 	 
H 	 -104.215 	 -4.37694 	 -99.9004 	 
S 	 -100.604 	 -1.52474 	 -106.475 	 
C 	 -98.8752 	 -1.36957 	 -106.876 	 
C 	 -98.3623 	 -0.314668 	 -106.082 	 
C 	 -99.2765 	 0.270544 	 -105.171 	 
C 	 -100.525 	 -0.374843 	 -105.178 	 
H 	 -97.3334 	 -0.0198073 	 -106.255 	 
C 	 -98.983 	 1.28684 	 -104.093 	 
H 	 -99.153 	 0.853965 	 -103.169 	 
H 	 -99.7006 	 2.139 	 -104.143 	 
C 	 -97.5149 	 1.82195 	 -104.097 	 
H 	 -97.3919 	 2.31655 	 -105.125 	 
H 	 -96.8485 	 0.996477 	 -104.115 	 
C 	 -97.0935 	 2.69993 	 -102.887 	 
H 	 -97.818 	 3.48464 	 -102.725 	 
H 	 -96.1195 	 3.06107 	 -102.737 	 
H 	 -97.2104 	 2.05966 	 -101.985 	 
H 	 -104.614 	 0.986115 	 -102.667 	 
H 	 -98.3244 	 -1.84701 	 -107.681 	 
*
