! wB97X-D3 SP def2-SVP
%pal
nprocs 24
end

* xyz 0 1
S 	 29.1819 	 -30.2778 	 -130.366 	 
C 	 28.8944 	 -28.5529 	 -130.931 	 
C 	 30.1359 	 -27.8596 	 -131.02 	 
C 	 31.2803 	 -28.7931 	 -130.93 	 
C 	 30.91 	 -30.0422 	 -130.535 	 
H 	 32.3106 	 -28.5078 	 -130.994 	 
C 	 30.3228 	 -26.4388 	 -131.488 	 
H 	 29.7026 	 -26.1942 	 -132.298 	 
H 	 31.3474 	 -26.4057 	 -131.989 	 
C 	 29.907 	 -25.4236 	 -130.516 	 
H 	 28.9233 	 -25.5614 	 -130.044 	 
H 	 30.6364 	 -25.5436 	 -129.671 	 
C 	 29.9852 	 -23.9264 	 -130.969 	 
H 	 30.9434 	 -23.7513 	 -131.497 	 
H 	 29.2234 	 -23.7185 	 -131.69 	 
H 	 29.8504 	 -23.262 	 -130.102 	 
S 	 32.4989 	 -31.8977 	 -131.831 	 
C 	 33.3659 	 -33.064 	 -130.824 	 
C 	 33.232 	 -32.7658 	 -129.501 	 
C 	 32.2161 	 -31.8186 	 -129.218 	 
C 	 31.8168 	 -31.1598 	 -130.407 	 
H 	 33.6239 	 -33.3814 	 -128.728 	 
C 	 31.7046 	 -31.5157 	 -127.771 	 
H 	 31.8129 	 -32.4249 	 -127.177 	 
H 	 30.5863 	 -31.3444 	 -127.929 	 
C 	 32.5005 	 -30.51 	 -127.058 	 
H 	 32.2409 	 -29.5461 	 -127.572 	 
H 	 33.58 	 -30.623 	 -127.24 	 
C 	 32.2252 	 -30.5034 	 -125.543 	 
H 	 32.6285 	 -29.6231 	 -125.12 	 
H 	 32.6575 	 -31.3689 	 -125.148 	 
H 	 31.1281 	 -30.5276 	 -125.347 	 
H 	 27.9389 	 -28.0897 	 -131.11 	 
H 	 33.9122 	 -33.899 	 -131.175 	 
*
