! wB97X-D3 SP def2-SVP
%pal
nprocs 24
end

* xyz 0 1
S 	 -139.102 	 9.33252 	 4.28235 	 
C 	 -138.718 	 9.87146 	 2.64044 	 
C 	 -139.79 	 9.64945 	 1.81257 	 
C 	 -140.871 	 8.9531 	 2.41887 	 
C 	 -140.674 	 8.70405 	 3.76788 	 
H 	 -141.701 	 8.78276 	 1.82247 	 
C 	 -139.835 	 10.1934 	 0.394439 	 
H 	 -139.356 	 11.1901 	 0.422943 	 
H 	 -140.844 	 10.4579 	 0.134484 	 
C 	 -139.451 	 9.24437 	 -0.70273 	 
H 	 -138.521 	 8.78494 	 -0.498016 	 
H 	 -140.253 	 8.53569 	 -0.778129 	 
C 	 -139.466 	 10.0083 	 -2.12199 	 
H 	 -140.438 	 10.4899 	 -2.18686 	 
H 	 -138.772 	 10.7901 	 -2.08674 	 
H 	 -139.274 	 9.32433 	 -2.97822 	 
S 	 -141.247 	 7.70556 	 6.18877 	 
C 	 -142.777 	 7.21293 	 6.62419 	 
C 	 -143.711 	 7.84438 	 5.87941 	 
C 	 -143.141 	 8.41366 	 4.66697 	 
C 	 -141.732 	 8.34809 	 4.64713 	 
H 	 -144.747 	 7.74441 	 6.17207 	 
C 	 -144.01 	 9.01519 	 3.60992 	 
H 	 -143.639 	 9.77753 	 2.9568 	 
H 	 -144.861 	 9.51583 	 4.12544 	 
C 	 -144.604 	 7.98425 	 2.64497 	 
H 	 -145.264 	 7.2846 	 3.12994 	 
H 	 -143.761 	 7.38627 	 2.40295 	 
C 	 -145.198 	 8.4961 	 1.33335 	 
H 	 -144.428 	 9.14098 	 0.819319 	 
H 	 -146.053 	 9.13412 	 1.46141 	 
H 	 -145.492 	 7.69115 	 0.672595 	 
H 	 -137.815 	 10.4503 	 2.34128 	 
H 	 -143.032 	 6.89507 	 7.64472 	 
*
