! wB97X-D3 SP def2-SVP
%pal
nprocs 24
end

* xyz 0 1
S 	 37.7372 	 -31.3468 	 -125.566 	 
C 	 38.6297 	 -32.5102 	 -124.674 	 
C 	 37.8448 	 -33.5258 	 -124.099 	 
C 	 36.4353 	 -33.2562 	 -124.33 	 
C 	 36.2183 	 -32.1185 	 -125.139 	 
H 	 35.5734 	 -33.7998 	 -123.987 	 
C 	 38.3507 	 -34.828 	 -123.433 	 
H 	 39.4117 	 -34.8587 	 -123.57 	 
H 	 37.9364 	 -35.6141 	 -124.065 	 
C 	 37.7568 	 -35.0308 	 -122.041 	 
H 	 36.7586 	 -35.4918 	 -121.986 	 
H 	 38.1714 	 -35.9872 	 -121.801 	 
C 	 38.0045 	 -33.9194 	 -121.012 	 
H 	 37.5592 	 -32.967 	 -121.31 	 
H 	 37.4943 	 -34.1498 	 -120.163 	 
H 	 39.0322 	 -33.7294 	 -120.747 	 
S 	 34.9108 	 -30.5434 	 -127.095 	 
C 	 33.2169 	 -30.2552 	 -126.895 	 
C 	 32.643 	 -30.8322 	 -125.784 	 
C 	 33.67 	 -31.4133 	 -124.988 	 
C 	 34.9126 	 -31.4978 	 -125.57 	 
H 	 31.5758 	 -30.8887 	 -125.556 	 
C 	 33.4043 	 -31.8541 	 -123.528 	 
H 	 34.3352 	 -31.5758 	 -123.074 	 
H 	 33.3799 	 -32.9963 	 -123.537 	 
C 	 32.1331 	 -31.2867 	 -122.851 	 
H 	 31.3618 	 -31.8816 	 -123.126 	 
H 	 31.9999 	 -30.2021 	 -123.145 	 
C 	 32.1152 	 -31.4434 	 -121.294 	 
H 	 32.8518 	 -30.7937 	 -120.888 	 
H 	 32.3383 	 -32.4518 	 -120.981 	 
H 	 31.1569 	 -31.2055 	 -120.787 	 
H 	 39.6814 	 -32.5269 	 -124.719 	 
H 	 32.5714 	 -29.7463 	 -127.572 	 
*
