! wB97X-D3 SP def2-SVP
%pal
nprocs 24
end

* xyz 0 1
S 	 -69.8479 	 11.3904 	 -72.8549 	 
C 	 -70.0329 	 11.2454 	 -74.589 	 
C 	 -68.8934 	 10.7748 	 -75.2381 	 
C 	 -67.8383 	 10.5001 	 -74.3209 	 
C 	 -68.1834 	 10.8256 	 -73.0118 	 
H 	 -66.7977 	 10.2306 	 -74.5543 	 
C 	 -68.6477 	 10.793 	 -76.7631 	 
H 	 -69.6195 	 10.9752 	 -77.1428 	 
H 	 -68.4622 	 9.70254 	 -77.0314 	 
C 	 -67.5544 	 11.7038 	 -77.3853 	 
H 	 -66.6616 	 11.3551 	 -76.8695 	 
H 	 -67.4287 	 11.4623 	 -78.4115 	 
C 	 -67.8774 	 13.2005 	 -77.1398 	 
H 	 -68.7752 	 13.5496 	 -77.7163 	 
H 	 -68.0347 	 13.4978 	 -76.1113 	 
H 	 -67.0255 	 13.8107 	 -77.3145 	 
S 	 -66.8266 	 12.1284 	 -71.0257 	 
C 	 -65.5053 	 11.32 	 -70.1192 	 
C 	 -65.3333 	 10.0579 	 -70.5934 	 
C 	 -66.4454 	 9.63115 	 -71.4809 	 
C 	 -67.2848 	 10.6778 	 -71.8422 	 
H 	 -64.5502 	 9.43291 	 -70.1403 	 
C 	 -66.5975 	 8.21515 	 -72.0103 	 
H 	 -65.8283 	 7.75164 	 -71.4102 	 
H 	 -66.2686 	 8.14399 	 -73.0116 	 
C 	 -67.9995 	 7.70094 	 -71.8789 	 
H 	 -68.1215 	 6.75745 	 -72.5313 	 
H 	 -68.6885 	 8.47045 	 -72.2688 	 
C 	 -68.3847 	 7.2426 	 -70.4221 	 
H 	 -67.6644 	 6.6541 	 -70.0313 	 
H 	 -69.3149 	 6.75201 	 -70.4209 	 
H 	 -68.4856 	 8.17764 	 -69.8153 	 
H 	 -70.7808 	 11.6872 	 -75.2127 	 
H 	 -64.8314 	 11.7452 	 -69.3666 	 
*
