! wB97X-D3 SP def2-SVP
%pal
nprocs 24
end

* xyz 0 1
S 	 -41.2735 	 -49.4199 	 -69.8055 	 
C 	 -39.8023 	 -48.8559 	 -69.2457 	 
C 	 -38.6974 	 -49.4731 	 -69.8457 	 
C 	 -39.1213 	 -50.4536 	 -70.7546 	 
C 	 -40.4619 	 -50.684 	 -70.7319 	 
H 	 -38.5406 	 -51.1022 	 -71.3922 	 
C 	 -37.2578 	 -49.2243 	 -69.4413 	 
H 	 -37.2197 	 -49.0568 	 -68.3789 	 
H 	 -37.112 	 -48.2858 	 -69.9872 	 
C 	 -36.1524 	 -50.286 	 -69.7598 	 
H 	 -36.5049 	 -51.105 	 -69.1978 	 
H 	 -36.1439 	 -50.587 	 -70.8132 	 
C 	 -34.6238 	 -50.0062 	 -69.3769 	 
H 	 -34.1622 	 -49.2812 	 -70.0336 	 
H 	 -34.5212 	 -49.6354 	 -68.3883 	 
H 	 -34.0615 	 -50.9476 	 -69.3808 	 
S 	 -41.8956 	 -50.8942 	 -72.9966 	 
C 	 -42.5933 	 -52.4992 	 -73.4595 	 
C 	 -42.2376 	 -53.5229 	 -72.6374 	 
C 	 -41.4821 	 -53.0161 	 -71.493 	 
C 	 -41.2642 	 -51.619 	 -71.4956 	 
H 	 -42.4863 	 -54.5846 	 -72.8861 	 
C 	 -40.8932 	 -53.8983 	 -70.4675 	 
H 	 -39.7776 	 -53.7581 	 -70.5536 	 
H 	 -41.0346 	 -54.9423 	 -70.8378 	 
C 	 -41.4292 	 -53.8114 	 -69.0238 	 
H 	 -42.4922 	 -53.7736 	 -69.0657 	 
H 	 -41.0725 	 -52.8304 	 -68.6223 	 
C 	 -41.0404 	 -54.9794 	 -68.1887 	 
H 	 -40.9655 	 -54.8633 	 -67.1418 	 
H 	 -40.1052 	 -55.3765 	 -68.5025 	 
H 	 -41.8419 	 -55.7395 	 -68.2993 	 
H 	 -39.6123 	 -48.0294 	 -68.5901 	 
H 	 -43.0967 	 -52.6444 	 -74.3275 	 
*
