! wB97X-D3 SP def2-SVP
%pal
nprocs 24
end

* xyz 0 1
S 	 -87.8882 	 -38.5273 	 -63.8747 	 
C 	 -88.2928 	 -40.1494 	 -64.5701 	 
C 	 -88.5347 	 -41.0704 	 -63.5387 	 
C 	 -88.5553 	 -40.4521 	 -62.2182 	 
C 	 -88.4589 	 -39.0668 	 -62.2824 	 
H 	 -88.5914 	 -40.8965 	 -61.216 	 
C 	 -88.5765 	 -42.5256 	 -63.6335 	 
H 	 -87.7469 	 -42.9193 	 -63.0602 	 
H 	 -88.3429 	 -42.7448 	 -64.7348 	 
C 	 -89.9379 	 -43.2221 	 -63.3275 	 
H 	 -90.464 	 -42.7499 	 -62.482 	 
H 	 -90.5167 	 -42.9543 	 -64.2255 	 
C 	 -89.7894 	 -44.7857 	 -63.1744 	 
H 	 -89.1097 	 -45.0754 	 -62.31 	 
H 	 -90.7439 	 -45.2726 	 -63.0986 	 
H 	 -89.4291 	 -45.1039 	 -64.1167 	 
S 	 -86.9905 	 -37.2249 	 -61.0211 	 
C 	 -87.4282 	 -36.6691 	 -59.4651 	 
C 	 -88.5964 	 -37.2224 	 -58.9308 	 
C 	 -89.103 	 -38.1492 	 -59.9045 	 
C 	 -88.3544 	 -38.2388 	 -61.097 	 
H 	 -88.9779 	 -36.8736 	 -57.9362 	 
C 	 -90.4791 	 -38.8244 	 -59.6293 	 
H 	 -90.7425 	 -39.4375 	 -60.498 	 
H 	 -91.2224 	 -38.06 	 -59.5392 	 
C 	 -90.5372 	 -39.6718 	 -58.3726 	 
H 	 -91.5617 	 -40.0437 	 -58.1343 	 
H 	 -90.2337 	 -39.1786 	 -57.4447 	 
C 	 -89.6536 	 -40.9372 	 -58.4526 	 
H 	 -89.5124 	 -41.4811 	 -57.4514 	 
H 	 -88.6147 	 -40.8614 	 -58.7464 	 
H 	 -90.1505 	 -41.6986 	 -59.1458 	 
H 	 -88.2475 	 -40.4262 	 -65.5892 	 
H 	 -86.9107 	 -35.927 	 -58.818 	 
*
