! wB97X-D3 SP def2-SVP
%pal
nprocs 24
end

* xyz 0 1
S 	 -105.621 	 50.2745 	 -98.135 	 
C 	 -105.252 	 49.8269 	 -96.4734 	 
C 	 -106.123 	 48.9019 	 -96.0006 	 
C 	 -107.072 	 48.4814 	 -97.0153 	 
C 	 -106.829 	 49.0589 	 -98.2761 	 
H 	 -107.842 	 47.7066 	 -96.9635 	 
C 	 -106.207 	 48.3615 	 -94.5347 	 
H 	 -107.204 	 48.5894 	 -94.2747 	 
H 	 -105.572 	 48.9931 	 -93.996 	 
C 	 -105.714 	 46.9444 	 -94.3652 	 
H 	 -105.882 	 46.7406 	 -93.2615 	 
H 	 -106.464 	 46.2923 	 -94.7297 	 
C 	 -104.265 	 46.6289 	 -94.945 	 
H 	 -103.729 	 45.9149 	 -94.3209 	 
H 	 -104.249 	 46.2667 	 -96.0121 	 
H 	 -103.652 	 47.5248 	 -94.9099 	 
S 	 -108.121 	 47.363 	 -99.8587 	 
C 	 -108.748 	 47.9295 	 -101.438 	 
C 	 -108.724 	 49.3128 	 -101.562 	 
C 	 -108.03 	 49.9174 	 -100.411 	 
C 	 -107.621 	 48.9784 	 -99.4826 	 
H 	 -109.036 	 49.8502 	 -102.44 	 
C 	 -107.769 	 51.4478 	 -100.289 	 
H 	 -106.718 	 51.6534 	 -100.657 	 
H 	 -107.689 	 51.5696 	 -99.2081 	 
C 	 -108.771 	 52.4565 	 -100.895 	 
H 	 -109.724 	 52.0561 	 -100.578 	 
H 	 -108.778 	 52.1491 	 -101.958 	 
C 	 -108.589 	 53.9158 	 -100.419 	 
H 	 -108.68 	 53.796 	 -99.3623 	 
H 	 -109.396 	 54.6084 	 -100.687 	 
H 	 -107.552 	 54.3167 	 -100.582 	 
H 	 -104.704 	 50.4465 	 -95.7874 	 
H 	 -109.162 	 47.1654 	 -102.063 	 
*
