! wB97X-D3 SP def2-SVP
%pal
nprocs 24
end

* xyz 0 1
S 	 -70.4735 	 6.66988 	 -111.603 	 
C 	 -71.3688 	 6.83267 	 -110.151 	 
C 	 -71.9443 	 8.09221 	 -109.998 	 
C 	 -71.4592 	 8.96004 	 -111.004 	 
C 	 -70.6797 	 8.32689 	 -111.983 	 
H 	 -71.7107 	 9.98791 	 -111.219 	 
C 	 -73.0606 	 8.48576 	 -109.09 	 
H 	 -73.5855 	 7.61099 	 -108.698 	 
H 	 -73.7582 	 9.0225 	 -109.733 	 
C 	 -72.5686 	 9.48283 	 -108.039 	 
H 	 -71.5941 	 9.26868 	 -107.566 	 
H 	 -72.3143 	 10.3341 	 -108.625 	 
C 	 -73.6073 	 10.0266 	 -107.136 	 
H 	 -73.0948 	 10.6773 	 -106.475 	 
H 	 -74.4329 	 10.5168 	 -107.646 	 
H 	 -74.1006 	 9.21391 	 -106.606 	 
S 	 -70.7401 	 8.53236 	 -114.779 	 
C 	 -69.649 	 9.67438 	 -115.516 	 
C 	 -68.878 	 10.4066 	 -114.597 	 
C 	 -69.1329 	 10.0185 	 -113.219 	 
C 	 -70.0621 	 8.94334 	 -113.133 	 
H 	 -68.1883 	 11.1203 	 -114.933 	 
C 	 -68.1979 	 10.5039 	 -112.164 	 
H 	 -68.7874 	 10.6838 	 -111.273 	 
H 	 -67.8389 	 11.5639 	 -112.408 	 
C 	 -67.0967 	 9.59313 	 -111.588 	 
H 	 -67.355 	 8.5885 	 -111.657 	 
H 	 -66.9926 	 9.78156 	 -110.568 	 
C 	 -65.6478 	 9.76652 	 -112.228 	 
H 	 -65.3643 	 10.721 	 -111.862 	 
H 	 -65.6505 	 9.72918 	 -113.345 	 
H 	 -64.9945 	 8.99214 	 -111.85 	 
H 	 -71.7228 	 6.0379 	 -109.515 	 
H 	 -69.6244 	 9.83859 	 -116.561 	 
*
