! wB97X-D3 SP def2-SVP
%pal
nprocs 24
end

* xyz 0 1
S 	 18.7688 	 -6.46864 	 -113.186 	 
C 	 18.332 	 -7.66896 	 -112.098 	 
C 	 17.0014 	 -8.08843 	 -112.236 	 
C 	 16.3724 	 -7.36032 	 -113.331 	 
C 	 17.1414 	 -6.25867 	 -113.822 	 
H 	 15.4298 	 -7.4703 	 -113.854 	 
C 	 16.2779 	 -9.18951 	 -111.463 	 
H 	 15.3443 	 -8.7808 	 -111.13 	 
H 	 16.9028 	 -9.26155 	 -110.623 	 
C 	 16.186 	 -10.5791 	 -112.091 	 
H 	 17.1484 	 -10.8846 	 -112.478 	 
H 	 15.957 	 -11.2231 	 -111.248 	 
C 	 15.2388 	 -10.8055 	 -113.283 	 
H 	 15.0424 	 -11.891 	 -113.592 	 
H 	 14.2119 	 -10.3748 	 -113.163 	 
H 	 15.6412 	 -10.4269 	 -114.223 	 
S 	 17.9904 	 -4.83382 	 -116.16 	 
C 	 16.8716 	 -3.71049 	 -117.008 	 
C 	 15.7137 	 -3.56335 	 -116.283 	 
C 	 15.6937 	 -4.47644 	 -115.157 	 
C 	 16.8481 	 -5.28646 	 -114.943 	 
H 	 15.0057 	 -2.73187 	 -116.597 	 
C 	 14.572 	 -4.41713 	 -114.063 	 
H 	 14.7172 	 -3.58131 	 -113.455 	 
H 	 14.7325 	 -5.16086 	 -113.324 	 
C 	 13.0982 	 -4.47265 	 -114.403 	 
H 	 12.7758 	 -3.6011 	 -115.024 	 
H 	 12.4855 	 -4.30873 	 -113.482 	 
C 	 12.6372 	 -5.85562 	 -114.918 	 
H 	 13.2069 	 -6.07989 	 -115.766 	 
H 	 11.6082 	 -5.90452 	 -115.23 	 
H 	 12.7873 	 -6.62118 	 -114.098 	 
H 	 18.947 	 -7.97099 	 -111.288 	 
H 	 17.1346 	 -3.05434 	 -117.812 	 
*
