! wB97X-D3 SP def2-SVP
%pal
nprocs 24
end

* xyz 0 1
S 	 -137.246 	 64.6609 	 -58.643 	 
C 	 -135.64 	 64.5774 	 -59.2959 	 
C 	 -134.741 	 64.9738 	 -58.3216 	 
C 	 -135.33 	 65.4228 	 -57.1136 	 
C 	 -136.639 	 65.243 	 -57.1086 	 
H 	 -134.779 	 65.6529 	 -56.2355 	 
C 	 -133.188 	 64.7794 	 -58.385 	 
H 	 -132.744 	 65.3318 	 -57.5504 	 
H 	 -132.862 	 65.3 	 -59.3132 	 
C 	 -132.619 	 63.3418 	 -58.302 	 
H 	 -132.958 	 62.8455 	 -59.2425 	 
H 	 -131.543 	 63.3673 	 -58.3196 	 
C 	 -133.197 	 62.5242 	 -57.1721 	 
H 	 -132.894 	 63.0592 	 -56.3249 	 
H 	 -134.321 	 62.3697 	 -57.2566 	 
H 	 -132.688 	 61.5309 	 -57.179 	 
S 	 -138.971 	 64.4165 	 -56.0275 	 
C 	 -139.521 	 65.1339 	 -54.5539 	 
C 	 -138.706 	 66.1392 	 -54.1447 	 
C 	 -137.578 	 66.3105 	 -54.9773 	 
C 	 -137.647 	 65.5146 	 -56.0864 	 
H 	 -138.853 	 66.5268 	 -53.1826 	 
C 	 -136.41 	 67.303 	 -54.6857 	 
H 	 -136.318 	 67.9435 	 -55.5959 	 
H 	 -135.513 	 66.716 	 -54.5425 	 
C 	 -136.68 	 68.3325 	 -53.6553 	 
H 	 -137.05 	 67.7892 	 -52.8399 	 
H 	 -137.497 	 69.0095 	 -54.1123 	 
C 	 -135.398 	 69.0768 	 -53.0531 	 
H 	 -134.69 	 68.2624 	 -52.6479 	 
H 	 -135.608 	 69.9227 	 -52.3155 	 
H 	 -134.809 	 69.6469 	 -53.7969 	 
H 	 -135.211 	 64.1297 	 -60.1143 	 
H 	 -140.326 	 64.6971 	 -53.9751 	 
*
