! wB97X-D3 SP def2-SVP
%pal
nprocs 24
end

* xyz 0 1
S 	 34.5728 	 -36.3606 	 -129.428 	 
C 	 34.5549 	 -34.9808 	 -128.409 	 
C 	 34.1918 	 -33.8764 	 -129.069 	 
C 	 34.1972 	 -34.0624 	 -130.456 	 
C 	 34.5221 	 -35.3255 	 -130.849 	 
H 	 33.9676 	 -33.2881 	 -131.149 	 
C 	 34.1268 	 -32.4315 	 -128.462 	 
H 	 33.54 	 -32.4542 	 -127.518 	 
H 	 33.5212 	 -31.7052 	 -129.041 	 
C 	 35.5561 	 -31.8153 	 -128.131 	 
H 	 35.3601 	 -30.9177 	 -127.649 	 
H 	 36.0281 	 -32.5077 	 -127.445 	 
C 	 36.5642 	 -31.5489 	 -129.257 	 
H 	 36.8459 	 -32.4384 	 -129.871 	 
H 	 36.2206 	 -30.7322 	 -129.969 	 
H 	 37.5164 	 -31.1424 	 -128.829 	 
S 	 33.8802 	 -37.3132 	 -132.645 	 
C 	 34.6856 	 -37.4384 	 -134.175 	 
C 	 35.3167 	 -36.2603 	 -134.405 	 
C 	 35.415 	 -35.3625 	 -133.25 	 
C 	 34.6924 	 -35.85 	 -132.152 	 
H 	 35.7564 	 -36.0723 	 -135.387 	 
C 	 36.2772 	 -34.159 	 -133.285 	 
H 	 37.3363 	 -34.478 	 -133.402 	 
H 	 36.2542 	 -33.6864 	 -132.262 	 
C 	 35.8027 	 -33.1294 	 -134.324 	 
H 	 34.7242 	 -33.1133 	 -134.041 	 
H 	 35.8953 	 -33.3524 	 -135.422 	 
C 	 36.5592 	 -31.7171 	 -134.313 	 
H 	 36.5699 	 -31.1559 	 -133.385 	 
H 	 36.1171 	 -31.0006 	 -135.058 	 
H 	 37.5528 	 -31.7234 	 -134.64 	 
H 	 34.4277 	 -35.1308 	 -127.382 	 
H 	 34.4278 	 -38.2626 	 -134.786 	 
*
