! wB97X-D3 SP def2-SVP
%pal
nprocs 24
end

* xyz 0 1
S 	 -59.5819 	 -58.1742 	 -79.0641 	 
C 	 -60.6245 	 -58.8346 	 -77.8386 	 
C 	 -61.0197 	 -57.8051 	 -76.983 	 
C 	 -60.4401 	 -56.5229 	 -77.2998 	 
C 	 -59.5084 	 -56.5146 	 -78.2988 	 
H 	 -60.6432 	 -55.653 	 -76.7886 	 
C 	 -61.7383 	 -58.0956 	 -75.701 	 
H 	 -61.8898 	 -59.1892 	 -75.6591 	 
H 	 -62.6721 	 -57.6303 	 -75.7672 	 
C 	 -61.1869 	 -57.6026 	 -74.3778 	 
H 	 -60.1209 	 -57.7389 	 -74.2266 	 
H 	 -61.3262 	 -56.5505 	 -74.3686 	 
C 	 -61.9786 	 -58.2948 	 -73.363 	 
H 	 -61.8637 	 -59.3866 	 -73.4514 	 
H 	 -61.7554 	 -57.8935 	 -72.3733 	 
H 	 -63.0718 	 -58.1605 	 -73.5743 	 
S 	 -57.5579 	 -55.8371 	 -80.1085 	 
C 	 -57.1691 	 -54.1633 	 -80.4151 	 
C 	 -57.9006 	 -53.3432 	 -79.604 	 
C 	 -58.7969 	 -54.0514 	 -78.7395 	 
C 	 -58.7934 	 -55.4079 	 -78.9314 	 
H 	 -57.7182 	 -52.2476 	 -79.6286 	 
C 	 -59.7964 	 -53.3782 	 -77.8072 	 
H 	 -60.7344 	 -53.874 	 -77.9128 	 
H 	 -59.8967 	 -52.3434 	 -78.2209 	 
C 	 -59.5298 	 -53.3399 	 -76.3569 	 
H 	 -58.6489 	 -52.7499 	 -76.1208 	 
H 	 -59.2239 	 -54.3396 	 -75.9545 	 
C 	 -60.6918 	 -52.7643 	 -75.5873 	 
H 	 -60.3592 	 -52.5063 	 -74.5601 	 
H 	 -61.462 	 -53.544 	 -75.572 	 
H 	 -61.0698 	 -51.7832 	 -75.9795 	 
H 	 -60.867 	 -59.8725 	 -77.5952 	 
H 	 -56.3797 	 -53.8374 	 -81.07 	 
*
