! wB97X-D3 SP def2-SVP
%pal
nprocs 24
end

* xyz 0 1
S 	 -66.9013 	 -46.2498 	 -90.1554 	 
C 	 -65.6126 	 -45.0384 	 -90.2706 	 
C 	 -64.4613 	 -45.505 	 -90.9126 	 
C 	 -64.597 	 -46.9171 	 -91.1728 	 
C 	 -65.8048 	 -47.4898 	 -90.7333 	 
H 	 -63.819 	 -47.4896 	 -91.6553 	 
C 	 -63.1596 	 -44.7928 	 -91.1183 	 
H 	 -63.5318 	 -43.8145 	 -91.5231 	 
H 	 -62.6601 	 -45.3244 	 -91.956 	 
C 	 -62.1616 	 -44.6356 	 -89.8895 	 
H 	 -62.5642 	 -44.2646 	 -88.9538 	 
H 	 -61.909 	 -45.6212 	 -89.5594 	 
C 	 -60.9674 	 -43.6664 	 -90.2547 	 
H 	 -61.31 	 -42.6362 	 -90.3034 	 
H 	 -60.1426 	 -43.7885 	 -89.6059 	 
H 	 -60.5806 	 -43.9863 	 -91.2339 	 
S 	 -67.6369 	 -49.3426 	 -89.8403 	 
C 	 -67.221 	 -51.033 	 -89.8728 	 
C 	 -66.0239 	 -51.2333 	 -90.4734 	 
C 	 -65.387 	 -50.0493 	 -90.9859 	 
C 	 -66.1094 	 -48.9034 	 -90.5888 	 
H 	 -65.4498 	 -52.1933 	 -90.4558 	 
C 	 -64.0734 	 -50.1171 	 -91.7334 	 
H 	 -63.7493 	 -51.0746 	 -91.7037 	 
H 	 -63.3475 	 -49.5908 	 -91.0813 	 
C 	 -64.1285 	 -49.6284 	 -93.2341 	 
H 	 -64.2111 	 -48.6039 	 -93.3998 	 
H 	 -64.9166 	 -50.2311 	 -93.6449 	 
C 	 -62.7926 	 -49.867 	 -93.8798 	 
H 	 -61.9529 	 -49.2832 	 -93.5036 	 
H 	 -62.7884 	 -49.8726 	 -94.9946 	 
H 	 -62.4289 	 -50.8449 	 -93.4787 	 
H 	 -65.6543 	 -44.0594 	 -89.9577 	 
H 	 -67.7309 	 -51.8112 	 -89.381 	 
*
