! wB97X-D3 SP def2-SVP
%pal
nprocs 24
end

* xyz 0 1
S 	 -119.825 	 20.5244 	 -110.745 	 
C 	 -121.003 	 21.7753 	 -111.164 	 
C 	 -122.188 	 21.2161 	 -111.567 	 
C 	 -122.21 	 19.8054 	 -111.355 	 
C 	 -121.019 	 19.2061 	 -110.935 	 
H 	 -123.083 	 19.3362 	 -111.416 	 
C 	 -123.385 	 21.9915 	 -112.024 	 
H 	 -123.17 	 23.0137 	 -111.773 	 
H 	 -124.146 	 21.6985 	 -111.325 	 
C 	 -123.765 	 21.6912 	 -113.471 	 
H 	 -122.947 	 22.0634 	 -114.121 	 
H 	 -123.836 	 20.6267 	 -113.856 	 
C 	 -124.988 	 22.4356 	 -113.857 	 
H 	 -124.675 	 23.5167 	 -113.888 	 
H 	 -125.277 	 22.1142 	 -114.855 	 
H 	 -125.782 	 22.3308 	 -113.113 	 
S 	 -119.685 	 17.5034 	 -109.083 	 
C 	 -119.573 	 15.804 	 -109.452 	 
C 	 -120.416 	 15.4886 	 -110.484 	 
C 	 -121.108 	 16.5986 	 -111.116 	 
C 	 -120.681 	 17.8091 	 -110.536 	 
H 	 -120.505 	 14.4756 	 -110.906 	 
C 	 -122.165 	 16.4255 	 -112.178 	 
H 	 -123.162 	 16.782 	 -111.983 	 
H 	 -122.261 	 15.2936 	 -112.361 	 
C 	 -121.745 	 16.9228 	 -113.56 	 
H 	 -120.794 	 16.5478 	 -113.963 	 
H 	 -121.759 	 17.9809 	 -113.58 	 
C 	 -122.727 	 16.5543 	 -114.69 	 
H 	 -122.597 	 15.562 	 -114.993 	 
H 	 -122.507 	 17.1237 	 -115.581 	 
H 	 -123.785 	 16.7694 	 -114.531 	 
H 	 -120.674 	 22.7856 	 -111.242 	 
H 	 -119.053 	 14.9991 	 -108.921 	 
*
