! wB97X-D3 SP def2-SVP
%pal
nprocs 24
end

* xyz 0 1
S 	 -118.21 	 18.8875 	 -113.638 	 
C 	 -118.43 	 20.5616 	 -114.142 	 
C 	 -117.367 	 21.3355 	 -113.737 	 
C 	 -116.382 	 20.5792 	 -112.954 	 
C 	 -116.698 	 19.2267 	 -112.774 	 
H 	 -115.538 	 21.0639 	 -112.484 	 
C 	 -117.185 	 22.8305 	 -113.999 	 
H 	 -116.864 	 23.241 	 -113.061 	 
H 	 -118.104 	 23.3552 	 -114.315 	 
C 	 -116.057 	 23.2003 	 -114.972 	 
H 	 -116.016 	 24.2797 	 -114.797 	 
H 	 -115.085 	 22.7122 	 -114.738 	 
C 	 -116.382 	 22.8139 	 -116.332 	 
H 	 -117.387 	 23.095 	 -116.524 	 
H 	 -115.775 	 23.2782 	 -117.149 	 
H 	 -116.468 	 21.7322 	 -116.463 	 
S 	 -117.02 	 16.977 	 -111.312 	 
C 	 -115.725 	 16.2905 	 -110.493 	 
C 	 -114.552 	 16.9273 	 -110.701 	 
C 	 -114.752 	 18.1407 	 -111.439 	 
C 	 -116.03 	 18.2508 	 -111.939 	 
H 	 -113.653 	 16.5488 	 -110.356 	 
C 	 -113.554 	 19.0695 	 -111.629 	 
H 	 -113.708 	 19.8265 	 -112.419 	 
H 	 -112.601 	 18.6512 	 -111.865 	 
C 	 -113.265 	 19.8535 	 -110.373 	 
H 	 -112.994 	 19.1859 	 -109.603 	 
H 	 -114.207 	 20.372 	 -110.235 	 
C 	 -112.152 	 20.8987 	 -110.488 	 
H 	 -111.179 	 20.4501 	 -110.457 	 
H 	 -112.101 	 21.6402 	 -109.717 	 
H 	 -112.144 	 21.3706 	 -111.48 	 
H 	 -119.121 	 20.9572 	 -114.9 	 
H 	 -115.793 	 15.4067 	 -109.869 	 
*
