! wB97X-D3 SP def2-SVP
%pal
nprocs 24
end

* xyz 0 1
S 	 -117.771 	 36.1407 	 -121.198 	 
C 	 -116.837 	 34.6385 	 -120.699 	 
C 	 -117.635 	 33.9205 	 -119.833 	 
C 	 -118.91 	 34.5969 	 -119.576 	 
C 	 -119.077 	 35.8009 	 -120.181 	 
H 	 -119.678 	 34.0249 	 -119.028 	 
C 	 -117.287 	 32.5827 	 -119.165 	 
H 	 -116.519 	 32.2221 	 -119.773 	 
H 	 -118.095 	 31.9028 	 -119.429 	 
C 	 -117.148 	 32.6075 	 -117.631 	 
H 	 -116.488 	 31.7708 	 -117.378 	 
H 	 -116.629 	 33.5397 	 -117.299 	 
C 	 -118.483 	 32.5631 	 -116.84 	 
H 	 -118.882 	 31.5861 	 -117.083 	 
H 	 -118.241 	 32.4062 	 -115.759 	 
H 	 -119.126 	 33.4496 	 -116.999 	 
S 	 -120.824 	 37.4825 	 -121.426 	 
C 	 -122.027 	 38.338 	 -120.539 	 
C 	 -121.961 	 38.0454 	 -119.19 	 
C 	 -120.959 	 37.0335 	 -118.906 	 
C 	 -120.196 	 36.7085 	 -120.026 	 
H 	 -122.601 	 38.5128 	 -118.475 	 
C 	 -120.681 	 36.5003 	 -117.432 	 
H 	 -119.599 	 36.7416 	 -117.246 	 
H 	 -120.892 	 35.4592 	 -117.486 	 
C 	 -121.382 	 37.1156 	 -116.202 	 
H 	 -122.371 	 36.5955 	 -116.129 	 
H 	 -121.433 	 38.1973 	 -116.31 	 
C 	 -120.589 	 36.9615 	 -114.89 	 
H 	 -121.161 	 37.3203 	 -114.014 	 
H 	 -119.674 	 37.5441 	 -114.99 	 
H 	 -120.43 	 35.8869 	 -114.636 	 
H 	 -115.758 	 34.4872 	 -120.824 	 
H 	 -122.825 	 39.0409 	 -120.869 	 
*
