! wB97X-D3 SP def2-SVP
%pal
nprocs 24
end

* xyz 0 1
S 	 -67.5028 	 9.31023 	 -73.0039 	 
C 	 -67.3697 	 9.49018 	 -71.2346 	 
C 	 -68.5607 	 9.13129 	 -70.6312 	 
C 	 -69.5787 	 8.83318 	 -71.5835 	 
C 	 -69.2035 	 8.98308 	 -72.9247 	 
H 	 -70.5502 	 8.49696 	 -71.4228 	 
C 	 -68.7618 	 9.08297 	 -69.0981 	 
H 	 -69.7693 	 9.45327 	 -68.8767 	 
H 	 -68.0813 	 9.86187 	 -68.7289 	 
C 	 -68.4666 	 7.77686 	 -68.39 	 
H 	 -68.7282 	 7.77748 	 -67.3061 	 
H 	 -69.1934 	 6.9944 	 -68.7764 	 
C 	 -67.0255 	 7.36062 	 -68.6148 	 
H 	 -66.8369 	 6.33346 	 -68.1003 	 
H 	 -66.8306 	 7.24907 	 -69.6867 	 
H 	 -66.3202 	 8.18557 	 -68.2562 	 
S 	 -69.7149 	 10.1625 	 -75.2889 	 
C 	 -71.169 	 9.7338 	 -76.154 	 
C 	 -71.8158 	 8.63574 	 -75.6537 	 
C 	 -71.1582 	 8.13848 	 -74.4855 	 
C 	 -70.0952 	 8.94721 	 -74.1164 	 
H 	 -72.7021 	 8.26346 	 -76.1821 	 
C 	 -71.8013 	 7.04648 	 -73.5633 	 
H 	 -70.9657 	 6.7188 	 -72.9522 	 
H 	 -72.0884 	 6.16617 	 -74.1238 	 
C 	 -73.0493 	 7.52717 	 -72.6233 	 
H 	 -73.9412 	 7.51025 	 -73.275 	 
H 	 -72.8504 	 8.53345 	 -72.3158 	 
C 	 -73.3155 	 6.55459 	 -71.4496 	 
H 	 -74.1283 	 6.92635 	 -70.8604 	 
H 	 -72.438 	 6.49603 	 -70.8426 	 
H 	 -73.4847 	 5.53809 	 -71.7499 	 
H 	 -66.4366 	 9.68234 	 -70.6624 	 
H 	 -71.6639 	 10.2899 	 -76.8904 	 
*
