! wB97X-D3 SP def2-SVP
%pal
nprocs 24
end

* xyz 0 1
S 	 -45.1788 	 12.834 	 32.5693 	 
C 	 -46.6436 	 12.0101 	 31.905 	 
C 	 -47.1421 	 12.7642 	 30.8343 	 
C 	 -46.3659 	 13.9239 	 30.6352 	 
C 	 -45.4638 	 14.2546 	 31.5927 	 
H 	 -46.5778 	 14.6122 	 29.833 	 
C 	 -48.2512 	 12.251 	 29.9278 	 
H 	 -47.9116 	 11.273 	 29.5131 	 
H 	 -48.3663 	 12.9432 	 29.103 	 
C 	 -49.5349 	 11.8637 	 30.6482 	 
H 	 -50.0738 	 11.2181 	 29.9917 	 
H 	 -49.2797 	 11.2479 	 31.5012 	 
C 	 -50.3936 	 13.1161 	 31.0932 	 
H 	 -49.7904 	 13.7387 	 31.7711 	 
H 	 -50.7422 	 13.7413 	 30.2922 	 
H 	 -51.2683 	 12.8096 	 31.6917 	 
S 	 -42.8318 	 15.1385 	 31.1822 	 
C 	 -42.4283 	 16.7893 	 31.5578 	 
C 	 -43.5828 	 17.5254 	 31.8259 	 
C 	 -44.7682 	 16.7114 	 31.765 	 
C 	 -44.5356 	 15.3564 	 31.5437 	 
H 	 -43.5887 	 18.5968 	 32.2683 	 
C 	 -46.1386 	 17.3872 	 31.9056 	 
H 	 -46.2014 	 17.7363 	 32.9497 	 
H 	 -46.9849 	 16.6448 	 31.8648 	 
C 	 -46.377 	 18.586 	 30.8547 	 
H 	 -45.5079 	 19.2374 	 30.8849 	 
H 	 -47.1454 	 19.2098 	 31.3922 	 
C 	 -46.8567 	 18.166 	 29.4547 	 
H 	 -46.1918 	 17.4291 	 28.9202 	 
H 	 -46.7803 	 19.0861 	 28.8311 	 
H 	 -47.9311 	 17.7679 	 29.4297 	 
H 	 -46.9477 	 10.999 	 32.0284 	 
H 	 -41.4145 	 17.178 	 31.5975 	 
*
