! wB97X-D3 SP def2-SVP
%pal
nprocs 24
end

* xyz 0 1
S 	 -90.0571 	 -1.6953 	 2.1207 	 
C 	 -89.2354 	 -1.96238 	 3.65462 	 
C 	 -88.699 	 -0.799722 	 4.1659 	 
C 	 -88.8732 	 0.271399 	 3.23942 	 
C 	 -89.4236 	 -0.0802085 	 1.99864 	 
H 	 -88.5466 	 1.30166 	 3.41268 	 
C 	 -88.0376 	 -0.685065 	 5.49246 	 
H 	 -87.4014 	 0.246918 	 5.38556 	 
H 	 -87.3918 	 -1.48101 	 5.69205 	 
C 	 -88.9519 	 -0.306351 	 6.65997 	 
H 	 -88.4287 	 -0.305319 	 7.62645 	 
H 	 -89.4107 	 0.64781 	 6.50354 	 
C 	 -90.2226 	 -1.10538 	 6.83176 	 
H 	 -90.6723 	 -1.07696 	 7.77136 	 
H 	 -91.0023 	 -0.762258 	 6.18538 	 
H 	 -90.1085 	 -2.05867 	 6.39006 	 
S 	 -91.3373 	 0.810862 	 0.317172 	 
C 	 -90.9782 	 2.12691 	 -0.781936 	 
C 	 -89.6776 	 2.65095 	 -0.581374 	 
C 	 -88.9177 	 1.8622 	 0.334322 	 
C 	 -89.7191 	 0.840884 	 0.929045 	 
H 	 -89.4674 	 3.57159 	 -1.07224 	 
C 	 -87.4656 	 2.18086 	 0.599819 	 
H 	 -87.3471 	 2.36888 	 1.71387 	 
H 	 -87.3453 	 3.18457 	 0.128476 	 
C 	 -86.5434 	 1.04256 	 0.218463 	 
H 	 -86.7259 	 0.983139 	 -0.83328 	 
H 	 -86.7897 	 0.144073 	 0.723 	 
C 	 -85.0611 	 1.32438 	 0.533104 	 
H 	 -84.7996 	 2.27357 	 -0.0105565 	 
H 	 -84.5099 	 0.409241 	 0.12941 	 
H 	 -85.0398 	 1.39265 	 1.63156 	 
H 	 -89.2842 	 -2.88456 	 4.37254 	 
H 	 -91.7189 	 2.71759 	 -1.37017 	 
*
