! wB97X-D3 SP def2-SVP
%pal
nprocs 24
end

* xyz 0 1
S 	 27.8603 	 -28.1158 	 -129.954 	 
C 	 26.6692 	 -28.1434 	 -128.657 	 
C 	 26.2225 	 -29.4357 	 -128.433 	 
C 	 26.887 	 -30.3169 	 -129.252 	 
C 	 27.8172 	 -29.8418 	 -130.095 	 
H 	 26.7897 	 -31.3615 	 -129.246 	 
C 	 25.2408 	 -29.8454 	 -127.437 	 
H 	 25.0446 	 -30.9537 	 -127.562 	 
H 	 24.2771 	 -29.4508 	 -127.722 	 
C 	 25.5611 	 -29.4938 	 -125.958 	 
H 	 26.5915 	 -29.7669 	 -125.804 	 
H 	 25.4325 	 -28.4279 	 -125.75 	 
C 	 24.5922 	 -30.2528 	 -124.999 	 
H 	 24.843 	 -31.3169 	 -125.008 	 
H 	 24.6678 	 -29.7241 	 -124.081 	 
H 	 23.4827 	 -30.1102 	 -125.202 	 
S 	 29.061 	 -29.9184 	 -132.622 	 
C 	 30.1055 	 -31.3009 	 -132.916 	 
C 	 30.2346 	 -32.0986 	 -131.814 	 
C 	 29.5386 	 -31.6517 	 -130.69 	 
C 	 28.8157 	 -30.5177 	 -130.946 	 
H 	 30.7687 	 -33.0602 	 -131.856 	 
C 	 29.7227 	 -32.3808 	 -129.351 	 
H 	 29.234 	 -33.3476 	 -129.416 	 
H 	 29.1718 	 -31.7685 	 -128.64 	 
C 	 31.1903 	 -32.6508 	 -128.883 	 
H 	 31.6186 	 -31.6641 	 -128.698 	 
H 	 31.8023 	 -32.9979 	 -129.589 	 
C 	 31.2626 	 -33.6107 	 -127.745 	 
H 	 32.2428 	 -33.6411 	 -127.221 	 
H 	 31.1566 	 -34.6863 	 -128.147 	 
H 	 30.3886 	 -33.5498 	 -127.046 	 
H 	 26.2813 	 -27.3421 	 -128.161 	 
H 	 30.7179 	 -31.5362 	 -133.806 	 
*
