! wB97X-D3 SP def2-SVP
%pal
nprocs 24
end

* xyz 0 1
S 	 -118.621 	 56.0786 	 -38.9669 	 
C 	 -117.869 	 54.5882 	 -39.4391 	 
C 	 -116.52 	 54.9355 	 -39.7307 	 
C 	 -116.166 	 56.2883 	 -39.6074 	 
C 	 -117.21 	 57.0955 	 -39.1267 	 
H 	 -115.198 	 56.7693 	 -39.8831 	 
C 	 -115.557 	 53.8812 	 -40.3297 	 
H 	 -115.894 	 53.7889 	 -41.3483 	 
H 	 -115.758 	 52.9488 	 -39.8247 	 
C 	 -114.033 	 54.1448 	 -40.2583 	 
H 	 -113.569 	 53.3787 	 -40.9101 	 
H 	 -113.771 	 55.0718 	 -40.784 	 
C 	 -113.578 	 54.0981 	 -38.823 	 
H 	 -112.545 	 54.2129 	 -38.7024 	 
H 	 -114.087 	 54.904 	 -38.3336 	 
H 	 -113.862 	 53.177 	 -38.3149 	 
S 	 -118.349 	 59.4194 	 -39.9005 	 
C 	 -117.646 	 60.9497 	 -39.4789 	 
C 	 -116.464 	 60.8276 	 -38.7323 	 
C 	 -116.156 	 59.4062 	 -38.5122 	 
C 	 -117.145 	 58.534 	 -39.0019 	 
H 	 -115.984 	 61.7436 	 -38.4347 	 
C 	 -114.944 	 58.9527 	 -37.7911 	 
H 	 -114.579 	 58.0004 	 -38.1426 	 
H 	 -115.164 	 58.7745 	 -36.6949 	 
C 	 -113.757 	 59.9129 	 -37.8693 	 
H 	 -114.023 	 60.9288 	 -37.5507 	 
H 	 -113.44 	 59.8365 	 -38.822 	 
C 	 -112.608 	 59.6008 	 -36.9253 	 
H 	 -112.76 	 59.6235 	 -35.8888 	 
H 	 -111.761 	 60.2078 	 -37.1037 	 
H 	 -112.177 	 58.5897 	 -37.2358 	 
H 	 -118.259 	 53.6443 	 -39.69 	 
H 	 -118.084 	 61.9092 	 -39.8026 	 
*
