! wB97X-D3 SP def2-SVP
%pal
nprocs 24
end

* xyz 0 1
S 	 -58.4663 	 -4.13121 	 -29.3748 	 
C 	 -58.2498 	 -4.94624 	 -27.8032 	 
C 	 -57.0414 	 -4.62363 	 -27.2913 	 
C 	 -56.4184 	 -3.5451 	 -28.0305 	 
C 	 -57.0526 	 -3.17593 	 -29.1409 	 
H 	 -55.438 	 -3.00299 	 -27.7895 	 
C 	 -56.3719 	 -5.20098 	 -26.0491 	 
H 	 -55.3422 	 -5.54055 	 -26.2321 	 
H 	 -56.9361 	 -6.09873 	 -25.817 	 
C 	 -56.2815 	 -4.15882 	 -24.854 	 
H 	 -55.681 	 -3.32019 	 -25.1738 	 
H 	 -57.2841 	 -3.78537 	 -24.5679 	 
C 	 -55.8487 	 -4.95106 	 -23.5669 	 
H 	 -56.5617 	 -5.54486 	 -23.0036 	 
H 	 -55.1148 	 -5.63487 	 -23.8071 	 
H 	 -55.3826 	 -4.24093 	 -22.8458 	 
S 	 -57.013 	 -2.1893 	 -31.7713 	 
C 	 -56.4132 	 -0.541344 	 -32.045 	 
C 	 -56.1955 	 0.133336 	 -30.8197 	 
C 	 -56.4285 	 -0.710631 	 -29.6975 	 
C 	 -56.7838 	 -2.01883 	 -30.0303 	 
H 	 -55.8106 	 1.11983 	 -30.7116 	 
C 	 -56.14 	 -0.174376 	 -28.2887 	 
H 	 -55.6708 	 0.76786 	 -28.4719 	 
H 	 -55.2808 	 -0.666365 	 -27.8065 	 
C 	 -57.3877 	 -0.205916 	 -27.3151 	 
H 	 -57.0536 	 0.167931 	 -26.322 	 
H 	 -57.6261 	 -1.22394 	 -27.0769 	 
C 	 -58.6955 	 0.396327 	 -27.7824 	 
H 	 -59.0765 	 -0.181276 	 -28.5731 	 
H 	 -58.5488 	 1.41503 	 -28.0917 	 
H 	 -59.5071 	 0.429988 	 -27.0718 	 
H 	 -59.0147 	 -5.61085 	 -27.4173 	 
H 	 -56.4226 	 -0.131525 	 -33.0342 	 
*
