! wB97X-D3 SP def2-SVP
%pal
nprocs 24
end

* xyz 0 1
S 	 -138.589 	 24.2774 	 -17.6081 	 
C 	 -139.943 	 23.113 	 -17.7165 	 
C 	 -139.587 	 21.8412 	 -18.0638 	 
C 	 -138.161 	 21.7703 	 -18.3629 	 
C 	 -137.561 	 23.0089 	 -18.3178 	 
H 	 -137.694 	 20.7853 	 -18.6965 	 
C 	 -140.47 	 20.6452 	 -18.1526 	 
H 	 -139.98 	 19.9513 	 -18.8071 	 
H 	 -141.442 	 20.8676 	 -18.5822 	 
C 	 -140.59 	 19.9876 	 -16.7947 	 
H 	 -141.088 	 18.9966 	 -17.0056 	 
H 	 -139.623 	 19.7475 	 -16.3456 	 
C 	 -141.431 	 20.749 	 -15.7145 	 
H 	 -141.524 	 20.1122 	 -14.8213 	 
H 	 -141.08 	 21.6679 	 -15.4294 	 
H 	 -142.481 	 20.982 	 -15.9815 	 
S 	 -135.226 	 23.3132 	 -17.13 	 
C 	 -133.715 	 23.3338 	 -18.0112 	 
C 	 -133.93 	 23.2862 	 -19.4045 	 
C 	 -135.36 	 23.1952 	 -19.6949 	 
C 	 -136.168 	 23.2121 	 -18.5652 	 
H 	 -133.17 	 23.2953 	 -20.1893 	 
C 	 -135.93 	 22.9466 	 -21.0252 	 
H 	 -136.703 	 22.192 	 -20.8193 	 
H 	 -135.158 	 22.473 	 -21.6327 	 
C 	 -136.645 	 24.1545 	 -21.7184 	 
H 	 -135.959 	 24.9907 	 -21.9922 	 
H 	 -137.414 	 24.5377 	 -20.9911 	 
C 	 -137.338 	 23.636 	 -23.0051 	 
H 	 -138.185 	 23.0383 	 -22.7073 	 
H 	 -136.754 	 23.0105 	 -23.6974 	 
H 	 -137.884 	 24.4355 	 -23.5306 	 
H 	 -140.95 	 23.3448 	 -17.4093 	 
H 	 -132.791 	 23.4416 	 -17.5705 	 
*
