! wB97X-D3 SP def2-SVP
%pal
nprocs 24
end

* xyz 0 1
S 	 -105.784 	 4.8617 	 -113.242 	 
C 	 -106.408 	 4.68951 	 -114.853 	 
C 	 -106.609 	 3.3413 	 -115.247 	 
C 	 -106.16 	 2.51308 	 -114.185 	 
C 	 -105.582 	 3.15568 	 -113.102 	 
H 	 -106.407 	 1.47107 	 -114.194 	 
C 	 -107.335 	 2.86946 	 -116.557 	 
H 	 -108.342 	 2.45294 	 -116.339 	 
H 	 -106.78 	 2.01765 	 -116.845 	 
C 	 -107.408 	 3.95181 	 -117.677 	 
H 	 -108.126 	 4.6768 	 -117.391 	 
H 	 -106.528 	 4.53466 	 -117.853 	 
C 	 -107.788 	 3.23087 	 -118.963 	 
H 	 -108.836 	 2.99927 	 -118.978 	 
H 	 -107.543 	 3.90097 	 -119.809 	 
H 	 -107.188 	 2.33409 	 -119.096 	 
S 	 -104.087 	 3.49858 	 -110.873 	 
C 	 -103.986 	 2.30354 	 -109.575 	 
C 	 -104.665 	 1.16229 	 -109.96 	 
C 	 -105.364 	 1.21772 	 -111.192 	 
C 	 -105.219 	 2.49788 	 -111.796 	 
H 	 -104.703 	 0.26252 	 -109.285 	 
C 	 -106.277 	 0.0941864 	 -111.627 	 
H 	 -106.106 	 -0.833134 	 -111.079 	 
H 	 -105.911 	 -0.0705365 	 -112.674 	 
C 	 -107.819 	 0.399418 	 -111.71 	 
H 	 -107.929 	 1.37929 	 -112.08 	 
H 	 -108.318 	 0.376349 	 -110.819 	 
C 	 -108.474 	 -0.484022 	 -112.798 	 
H 	 -109.489 	 -0.160948 	 -112.957 	 
H 	 -108.548 	 -1.51461 	 -112.397 	 
H 	 -107.915 	 -0.543825 	 -113.747 	 
H 	 -106.758 	 5.53404 	 -115.465 	 
H 	 -103.515 	 2.4509 	 -108.624 	 
*
