! wB97X-D3 SP def2-SVP
%pal
nprocs 24
end

* xyz 0 1
S 	 18.1785 	 -8.95878 	 -116.889 	 
C 	 19.2434 	 -9.6926 	 -115.73 	 
C 	 20.3053 	 -8.91513 	 -115.431 	 
C 	 20.2659 	 -7.68117 	 -116.111 	 
C 	 19.2348 	 -7.59988 	 -117.058 	 
H 	 20.9662 	 -6.78608 	 -116.071 	 
C 	 21.3191 	 -9.25285 	 -114.347 	 
H 	 21.211 	 -10.2847 	 -114.039 	 
H 	 21.2805 	 -8.51489 	 -113.484 	 
C 	 22.7524 	 -9.2132 	 -114.791 	 
H 	 23.1009 	 -10.1168 	 -115.32 	 
H 	 22.8996 	 -8.41052 	 -115.487 	 
C 	 23.7524 	 -9.16517 	 -113.613 	 
H 	 23.7098 	 -10.102 	 -113.112 	 
H 	 24.7546 	 -9.11402 	 -114.009 	 
H 	 23.548 	 -8.33078 	 -112.931 	 
S 	 20.1477 	 -6.79903 	 -119.53 	 
C 	 19.7096 	 -5.26923 	 -120.169 	 
C 	 18.7647 	 -4.64315 	 -119.381 	 
C 	 18.3081 	 -5.46059 	 -118.277 	 
C 	 19.0814 	 -6.63356 	 -118.127 	 
H 	 18.4532 	 -3.69381 	 -119.713 	 
C 	 17.2182 	 -5.03676 	 -117.362 	 
H 	 16.8296 	 -6.02343 	 -117.121 	 
H 	 16.4196 	 -4.62621 	 -117.997 	 
C 	 17.6989 	 -4.22136 	 -116.171 	 
H 	 18.5801 	 -3.76412 	 -116.472 	 
H 	 18.1288 	 -4.94453 	 -115.444 	 
C 	 16.6703 	 -3.22247 	 -115.6 	 
H 	 15.6969 	 -3.66086 	 -115.314 	 
H 	 16.5455 	 -2.48646 	 -116.352 	 
H 	 17.2279 	 -2.78096 	 -114.691 	 
H 	 19.1914 	 -10.7492 	 -115.411 	 
H 	 20.1607 	 -4.82425 	 -121.02 	 
*
