! wB97X-D3 SP def2-SVP
%pal
nprocs 24
end

* xyz 0 1
S 	 -111.182 	 55.5778 	 -93.1111 	 
C 	 -109.776 	 55.2287 	 -94.0213 	 
C 	 -108.62 	 55.5011 	 -93.3051 	 
C 	 -108.88 	 55.7862 	 -91.9556 	 
C 	 -110.219 	 55.6313 	 -91.6824 	 
H 	 -108.196 	 55.9697 	 -91.2571 	 
C 	 -107.224 	 55.5469 	 -93.8341 	 
H 	 -107.013 	 56.5844 	 -94.0218 	 
H 	 -107.207 	 55.2203 	 -94.8196 	 
C 	 -106.081 	 55.015 	 -92.9263 	 
H 	 -106.517 	 55.3056 	 -91.9361 	 
H 	 -106.071 	 53.9214 	 -93.0195 	 
C 	 -104.771 	 55.7879 	 -93.0889 	 
H 	 -104.847 	 56.8742 	 -93.0726 	 
H 	 -104.17 	 55.6242 	 -92.1986 	 
H 	 -104.224 	 55.4318 	 -93.9563 	 
S 	 -111.698 	 57.2403 	 -90.0665 	 
C 	 -111.772 	 56.826 	 -88.3372 	 
C 	 -111.004 	 55.7285 	 -88.005 	 
C 	 -110.385 	 55.1784 	 -89.1688 	 
C 	 -110.674 	 55.8424 	 -90.3458 	 
H 	 -110.86 	 55.5351 	 -86.9698 	 
C 	 -109.464 	 53.9901 	 -88.8916 	 
H 	 -108.538 	 54.3603 	 -89.2129 	 
H 	 -109.778 	 53.3181 	 -89.6924 	 
C 	 -109.565 	 53.133 	 -87.5702 	 
H 	 -110.566 	 52.8105 	 -87.3664 	 
H 	 -109.328 	 53.8469 	 -86.7612 	 
C 	 -108.619 	 51.8804 	 -87.5192 	 
H 	 -107.545 	 52.2402 	 -87.2974 	 
H 	 -108.587 	 51.3464 	 -88.5194 	 
H 	 -108.997 	 51.1386 	 -86.8105 	 
H 	 -109.731 	 55.0244 	 -95.0681 	 
H 	 -112.196 	 57.5203 	 -87.5664 	 
*
