! wB97X-D3 SP def2-SVP
%pal
nprocs 24
end

* xyz 0 1
S 	 -142.753 	 26.4278 	 -18.7497 	 
C 	 -143.994 	 25.31 	 -19.2957 	 
C 	 -143.737 	 24.7093 	 -20.5172 	 
C 	 -142.445 	 25.1506 	 -20.9673 	 
C 	 -141.753 	 25.9464 	 -20.1153 	 
H 	 -141.9 	 24.8303 	 -21.8714 	 
C 	 -144.546 	 23.6569 	 -21.1283 	 
H 	 -145.571 	 23.9222 	 -20.89 	 
H 	 -144.467 	 22.7506 	 -20.533 	 
C 	 -144.462 	 23.3993 	 -22.6377 	 
H 	 -144.557 	 24.353 	 -23.2013 	 
H 	 -143.505 	 22.8994 	 -22.8958 	 
C 	 -145.606 	 22.4574 	 -23.0285 	 
H 	 -146.601 	 22.9495 	 -22.9111 	 
H 	 -145.617 	 22.0831 	 -24.0379 	 
H 	 -145.396 	 21.5448 	 -22.4672 	 
S 	 -140.296 	 28.208 	 -20.2227 	 
C 	 -138.722 	 28.2124 	 -21.0323 	 
C 	 -138.257 	 26.9025 	 -21.2069 	 
C 	 -139.301 	 25.9076 	 -20.8891 	 
C 	 -140.458 	 26.5124 	 -20.4787 	 
H 	 -137.283 	 26.606 	 -21.4758 	 
C 	 -139.012 	 24.4498 	 -20.911 	 
H 	 -138.421 	 24.2866 	 -21.8134 	 
H 	 -139.958 	 23.9081 	 -21.0083 	 
C 	 -138.383 	 23.9479 	 -19.6293 	 
H 	 -139.139 	 24.2016 	 -18.8607 	 
H 	 -137.626 	 24.6358 	 -19.3159 	 
C 	 -137.944 	 22.4786 	 -19.4193 	 
H 	 -137.764 	 22.2051 	 -18.4158 	 
H 	 -137.071 	 22.1734 	 -20.0208 	 
H 	 -138.768 	 21.9083 	 -19.7296 	 
H 	 -144.927 	 25.1303 	 -18.8222 	 
H 	 -138.038 	 29.0321 	 -21.0589 	 
*
