! wB97X-D3 SP def2-SVP
%pal
nprocs 24
end

* xyz 0 1
S 	 -57.5867 	 5.3263 	 -21.2771 	 
C 	 -57.2428 	 3.78351 	 -20.489 	 
C 	 -55.8649 	 3.51059 	 -20.5254 	 
C 	 -55.1051 	 4.56529 	 -21.1418 	 
C 	 -55.8917 	 5.63552 	 -21.5683 	 
H 	 -54.057 	 4.61443 	 -21.3683 	 
C 	 -55.1964 	 2.27583 	 -20.0146 	 
H 	 -56.0534 	 1.50565 	 -20.1185 	 
H 	 -54.8442 	 2.4754 	 -19.0017 	 
C 	 -54.2 	 1.60532 	 -20.9728 	 
H 	 -54.5678 	 1.41748 	 -21.9689 	 
H 	 -53.3492 	 2.25308 	 -21.1697 	 
C 	 -53.8175 	 0.243461 	 -20.4457 	 
H 	 -53.394 	 0.253827 	 -19.4597 	 
H 	 -54.6438 	 -0.421283 	 -20.3441 	 
H 	 -53.2188 	 -0.218173 	 -21.2316 	 
S 	 -53.6779 	 7.08946 	 -22.1857 	 
C 	 -53.8279 	 8.44186 	 -23.3464 	 
C 	 -55.1664 	 8.7987 	 -23.5212 	 
C 	 -56.0119 	 7.94355 	 -22.8139 	 
C 	 -55.393 	 6.8331 	 -22.2173 	 
H 	 -55.3714 	 9.65311 	 -24.1597 	 
C 	 -57.5586 	 8.20852 	 -23.0452 	 
H 	 -57.612 	 9.25329 	 -23.2649 	 
H 	 -58.1442 	 8.04502 	 -22.0982 	 
C 	 -58.3249 	 7.41203 	 -24.1102 	 
H 	 -57.9522 	 6.44742 	 -24.1381 	 
H 	 -58.1065 	 7.85137 	 -25.1204 	 
C 	 -59.864 	 7.39161 	 -23.8097 	 
H 	 -60.1168 	 6.59061 	 -23.1183 	 
H 	 -60.5191 	 7.31054 	 -24.703 	 
H 	 -60.1788 	 8.30997 	 -23.3347 	 
H 	 -57.9882 	 3.17155 	 -20.0737 	 
H 	 -53.0923 	 8.95144 	 -23.9059 	 
*
