! wB97X-D3 SP def2-SVP
%pal
nprocs 24
end

* xyz 0 1
S 	 40.8342 	 -22.7781 	 -125.271 	 
C 	 39.5409 	 -21.5467 	 -124.924 	 
C 	 38.6178 	 -22.1276 	 -124.043 	 
C 	 39.0401 	 -23.4777 	 -123.679 	 
C 	 40.1267 	 -24.0032 	 -124.278 	 
H 	 38.4924 	 -24.1449 	 -123.016 	 
C 	 37.2946 	 -21.5632 	 -123.604 	 
H 	 36.7596 	 -22.3252 	 -122.986 	 
H 	 36.6733 	 -21.4186 	 -124.54 	 
C 	 37.4725 	 -20.1648 	 -122.847 	 
H 	 37.9435 	 -20.3995 	 -121.926 	 
H 	 38.238 	 -19.4572 	 -123.325 	 
C 	 36.1469 	 -19.4856 	 -122.589 	 
H 	 35.4769 	 -19.5231 	 -123.438 	 
H 	 35.6435 	 -19.7774 	 -121.721 	 
H 	 36.431 	 -18.3924 	 -122.426 	 
S 	 39.4402 	 -26.6237 	 -124.535 	 
C 	 40.6781 	 -27.8317 	 -124.53 	 
C 	 41.8748 	 -27.3022 	 -124.25 	 
C 	 41.8567 	 -25.8758 	 -124.065 	 
C 	 40.6063 	 -25.3603 	 -124.254 	 
H 	 42.7961 	 -27.8915 	 -124.264 	 
C 	 43.1277 	 -25.0719 	 -123.914 	 
H 	 42.9585 	 -24.2902 	 -123.151 	 
H 	 43.3452 	 -24.6413 	 -124.936 	 
C 	 44.3132 	 -25.8694 	 -123.415 	 
H 	 44.7287 	 -26.4858 	 -124.181 	 
H 	 44.052 	 -26.5073 	 -122.581 	 
C 	 45.3854 	 -24.9064 	 -122.963 	 
H 	 45.7602 	 -24.3585 	 -123.749 	 
H 	 46.2385 	 -25.4241 	 -122.53 	 
H 	 45.0306 	 -24.1163 	 -122.253 	 
H 	 39.4768 	 -20.5025 	 -125.268 	 
H 	 40.5687 	 -28.9106 	 -124.577 	 
*
