! wB97X-D3 SP def2-SVP
%pal
nprocs 24
end

* xyz 0 1
S 	 -135.256 	 8.06964 	 -15.8276 	 
C 	 -136.087 	 9.47809 	 -15.2841 	 
C 	 -135.397 	 10.247 	 -14.3591 	 
C 	 -134.184 	 9.54881 	 -13.9788 	 
C 	 -133.911 	 8.42801 	 -14.7544 	 
H 	 -133.469 	 9.8427 	 -13.2265 	 
C 	 -135.955 	 11.3484 	 -13.5638 	 
H 	 -136.903 	 11.5748 	 -13.9954 	 
H 	 -135.345 	 12.2151 	 -13.5604 	 
C 	 -136.288 	 11.01 	 -12.094 	 
H 	 -137.013 	 10.1893 	 -12.0867 	 
H 	 -135.435 	 10.6015 	 -11.5663 	 
C 	 -136.83 	 12.2011 	 -11.3263 	 
H 	 -137.079 	 12.0555 	 -10.2019 	 
H 	 -136.119 	 13.0231 	 -11.3701 	 
H 	 -137.704 	 12.6458 	 -11.8696 	 
S 	 -132.111 	 7.05456 	 -16.2098 	 
C 	 -130.911 	 6.1001 	 -15.3734 	 
C 	 -130.912 	 6.28841 	 -13.9788 	 
C 	 -131.981 	 7.09776 	 -13.5816 	 
C 	 -132.795 	 7.49611 	 -14.6021 	 
H 	 -130.075 	 5.90513 	 -13.427 	 
C 	 -132.208 	 7.42133 	 -12.0922 	 
H 	 -132.214 	 6.4999 	 -11.5689 	 
H 	 -133.15 	 7.9245 	 -11.9112 	 
C 	 -131.094 	 8.31183 	 -11.5208 	 
H 	 -131.247 	 9.27655 	 -12.0398 	 
H 	 -130.111 	 7.81602 	 -11.5889 	 
C 	 -131.348 	 8.6822 	 -10.0253 	 
H 	 -131.334 	 7.81904 	 -9.35021 	 
H 	 -132.262 	 9.31503 	 -9.85408 	 
H 	 -130.505 	 9.24043 	 -9.65255 	 
H 	 -137.035 	 9.73959 	 -15.6545 	 
H 	 -130.186 	 5.54867 	 -15.9602 	 
*
