! wB97X-D3 SP def2-SVP
%pal
nprocs 24
end

* xyz 0 1
S 	 -81.6064 	 -33.0045 	 -54.2204 	 
C 	 -79.8541 	 -33.1071 	 -54.5855 	 
C 	 -79.2541 	 -31.9248 	 -54.1018 	 
C 	 -80.1902 	 -31.0009 	 -53.6377 	 
C 	 -81.4765 	 -31.3671 	 -53.562 	 
H 	 -79.8982 	 -30.0999 	 -53.1176 	 
C 	 -77.7095 	 -31.6824 	 -54.2392 	 
H 	 -77.1553 	 -32.0407 	 -53.2921 	 
H 	 -77.583 	 -30.6252 	 -54.1662 	 
C 	 -76.9966 	 -32.1155 	 -55.5364 	 
H 	 -75.9145 	 -32.0492 	 -55.5518 	 
H 	 -77.1379 	 -33.2127 	 -55.5397 	 
C 	 -77.6002 	 -31.4601 	 -56.7568 	 
H 	 -77.5132 	 -30.3504 	 -56.8267 	 
H 	 -77.1623 	 -31.8829 	 -57.6418 	 
H 	 -78.7123 	 -31.5923 	 -56.777 	 
S 	 -84.1179 	 -30.7418 	 -53.9473 	 
C 	 -84.9695 	 -29.8897 	 -52.7407 	 
C 	 -84.1879 	 -29.715 	 -51.6626 	 
C 	 -82.799 	 -29.9204 	 -51.869 	 
C 	 -82.6669 	 -30.7315 	 -53.0007 	 
H 	 -84.8067 	 -29.4013 	 -50.8124 	 
C 	 -81.746 	 -29.604 	 -50.7872 	 
H 	 -82.2239 	 -28.9099 	 -50.127 	 
H 	 -80.9124 	 -29.032 	 -51.2316 	 
C 	 -81.3166 	 -30.8909 	 -49.9488 	 
H 	 -81.2248 	 -31.7391 	 -50.6076 	 
H 	 -82.135 	 -31.1544 	 -49.2889 	 
C 	 -80.0458 	 -30.8389 	 -49.0722 	 
H 	 -79.901 	 -31.707 	 -48.4515 	 
H 	 -80.0225 	 -29.9839 	 -48.4301 	 
H 	 -79.1042 	 -30.8289 	 -49.698 	 
H 	 -79.3369 	 -33.8793 	 -55.0682 	 
H 	 -86.0579 	 -29.785 	 -52.8126 	 
*
