! wB97X-D3 SP def2-SVP
%pal
nprocs 24
end

* xyz 0 1
S 	 -91.215 	 -26.3453 	 -67.6193 	 
C 	 -92.9345 	 -26.6819 	 -67.9946 	 
C 	 -93.5846 	 -27.5032 	 -67.123 	 
C 	 -92.6106 	 -27.9665 	 -66.1405 	 
C 	 -91.3584 	 -27.3334 	 -66.2099 	 
H 	 -92.7934 	 -28.7117 	 -65.4176 	 
C 	 -95.0256 	 -27.9664 	 -67.0747 	 
H 	 -95.0655 	 -28.7107 	 -66.3149 	 
H 	 -95.4316 	 -28.5159 	 -67.9607 	 
C 	 -96.065 	 -26.8375 	 -66.9067 	 
H 	 -95.8356 	 -26.0149 	 -67.6628 	 
H 	 -97.0373 	 -27.3683 	 -67.107 	 
C 	 -95.9941 	 -26.1952 	 -65.4864 	 
H 	 -96.6805 	 -25.3639 	 -65.2945 	 
H 	 -96.2032 	 -26.8311 	 -64.5866 	 
H 	 -95.0373 	 -25.6981 	 -65.2987 	 
S 	 -89.1376 	 -28.9208 	 -66.0088 	 
C 	 -88.1862 	 -28.7639 	 -64.6107 	 
C 	 -88.5279 	 -27.7178 	 -63.8068 	 
C 	 -89.6702 	 -27.0181 	 -64.3078 	 
C 	 -90.2239 	 -27.69 	 -65.3532 	 
H 	 -87.9905 	 -27.4364 	 -62.8844 	 
C 	 -90.267 	 -25.7504 	 -63.6821 	 
H 	 -90.8032 	 -25.9074 	 -62.7649 	 
H 	 -91.0935 	 -25.4234 	 -64.2961 	 
C 	 -89.1184 	 -24.7571 	 -63.5458 	 
H 	 -88.6336 	 -24.4035 	 -64.4593 	 
H 	 -88.2042 	 -25.0892 	 -63.0007 	 
C 	 -89.7007 	 -23.482 	 -62.797 	 
H 	 -89.0812 	 -22.6009 	 -62.9594 	 
H 	 -89.7112 	 -23.4839 	 -61.6577 	 
H 	 -90.6967 	 -23.3157 	 -63.2638 	 
H 	 -93.4007 	 -26.2742 	 -68.9268 	 
H 	 -87.4004 	 -29.365 	 -64.3135 	 
*
