! wB97X-D3 SP def2-SVP
%pal
nprocs 24
end

* xyz 0 1
S 	 -111.632 	 16.5402 	 -118.147 	 
C 	 -112.56 	 17.4648 	 -116.988 	 
C 	 -111.862 	 18.5408 	 -116.493 	 
C 	 -110.636 	 18.6696 	 -117.185 	 
C 	 -110.333 	 17.7216 	 -118.114 	 
H 	 -109.937 	 19.4184 	 -116.851 	 
C 	 -112.306 	 19.5048 	 -115.405 	 
H 	 -113.075 	 18.9851 	 -114.819 	 
H 	 -112.805 	 20.3222 	 -115.937 	 
C 	 -111.218 	 20.0498 	 -114.467 	 
H 	 -110.57 	 20.7052 	 -115.02 	 
H 	 -111.831 	 20.7453 	 -113.892 	 
C 	 -110.381 	 19.0084 	 -113.619 	 
H 	 -109.835 	 18.3035 	 -114.208 	 
H 	 -109.643 	 19.5557 	 -113.094 	 
H 	 -110.981 	 18.4782 	 -112.893 	 
S 	 -109.761 	 17.1591 	 -120.769 	 
C 	 -108.273 	 17.5899 	 -121.389 	 
C 	 -107.459 	 18.1621 	 -120.441 	 
C 	 -108.051 	 18.2388 	 -119.137 	 
C 	 -109.362 	 17.8194 	 -119.162 	 
H 	 -106.536 	 18.455 	 -120.757 	 
C 	 -107.33 	 18.9101 	 -118.029 	 
H 	 -107.886 	 19.5455 	 -117.412 	 
H 	 -106.743 	 19.7058 	 -118.528 	 
C 	 -106.63 	 17.9301 	 -117.134 	 
H 	 -105.973 	 17.3927 	 -117.855 	 
H 	 -107.214 	 17.2069 	 -116.539 	 
C 	 -105.762 	 18.7677 	 -116.191 	 
H 	 -105.185 	 18.1676 	 -115.487 	 
H 	 -106.455 	 19.4257 	 -115.614 	 
H 	 -104.966 	 19.3569 	 -116.651 	 
H 	 -113.525 	 17.1218 	 -116.599 	 
H 	 -108.089 	 17.6606 	 -122.414 	 
*
