! wB97X-D3 SP def2-SVP
%pal
nprocs 24
end

* xyz 0 1
S 	 37.4434 	 -34.0343 	 -114.31 	 
C 	 36.4593 	 -34.5468 	 -115.659 	 
C 	 37.2208 	 -34.6294 	 -116.841 	 
C 	 38.5852 	 -34.2722 	 -116.502 	 
C 	 38.84 	 -33.7906 	 -115.269 	 
H 	 39.3603 	 -34.3078 	 -117.229 	 
C 	 36.6565 	 -34.8477 	 -118.147 	 
H 	 35.5818 	 -35.2416 	 -118.072 	 
H 	 37.1485 	 -35.7076 	 -118.597 	 
C 	 36.558 	 -33.6798 	 -119.183 	 
H 	 35.8595 	 -34.017 	 -119.972 	 
H 	 35.9923 	 -32.8373 	 -118.646 	 
C 	 37.8209 	 -33.1368 	 -119.819 	 
H 	 38.1843 	 -33.8971 	 -120.536 	 
H 	 37.7269 	 -32.1363 	 -120.186 	 
H 	 38.5915 	 -33.149 	 -119.088 	 
S 	 40.1352 	 -31.596 	 -114.247 	 
C 	 41.9401 	 -31.7008 	 -113.914 	 
C 	 42.3611 	 -32.9743 	 -114.038 	 
C 	 41.3417 	 -33.8871 	 -114.46 	 
C 	 40.1072 	 -33.2638 	 -114.728 	 
H 	 43.3233 	 -33.1622 	 -113.841 	 
C 	 41.4958 	 -35.3675 	 -114.695 	 
H 	 40.6155 	 -35.8293 	 -115.116 	 
H 	 41.6274 	 -35.8674 	 -113.762 	 
C 	 42.6219 	 -35.8992 	 -115.712 	 
H 	 42.7209 	 -36.9628 	 -115.576 	 
H 	 43.6216 	 -35.5549 	 -115.502 	 
C 	 42.2792 	 -35.5635 	 -117.153 	 
H 	 43.0543 	 -35.8886 	 -117.84 	 
H 	 42.2267 	 -34.5076 	 -117.289 	 
H 	 41.3188 	 -35.9479 	 -117.422 	 
H 	 35.4292 	 -34.6422 	 -115.681 	 
H 	 42.5576 	 -30.8613 	 -113.538 	 
*
