! wB97X-D3 SP def2-SVP
%pal
nprocs 24
end

* xyz 0 1
S 	 -76.5821 	 0.816493 	 -59.3573 	 
C 	 -77.8905 	 1.68741 	 -58.5037 	 
C 	 -79.1288 	 1.01664 	 -58.6834 	 
C 	 -78.8808 	 -0.265857 	 -59.2803 	 
C 	 -77.6026 	 -0.524551 	 -59.7809 	 
H 	 -79.6579 	 -0.992817 	 -59.4966 	 
C 	 -80.4507 	 1.43858 	 -58.1762 	 
H 	 -81.0999 	 1.77802 	 -58.9928 	 
H 	 -80.1766 	 2.40599 	 -57.6677 	 
C 	 -81.2461 	 0.451777 	 -57.2228 	 
H 	 -81.6127 	 -0.373894 	 -57.8286 	 
H 	 -80.5009 	 -0.0306168 	 -56.6364 	 
C 	 -82.2384 	 1.12763 	 -56.2635 	 
H 	 -82.9047 	 1.73604 	 -56.7956 	 
H 	 -82.8182 	 0.494375 	 -55.6461 	 
H 	 -81.6085 	 1.89143 	 -55.7056 	 
S 	 -76.2272 	 -1.74396 	 -61.8365 	 
C 	 -76.0922 	 -3.46768 	 -61.8 	 
C 	 -76.7722 	 -4.04293 	 -60.7683 	 
C 	 -77.2568 	 -3.01929 	 -59.8814 	 
C 	 -77.0908 	 -1.73821 	 -60.3171 	 
H 	 -76.8066 	 -5.10347 	 -60.7037 	 
C 	 -78.1239 	 -3.44636 	 -58.7582 	 
H 	 -78.6037 	 -4.37381 	 -59.0738 	 
H 	 -78.8434 	 -2.72116 	 -58.5351 	 
C 	 -77.3541 	 -3.90475 	 -57.4443 	 
H 	 -76.6701 	 -3.09328 	 -57.2205 	 
H 	 -76.7652 	 -4.7854 	 -57.707 	 
C 	 -78.2541 	 -4.31693 	 -56.2802 	 
H 	 -78.9415 	 -3.53735 	 -56.0989 	 
H 	 -77.6747 	 -4.42564 	 -55.3367 	 
H 	 -78.9291 	 -5.18164 	 -56.5128 	 
H 	 -77.7911 	 2.75743 	 -58.1643 	 
H 	 -75.5851 	 -4.03827 	 -62.592 	 
*
