! wB97X-D3 SP def2-SVP
%pal
nprocs 24
end

* xyz 0 1
S 	 -132.017 	 9.82805 	 -2.64407 	 
C 	 -131.13 	 9.89944 	 -1.1499 	 
C 	 -131.673 	 8.99679 	 -0.263805 	 
C 	 -132.511 	 8.02602 	 -0.909385 	 
C 	 -132.734 	 8.30618 	 -2.25582 	 
H 	 -132.966 	 7.13516 	 -0.385989 	 
C 	 -131.354 	 9.06862 	 1.19379 	 
H 	 -132.045 	 8.40996 	 1.76646 	 
H 	 -131.567 	 10.0788 	 1.51498 	 
C 	 -129.894 	 8.75365 	 1.60776 	 
H 	 -129.617 	 7.74912 	 1.19139 	 
H 	 -129.142 	 9.41174 	 1.08945 	 
C 	 -129.763 	 8.61331 	 3.12219 	 
H 	 -130.307 	 9.34046 	 3.68779 	 
H 	 -130.166 	 7.66948 	 3.49586 	 
H 	 -128.758 	 8.79778 	 3.46784 	 
S 	 -132.931 	 7.72924 	 -4.90015 	 
C 	 -134.199 	 6.68214 	 -5.52473 	 
C 	 -134.558 	 5.81088 	 -4.52247 	 
C 	 -134.215 	 6.26996 	 -3.2331 	 
C 	 -133.351 	 7.4214 	 -3.23221 	 
H 	 -135.244 	 4.94975 	 -4.73579 	 
C 	 -134.561 	 5.51153 	 -1.96702 	 
H 	 -133.649 	 5.24603 	 -1.4041 	 
H 	 -134.938 	 4.51225 	 -2.33242 	 
C 	 -135.607 	 6.239 	 -1.11103 	 
H 	 -136.534 	 6.65733 	 -1.55915 	 
H 	 -135.098 	 7.1244 	 -0.826929 	 
C 	 -135.872 	 5.48047 	 0.161895 	 
H 	 -136.873 	 5.75724 	 0.428117 	 
H 	 -135.375 	 5.76849 	 1.09048 	 
H 	 -135.844 	 4.39725 	 0.0011718 	 
H 	 -130.596 	 10.7154 	 -0.733416 	 
H 	 -134.452 	 6.60066 	 -6.54444 	 
*
