! wB97X-D3 SP def2-SVP
%pal
nprocs 24
end

* xyz 0 1
S 	 -46.8434 	 -49.509 	 -70.9213 	 
C 	 -46.4401 	 -50.6797 	 -72.1747 	 
C 	 -46.2575 	 -51.8783 	 -71.589 	 
C 	 -46.116 	 -51.8765 	 -70.1685 	 
C 	 -46.3551 	 -50.6612 	 -69.6293 	 
H 	 -45.951 	 -52.8005 	 -69.6853 	 
C 	 -46.1148 	 -53.1994 	 -72.3882 	 
H 	 -45.6386 	 -53.9963 	 -71.7081 	 
H 	 -45.5139 	 -53.0315 	 -73.2227 	 
C 	 -47.4609 	 -53.8298 	 -72.8284 	 
H 	 -47.9576 	 -53.1429 	 -73.5433 	 
H 	 -47.1473 	 -54.7538 	 -73.3956 	 
C 	 -48.3899 	 -54.1278 	 -71.6824 	 
H 	 -49.3576 	 -54.4496 	 -71.975 	 
H 	 -47.902 	 -54.9649 	 -71.0833 	 
H 	 -48.5681 	 -53.2513 	 -71.0942 	 
S 	 -47.9749 	 -49.5042 	 -67.6863 	 
C 	 -47.6495 	 -49.5975 	 -66.0038 	 
C 	 -46.4628 	 -50.2218 	 -65.8102 	 
C 	 -45.7785 	 -50.6624 	 -67.0477 	 
C 	 -46.5033 	 -50.3691 	 -68.221 	 
H 	 -45.9795 	 -50.3247 	 -64.873 	 
C 	 -44.3505 	 -51.1426 	 -67.0417 	 
H 	 -44.3664 	 -51.9245 	 -67.8524 	 
H 	 -44.2434 	 -51.6847 	 -66.1501 	 
C 	 -43.4098 	 -49.9912 	 -67.4135 	 
H 	 -43.497 	 -49.148 	 -66.6906 	 
H 	 -43.6285 	 -49.5492 	 -68.3491 	 
C 	 -41.9638 	 -50.6412 	 -67.3775 	 
H 	 -41.9039 	 -51.4954 	 -68.068 	 
H 	 -41.6478 	 -50.8546 	 -66.3207 	 
H 	 -41.2072 	 -49.9764 	 -67.8077 	 
H 	 -46.5703 	 -50.6647 	 -73.2286 	 
H 	 -48.3229 	 -49.0977 	 -65.2987 	 
*
