! wB97X-D3 SP def2-SVP
%pal
nprocs 24
end

* xyz 0 1
S 	 14.9141 	 -13.3354 	 -117.734 	 
C 	 14.2139 	 -11.7557 	 -117.982 	 
C 	 13.0117 	 -11.9519 	 -118.574 	 
C 	 12.7319 	 -13.3537 	 -118.796 	 
C 	 13.6515 	 -14.2691 	 -118.255 	 
H 	 11.8474 	 -13.7073 	 -119.299 	 
C 	 12.1961 	 -10.8191 	 -119.158 	 
H 	 11.7563 	 -11.1958 	 -120.11 	 
H 	 12.8995 	 -10.0302 	 -119.505 	 
C 	 11.1173 	 -10.3219 	 -118.239 	 
H 	 10.8093 	 -9.36586 	 -118.702 	 
H 	 10.2804 	 -11.0829 	 -118.195 	 
C 	 11.6421 	 -9.98686 	 -116.824 	 
H 	 12.201 	 -9.09165 	 -116.744 	 
H 	 10.7334 	 -9.81834 	 -116.123 	 
H 	 12.3244 	 -10.8146 	 -116.429 	 
S 	 13.2303 	 -16.172 	 -120.161 	 
C 	 13.5699 	 -17.8174 	 -119.789 	 
C 	 14.0042 	 -18.0388 	 -118.5 	 
C 	 14.0519 	 -16.8061 	 -117.768 	 
C 	 13.6796 	 -15.6684 	 -118.501 	 
H 	 14.3568 	 -18.9286 	 -118.102 	 
C 	 14.4238 	 -16.6187 	 -116.298 	 
H 	 13.6809 	 -17.042 	 -115.664 	 
H 	 14.6096 	 -15.6094 	 -116.044 	 
C 	 15.6798 	 -17.3372 	 -115.8 	 
H 	 16.6365 	 -17.0623 	 -116.228 	 
H 	 15.5894 	 -18.3665 	 -116.122 	 
C 	 15.8437 	 -17.1396 	 -114.37 	 
H 	 16.2432 	 -16.1786 	 -114.145 	 
H 	 16.496 	 -17.8235 	 -113.937 	 
H 	 14.8382 	 -17.2528 	 -113.923 	 
H 	 14.5677 	 -10.747 	 -117.757 	 
H 	 13.5945 	 -18.5404 	 -120.552 	 
*
