! wB97X-D3 SP def2-SVP
%pal
nprocs 24
end

* xyz 0 1
S 	 16.479 	 -4.99684 	 -111.243 	 
C 	 16.8328 	 -4.97352 	 -109.577 	 
C 	 17.2111 	 -6.29977 	 -109.183 	 
C 	 16.9969 	 -7.28968 	 -110.247 	 
C 	 16.5402 	 -6.75407 	 -111.408 	 
H 	 17.0319 	 -8.32289 	 -110.037 	 
C 	 17.6722 	 -6.70561 	 -107.771 	 
H 	 17.5764 	 -7.7652 	 -107.543 	 
H 	 17.0459 	 -6.06681 	 -107.068 	 
C 	 19.0809 	 -6.20328 	 -107.486 	 
H 	 18.9005 	 -5.05154 	 -107.56 	 
H 	 19.4365 	 -6.54831 	 -106.443 	 
C 	 20.0723 	 -6.76986 	 -108.487 	 
H 	 19.9341 	 -7.87673 	 -108.76 	 
H 	 19.8668 	 -6.29978 	 -109.458 	 
H 	 21.0538 	 -6.71875 	 -108.204 	 
S 	 18.0056 	 -7.94088 	 -113.42 	 
C 	 17.1848 	 -8.39791 	 -114.835 	 
C 	 15.8014 	 -8.30212 	 -114.709 	 
C 	 15.3967 	 -7.63389 	 -113.513 	 
C 	 16.4645 	 -7.45547 	 -112.668 	 
H 	 15.0336 	 -8.69556 	 -115.431 	 
C 	 13.9508 	 -7.27008 	 -113.312 	 
H 	 13.425 	 -7.4814 	 -114.256 	 
H 	 13.6811 	 -6.26563 	 -112.974 	 
C 	 13.3361 	 -8.23662 	 -112.335 	 
H 	 13.6213 	 -7.97327 	 -111.315 	 
H 	 13.7317 	 -9.23589 	 -112.532 	 
C 	 11.8007 	 -8.2201 	 -112.401 	 
H 	 11.3725 	 -8.78816 	 -111.559 	 
H 	 11.3498 	 -8.59759 	 -113.326 	 
H 	 11.4026 	 -7.19332 	 -112.234 	 
H 	 16.9574 	 -4.18554 	 -108.823 	 
H 	 17.6633 	 -9.09039 	 -115.594 	 
*
