! wB97X-D3 SP def2-SVP
%pal
nprocs 24
end

* xyz 0 1
S 	 -116.6 	 43.9991 	 -112.334 	 
C 	 -117.79 	 42.7302 	 -112.743 	 
C 	 -117.496 	 42.1819 	 -113.97 	 
C 	 -116.161 	 42.5126 	 -114.422 	 
C 	 -115.592 	 43.5606 	 -113.701 	 
H 	 -115.574 	 42.0492 	 -115.266 	 
C 	 -118.418 	 41.202 	 -114.707 	 
H 	 -119.267 	 40.9583 	 -114.06 	 
H 	 -117.916 	 40.2898 	 -114.866 	 
C 	 -119.043 	 41.6516 	 -115.994 	 
H 	 -119.78 	 42.4471 	 -115.738 	 
H 	 -118.24 	 41.9247 	 -116.667 	 
C 	 -119.87 	 40.5955 	 -116.776 	 
H 	 -120.096 	 40.8682 	 -117.774 	 
H 	 -119.22 	 39.6992 	 -116.76 	 
H 	 -120.882 	 40.4358 	 -116.32 	 
S 	 -113.381 	 43.8844 	 -115.33 	 
C 	 -111.806 	 44.1679 	 -114.697 	 
C 	 -111.848 	 44.3436 	 -113.337 	 
C 	 -113.179 	 44.223 	 -112.801 	 
C 	 -114.171 	 43.9851 	 -113.715 	 
H 	 -110.926 	 44.4871 	 -112.798 	 
C 	 -113.184 	 44.3343 	 -111.29 	 
H 	 -114.258 	 44.4803 	 -111.103 	 
H 	 -112.737 	 45.2829 	 -110.975 	 
C 	 -112.544 	 43.215 	 -110.356 	 
H 	 -112.75 	 43.6424 	 -109.362 	 
H 	 -111.493 	 43.3429 	 -110.512 	 
C 	 -113.14 	 41.8501 	 -110.621 	 
H 	 -113.04 	 41.7086 	 -111.724 	 
H 	 -114.234 	 41.7154 	 -110.46 	 
H 	 -112.64 	 41.0143 	 -110.191 	 
H 	 -118.642 	 42.3835 	 -112.247 	 
H 	 -110.925 	 44.1011 	 -115.293 	 
*
