! wB97X-D3 SP def2-SVP
%pal
nprocs 24
end

* xyz 0 1
S 	 -55.5 	 3.01853 	 -32.5572 	 
C 	 -56.5951 	 2.93784 	 -33.9476 	 
C 	 -56.9821 	 4.25719 	 -34.2707 	 
C 	 -56.2914 	 5.29165 	 -33.5264 	 
C 	 -55.5119 	 4.76873 	 -32.5552 	 
H 	 -56.4079 	 6.32942 	 -33.7073 	 
C 	 -57.7065 	 4.70022 	 -35.5933 	 
H 	 -58.1108 	 5.69781 	 -35.5669 	 
H 	 -58.5117 	 3.95829 	 -35.6101 	 
C 	 -56.8795 	 4.49408 	 -36.9112 	 
H 	 -57.6226 	 4.6312 	 -37.7111 	 
H 	 -56.1097 	 5.28001 	 -36.9388 	 
C 	 -56.2296 	 3.16825 	 -36.9947 	 
H 	 -55.4834 	 3.25001 	 -36.213 	 
H 	 -56.8337 	 2.31602 	 -36.7344 	 
H 	 -55.8207 	 3.09332 	 -38.006 	 
S 	 -53.1094 	 4.73784 	 -31.1893 	 
C 	 -52.4628 	 6.19156 	 -30.5326 	 
C 	 -53.4387 	 7.13872 	 -30.5187 	 
C 	 -54.6643 	 6.81399 	 -31.1956 	 
C 	 -54.6057 	 5.53563 	 -31.742 	 
H 	 -53.2633 	 8.10904 	 -30.1751 	 
C 	 -55.8014 	 7.73076 	 -31.2952 	 
H 	 -56.6056 	 6.98694 	 -31.1563 	 
H 	 -55.7923 	 8.18482 	 -32.2181 	 
C 	 -56.0265 	 8.72866 	 -30.1414 	 
H 	 -55.2378 	 9.44643 	 -30.0051 	 
H 	 -55.8118 	 8.22002 	 -29.1305 	 
C 	 -57.2457 	 9.63123 	 -30.4524 	 
H 	 -57.0504 	 10.1762 	 -31.4064 	 
H 	 -57.1892 	 10.2652 	 -29.535 	 
H 	 -58.1983 	 8.97883 	 -30.4838 	 
H 	 -57.0579 	 2.02093 	 -34.3359 	 
H 	 -51.4357 	 6.3505 	 -30.2442 	 
*
