! wB97X-D3 SP def2-SVP
%pal
nprocs 24
end

* xyz 0 1
S 	 -111.629 	 22.0487 	 -109.759 	 
C 	 -111.541 	 22.9735 	 -111.192 	 
C 	 -112.166 	 22.26 	 -112.189 	 
C 	 -112.504 	 20.9417 	 -111.857 	 
C 	 -112.237 	 20.5791 	 -110.539 	 
H 	 -112.843 	 20.1518 	 -112.539 	 
C 	 -112.279 	 22.8561 	 -113.567 	 
H 	 -112.196 	 22.0931 	 -114.223 	 
H 	 -111.416 	 23.4454 	 -113.727 	 
C 	 -113.476 	 23.8018 	 -113.743 	 
H 	 -114.358 	 23.2679 	 -113.962 	 
H 	 -113.704 	 24.3858 	 -112.84 	 
C 	 -113.275 	 24.8972 	 -114.792 	 
H 	 -112.45 	 25.5422 	 -114.455 	 
H 	 -112.977 	 24.5467 	 -115.813 	 
H 	 -114.142 	 25.5414 	 -114.813 	 
S 	 -113.964 	 19.5757 	 -108.743 	 
C 	 -113.678 	 18.0097 	 -108.093 	 
C 	 -112.79 	 17.3325 	 -108.866 	 
C 	 -112.046 	 18.1703 	 -109.759 	 
C 	 -112.635 	 19.4149 	 -109.791 	 
H 	 -112.603 	 16.245 	 -108.618 	 
C 	 -111.031 	 17.6248 	 -110.742 	 
H 	 -110.047 	 18.0994 	 -110.573 	 
H 	 -111.268 	 17.9358 	 -111.789 	 
C 	 -110.831 	 16.0789 	 -110.811 	 
H 	 -110.109 	 15.9755 	 -111.637 	 
H 	 -111.782 	 15.5632 	 -111.103 	 
C 	 -110.179 	 15.3653 	 -109.639 	 
H 	 -109.528 	 16.0169 	 -109.055 	 
H 	 -109.422 	 14.6518 	 -110.031 	 
H 	 -110.886 	 14.8599 	 -108.949 	 
H 	 -111.157 	 23.9418 	 -111.32 	 
H 	 -114.215 	 17.5271 	 -107.25 	 
*
