! wB97X-D3 SP def2-SVP
%pal
nprocs 24
end

* xyz 0 1
S 	 -69.1958 	 16.9728 	 -70.5732 	 
C 	 -69.2633 	 15.6041 	 -69.406 	 
C 	 -68.8836 	 16.0236 	 -68.1376 	 
C 	 -68.5433 	 17.3766 	 -68.0711 	 
C 	 -68.4974 	 18.0246 	 -69.3161 	 
H 	 -68.3158 	 17.9506 	 -67.1975 	 
C 	 -69.1038 	 15.1323 	 -66.9339 	 
H 	 -69.9177 	 14.4749 	 -67.2179 	 
H 	 -69.502 	 15.7257 	 -66.0965 	 
C 	 -67.8548 	 14.4057 	 -66.315 	 
H 	 -68.261 	 13.6733 	 -65.6781 	 
H 	 -67.2518 	 13.8965 	 -67.1059 	 
C 	 -66.9703 	 15.487 	 -65.6605 	 
H 	 -67.6122 	 16.0815 	 -64.9537 	 
H 	 -66.0984 	 15.1598 	 -65.0644 	 
H 	 -66.6129 	 16.2187 	 -66.4536 	 
S 	 -66.4314 	 19.7695 	 -69.9426 	 
C 	 -66.711 	 21.4986 	 -69.9697 	 
C 	 -68.0255 	 21.7595 	 -69.6456 	 
C 	 -68.8257 	 20.5576 	 -69.4906 	 
C 	 -68.1135 	 19.4202 	 -69.5898 	 
H 	 -68.3357 	 22.7793 	 -69.5539 	 
C 	 -70.3219 	 20.6218 	 -69.1349 	 
H 	 -70.6158 	 19.5845 	 -69.0201 	 
H 	 -70.756 	 21.2585 	 -69.9531 	 
C 	 -70.6157 	 21.2719 	 -67.7632 	 
H 	 -71.6496 	 21.2347 	 -67.4462 	 
H 	 -70.3849 	 22.2805 	 -67.6596 	 
C 	 -69.8565 	 20.5203 	 -66.6729 	 
H 	 -68.8455 	 20.9049 	 -66.6774 	 
H 	 -69.7528 	 19.4829 	 -66.9002 	 
H 	 -70.3401 	 20.4977 	 -65.7033 	 
H 	 -69.4295 	 14.5536 	 -69.6804 	 
H 	 -65.8366 	 22.1019 	 -69.8847 	 
*
