! wB97X-D3 SP def2-SVP
%pal
nprocs 24
end

* xyz 0 1
S 	 -42.9168 	 -50.7631 	 -70.1707 	 
C 	 -43.8603 	 -52.1342 	 -69.57 	 
C 	 -43.3244 	 -52.6643 	 -68.4046 	 
C 	 -42.086 	 -52.0468 	 -68.0223 	 
C 	 -41.8232 	 -50.8723 	 -68.7532 	 
H 	 -41.4538 	 -52.3225 	 -67.1524 	 
C 	 -43.7377 	 -53.952 	 -67.741 	 
H 	 -42.7979 	 -54.5429 	 -67.504 	 
H 	 -44.2659 	 -54.5201 	 -68.4853 	 
C 	 -44.6969 	 -53.7558 	 -66.5131 	 
H 	 -45.693 	 -53.3662 	 -66.8532 	 
H 	 -44.8119 	 -54.6921 	 -66.0289 	 
C 	 -44.1026 	 -52.8282 	 -65.4341 	 
H 	 -43.8282 	 -51.8694 	 -65.7692 	 
H 	 -44.7219 	 -52.7742 	 -64.5053 	 
H 	 -43.22 	 -53.3798 	 -65.0841 	 
S 	 -40.08 	 -49.8183 	 -66.9974 	 
C 	 -38.7391 	 -48.8886 	 -67.5424 	 
C 	 -38.7787 	 -48.7632 	 -68.957 	 
C 	 -39.8398 	 -49.4468 	 -69.5718 	 
C 	 -40.6347 	 -50.1126 	 -68.6279 	 
H 	 -37.9141 	 -48.2374 	 -69.4294 	 
C 	 -40.0139 	 -49.5336 	 -71.114 	 
H 	 -40.9719 	 -49.142 	 -71.4402 	 
H 	 -40.1417 	 -50.6417 	 -71.2841 	 
C 	 -38.8213 	 -48.9514 	 -72.0171 	 
H 	 -37.8884 	 -49.3871 	 -71.6874 	 
H 	 -38.889 	 -47.8652 	 -71.9697 	 
C 	 -39.0202 	 -49.3202 	 -73.507 	 
H 	 -39.9659 	 -48.9041 	 -73.9033 	 
H 	 -38.9241 	 -50.3194 	 -73.8733 	 
H 	 -38.2039 	 -48.821 	 -74.0729 	 
H 	 -44.8992 	 -52.4827 	 -69.9507 	 
H 	 -38.0414 	 -48.4126 	 -66.8997 	 
*
