! wB97X-D3 SP def2-SVP
%pal
nprocs 24
end

* xyz 0 1
S 	 -55.8921 	 4.23297 	 -32.2112 	 
C 	 -56.0662 	 2.46811 	 -32.0842 	 
C 	 -55.1429 	 1.87651 	 -32.9337 	 
C 	 -54.2942 	 2.76505 	 -33.6006 	 
C 	 -54.6167 	 4.10539 	 -33.3785 	 
H 	 -53.3766 	 2.46197 	 -34.2002 	 
C 	 -54.962 	 0.338323 	 -33.0867 	 
H 	 -54.1528 	 0.125011 	 -33.7706 	 
H 	 -55.9075 	 0.0994113 	 -33.683 	 
C 	 -54.7835 	 -0.522656 	 -31.7754 	 
H 	 -53.9963 	 0.01762 	 -31.2238 	 
H 	 -55.6408 	 -0.514543 	 -31.1486 	 
C 	 -54.5161 	 -2.03244 	 -31.9868 	 
H 	 -54.2017 	 -2.53053 	 -31.088 	 
H 	 -55.3406 	 -2.55394 	 -32.5693 	 
H 	 -53.6281 	 -2.14653 	 -32.688 	 
S 	 -54.8238 	 5.97414 	 -35.4062 	 
C 	 -53.5696 	 7.15043 	 -35.5856 	 
C 	 -52.5852 	 6.97162 	 -34.573 	 
C 	 -52.9632 	 5.87734 	 -33.6233 	 
C 	 -54.1208 	 5.28864 	 -33.9641 	 
H 	 -51.7041 	 7.6212 	 -34.4739 	 
C 	 -52.1701 	 5.48137 	 -32.3656 	 
H 	 -51.966 	 4.37877 	 -32.4163 	 
H 	 -52.7837 	 5.47451 	 -31.4658 	 
C 	 -50.7782 	 6.12965 	 -32.1608 	 
H 	 -50.8801 	 7.20613 	 -32.4803 	 
H 	 -50.0973 	 5.69225 	 -32.8421 	 
C 	 -50.3806 	 5.95283 	 -30.6314 	 
H 	 -49.4693 	 6.49415 	 -30.4404 	 
H 	 -50.1412 	 4.92594 	 -30.3209 	 
H 	 -51.0422 	 6.41021 	 -29.8751 	 
H 	 -56.667 	 1.90972 	 -31.3715 	 
H 	 -53.5067 	 7.93157 	 -36.3682 	 
*
