! wB97X-D3 SP def2-SVP
%pal
nprocs 24
end

* xyz 0 1
S 	 -126.695 	 68.1478 	 -49.7905 	 
C 	 -126.238 	 69.6943 	 -49.1451 	 
C 	 -127.403 	 70.4948 	 -48.9634 	 
C 	 -128.616 	 69.9118 	 -49.4416 	 
C 	 -128.425 	 68.5834 	 -49.7615 	 
H 	 -129.514 	 70.4301 	 -49.4902 	 
C 	 -127.24 	 71.945 	 -48.5613 	 
H 	 -126.332 	 72.1311 	 -47.935 	 
H 	 -128.177 	 72.1256 	 -47.9289 	 
C 	 -127.352 	 72.9401 	 -49.711 	 
H 	 -126.893 	 72.6861 	 -50.6322 	 
H 	 -128.362 	 73.0133 	 -50.0878 	 
C 	 -126.84 	 74.2461 	 -49.2277 	 
H 	 -125.839 	 74.1031 	 -48.9568 	 
H 	 -126.81 	 74.9684 	 -50.0436 	 
H 	 -127.612 	 74.5836 	 -48.4951 	 
S 	 -129.573 	 67.3658 	 -52.0578 	 
C 	 -131.213 	 66.7799 	 -51.9137 	 
C 	 -131.562 	 66.7852 	 -50.6086 	 
C 	 -130.662 	 67.3699 	 -49.6482 	 
C 	 -129.438 	 67.6361 	 -50.2473 	 
H 	 -132.551 	 66.3999 	 -50.3934 	 
C 	 -131.028 	 67.5055 	 -48.1764 	 
H 	 -131.892 	 66.8374 	 -48.1974 	 
H 	 -131.335 	 68.5003 	 -47.9174 	 
C 	 -130.055 	 67.0099 	 -47.0717 	 
H 	 -129.049 	 67.4018 	 -47.3523 	 
H 	 -130.033 	 65.9501 	 -47.1721 	 
C 	 -130.401 	 67.5703 	 -45.6759 	 
H 	 -129.824 	 67.1159 	 -44.8299 	 
H 	 -131.41 	 67.3158 	 -45.4677 	 
H 	 -130.289 	 68.6238 	 -45.5544 	 
H 	 -125.273 	 70.0937 	 -48.9365 	 
H 	 -131.953 	 66.4248 	 -52.6574 	 
*
