! wB97X-D3 SP def2-SVP
%pal
nprocs 24
end

* xyz 0 1
S 	 -73.7507 	 -43.6175 	 -93.1378 	 
C 	 -72.6337 	 -42.3485 	 -93.2054 	 
C 	 -71.7984 	 -42.3879 	 -94.2996 	 
C 	 -72.0746 	 -43.5835 	 -95.0901 	 
C 	 -73.067 	 -44.3522 	 -94.5571 	 
H 	 -71.5865 	 -43.8863 	 -96.0261 	 
C 	 -70.8249 	 -41.2949 	 -94.7661 	 
H 	 -70.9871 	 -41.0568 	 -95.8371 	 
H 	 -69.871 	 -41.747 	 -94.5974 	 
C 	 -70.7078 	 -39.9516 	 -93.9003 	 
H 	 -70.1704 	 -39.1604 	 -94.5018 	 
H 	 -71.7922 	 -39.6131 	 -93.7745 	 
C 	 -70.0031 	 -40.0142 	 -92.5194 	 
H 	 -69.9032 	 -39.1466 	 -91.9844 	 
H 	 -70.4638 	 -40.8248 	 -91.9641 	 
H 	 -68.9447 	 -40.3099 	 -92.6439 	 
S 	 -73.2831 	 -47.0403 	 -93.7598 	 
C 	 -73.6995 	 -48.2017 	 -95.0195 	 
C 	 -73.9915 	 -47.5498 	 -96.1925 	 
C 	 -73.9207 	 -46.1001 	 -96.1295 	 
C 	 -73.5256 	 -45.6891 	 -94.8996 	 
H 	 -74.3454 	 -48.2047 	 -97.0229 	 
C 	 -74.1813 	 -45.2775 	 -97.3716 	 
H 	 -74.5769 	 -46.0247 	 -98.1317 	 
H 	 -73.2594 	 -44.9405 	 -97.8395 	 
C 	 -75.1177 	 -44.0826 	 -97.1884 	 
H 	 -75.2713 	 -43.5084 	 -98.1387 	 
H 	 -74.5777 	 -43.4146 	 -96.531 	 
C 	 -76.5286 	 -44.4525 	 -96.6882 	 
H 	 -76.4058 	 -45.1621 	 -95.9004 	 
H 	 -77.1506 	 -44.9829 	 -97.4735 	 
H 	 -77.0296 	 -43.5853 	 -96.1685 	 
H 	 -72.7328 	 -41.4568 	 -92.6297 	 
H 	 -73.8093 	 -49.2427 	 -94.9291 	 
*
