! wB97X-D3 SP def2-SVP
%pal
nprocs 24
end

* xyz 0 1
S 	 -45.4107 	 7.79442 	 -24.4086 	 
C 	 -46.5974 	 7.7174 	 -23.1261 	 
C 	 -47.6552 	 8.60154 	 -23.3934 	 
C 	 -47.3857 	 9.4437 	 -24.5326 	 
C 	 -46.1644 	 9.22006 	 -25.1141 	 
H 	 -47.9872 	 10.1914 	 -24.9687 	 
C 	 -48.9385 	 8.81275 	 -22.5752 	 
H 	 -48.909 	 8.08866 	 -21.8443 	 
H 	 -49.8816 	 8.65608 	 -23.1518 	 
C 	 -48.9531 	 10.1441 	 -21.8414 	 
H 	 -48.1291 	 10.2017 	 -21.099 	 
H 	 -48.7726 	 10.9763 	 -22.5823 	 
C 	 -50.2766 	 10.4129 	 -21.1974 	 
H 	 -50.4702 	 9.52096 	 -20.6599 	 
H 	 -50.2675 	 11.3419 	 -20.6411 	 
H 	 -51.0324 	 10.4515 	 -21.9743 	 
S 	 -44.9754 	 8.9121 	 -27.6461 	 
C 	 -44.0644 	 10.2643 	 -28.2715 	 
C 	 -44.2679 	 11.4035 	 -27.5511 	 
C 	 -45.1244 	 11.2258 	 -26.4222 	 
C 	 -45.5389 	 9.88385 	 -26.3005 	 
H 	 -43.9042 	 12.3628 	 -27.9385 	 
C 	 -45.479 	 12.4127 	 -25.667 	 
H 	 -46.6053 	 12.3652 	 -25.5539 	 
H 	 -45.3175 	 13.2843 	 -26.2512 	 
C 	 -44.6622 	 12.6945 	 -24.3575 	 
H 	 -43.679 	 12.8022 	 -24.7632 	 
H 	 -44.6776 	 11.9093 	 -23.6069 	 
C 	 -44.9401 	 14.0435 	 -23.831 	 
H 	 -45.9344 	 14.1915 	 -23.279 	 
H 	 -44.9997 	 14.799 	 -24.6553 	 
H 	 -44.0623 	 14.3593 	 -23.1943 	 
H 	 -46.5514 	 7.19854 	 -22.2022 	 
H 	 -43.5595 	 10.2354 	 -29.2436 	 
*
