! wB97X-D3 SP def2-SVP
%pal
nprocs 24
end

* xyz 0 1
S 	 -97.7714 	 1.24788 	 -107.959 	 
C 	 -98.1254 	 2.33556 	 -109.294 	 
C 	 -98.1312 	 3.65771 	 -108.909 	 
C 	 -97.6223 	 3.72775 	 -107.575 	 
C 	 -97.3805 	 2.5345 	 -106.878 	 
H 	 -97.4093 	 4.6739 	 -107.069 	 
C 	 -98.392 	 4.81085 	 -109.853 	 
H 	 -97.9506 	 4.7019 	 -110.8 	 
H 	 -97.8247 	 5.64576 	 -109.436 	 
C 	 -99.9427 	 5.09676 	 -110.111 	 
H 	 -100.405 	 4.20419 	 -110.474 	 
H 	 -100.442 	 5.36416 	 -109.232 	 
C 	 -100.296 	 6.09048 	 -111.211 	 
H 	 -99.6023 	 6.92072 	 -111.436 	 
H 	 -100.504 	 5.563 	 -112.236 	 
H 	 -101.343 	 6.44271 	 -111.033 	 
S 	 -95.7177 	 0.980101 	 -105.256 	 
C 	 -95.5017 	 1.4992 	 -103.586 	 
C 	 -96.2307 	 2.61387 	 -103.309 	 
C 	 -96.9246 	 3.26314 	 -104.434 	 
C 	 -96.7976 	 2.41125 	 -105.585 	 
H 	 -96.2291 	 3.03583 	 -102.358 	 
C 	 -97.7947 	 4.47325 	 -104.221 	 
H 	 -98.3973 	 4.32194 	 -103.452 	 
H 	 -98.5422 	 4.60086 	 -105.004 	 
C 	 -96.9533 	 5.71526 	 -104.083 	 
H 	 -96.8835 	 6.24875 	 -105.057 	 
H 	 -95.8908 	 5.4741 	 -103.859 	 
C 	 -97.4581 	 6.63066 	 -102.971 	 
H 	 -96.7287 	 7.33084 	 -102.59 	 
H 	 -97.7158 	 6.02803 	 -102.172 	 
H 	 -98.3569 	 7.15503 	 -103.235 	 
H 	 -98.302 	 2.09957 	 -110.382 	 
H 	 -94.875 	 1.10761 	 -102.805 	 
*
