! wB97X-D3 SP def2-SVP
%pal
nprocs 24
end

* xyz 0 1
S 	 -95.7926 	 7.2042 	 0.277755 	 
C 	 -94.3151 	 6.44295 	 0.896087 	 
C 	 -93.8377 	 7.15437 	 1.95861 	 
C 	 -94.6505 	 8.25968 	 2.30804 	 
C 	 -95.8254 	 8.34853 	 1.58272 	 
H 	 -94.3587 	 8.92029 	 3.14566 	 
C 	 -92.4698 	 7.00264 	 2.58289 	 
H 	 -92.2408 	 7.60341 	 3.47541 	 
H 	 -91.6409 	 7.26375 	 1.92503 	 
C 	 -92.2955 	 5.52235 	 3.02423 	 
H 	 -93.1016 	 5.26436 	 3.71149 	 
H 	 -92.4249 	 4.9517 	 2.08794 	 
C 	 -90.9987 	 5.26048 	 3.77382 	 
H 	 -90.666 	 5.95212 	 4.59973 	 
H 	 -91.0792 	 4.25065 	 4.13981 	 
H 	 -90.1306 	 5.17843 	 3.09864 	 
S 	 -98.4223 	 9.02402 	 2.42004 	 
C 	 -98.9328 	 10.701 	 2.17075 	 
C 	 -98.0743 	 11.3103 	 1.2823 	 
C 	 -96.9504 	 10.5548 	 0.875319 	 
C 	 -96.8788 	 9.3492 	 1.58686 	 
H 	 -98.3016 	 12.2959 	 0.927346 	 
C 	 -95.8739 	 11.051 	 -0.03936 	 
H 	 -96.346 	 11.27 	 -1.02925 	 
H 	 -95.1852 	 10.2389 	 -0.361292 	 
C 	 -95.0473 	 12.19 	 0.503291 	 
H 	 -95.8191 	 12.8616 	 0.801478 	 
H 	 -94.4299 	 12.6202 	 -0.30742 	 
C 	 -94.2164 	 11.9412 	 1.77051 	 
H 	 -93.4466 	 11.1607 	 1.67774 	 
H 	 -94.8814 	 11.6125 	 2.5747 	 
H 	 -93.7325 	 12.8721 	 2.12961 	 
H 	 -93.8563 	 5.5908 	 0.404116 	 
H 	 -99.8204 	 11.1603 	 2.58797 	 
*
