! wB97X-D3 SP def2-SVP
%pal
nprocs 24
end

* xyz 0 1
S 	 -103.44 	 1.31089 	 -107.37 	 
C 	 -103.334 	 0.113772 	 -108.604 	 
C 	 -103.519 	 -1.17402 	 -108.114 	 
C 	 -103.343 	 -1.18519 	 -106.738 	 
C 	 -103.321 	 0.0507119 	 -106.126 	 
H 	 -103.407 	 -2.16216 	 -106.167 	 
C 	 -103.845 	 -2.35133 	 -108.945 	 
H 	 -104.505 	 -2.9106 	 -108.312 	 
H 	 -102.962 	 -2.96482 	 -109.197 	 
C 	 -104.618 	 -2.17147 	 -110.299 	 
H 	 -105.518 	 -1.53935 	 -110.196 	 
H 	 -103.967 	 -1.57253 	 -110.906 	 
C 	 -105.052 	 -3.50647 	 -110.879 	 
H 	 -104.127 	 -4.01645 	 -110.945 	 
H 	 -105.721 	 -4.13294 	 -110.283 	 
H 	 -105.285 	 -3.42292 	 -111.944 	 
S 	 -102.069 	 1.44447 	 -104.109 	 
C 	 -102.719 	 1.30022 	 -102.521 	 
C 	 -103.755 	 0.386589 	 -102.409 	 
C 	 -104.279 	 -0.00727251 	 -103.713 	 
C 	 -103.353 	 0.358791 	 -104.699 	 
H 	 -104.138 	 0.162583 	 -101.414 	 
C 	 -105.49 	 -0.928267 	 -103.887 	 
H 	 -104.967 	 -1.95326 	 -103.827 	 
H 	 -105.88 	 -0.75319 	 -104.876 	 
C 	 -106.567 	 -0.669819 	 -102.746 	 
H 	 -106.923 	 0.361373 	 -102.89 	 
H 	 -106.057 	 -0.872217 	 -101.753 	 
C 	 -107.853 	 -1.52917 	 -102.895 	 
H 	 -108.604 	 -1.16982 	 -103.587 	 
H 	 -108.315 	 -1.52239 	 -101.905 	 
H 	 -107.59 	 -2.52287 	 -103.091 	 
H 	 -103.48 	 0.260897 	 -109.607 	 
H 	 -102.329 	 1.68296 	 -101.553 	 
*
