! wB97X-D3 SP def2-SVP
%pal
nprocs 24
end

* xyz 0 1
S 	 -125.646 	 26.2856 	 -110.889 	 
C 	 -124.016 	 25.6648 	 -110.695 	 
C 	 -123.58 	 25.0066 	 -111.871 	 
C 	 -124.549 	 25.172 	 -112.913 	 
C 	 -125.644 	 25.9225 	 -112.565 	 
H 	 -124.455 	 24.7791 	 -113.942 	 
C 	 -122.214 	 24.3958 	 -112.186 	 
H 	 -122.324 	 23.8845 	 -113.116 	 
H 	 -121.826 	 23.5974 	 -111.543 	 
C 	 -121.072 	 25.2811 	 -112.535 	 
H 	 -120.716 	 25.7855 	 -111.575 	 
H 	 -120.235 	 24.658 	 -112.764 	 
C 	 -121.275 	 26.1946 	 -113.807 	 
H 	 -121.135 	 25.634 	 -114.792 	 
H 	 -122.34 	 26.5374 	 -113.832 	 
H 	 -120.586 	 27.0205 	 -113.767 	 
S 	 -127.322 	 25.5463 	 -114.77 	 
C 	 -128.494 	 26.8297 	 -115.225 	 
C 	 -128.459 	 27.895 	 -114.34 	 
C 	 -127.459 	 27.7276 	 -113.282 	 
C 	 -126.709 	 26.4921 	 -113.412 	 
H 	 -129.121 	 28.7344 	 -114.504 	 
C 	 -127.278 	 28.8574 	 -112.249 	 
H 	 -127.273 	 29.797 	 -112.828 	 
H 	 -126.302 	 28.7473 	 -111.823 	 
C 	 -128.388 	 28.8648 	 -111.099 	 
H 	 -128.472 	 27.861 	 -110.645 	 
H 	 -129.251 	 29.0383 	 -111.676 	 
C 	 -128.038 	 29.9631 	 -110.106 	 
H 	 -127.262 	 29.5918 	 -109.468 	 
H 	 -128.841 	 30.2035 	 -109.416 	 
H 	 -127.666 	 30.8 	 -110.621 	 
H 	 -123.558 	 25.6852 	 -109.67 	 
H 	 -129.124 	 26.7981 	 -116.052 	 
*
