! wB97X-D3 SP def2-SVP
%pal
nprocs 24
end

* xyz 0 1
S 	 -117.15 	 49.9207 	 -27.1681 	 
C 	 -117.126 	 49.4677 	 -28.874 	 
C 	 -118.422 	 49.5456 	 -29.436 	 
C 	 -119.347 	 50.0063 	 -28.4849 	 
C 	 -118.913 	 50.0662 	 -27.175 	 
H 	 -120.342 	 50.2029 	 -28.755 	 
C 	 -118.796 	 49.3644 	 -30.8965 	 
H 	 -117.93 	 48.9054 	 -31.3522 	 
H 	 -118.856 	 50.3324 	 -31.3675 	 
C 	 -119.822 	 48.4214 	 -31.4023 	 
H 	 -120.801 	 48.8949 	 -31.1753 	 
H 	 -119.839 	 48.3644 	 -32.4948 	 
C 	 -119.774 	 46.9953 	 -30.8581 	 
H 	 -120.758 	 46.5629 	 -30.8438 	 
H 	 -119.137 	 46.3203 	 -31.4598 	 
H 	 -119.469 	 46.9828 	 -29.7926 	 
S 	 -119.706 	 52.0754 	 -25.647 	 
C 	 -120.875 	 51.9114 	 -24.406 	 
C 	 -121.049 	 50.5364 	 -24.1537 	 
C 	 -120.45 	 49.7144 	 -25.1887 	 
C 	 -119.728 	 50.4442 	 -26.0694 	 
H 	 -121.687 	 50.1494 	 -23.3272 	 
C 	 -120.532 	 48.181 	 -25.3189 	 
H 	 -120.177 	 47.7637 	 -24.3648 	 
H 	 -119.839 	 47.9139 	 -26.0148 	 
C 	 -121.973 	 47.7645 	 -25.5218 	 
H 	 -122.597 	 48.1276 	 -24.6947 	 
H 	 -122.105 	 46.6911 	 -25.601 	 
C 	 -122.497 	 48.4884 	 -26.8439 	 
H 	 -121.781 	 48.698 	 -27.6892 	 
H 	 -123.059 	 49.4075 	 -26.7078 	 
H 	 -123.264 	 47.8282 	 -27.3133 	 
H 	 -116.264 	 49.37 	 -29.592 	 
H 	 -121.089 	 52.6592 	 -23.6679 	 
*
