! wB97X-D3 SP def2-SVP
%pal
nprocs 24
end

* xyz 0 1
S 	 -146.81 	 4.5838 	 12.0355 	 
C 	 -146.623 	 2.96877 	 11.3732 	 
C 	 -145.448 	 3.0063 	 10.5401 	 
C 	 -144.772 	 4.31372 	 10.5481 	 
C 	 -145.354 	 5.27466 	 11.3062 	 
H 	 -143.822 	 4.41134 	 10.0788 	 
C 	 -144.898 	 1.82496 	 9.784 	 
H 	 -144.292 	 1.43148 	 10.5995 	 
H 	 -144.192 	 2.17822 	 9.00608 	 
C 	 -145.807 	 0.714782 	 9.31991 	 
H 	 -146.115 	 0.262893 	 10.2631 	 
H 	 -146.747 	 1.1509 	 9.02238 	 
C 	 -145.49 	 -0.418522 	 8.34311 	 
H 	 -145.154 	 0.038448 	 7.37714 	 
H 	 -144.621 	 -0.895896 	 8.7764 	 
H 	 -146.351 	 -1.09647 	 8.25287 	 
S 	 -143.213 	 6.90042 	 11.4768 	 
C 	 -143.446 	 8.61 	 11.7407 	 
C 	 -144.791 	 8.91642 	 11.681 	 
C 	 -145.589 	 7.78463 	 11.6477 	 
C 	 -144.895 	 6.62461 	 11.3997 	 
H 	 -144.979 	 9.96725 	 11.7494 	 
C 	 -147.086 	 7.87982 	 11.6913 	 
H 	 -147.438 	 8.80033 	 12.197 	 
H 	 -147.475 	 7.20967 	 12.4914 	 
C 	 -147.867 	 7.65618 	 10.3767 	 
H 	 -147.413 	 6.82904 	 9.85224 	 
H 	 -147.848 	 8.55211 	 9.80646 	 
C 	 -149.292 	 7.23965 	 10.6068 	 
H 	 -149.875 	 7.25948 	 9.68674 	 
H 	 -149.899 	 7.82202 	 11.408 	 
H 	 -149.326 	 6.19527 	 10.7613 	 
H 	 -147.227 	 2.12859 	 11.577 	 
H 	 -142.688 	 9.39753 	 11.6765 	 
*
