! wB97X-D3 SP def2-SVP
%pal
nprocs 24
end

* xyz 0 1
S 	 -147.858 	 6.25979 	 4.41404 	 
C 	 -147.906 	 5.98559 	 6.11425 	 
C 	 -146.873 	 6.61196 	 6.76991 	 
C 	 -145.976 	 7.29904 	 5.87715 	 
C 	 -146.324 	 7.10899 	 4.53365 	 
H 	 -145.055 	 7.83545 	 6.11593 	 
C 	 -146.556 	 6.39586 	 8.26975 	 
H 	 -147.356 	 5.82383 	 8.61596 	 
H 	 -146.532 	 7.33421 	 8.83401 	 
C 	 -145.203 	 5.69565 	 8.58104 	 
H 	 -144.402 	 6.28771 	 8.10066 	 
H 	 -145.15 	 5.76118 	 9.69267 	 
C 	 -145.119 	 4.26043 	 8.07231 	 
H 	 -144.257 	 3.73722 	 8.35968 	 
H 	 -145.924 	 3.6992 	 8.45554 	 
H 	 -145.113 	 4.19611 	 6.98355 	 
S 	 -146.917 	 8.63203 	 2.40155 	 
C 	 -145.552 	 8.92522 	 1.2705 	 
C 	 -144.305 	 8.48565 	 1.68156 	 
C 	 -144.394 	 7.74731 	 2.94692 	 
C 	 -145.723 	 7.74238 	 3.41159 	 
H 	 -143.366 	 8.78977 	 1.07405 	 
C 	 -143.088 	 7.16526 	 3.62236 	 
H 	 -142.454 	 6.96469 	 2.72462 	 
H 	 -143.447 	 6.228 	 4.02576 	 
C 	 -142.373 	 8.13625 	 4.60038 	 
H 	 -143.006 	 8.30954 	 5.43041 	 
H 	 -142.101 	 9.05119 	 4.11955 	 
C 	 -141.214 	 7.37144 	 5.22595 	 
H 	 -141.625 	 6.47461 	 5.70174 	 
H 	 -140.635 	 8.04937 	 5.86696 	 
H 	 -140.569 	 7.00809 	 4.46446 	 
H 	 -148.755 	 5.40916 	 6.45574 	 
H 	 -145.633 	 9.53862 	 0.426799 	 
*
