! wB97X-D3 SP def2-SVP
%pal
nprocs 24
end

* xyz 0 1
S 	 -97.2302 	 -23.7857 	 -64.5958 	 
C 	 -98.784 	 -24.1428 	 -65.3185 	 
C 	 -99.8554 	 -23.9432 	 -64.5183 	 
C 	 -99.3925 	 -23.3817 	 -63.2519 	 
C 	 -98.0396 	 -23.4186 	 -63.0627 	 
H 	 -99.9877 	 -23.1366 	 -62.3972 	 
C 	 -101.302 	 -23.9026 	 -64.8881 	 
H 	 -101.869 	 -24.6405 	 -64.2713 	 
H 	 -101.252 	 -24.4077 	 -65.842 	 
C 	 -101.898 	 -22.5217 	 -64.9529 	 
H 	 -101.766 	 -22.0029 	 -63.9601 	 
H 	 -101.166 	 -22.0425 	 -65.697 	 
C 	 -103.375 	 -22.4084 	 -65.4029 	 
H 	 -104.007 	 -22.9067 	 -64.7583 	 
H 	 -103.756 	 -21.3289 	 -65.416 	 
H 	 -103.62 	 -22.787 	 -66.38 	 
S 	 -95.9814 	 -24.0298 	 -61.5094 	 
C 	 -95.4739 	 -23.0198 	 -60.21 	 
C 	 -96.2936 	 -21.9545 	 -60.1037 	 
C 	 -97.297 	 -21.9279 	 -61.0782 	 
C 	 -97.2374 	 -23.0279 	 -61.9241 	 
H 	 -96.0924 	 -21.1845 	 -59.3689 	 
C 	 -98.2567 	 -20.7536 	 -61.2102 	 
H 	 -98.2937 	 -20.3014 	 -60.2002 	 
H 	 -99.2311 	 -21.089 	 -61.3924 	 
C 	 -97.8782 	 -19.7413 	 -62.2657 	 
H 	 -97.7847 	 -20.2228 	 -63.1753 	 
H 	 -96.9374 	 -19.3291 	 -62.0637 	 
C 	 -98.8325 	 -18.5189 	 -62.4029 	 
H 	 -98.3023 	 -17.7396 	 -62.9356 	 
H 	 -99.1031 	 -18.2293 	 -61.3604 	 
H 	 -99.6058 	 -18.6965 	 -63.0039 	 
H 	 -98.9312 	 -24.3867 	 -66.3728 	 
H 	 -94.5803 	 -23.1283 	 -59.6286 	 
*
