! wB97X-D3 SP def2-SVP
%pal
nprocs 24
end

* xyz 0 1
S 	 -100.294 	 16.8919 	 -120.874 	 
C 	 -101.538 	 18.117 	 -120.381 	 
C 	 -102.031 	 18.8395 	 -121.412 	 
C 	 -101.542 	 18.398 	 -122.649 	 
C 	 -100.722 	 17.2936 	 -122.567 	 
H 	 -101.768 	 18.7444 	 -123.621 	 
C 	 -103.027 	 19.9461 	 -121.267 	 
H 	 -103.402 	 20.1723 	 -122.242 	 
H 	 -102.316 	 20.623 	 -120.825 	 
C 	 -104.189 	 19.6075 	 -120.335 	 
H 	 -104.71 	 18.6456 	 -120.513 	 
H 	 -103.805 	 19.5042 	 -119.276 	 
C 	 -105.336 	 20.5184 	 -120.368 	 
H 	 -106.081 	 20.2073 	 -119.641 	 
H 	 -105.079 	 21.5893 	 -120.265 	 
H 	 -105.707 	 20.4938 	 -121.342 	 
S 	 -98.1918 	 16.3891 	 -123.379 	 
C 	 -97.9926 	 15.646 	 -124.899 	 
C 	 -99.0958 	 15.8466 	 -125.669 	 
C 	 -100.217 	 16.3336 	 -124.947 	 
C 	 -99.9223 	 16.6867 	 -123.646 	 
H 	 -98.9988 	 15.5124 	 -126.718 	 
C 	 -101.531 	 16.3622 	 -125.672 	 
H 	 -101.364 	 16.3698 	 -126.727 	 
H 	 -102.014 	 17.2762 	 -125.456 	 
C 	 -102.317 	 15.0612 	 -125.352 	 
H 	 -102.389 	 15.0066 	 -124.279 	 
H 	 -101.779 	 14.1238 	 -125.671 	 
C 	 -103.712 	 15.1059 	 -125.971 	 
H 	 -103.618 	 15.1471 	 -127.069 	 
H 	 -104.315 	 15.8571 	 -125.567 	 
H 	 -104.138 	 14.1004 	 -125.872 	 
H 	 -101.674 	 18.3425 	 -119.285 	 
H 	 -97.0252 	 15.4844 	 -125.307 	 
*
