! wB97X-D3 SP def2-SVP
%pal
nprocs 24
end

* xyz 0 1
S 	 -71.6309 	 2.19486 	 -68.0022 	 
C 	 -71.0612 	 2.89636 	 -66.5341 	 
C 	 -71.9421 	 2.85094 	 -65.5037 	 
C 	 -73.2413 	 2.32953 	 -65.8399 	 
C 	 -73.2366 	 1.89977 	 -67.1865 	 
H 	 -74.1179 	 2.25823 	 -65.2156 	 
C 	 -71.637 	 3.52229 	 -64.1295 	 
H 	 -72.3271 	 4.26187 	 -63.8581 	 
H 	 -70.6355 	 4.07192 	 -64.1223 	 
C 	 -71.5928 	 2.42668 	 -62.986 	 
H 	 -71.3374 	 1.46088 	 -63.4866 	 
H 	 -70.864 	 2.62326 	 -62.2365 	 
C 	 -73.0011 	 2.19686 	 -62.3615 	 
H 	 -73.6748 	 1.83974 	 -63.1309 	 
H 	 -72.9629 	 1.44995 	 -61.5262 	 
H 	 -73.4071 	 3.06687 	 -61.9288 	 
S 	 -74.3444 	 -0.0587866 	 -68.7467 	 
C 	 -75.9874 	 0.0460689 	 -69.1573 	 
C 	 -76.5908 	 1.17983 	 -68.6944 	 
C 	 -75.6541 	 2.0391 	 -68.071 	 
C 	 -74.3918 	 1.47613 	 -67.9693 	 
H 	 -77.5906 	 1.3709 	 -69.0523 	 
C 	 -76.1417 	 3.35714 	 -67.3871 	 
H 	 -76.5521 	 3.94818 	 -68.2371 	 
H 	 -75.4048 	 3.99812 	 -66.9646 	 
C 	 -77.2082 	 3.07222 	 -66.3759 	 
H 	 -76.7532 	 2.5415 	 -65.6595 	 
H 	 -77.9776 	 2.43648 	 -66.775 	 
C 	 -77.7598 	 4.28185 	 -65.7249 	 
H 	 -78.2213 	 4.91641 	 -66.4306 	 
H 	 -77.0488 	 4.83929 	 -65.1694 	 
H 	 -78.5513 	 4.10753 	 -64.9975 	 
H 	 -70.0579 	 3.39582 	 -66.508 	 
H 	 -76.5683 	 -0.700096 	 -69.7194 	 
*
