! wB97X-D3 SP def2-SVP
%pal
nprocs 24
end

* xyz 0 1
S 	 -54.6151 	 9.47842 	 20.2735 	 
C 	 -54.8517 	 10.407 	 18.8241 	 
C 	 -56.0605 	 10.0457 	 18.1718 	 
C 	 -56.7034 	 8.92874 	 18.7478 	 
C 	 -55.9517 	 8.46956 	 19.853 	 
H 	 -57.7409 	 8.62815 	 18.4682 	 
C 	 -56.6854 	 10.8786 	 17.0018 	 
H 	 -56.0072 	 11.6486 	 16.8269 	 
H 	 -57.5441 	 11.4529 	 17.4033 	 
C 	 -57.0902 	 10.109 	 15.7196 	 
H 	 -56.2586 	 9.54439 	 15.2358 	 
H 	 -57.8888 	 9.42697 	 15.9615 	 
C 	 -57.579 	 11.0724 	 14.6766 	 
H 	 -57.9139 	 10.4793 	 13.8241 	 
H 	 -58.4721 	 11.5652 	 15.0783 	 
H 	 -56.8208 	 11.8605 	 14.3987 	 
S 	 -56.4787 	 7.92864 	 22.4858 	 
C 	 -57.1555 	 6.39974 	 23.0408 	 
C 	 -57.3666 	 5.59466 	 21.9521 	 
C 	 -56.8824 	 6.16477 	 20.7123 	 
C 	 -56.3457 	 7.46001 	 20.8386 	 
H 	 -57.8242 	 4.63211 	 22.0814 	 
C 	 -57.2647 	 5.53532 	 19.4248 	 
H 	 -56.836 	 4.55169 	 19.4961 	 
H 	 -56.6075 	 5.89112 	 18.7089 	 
C 	 -58.6932 	 5.5603 	 19.0597 	 
H 	 -59.0316 	 6.56219 	 18.9215 	 
H 	 -59.2211 	 5.0506 	 19.8496 	 
C 	 -59.0797 	 4.9024 	 17.763 	 
H 	 -58.9109 	 5.41624 	 16.8474 	 
H 	 -60.1333 	 4.86481 	 17.8175 	 
H 	 -58.6131 	 3.90785 	 17.7872 	 
H 	 -54.3922 	 11.2924 	 18.5472 	 
H 	 -57.3918 	 6.1051 	 24.0875 	 
*
