! wB97X-D3 SP def2-SVP
%pal
nprocs 24
end

* xyz 0 1
S 	 -122.212 	 66.6805 	 -40.007 	 
C 	 -121.882 	 68.4038 	 -39.8447 	 
C 	 -122.399 	 68.8807 	 -38.6548 	 
C 	 -123.258 	 67.8746 	 -38.1171 	 
C 	 -123.098 	 66.6138 	 -38.5093 	 
H 	 -123.851 	 67.9221 	 -37.2807 	 
C 	 -122.238 	 70.2748 	 -38.1097 	 
H 	 -123.086 	 70.9322 	 -38.5721 	 
H 	 -121.318 	 70.6301 	 -38.586 	 
C 	 -122.216 	 70.5439 	 -36.5679 	 
H 	 -122.296 	 71.5852 	 -36.3135 	 
H 	 -123.192 	 70.1146 	 -36.2525 	 
C 	 -120.988 	 69.8919 	 -35.8447 	 
H 	 -120.088 	 70.4244 	 -36.1391 	 
H 	 -121 	 70.198 	 -34.8557 	 
H 	 -120.799 	 68.7512 	 -35.9665 	 
S 	 -124.308 	 64.231 	 -39.1255 	 
C 	 -124.963 	 63.2241 	 -37.8455 	 
C 	 -124.499 	 63.6519 	 -36.586 	 
C 	 -123.823 	 64.8867 	 -36.5926 	 
C 	 -123.682 	 65.3781 	 -37.9182 	 
H 	 -124.61 	 63.0353 	 -35.7714 	 
C 	 -123.43 	 65.5296 	 -35.2583 	 
H 	 -122.408 	 65.9739 	 -35.3573 	 
H 	 -123.292 	 64.7311 	 -34.5274 	 
C 	 -124.383 	 66.5574 	 -34.621 	 
H 	 -125.395 	 66.1827 	 -34.436 	 
H 	 -124.558 	 67.4039 	 -35.3121 	 
C 	 -123.866 	 67.0717 	 -33.3055 	 
H 	 -124.224 	 67.9928 	 -32.9538 	 
H 	 -122.769 	 67.1273 	 -33.4214 	 
H 	 -124.186 	 66.4123 	 -32.5444 	 
H 	 -121.302 	 69.0507 	 -40.5059 	 
H 	 -125.382 	 62.284 	 -38.0402 	 
*
