! wB97X-D3 SP def2-SVP
%pal
nprocs 24
end

* xyz 0 1
S 	 -93.3765 	 -33.4134 	 -67.9284 	 
C 	 -94.5435 	 -34.7135 	 -67.6205 	 
C 	 -95.1377 	 -34.5573 	 -66.3991 	 
C 	 -94.7613 	 -33.3341 	 -65.7784 	 
C 	 -93.8402 	 -32.4996 	 -66.4516 	 
H 	 -95.0204 	 -33.0836 	 -64.7791 	 
C 	 -95.9394 	 -35.6353 	 -65.6759 	 
H 	 -95.8757 	 -35.4753 	 -64.6193 	 
H 	 -95.4089 	 -36.5659 	 -65.7725 	 
C 	 -97.4093 	 -35.8386 	 -66.1444 	 
H 	 -97.3569 	 -36.2508 	 -67.1001 	 
H 	 -97.8485 	 -36.6441 	 -65.5652 	 
C 	 -98.1908 	 -34.5773 	 -66.1773 	 
H 	 -99.2463 	 -34.6287 	 -66.1779 	 
H 	 -98.0688 	 -34.0273 	 -65.2596 	 
H 	 -97.8916 	 -34.0137 	 -67.0572 	 
S 	 -91.5682 	 -30.9406 	 -65.8373 	 
C 	 -91.7909 	 -29.3666 	 -65.2515 	 
C 	 -93.1405 	 -28.9525 	 -65.4233 	 
C 	 -94.013 	 -30.0124 	 -65.6855 	 
C 	 -93.3477 	 -31.1747 	 -66.0381 	 
H 	 -93.355 	 -27.8376 	 -65.3749 	 
C 	 -95.4753 	 -29.7858 	 -65.8308 	 
H 	 -95.8552 	 -30.5537 	 -66.4704 	 
H 	 -95.571 	 -28.867 	 -66.341 	 
C 	 -96.3723 	 -29.7188 	 -64.5785 	 
H 	 -95.9109 	 -29.0249 	 -63.83 	 
H 	 -96.367 	 -30.7144 	 -64.097 	 
C 	 -97.7717 	 -29.2001 	 -64.8624 	 
H 	 -98.2372 	 -29.8689 	 -65.63 	 
H 	 -97.8624 	 -28.2273 	 -65.2198 	 
H 	 -98.3944 	 -29.2002 	 -63.9285 	 
H 	 -94.7089 	 -35.5735 	 -68.3633 	 
H 	 -90.9961 	 -28.6549 	 -65.0869 	 
*
