! wB97X-D3 SP def2-SVP
%pal
nprocs 24
end

* xyz 0 1
S 	 29.6999 	 -22.4374 	 -123.172 	 
C 	 29.9398 	 -21.7999 	 -124.779 	 
C 	 29.1818 	 -22.4458 	 -125.771 	 
C 	 28.4079 	 -23.5019 	 -125.157 	 
C 	 28.7002 	 -23.7372 	 -123.792 	 
H 	 27.755 	 -24.1094 	 -125.679 	 
C 	 29.2048 	 -22.0256 	 -127.235 	 
H 	 30.0584 	 -21.3276 	 -127.429 	 
H 	 28.3115 	 -21.3106 	 -127.394 	 
C 	 29.1433 	 -23.2 	 -128.305 	 
H 	 28.1588 	 -23.7365 	 -128.337 	 
H 	 29.1187 	 -22.6898 	 -129.296 	 
C 	 30.3691 	 -24.1202 	 -128.26 	 
H 	 30.5854 	 -24.5661 	 -129.299 	 
H 	 31.2718 	 -23.4968 	 -128.187 	 
H 	 30.308 	 -24.868 	 -127.461 	 
S 	 29.7598 	 -26.0294 	 -122.445 	 
C 	 28.6583 	 -27.2715 	 -121.82 	 
C 	 27.3597 	 -26.7493 	 -121.911 	 
C 	 27.2235 	 -25.5252 	 -122.687 	 
C 	 28.4036 	 -24.9214 	 -122.984 	 
H 	 26.4779 	 -27.3111 	 -121.539 	 
C 	 25.8659 	 -24.9041 	 -123.011 	 
H 	 25.1007 	 -25.6295 	 -123.188 	 
H 	 25.9183 	 -24.4141 	 -123.971 	 
C 	 25.2882 	 -23.8945 	 -122 	 
H 	 24.9778 	 -24.5138 	 -121.148 	 
H 	 24.4081 	 -23.425 	 -122.486 	 
C 	 26.3063 	 -22.8712 	 -121.402 	 
H 	 26.9122 	 -23.422 	 -120.731 	 
H 	 25.7287 	 -22.1382 	 -120.844 	 
H 	 27.0432 	 -22.3149 	 -122.067 	 
H 	 30.3836 	 -20.8925 	 -125.07 	 
H 	 28.925 	 -28.2086 	 -121.348 	 
*
