! wB97X-D3 SP def2-SVP
%pal
nprocs 24
end

* xyz 0 1
S 	 -120.987 	 29.0354 	 -113.095 	 
C 	 -119.264 	 28.5359 	 -112.955 	 
C 	 -118.504 	 29.664 	 -112.707 	 
C 	 -119.25 	 30.7692 	 -112.268 	 
C 	 -120.602 	 30.5615 	 -112.259 	 
H 	 -118.696 	 31.5992 	 -111.886 	 
C 	 -117.011 	 29.733 	 -112.742 	 
H 	 -116.773 	 30.754 	 -113.1 	 
H 	 -116.62 	 29.1322 	 -113.558 	 
C 	 -116.27 	 29.4036 	 -111.424 	 
H 	 -116.391 	 28.3629 	 -111.227 	 
H 	 -115.24 	 29.5728 	 -111.66 	 
C 	 -116.576 	 30.3036 	 -110.21 	 
H 	 -117.641 	 30.39 	 -109.996 	 
H 	 -116.101 	 29.9166 	 -109.306 	 
H 	 -116.248 	 31.3287 	 -110.456 	 
S 	 -123.162 	 31.0572 	 -111.413 	 
C 	 -123.626 	 32.6105 	 -110.987 	 
C 	 -122.65 	 33.5054 	 -111.294 	 
C 	 -121.58 	 32.9959 	 -112.029 	 
C 	 -121.605 	 31.5612 	 -112.01 	 
H 	 -122.839 	 34.5624 	 -110.997 	 
C 	 -120.45 	 33.9417 	 -112.363 	 
H 	 -120.776 	 34.8611 	 -112.839 	 
H 	 -119.941 	 33.3849 	 -113.104 	 
C 	 -119.604 	 34.5195 	 -111.181 	 
H 	 -118.779 	 35.0699 	 -111.616 	 
H 	 -119.058 	 33.772 	 -110.709 	 
C 	 -120.268 	 35.3861 	 -110.109 	 
H 	 -121.066 	 36.0808 	 -110.568 	 
H 	 -119.559 	 35.9202 	 -109.499 	 
H 	 -120.772 	 34.7636 	 -109.433 	 
H 	 -118.852 	 27.646 	 -113.369 	 
H 	 -124.495 	 32.9436 	 -110.507 	 
*
