! wB97X-D3 SP def2-SVP
%pal
nprocs 24
end

* xyz 0 1
S 	 -146.169 	 30.4943 	 -14.0759 	 
C 	 -145.74 	 29.7032 	 -15.6412 	 
C 	 -146.804 	 29.3091 	 -16.3788 	 
C 	 -148.027 	 29.6758 	 -15.6591 	 
C 	 -147.885 	 30.345 	 -14.4862 	 
H 	 -149.082 	 29.624 	 -15.9042 	 
C 	 -146.735 	 28.4927 	 -17.6502 	 
H 	 -145.784 	 28.8159 	 -18.1192 	 
H 	 -147.388 	 28.8166 	 -18.4202 	 
C 	 -147.028 	 27.0067 	 -17.4799 	 
H 	 -146.296 	 26.6272 	 -16.7489 	 
H 	 -148.053 	 26.8526 	 -17.0549 	 
C 	 -146.838 	 26.1903 	 -18.7365 	 
H 	 -147.514 	 26.5183 	 -19.5327 	 
H 	 -145.796 	 26.0753 	 -18.9422 	 
H 	 -147.114 	 25.1355 	 -18.6232 	 
S 	 -150.392 	 31.4531 	 -14.2078 	 
C 	 -151.294 	 31.5891 	 -12.6611 	 
C 	 -150.535 	 30.8732 	 -11.7917 	 
C 	 -149.28 	 30.3136 	 -12.238 	 
C 	 -148.966 	 30.635 	 -13.5716 	 
H 	 -150.947 	 30.8451 	 -10.7522 	 
C 	 -148.382 	 29.4385 	 -11.4229 	 
H 	 -148.674 	 29.5204 	 -10.3682 	 
H 	 -147.385 	 29.9238 	 -11.4137 	 
C 	 -148.27 	 27.9422 	 -11.9205 	 
H 	 -147.453 	 27.494 	 -11.29 	 
H 	 -147.923 	 27.7846 	 -12.9328 	 
C 	 -149.576 	 27.1808 	 -11.626 	 
H 	 -150.525 	 27.7404 	 -11.8614 	 
H 	 -149.714 	 26.8782 	 -10.6044 	 
H 	 -149.495 	 26.3297 	 -12.2356 	 
H 	 -144.739 	 29.389 	 -16.0021 	 
H 	 -152.058 	 32.2469 	 -12.31 	 
*
