! wB97X-D3 SP def2-SVP
%pal
nprocs 24
end

* xyz 0 1
S 	 -102.589 	 -0.0900934 	 -111.163 	 
C 	 -103.84 	 -0.520333 	 -112.343 	 
C 	 -104.999 	 -1.01854 	 -111.782 	 
C 	 -104.931 	 -1.05923 	 -110.358 	 
C 	 -103.65 	 -0.818944 	 -109.861 	 
H 	 -105.711 	 -1.48788 	 -109.677 	 
C 	 -106.327 	 -1.27412 	 -112.534 	 
H 	 -106.274 	 -0.966654 	 -113.605 	 
H 	 -106.988 	 -0.609985 	 -112.032 	 
C 	 -106.965 	 -2.64788 	 -112.341 	 
H 	 -106.334 	 -3.45769 	 -112.724 	 
H 	 -106.968 	 -2.91954 	 -111.28 	 
C 	 -108.307 	 -2.73252 	 -113.018 	 
H 	 -108.314 	 -3.17215 	 -113.986 	 
H 	 -109.03 	 -3.26955 	 -112.383 	 
H 	 -108.768 	 -1.76924 	 -113.083 	 
S 	 -102.28 	 -2.2931 	 -107.927 	 
C 	 -102.422 	 -1.73 	 -106.227 	 
C 	 -103.12 	 -0.572916 	 -106.121 	 
C 	 -103.606 	 -0.0323156 	 -107.354 	 
C 	 -103.312 	 -0.894173 	 -108.435 	 
H 	 -103.174 	 -0.0144972 	 -105.151 	 
C 	 -104.248 	 1.2886 	 -107.394 	 
H 	 -105.023 	 1.43271 	 -106.673 	 
H 	 -104.672 	 1.42377 	 -108.42 	 
C 	 -103.332 	 2.583 	 -107.347 	 
H 	 -102.52 	 2.5502 	 -106.633 	 
H 	 -103.899 	 3.42436 	 -107.092 	 
C 	 -102.7 	 2.79202 	 -108.762 	 
H 	 -103.29 	 3.35959 	 -109.501 	 
H 	 -102.578 	 1.87108 	 -109.329 	 
H 	 -101.722 	 3.26057 	 -108.898 	 
H 	 -103.838 	 -0.451365 	 -113.439 	 
H 	 -101.827 	 -2.14529 	 -105.413 	 
*
