! wB97X-D3 SP def2-SVP
%pal
nprocs 24
end

* xyz 0 1
S 	 -87.425 	 -6.06849 	 -59.5237 	 
C 	 -87.8061 	 -4.72806 	 -60.5828 	 
C 	 -86.7465 	 -3.84607 	 -60.8025 	 
C 	 -85.6229 	 -4.27247 	 -60.0405 	 
C 	 -85.784 	 -5.49169 	 -59.3838 	 
H 	 -84.7291 	 -3.6982 	 -60.1171 	 
C 	 -86.6562 	 -2.58392 	 -61.6925 	 
H 	 -86.1694 	 -1.78439 	 -61.1297 	 
H 	 -87.6311 	 -2.1313 	 -61.9707 	 
C 	 -86.0405 	 -2.73982 	 -63.0412 	 
H 	 -86.0052 	 -1.7153 	 -63.4056 	 
H 	 -85.0018 	 -3.03318 	 -62.9227 	 
C 	 -86.8038 	 -3.6573 	 -63.9491 	 
H 	 -86.5392 	 -3.72842 	 -64.9845 	 
H 	 -86.7076 	 -4.65258 	 -63.5035 	 
H 	 -87.8833 	 -3.43164 	 -64.0102 	 
S 	 -83.5103 	 -7.08233 	 -59.6079 	 
C 	 -82.6939 	 -7.5917 	 -58.1634 	 
C 	 -83.44 	 -7.37137 	 -57.0221 	 
C 	 -84.6389 	 -6.58904 	 -57.3301 	 
C 	 -84.7483 	 -6.26701 	 -58.6574 	 
H 	 -83.2037 	 -7.81409 	 -55.9998 	 
C 	 -85.5732 	 -6.1886 	 -56.1889 	 
H 	 -86.1826 	 -5.38597 	 -56.5897 	 
H 	 -84.9452 	 -5.81147 	 -55.4187 	 
C 	 -86.3694 	 -7.2577 	 -55.5008 	 
H 	 -86.788 	 -6.74584 	 -54.6349 	 
H 	 -85.6569 	 -8.00184 	 -55.1213 	 
C 	 -87.491 	 -7.96697 	 -56.2884 	 
H 	 -87.1482 	 -8.56693 	 -57.0799 	 
H 	 -88.1544 	 -7.20672 	 -56.6134 	 
H 	 -88.0318 	 -8.60126 	 -55.6505 	 
H 	 -88.7738 	 -4.53104 	 -60.9016 	 
H 	 -81.8227 	 -8.15033 	 -58.0627 	 
*
