! wB97X-D3 SP def2-SVP
%pal
nprocs 24
end

* xyz 0 1
S 	 -83.4255 	 -43.5653 	 -86.7014 	 
C 	 -82.9231 	 -42.0497 	 -86.0425 	 
C 	 -82.429 	 -41.2012 	 -87.0764 	 
C 	 -82.4977 	 -41.8148 	 -88.3658 	 
C 	 -83.0742 	 -43.0347 	 -88.3199 	 
H 	 -82.1902 	 -41.3116 	 -89.2232 	 
C 	 -81.9507 	 -39.7901 	 -86.8072 	 
H 	 -80.917 	 -39.6376 	 -87.1758 	 
H 	 -81.9087 	 -39.6701 	 -85.7339 	 
C 	 -82.8507 	 -38.7174 	 -87.3198 	 
H 	 -83.299 	 -38.9842 	 -88.2621 	 
H 	 -83.7732 	 -38.7795 	 -86.7533 	 
C 	 -82.2519 	 -37.3455 	 -87.3725 	 
H 	 -82.9379 	 -36.6277 	 -87.8424 	 
H 	 -82.1504 	 -37.0211 	 -86.3587 	 
H 	 -81.2618 	 -37.3403 	 -87.8605 	 
S 	 -81.928 	 -44.3523 	 -90.4604 	 
C 	 -82.8909 	 -45.4982 	 -91.3251 	 
C 	 -84.1943 	 -45.5558 	 -90.9019 	 
C 	 -84.4711 	 -44.6685 	 -89.8516 	 
C 	 -83.3341 	 -43.9347 	 -89.4492 	 
H 	 -84.8252 	 -46.2192 	 -91.431 	 
C 	 -85.7591 	 -44.7284 	 -89.0202 	 
H 	 -86.5082 	 -44.7903 	 -89.8341 	 
H 	 -86.0295 	 -43.816 	 -88.4207 	 
C 	 -85.9175 	 -45.8295 	 -87.9802 	 
H 	 -86.5878 	 -45.5393 	 -87.1779 	 
H 	 -84.9019 	 -45.9818 	 -87.498 	 
C 	 -86.5041 	 -47.1401 	 -88.6055 	 
H 	 -87.5126 	 -47.1169 	 -88.9532 	 
H 	 -86.5261 	 -47.8444 	 -87.6722 	 
H 	 -85.8541 	 -47.6071 	 -89.3268 	 
H 	 -82.9843 	 -41.6812 	 -85.047 	 
H 	 -82.5665 	 -46.0922 	 -92.169 	 
*
