! wB97X-D3 SP def2-SVP
%pal
nprocs 24
end

* xyz 0 1
S 	 -44.5981 	 -3.48295 	 -10.3611 	 
C 	 -46.1528 	 -3.15437 	 -9.62926 	 
C 	 -47.0134 	 -2.43889 	 -10.3869 	 
C 	 -46.4882 	 -2.21515 	 -11.6692 	 
C 	 -45.2374 	 -2.78214 	 -11.8537 	 
H 	 -47.0788 	 -1.61954 	 -12.3573 	 
C 	 -48.3412 	 -1.87549 	 -9.95201 	 
H 	 -48.7236 	 -1.11771 	 -10.6122 	 
H 	 -48.1388 	 -1.29892 	 -9.06667 	 
C 	 -49.4133 	 -2.882 	 -9.72347 	 
H 	 -49.1135 	 -3.73144 	 -9.04706 	 
H 	 -50.3013 	 -2.38817 	 -9.2675 	 
C 	 -50.1847 	 -3.50218 	 -10.928 	 
H 	 -49.5791 	 -3.9997 	 -11.6103 	 
H 	 -50.9377 	 -4.20664 	 -10.7236 	 
H 	 -50.6321 	 -2.70175 	 -11.5158 	 
S 	 -42.6834 	 -2.61495 	 -12.9112 	 
C 	 -42.4299 	 -2.7886 	 -14.6499 	 
C 	 -43.647 	 -2.94535 	 -15.2735 	 
C 	 -44.8447 	 -2.79917 	 -14.4648 	 
C 	 -44.5094 	 -2.7013 	 -13.1035 	 
H 	 -43.6083 	 -2.9444 	 -16.3554 	 
C 	 -46.1824 	 -2.86038 	 -15.0848 	 
H 	 -46.8794 	 -3.19822 	 -14.376 	 
H 	 -46.257 	 -3.57471 	 -15.9057 	 
C 	 -46.8245 	 -1.53041 	 -15.4869 	 
H 	 -46.6503 	 -0.857098 	 -14.6245 	 
H 	 -47.9 	 -1.67573 	 -15.8267 	 
C 	 -45.9703 	 -0.799205 	 -16.6412 	 
H 	 -46.456 	 0.151816 	 -17.032 	 
H 	 -45.9469 	 -1.45107 	 -17.5035 	 
H 	 -44.9415 	 -0.54735 	 -16.3355 	 
H 	 -46.275 	 -3.33178 	 -8.60292 	 
H 	 -41.4704 	 -2.95269 	 -15.1337 	 
*
