! wB97X-D3 SP def2-SVP
%pal
nprocs 24
end

* xyz 0 1
S 	 -107.748 	 54.461 	 -85.4924 	 
C 	 -109.242 	 55.2327 	 -84.9248 	 
C 	 -109.422 	 56.4011 	 -85.6766 	 
C 	 -108.279 	 56.8102 	 -86.3691 	 
C 	 -107.261 	 55.9095 	 -86.4362 	 
H 	 -108.3 	 57.6985 	 -86.9185 	 
C 	 -110.661 	 57.3421 	 -85.7005 	 
H 	 -111.357 	 56.7027 	 -86.2261 	 
H 	 -110.452 	 58.0776 	 -86.4333 	 
C 	 -111.135 	 57.927 	 -84.4137 	 
H 	 -110.322 	 58.472 	 -84.0393 	 
H 	 -111.958 	 58.5681 	 -84.5804 	 
C 	 -111.734 	 56.8887 	 -83.4167 	 
H 	 -112.578 	 56.3852 	 -83.8369 	 
H 	 -111.019 	 56.1349 	 -82.982 	 
H 	 -112.145 	 57.1681 	 -82.4616 	 
S 	 -104.992 	 54.4891 	 -87.2905 	 
C 	 -103.716 	 55.3142 	 -88.0915 	 
C 	 -103.93 	 56.6516 	 -88.1421 	 
C 	 -105.16 	 57.088 	 -87.5538 	 
C 	 -105.891 	 56.0185 	 -86.9672 	 
H 	 -103.248 	 57.3075 	 -88.7349 	 
C 	 -105.663 	 58.4698 	 -87.6167 	 
H 	 -106.73 	 58.371 	 -87.8792 	 
H 	 -105.13 	 59.0035 	 -88.4012 	 
C 	 -105.416 	 59.088 	 -86.2528 	 
H 	 -104.334 	 58.9747 	 -86.0399 	 
H 	 -105.94 	 58.6006 	 -85.4388 	 
C 	 -105.85 	 60.56 	 -86.2056 	 
H 	 -105.082 	 61.01 	 -86.8926 	 
H 	 -106.062 	 60.9126 	 -85.2208 	 
H 	 -106.703 	 60.5857 	 -86.7997 	 
H 	 -109.995 	 54.681 	 -84.4227 	 
H 	 -102.848 	 54.8432 	 -88.5252 	 
*
