! wB97X-D3 SP def2-SVP
%pal
nprocs 24
end

* xyz 0 1
S 	 -62.8174 	 17.5714 	 -119.207 	 
C 	 -62.1554 	 15.8978 	 -119.123 	 
C 	 -63.0251 	 14.895 	 -118.84 	 
C 	 -64.3612 	 15.4042 	 -118.761 	 
C 	 -64.4114 	 16.8067 	 -118.907 	 
H 	 -65.2498 	 14.829 	 -118.58 	 
C 	 -62.6129 	 13.4469 	 -118.717 	 
H 	 -61.7233 	 13.3807 	 -119.315 	 
H 	 -63.4397 	 12.9717 	 -119.142 	 
C 	 -62.3931 	 12.873 	 -117.225 	 
H 	 -61.6547 	 13.4798 	 -116.739 	 
H 	 -63.2934 	 12.967 	 -116.695 	 
C 	 -61.9809 	 11.3379 	 -117.186 	 
H 	 -61.7294 	 10.9983 	 -116.198 	 
H 	 -62.7973 	 10.7451 	 -117.55 	 
H 	 -61.0914 	 11.1659 	 -117.825 	 
S 	 -66.2331 	 17.7595 	 -120.642 	 
C 	 -67.8059 	 18.2412 	 -120.079 	 
C 	 -67.9706 	 17.9395 	 -118.755 	 
C 	 -66.7789 	 17.5185 	 -118.217 	 
C 	 -65.7427 	 17.3761 	 -119.076 	 
H 	 -68.94 	 17.8996 	 -118.302 	 
C 	 -66.659 	 17.2946 	 -116.73 	 
H 	 -67.1267 	 18.109 	 -116.208 	 
H 	 -65.6215 	 17.407 	 -116.304 	 
C 	 -67.272 	 15.9404 	 -116.324 	 
H 	 -67.0181 	 15.0637 	 -116.947 	 
H 	 -68.3358 	 15.9728 	 -116.379 	 
C 	 -66.9614 	 15.644 	 -114.834 	 
H 	 -65.8821 	 15.421 	 -114.558 	 
H 	 -67.4826 	 14.738 	 -114.537 	 
H 	 -67.24 	 16.4862 	 -114.246 	 
H 	 -61.1871 	 15.6536 	 -119.312 	 
H 	 -68.6498 	 18.6778 	 -120.637 	 
*
