! wB97X-D3 SP def2-SVP
%pal
nprocs 24
end

* xyz 0 1
S 	 -99.9732 	 4.38672 	 -115.65 	 
C 	 -101.014 	 4.82621 	 -117.022 	 
C 	 -102.219 	 4.18696 	 -116.74 	 
C 	 -102.278 	 3.29258 	 -115.633 	 
C 	 -101.049 	 3.20142 	 -114.99 	 
H 	 -103.152 	 2.87133 	 -115.142 	 
C 	 -103.462 	 4.24805 	 -117.657 	 
H 	 -104.222 	 3.57216 	 -117.239 	 
H 	 -103.109 	 3.9667 	 -118.602 	 
C 	 -104.061 	 5.67238 	 -117.665 	 
H 	 -104.717 	 5.74402 	 -116.807 	 
H 	 -103.318 	 6.44646 	 -117.459 	 
C 	 -104.949 	 5.83297 	 -118.93 	 
H 	 -104.329 	 5.96425 	 -119.885 	 
H 	 -105.556 	 4.90127 	 -119.091 	 
H 	 -105.647 	 6.67322 	 -118.836 	 
S 	 -100.466 	 3.67899 	 -112.275 	 
C 	 -100.055 	 2.1881 	 -111.372 	 
C 	 -100.55 	 1.07326 	 -111.984 	 
C 	 -100.908 	 1.32846 	 -113.357 	 
C 	 -100.856 	 2.66347 	 -113.657 	 
H 	 -100.606 	 0.141981 	 -111.494 	 
C 	 -101.397 	 0.237216 	 -114.217 	 
H 	 -102.441 	 0.134948 	 -114.32 	 
H 	 -101.135 	 -0.775111 	 -113.761 	 
C 	 -100.78 	 0.173099 	 -115.604 	 
H 	 -99.715 	 0.41993 	 -115.497 	 
H 	 -101.347 	 0.942623 	 -116.134 	 
C 	 -100.724 	 -1.25619 	 -116.255 	 
H 	 -100.038 	 -1.23747 	 -117.114 	 
H 	 -101.714 	 -1.55073 	 -116.615 	 
H 	 -100.217 	 -1.88988 	 -115.539 	 
H 	 -100.864 	 5.69061 	 -117.633 	 
H 	 -99.6388 	 2.31258 	 -110.331 	 
*
