! wB97X-D3 SP def2-SVP
%pal
nprocs 24
end

* xyz 0 1
S 	 39.6552 	 -31.3908 	 -113.586 	 
C 	 38.774 	 -32.6951 	 -114.262 	 
C 	 39.5614 	 -33.4761 	 -115.063 	 
C 	 40.8933 	 -32.9702 	 -115.177 	 
C 	 41.0527 	 -31.7299 	 -114.531 	 
H 	 41.7383 	 -33.3962 	 -115.656 	 
C 	 39.2072 	 -34.6655 	 -115.94 	 
H 	 38.5112 	 -35.1938 	 -115.318 	 
H 	 39.9887 	 -35.4268 	 -116.046 	 
C 	 38.4295 	 -34.3948 	 -117.209 	 
H 	 37.6408 	 -33.6473 	 -117.034 	 
H 	 39.0474 	 -33.8355 	 -117.867 	 
C 	 37.9554 	 -35.6802 	 -117.95 	 
H 	 37.309 	 -36.2756 	 -117.352 	 
H 	 37.4244 	 -35.5984 	 -118.906 	 
H 	 38.8281 	 -36.2443 	 -118.047 	 
S 	 42.2244 	 -29.3218 	 -114.812 	 
C 	 43.855 	 -29.0014 	 -114.235 	 
C 	 44.3744 	 -30.1434 	 -113.666 	 
C 	 43.4538 	 -31.2174 	 -113.719 	 
C 	 42.2622 	 -30.9523 	 -114.372 	 
H 	 45.3733 	 -30.024 	 -113.204 	 
C 	 43.8885 	 -32.5224 	 -113.111 	 
H 	 42.9353 	 -33.1853 	 -113.158 	 
H 	 44.1062 	 -32.3357 	 -112.135 	 
C 	 45.0559 	 -33.2169 	 -113.76 	 
H 	 45.1388 	 -34.2221 	 -113.352 	 
H 	 45.9737 	 -32.7944 	 -113.445 	 
C 	 44.9408 	 -33.3754 	 -115.289 	 
H 	 44.0087 	 -33.9897 	 -115.383 	 
H 	 45.7814 	 -33.9002 	 -115.655 	 
H 	 44.7201 	 -32.4236 	 -115.763 	 
H 	 37.7393 	 -32.8276 	 -113.989 	 
H 	 44.3587 	 -28.0586 	 -114.428 	 
*
