! wB97X-D3 SP def2-SVP
%pal
nprocs 24
end

* xyz 0 1
S 	 -55.8242 	 14.4373 	 -84.7113 	 
C 	 -57.326 	 14.1904 	 -85.5536 	 
C 	 -57.8134 	 15.3598 	 -86.07 	 
C 	 -56.8134 	 16.3907 	 -85.9864 	 
C 	 -55.6931 	 16.0787 	 -85.2306 	 
H 	 -56.9366 	 17.4209 	 -86.3872 	 
C 	 -59.082 	 15.5853 	 -86.7806 	 
H 	 -59.1792 	 14.6235 	 -87.3352 	 
H 	 -59.0018 	 16.3753 	 -87.4752 	 
C 	 -60.3058 	 15.7778 	 -85.8745 	 
H 	 -60.2147 	 15.2513 	 -85.0064 	 
H 	 -60.3179 	 16.8226 	 -85.5814 	 
C 	 -61.645 	 15.4369 	 -86.5221 	 
H 	 -62.4466 	 16.0345 	 -86.1448 	 
H 	 -61.6179 	 15.4811 	 -87.5866 	 
H 	 -61.8638 	 14.3779 	 -86.3791 	 
S 	 -53.4714 	 16.4075 	 -83.6269 	 
C 	 -52.5683 	 17.885 	 -83.5664 	 
C 	 -53.0849 	 18.7759 	 -84.4405 	 
C 	 -54.2401 	 18.2817 	 -85.1294 	 
C 	 -54.6839 	 16.9808 	 -84.7859 	 
H 	 -52.625 	 19.6969 	 -84.65 	 
C 	 -54.7388 	 19.0748 	 -86.2915 	 
H 	 -54.6532 	 20.045 	 -85.9383 	 
H 	 -55.8425 	 19.1476 	 -86.4048 	 
C 	 -54.0896 	 18.7455 	 -87.6533 	 
H 	 -54.2097 	 17.7362 	 -87.9139 	 
H 	 -53.0027 	 18.9276 	 -87.498 	 
C 	 -54.4728 	 19.6865 	 -88.7701 	 
H 	 -55.5039 	 19.6579 	 -88.9623 	 
H 	 -53.8953 	 19.5805 	 -89.6424 	 
H 	 -54.2529 	 20.6995 	 -88.2719 	 
H 	 -57.8271 	 13.2615 	 -85.5388 	 
H 	 -51.6786 	 18.0442 	 -82.8867 	 
*
