! wB97X-D3 SP def2-SVP
%pal
nprocs 24
end

* xyz 0 1
S 	 -66.5515 	 11.025 	 -74.3279 	 
C 	 -67.5434 	 9.63484 	 -74.1692 	 
C 	 -67.4272 	 8.75396 	 -75.2173 	 
C 	 -66.4598 	 9.3397 	 -76.2046 	 
C 	 -65.9046 	 10.553 	 -75.8282 	 
H 	 -66.1962 	 8.89122 	 -77.1072 	 
C 	 -68.2459 	 7.50084 	 -75.4585 	 
H 	 -68.2744 	 7.04498 	 -74.4652 	 
H 	 -67.5768 	 6.83615 	 -75.9169 	 
C 	 -69.5452 	 7.48181 	 -76.1953 	 
H 	 -69.8201 	 6.44541 	 -75.9883 	 
H 	 -70.3718 	 8.03303 	 -75.7793 	 
C 	 -69.4623 	 7.64563 	 -77.8011 	 
H 	 -69.32 	 8.66501 	 -78.0469 	 
H 	 -68.9406 	 6.98673 	 -78.4272 	 
H 	 -70.5039 	 7.54118 	 -78.1508 	 
S 	 -63.4657 	 11.7329 	 -75.3911 	 
C 	 -62.4147 	 12.044 	 -76.7606 	 
C 	 -62.8104 	 11.4457 	 -77.932 	 
C 	 -64.0899 	 10.8469 	 -77.7577 	 
C 	 -64.6686 	 10.9809 	 -76.4603 	 
H 	 -62.3719 	 11.4851 	 -78.8648 	 
C 	 -64.6651 	 10.0899 	 -78.9059 	 
H 	 -64.7203 	 9.00216 	 -78.6998 	 
H 	 -64.0137 	 10.2264 	 -79.7169 	 
C 	 -65.9993 	 10.5382 	 -79.4783 	 
H 	 -65.7451 	 11.5646 	 -79.8369 	 
H 	 -66.7243 	 10.7296 	 -78.6928 	 
C 	 -66.5168 	 9.75593 	 -80.6664 	 
H 	 -67.5398 	 10.108 	 -81.0059 	 
H 	 -66.759 	 8.74869 	 -80.4024 	 
H 	 -65.8494 	 9.73276 	 -81.5782 	 
H 	 -68.1911 	 9.43829 	 -73.3272 	 
H 	 -61.4169 	 12.2823 	 -76.5059 	 
*
