! wB97X-D3 SP def2-SVP
%pal
nprocs 24
end

* xyz 0 1
S 	 -67.0534 	 9.3382 	 -74.9793 	 
C 	 -67.1897 	 9.31416 	 -73.2665 	 
C 	 -68.4516 	 9.75346 	 -72.9056 	 
C 	 -69.3046 	 10.0152 	 -73.9585 	 
C 	 -68.7168 	 9.84078 	 -75.1696 	 
H 	 -70.3568 	 10.3457 	 -73.9415 	 
C 	 -68.858 	 9.82363 	 -71.4251 	 
H 	 -69.017 	 10.8238 	 -71.188 	 
H 	 -68.0107 	 9.52319 	 -70.8284 	 
C 	 -70.0723 	 8.94147 	 -71.0527 	 
H 	 -70.069 	 9.00026 	 -69.9646 	 
H 	 -71.0508 	 9.4323 	 -71.1828 	 
C 	 -69.9773 	 7.45187 	 -71.3556 	 
H 	 -69.1832 	 6.97296 	 -70.7583 	 
H 	 -70.8596 	 6.95638 	 -71.0533 	 
H 	 -69.8702 	 7.20929 	 -72.3898 	 
S 	 -68.2157 	 11.6654 	 -77.163 	 
C 	 -69.2939 	 11.9003 	 -78.5096 	 
C 	 -70.4452 	 11.1533 	 -78.328 	 
C 	 -70.3938 	 10.2815 	 -77.1894 	 
C 	 -69.2319 	 10.4107 	 -76.4288 	 
H 	 -71.2835 	 11.3817 	 -78.9795 	 
C 	 -71.5488 	 9.38551 	 -76.9439 	 
H 	 -72.427 	 9.93184 	 -77.2533 	 
H 	 -71.7869 	 9.26774 	 -75.9458 	 
C 	 -71.3859 	 7.89619 	 -77.5745 	 
H 	 -70.4389 	 7.51347 	 -77.1257 	 
H 	 -71.3322 	 7.98054 	 -78.6889 	 
C 	 -72.5107 	 6.91457 	 -77.1781 	 
H 	 -72.5624 	 6.98581 	 -76.0969 	 
H 	 -72.3478 	 5.87597 	 -77.2788 	 
H 	 -73.4012 	 7.25493 	 -77.6971 	 
H 	 -66.3471 	 8.98619 	 -72.6494 	 
H 	 -69.0626 	 12.5678 	 -79.2916 	 
*
