! wB97X-D3 SP def2-SVP
%pal
nprocs 24
end

* xyz 0 1
S 	 -55.0449 	 -2.07818 	 -28.1104 	 
C 	 -54.2354 	 -2.17402 	 -26.6129 	 
C 	 -54.3603 	 -3.37923 	 -26.036 	 
C 	 -55.2665 	 -4.25159 	 -26.7156 	 
C 	 -55.9633 	 -3.54439 	 -27.7877 	 
H 	 -55.4099 	 -5.30476 	 -26.4552 	 
C 	 -53.6071 	 -3.93746 	 -24.876 	 
H 	 -52.5202 	 -3.67759 	 -25.084 	 
H 	 -53.6692 	 -5.01771 	 -24.9002 	 
C 	 -54.0249 	 -3.40026 	 -23.4693 	 
H 	 -53.8106 	 -2.31468 	 -23.5226 	 
H 	 -55.1234 	 -3.4575 	 -23.3374 	 
C 	 -53.3552 	 -4.00888 	 -22.2299 	 
H 	 -52.3674 	 -3.58239 	 -22.1765 	 
H 	 -53.8185 	 -3.60322 	 -21.331 	 
H 	 -53.4253 	 -5.12093 	 -22.2353 	 
S 	 -56.1395 	 -4.62617 	 -30.2671 	 
C 	 -57.6119 	 -5.30436 	 -30.7907 	 
C 	 -58.5777 	 -5.28139 	 -29.7915 	 
C 	 -58.1067 	 -4.7136 	 -28.6273 	 
C 	 -56.8426 	 -4.20685 	 -28.7481 	 
H 	 -59.5777 	 -5.73247 	 -29.9324 	 
C 	 -58.9786 	 -4.57499 	 -27.394 	 
H 	 -58.2648 	 -4.2659 	 -26.5964 	 
H 	 -59.2943 	 -5.62427 	 -27.2636 	 
C 	 -60.1057 	 -3.51124 	 -27.6306 	 
H 	 -60.708 	 -3.15311 	 -26.8086 	 
H 	 -60.8049 	 -3.94287 	 -28.3196 	 
C 	 -59.6016 	 -2.17956 	 -28.3297 	 
H 	 -59.0238 	 -1.57963 	 -27.6053 	 
H 	 -60.5073 	 -1.66532 	 -28.6432 	 
H 	 -59.0777 	 -2.2996 	 -29.2524 	 
H 	 -53.4928 	 -1.44467 	 -26.2826 	 
H 	 -57.7487 	 -5.83785 	 -31.732 	 
*
