! wB97X-D3 SP def2-SVP
%pal
nprocs 24
end

* xyz 0 1
S 	 -27.8464 	 12.4226 	 4.0827 	 
C 	 -29.3674 	 12.4603 	 3.20751 	 
C 	 -30.3608 	 13.0588 	 3.87182 	 
C 	 -29.8306 	 13.8852 	 4.89503 	 
C 	 -28.501 	 13.5984 	 5.16255 	 
H 	 -30.2813 	 14.6819 	 5.47131 	 
C 	 -31.7153 	 13.2266 	 3.30731 	 
H 	 -31.677 	 12.741 	 2.33068 	 
H 	 -31.9818 	 14.2079 	 3.27332 	 
C 	 -32.9162 	 12.6182 	 4.02621 	 
H 	 -32.7739 	 12.9751 	 5.0226 	 
H 	 -33.8982 	 12.9842 	 3.62319 	 
C 	 -32.8001 	 11.1498 	 4.09825 	 
H 	 -32.9651 	 10.7563 	 3.1557 	 
H 	 -31.8189 	 10.8391 	 4.44464 	 
H 	 -33.4867 	 10.7457 	 4.82016 	 
S 	 -26.0954 	 14.9724 	 5.35666 	 
C 	 -25.3343 	 15.2332 	 6.88403 	 
C 	 -26.3044 	 15.178 	 7.89059 	 
C 	 -27.5971 	 14.7292 	 7.40411 	 
C 	 -27.5804 	 14.3261 	 6.06806 	 
H 	 -26.0533 	 15.5907 	 8.85524 	 
C 	 -28.7464 	 14.5868 	 8.36034 	 
H 	 -29.5966 	 14.728 	 7.67915 	 
H 	 -28.7965 	 15.3543 	 9.12411 	 
C 	 -28.9955 	 13.1206 	 8.94665 	 
H 	 -28.1516 	 12.7028 	 9.51962 	 
H 	 -29.0501 	 12.4531 	 8.07695 	 
C 	 -30.3253 	 13.0417 	 9.72389 	 
H 	 -30.3628 	 12.0665 	 10.2114 	 
H 	 -31.2439 	 13.0352 	 9.15808 	 
H 	 -30.3235 	 13.8809 	 10.3965 	 
H 	 -29.7147 	 11.8704 	 2.38598 	 
H 	 -24.3211 	 15.6352 	 6.93181 	 
*
