! wB97X-D3 SP def2-SVP
%pal
nprocs 24
end

* xyz 0 1
S 	 -53.7618 	 9.26709 	 -20.5272 	 
C 	 -52.1596 	 9.99392 	 -20.2533 	 
C 	 -52.2457 	 10.906 	 -19.1975 	 
C 	 -53.5883 	 11.0914 	 -18.775 	 
C 	 -54.5278 	 10.3371 	 -19.401 	 
H 	 -53.8264 	 11.8014 	 -17.9595 	 
C 	 -51.0055 	 11.6717 	 -18.7413 	 
H 	 -50.7637 	 12.3421 	 -19.5945 	 
H 	 -50.1888 	 11.0061 	 -18.724 	 
C 	 -51.0746 	 12.3447 	 -17.3821 	 
H 	 -50.1418 	 12.8579 	 -17.096 	 
H 	 -51.8415 	 13.1157 	 -17.3298 	 
C 	 -51.5536 	 11.4335 	 -16.2337 	 
H 	 -51.2782 	 10.3748 	 -16.5226 	 
H 	 -51.0546 	 11.6638 	 -15.3397 	 
H 	 -52.5534 	 11.3095 	 -16.0918 	 
S 	 -56.3456 	 10.3549 	 -17.3456 	 
C 	 -57.9358 	 9.78117 	 -17.6547 	 
C 	 -58.1518 	 9.74125 	 -18.9995 	 
C 	 -57.0482 	 10.167 	 -19.8502 	 
C 	 -55.9534 	 10.3412 	 -19.0661 	 
H 	 -59.1538 	 9.40988 	 -19.3564 	 
C 	 -57.1182 	 10.2992 	 -21.3879 	 
H 	 -57.916 	 9.70596 	 -21.8812 	 
H 	 -56.1996 	 9.97902 	 -21.789 	 
C 	 -57.337 	 11.8238 	 -21.7167 	 
H 	 -56.4642 	 12.3203 	 -21.3678 	 
H 	 -58.2098 	 12.2386 	 -21.1715 	 
C 	 -57.5567 	 12.0043 	 -23.3257 	 
H 	 -57.4936 	 13.0189 	 -23.6821 	 
H 	 -58.5881 	 11.5892 	 -23.5505 	 
H 	 -56.7724 	 11.4169 	 -23.8547 	 
H 	 -51.2231 	 9.65391 	 -20.6189 	 
H 	 -58.6544 	 9.45484 	 -16.9443 	 
*
