! wB97X-D3 SP def2-SVP
%pal
nprocs 24
end

* xyz 0 1
S 	 -41.6845 	 -1.8263 	 -28.4356 	 
C 	 -42.6315 	 -0.379392 	 -28.1656 	 
C 	 -43.8879 	 -0.733826 	 -27.7458 	 
C 	 -43.9658 	 -2.16618 	 -27.6552 	 
C 	 -42.8826 	 -2.91264 	 -27.8444 	 
H 	 -44.9247 	 -2.6055 	 -27.3645 	 
C 	 -45.0236 	 0.26801 	 -27.424 	 
H 	 -44.5751 	 1.25672 	 -27.0478 	 
H 	 -45.6037 	 -0.196009 	 -26.694 	 
C 	 -45.9298 	 0.634104 	 -28.6213 	 
H 	 -46.7978 	 1.24841 	 -28.2032 	 
H 	 -45.2999 	 1.32895 	 -29.2697 	 
C 	 -46.5523 	 -0.586153 	 -29.3511 	 
H 	 -45.8069 	 -1.1958 	 -29.7946 	 
H 	 -47.0274 	 -1.17072 	 -28.5809 	 
H 	 -47.2237 	 -0.433383 	 -30.1258 	 
S 	 -41.7434 	 -5.17074 	 -29.1426 	 
C 	 -41.7802 	 -6.66697 	 -28.184 	 
C 	 -42.6044 	 -6.5689 	 -27.0792 	 
C 	 -43.1641 	 -5.27906 	 -26.9205 	 
C 	 -42.7106 	 -4.35531 	 -27.8655 	 
H 	 -42.8041 	 -7.43633 	 -26.4504 	 
C 	 -43.9272 	 -4.86598 	 -25.7118 	 
H 	 -44.5983 	 -4.19909 	 -26.1147 	 
H 	 -43.3422 	 -4.31064 	 -25.084 	 
C 	 -44.5012 	 -5.8112 	 -24.7975 	 
H 	 -43.8946 	 -6.62735 	 -24.4688 	 
H 	 -45.2883 	 -6.28946 	 -25.3514 	 
C 	 -45.0273 	 -5.16834 	 -23.5338 	 
H 	 -44.4044 	 -4.50426 	 -23.1896 	 
H 	 -45.3475 	 -5.89099 	 -22.7835 	 
H 	 -45.9171 	 -4.59696 	 -23.8815 	 
H 	 -42.204 	 0.622049 	 -28.3273 	 
H 	 -41.2292 	 -7.569 	 -28.4865 	 
*
