! wB97X-D3 SP def2-SVP
%pal
nprocs 24
end

* xyz 0 1
S 	 -40.8635 	 -11.5474 	 5.89416 	 
C 	 -41.1919 	 -12.3277 	 7.39691 	 
C 	 -42.0512 	 -11.5775 	 8.14683 	 
C 	 -42.222 	 -10.2664 	 7.70117 	 
C 	 -41.6352 	 -9.98382 	 6.48912 	 
H 	 -42.8405 	 -9.50249 	 8.19341 	 
C 	 -42.8591 	 -12.1497 	 9.34078 	 
H 	 -42.832 	 -13.2184 	 9.32007 	 
H 	 -43.9361 	 -11.8436 	 9.32315 	 
C 	 -42.3328 	 -11.8601 	 10.7906 	 
H 	 -43.0376 	 -12.2651 	 11.5415 	 
H 	 -41.3795 	 -12.2624 	 10.9208 	 
C 	 -42.3663 	 -10.3079 	 11.1526 	 
H 	 -43.3639 	 -9.86314 	 11.422 	 
H 	 -41.7557 	 -10.0025 	 11.9881 	 
H 	 -42.0555 	 -9.62053 	 10.3246 	 
S 	 -41.6064 	 -8.82294 	 3.95426 	 
C 	 -41.4066 	 -7.06197 	 3.84142 	 
C 	 -41.1897 	 -6.47759 	 5.05952 	 
C 	 -41.1238 	 -7.42075 	 6.13826 	 
C 	 -41.4258 	 -8.72321 	 5.73762 	 
H 	 -41.0226 	 -5.43603 	 5.08005 	 
C 	 -40.8858 	 -7.07431 	 7.59439 	 
H 	 -41.8704 	 -7.4697 	 8.10393 	 
H 	 -40.9527 	 -6.02553 	 7.71261 	 
C 	 -39.4826 	 -7.42815 	 8.19925 	 
H 	 -38.7051 	 -6.85999 	 7.69542 	 
H 	 -39.3295 	 -8.4652 	 7.86621 	 
C 	 -39.4181 	 -7.48185 	 9.76087 	 
H 	 -39.3211 	 -6.3729 	 10.0924 	 
H 	 -38.4578 	 -7.90031 	 9.9199 	 
H 	 -40.3232 	 -8.01618 	 10.1837 	 
H 	 -41.0724 	 -13.3332 	 7.57713 	 
H 	 -41.5443 	 -6.60012 	 2.85607 	 
*
