! wB97X-D3 SP def2-SVP
%pal
nprocs 24
end

* xyz 0 1
S 	 -121.534 	 62.8147 	 -36.2017 	 
C 	 -121.173 	 61.2022 	 -35.6115 	 
C 	 -119.87 	 61.1313 	 -35.0944 	 
C 	 -119.227 	 62.4364 	 -35.0869 	 
C 	 -119.929 	 63.4294 	 -35.6855 	 
H 	 -118.207 	 62.6432 	 -34.7186 	 
C 	 -119.224 	 59.8945 	 -34.4283 	 
H 	 -118.183 	 59.7871 	 -34.871 	 
H 	 -119.742 	 58.9911 	 -34.7702 	 
C 	 -119.175 	 59.7608 	 -32.9144 	 
H 	 -119.002 	 60.7777 	 -32.6293 	 
H 	 -120.154 	 59.5962 	 -32.3912 	 
C 	 -117.903 	 59.1205 	 -32.3607 	 
H 	 -117.025 	 59.3948 	 -32.9753 	 
H 	 -117.723 	 59.4834 	 -31.3269 	 
H 	 -118.097 	 58.0779 	 -32.2429 	 
S 	 -120.291 	 65.5876 	 -37.3692 	 
C 	 -119.585 	 67.1185 	 -36.9814 	 
C 	 -118.753 	 66.992 	 -35.9235 	 
C 	 -118.725 	 65.7444 	 -35.3231 	 
C 	 -119.62 	 64.8263 	 -35.9382 	 
H 	 -118.24 	 67.8644 	 -35.5734 	 
C 	 -117.891 	 65.5338 	 -34.0563 	 
H 	 -118.486 	 64.9131 	 -33.4083 	 
H 	 -117.628 	 66.4945 	 -33.5564 	 
C 	 -116.468 	 64.9385 	 -34.2722 	 
H 	 -115.856 	 65.7236 	 -34.6763 	 
H 	 -116.575 	 64.2253 	 -35.0604 	 
C 	 -115.782 	 64.4173 	 -33.0161 	 
H 	 -115.841 	 65.233 	 -32.2464 	 
H 	 -114.761 	 64.0965 	 -33.1581 	 
H 	 -116.401 	 63.5362 	 -32.7704 	 
H 	 -121.81 	 60.354 	 -35.8956 	 
H 	 -119.812 	 68.0495 	 -37.5313 	 
*
