! wB97X-D3 SP def2-SVP
%pal
nprocs 24
end

* xyz 0 1
S 	 -50.9557 	 13.6696 	 -107.674 	 
C 	 -52.5383 	 13.062 	 -107.534 	 
C 	 -52.7759 	 12.5984 	 -106.254 	 
C 	 -51.5684 	 12.493 	 -105.537 	 
C 	 -50.4333 	 12.9684 	 -106.197 	 
H 	 -51.4503 	 12.0569 	 -104.571 	 
C 	 -54.1811 	 12.2009 	 -105.67 	 
H 	 -54.892 	 12.4067 	 -106.489 	 
H 	 -54.3948 	 12.8512 	 -104.842 	 
C 	 -54.2954 	 10.7106 	 -105.403 	 
H 	 -53.6112 	 10.468 	 -104.565 	 
H 	 -55.2341 	 10.4711 	 -104.92 	 
C 	 -54.1908 	 9.89882 	 -106.751 	 
H 	 -54.1098 	 8.76835 	 -106.629 	 
H 	 -55.0809 	 10.0203 	 -107.322 	 
H 	 -53.4177 	 10.1957 	 -107.448 	 
S 	 -48.3467 	 11.6875 	 -104.902 	 
C 	 -47.0582 	 12.6219 	 -104.145 	 
C 	 -47.1172 	 13.9452 	 -104.523 	 
C 	 -48.1939 	 14.2206 	 -105.339 	 
C 	 -49.0747 	 13.1203 	 -105.528 	 
H 	 -46.3275 	 14.5964 	 -104.174 	 
C 	 -48.4245 	 15.6066 	 -105.834 	 
H 	 -48.8028 	 15.4373 	 -106.82 	 
H 	 -47.4896 	 16.1621 	 -105.996 	 
C 	 -49.4286 	 16.473 	 -105.126 	 
H 	 -50.3958 	 16.1703 	 -105.322 	 
H 	 -49.4239 	 17.5041 	 -105.445 	 
C 	 -49.2218 	 16.5649 	 -103.561 	 
H 	 -48.1679 	 16.516 	 -103.261 	 
H 	 -49.6389 	 15.7366 	 -103.044 	 
H 	 -49.7691 	 17.3646 	 -103.135 	 
H 	 -53.2432 	 13.2268 	 -108.307 	 
H 	 -46.315 	 12.2477 	 -103.48 	 
*
