! wB97X-D3 SP def2-SVP
%pal
nprocs 24
end

* xyz 0 1
S 	 -144.656 	 7.38007 	 1.80598 	 
C 	 -143.176 	 7.65585 	 0.878129 	 
C 	 -142.052 	 7.41898 	 1.63492 	 
C 	 -142.392 	 7.06748 	 2.99949 	 
C 	 -143.745 	 6.97787 	 3.24651 	 
H 	 -141.684 	 6.77452 	 3.74959 	 
C 	 -140.645 	 7.58754 	 1.20969 	 
H 	 -139.926 	 7.1848 	 1.93739 	 
H 	 -140.491 	 8.65581 	 1.12183 	 
C 	 -140.189 	 6.83727 	 -0.0741825 	 
H 	 -140.413 	 5.76053 	 0.00863326 	 
H 	 -140.766 	 7.37007 	 -0.851707 	 
C 	 -138.704 	 6.76028 	 -0.371603 	 
H 	 -138.103 	 6.73231 	 0.530618 	 
H 	 -138.475 	 5.87538 	 -1.01552 	 
H 	 -138.31 	 7.67228 	 -0.885435 	 
S 	 -145.518 	 5.21904 	 4.42322 	 
C 	 -145.657 	 5.24523 	 6.18645 	 
C 	 -144.848 	 6.18079 	 6.77717 	 
C 	 -143.991 	 6.87581 	 5.85459 	 
C 	 -144.337 	 6.53844 	 4.48867 	 
H 	 -144.859 	 6.25556 	 7.88882 	 
C 	 -142.97 	 7.84854 	 6.34734 	 
H 	 -143.451 	 8.34617 	 7.19467 	 
H 	 -142.834 	 8.55416 	 5.52132 	 
C 	 -141.658 	 7.12868 	 6.78692 	 
H 	 -141.36 	 6.26241 	 6.19354 	 
H 	 -141.802 	 6.72142 	 7.72258 	 
C 	 -140.369 	 7.96072 	 6.81622 	 
H 	 -140.096 	 8.31529 	 5.75984 	 
H 	 -139.591 	 7.50918 	 7.42347 	 
H 	 -140.658 	 8.86936 	 7.34477 	 
H 	 -143.08 	 8.01054 	 -0.190335 	 
H 	 -146.354 	 4.61487 	 6.67951 	 
*
