! wB97X-D3 SP def2-SVP
%pal
nprocs 24
end

* xyz 0 1
S 	 39.9117 	 -2.0212 	 -115.377 	 
C 	 41.035 	 -3.36748 	 -115.601 	 
C 	 40.4166 	 -4.49647 	 -116.118 	 
C 	 39.0276 	 -4.34596 	 -116.372 	 
C 	 38.5766 	 -3.08991 	 -115.896 	 
H 	 38.2636 	 -5.015 	 -116.662 	 
C 	 41.1411 	 -5.73763 	 -116.397 	 
H 	 40.4368 	 -6.50363 	 -116.16 	 
H 	 42.0088 	 -5.82404 	 -115.712 	 
C 	 41.6103 	 -5.77139 	 -117.82 	 
H 	 40.6982 	 -5.88782 	 -118.505 	 
H 	 42.0482 	 -4.87662 	 -118.111 	 
C 	 42.5863 	 -6.93169 	 -118.152 	 
H 	 42.5265 	 -7.06567 	 -119.201 	 
H 	 43.6204 	 -6.62667 	 -117.829 	 
H 	 42.4391 	 -7.89614 	 -117.692 	 
S 	 36.9999 	 -1.47239 	 -114.5 	 
C 	 35.3006 	 -1.39826 	 -114.838 	 
C 	 35.017 	 -1.99098 	 -116.068 	 
C 	 36.1244 	 -2.68359 	 -116.678 	 
C 	 37.2567 	 -2.53071 	 -115.854 	 
H 	 33.9954 	 -2.00386 	 -116.391 	 
C 	 35.9668 	 -3.34821 	 -118.054 	 
H 	 36.9369 	 -3.63257 	 -118.346 	 
H 	 35.6121 	 -2.58447 	 -118.772 	 
C 	 35.0972 	 -4.60871 	 -117.959 	 
H 	 34.668 	 -4.80165 	 -118.902 	 
H 	 34.2227 	 -4.43963 	 -117.306 	 
C 	 35.7503 	 -5.87292 	 -117.306 	 
H 	 36.7214 	 -6.23885 	 -117.685 	 
H 	 35.1301 	 -6.73578 	 -117.339 	 
H 	 35.9335 	 -5.75491 	 -116.192 	 
H 	 42.0764 	 -3.23997 	 -115.444 	 
H 	 34.6374 	 -0.699654 	 -114.39 	 
*
