! wB97X-D3 SP def2-SVP
%pal
nprocs 24
end

* xyz 0 1
S 	 -85.4445 	 1.94876 	 -111.768 	 
C 	 -85.6348 	 3.68862 	 -111.274 	 
C 	 -86.5875 	 4.3312 	 -112.059 	 
C 	 -87.1785 	 3.39726 	 -113.041 	 
C 	 -86.666 	 2.1283 	 -113.09 	 
H 	 -88.0876 	 3.54245 	 -113.545 	 
C 	 -87.0063 	 5.74688 	 -111.984 	 
H 	 -86.8602 	 6.16409 	 -111.001 	 
H 	 -88.0674 	 5.84203 	 -112.048 	 
C 	 -86.224 	 6.72466 	 -112.834 	 
H 	 -86.6359 	 7.73799 	 -112.509 	 
H 	 -85.1446 	 6.73069 	 -112.672 	 
C 	 -86.3182 	 6.46157 	 -114.365 	 
H 	 -87.3194 	 6.61479 	 -114.651 	 
H 	 -85.7078 	 7.1523 	 -114.912 	 
H 	 -86.0904 	 5.42182 	 -114.558 	 
S 	 -88.0137 	 -0.19224 	 -112.825 	 
C 	 -88.6752 	 -1.03973 	 -114.203 	 
C 	 -88.3884 	 -0.384546 	 -115.362 	 
C 	 -87.7064 	 0.848375 	 -115.162 	 
C 	 -87.3118 	 1.03874 	 -113.823 	 
H 	 -88.8352 	 -0.725998 	 -116.28 	 
C 	 -87.301 	 1.8686 	 -116.268 	 
H 	 -87.2147 	 2.92162 	 -115.882 	 
H 	 -88.1346 	 1.83474 	 -116.977 	 
C 	 -86.0844 	 1.51522 	 -117.091 	 
H 	 -85.9806 	 2.16949 	 -118.045 	 
H 	 -86.1837 	 0.524701 	 -117.396 	 
C 	 -84.8421 	 1.87771 	 -116.284 	 
H 	 -84.8139 	 2.93569 	 -115.961 	 
H 	 -83.967 	 1.67419 	 -116.913 	 
H 	 -84.6737 	 1.24546 	 -115.412 	 
H 	 -85.0722 	 4.07975 	 -110.479 	 
H 	 -89.2883 	 -1.94449 	 -114.242 	 
*
