! wB97X-D3 SP def2-SVP
%pal
nprocs 24
end

* xyz 0 1
S 	 45.409 	 -14.9641 	 -117.41 	 
C 	 46.5204 	 -15.0446 	 -116.068 	 
C 	 47.7981 	 -15.1956 	 -116.554 	 
C 	 47.8985 	 -15.3619 	 -117.982 	 
C 	 46.6743 	 -15.275 	 -118.562 	 
H 	 48.8105 	 -15.4801 	 -118.584 	 
C 	 49.0027 	 -15.1659 	 -115.752 	 
H 	 49.8178 	 -15.5412 	 -116.371 	 
H 	 48.9699 	 -15.893 	 -114.901 	 
C 	 49.4125 	 -13.7769 	 -115.222 	 
H 	 48.6242 	 -13.3703 	 -114.564 	 
H 	 50.303 	 -13.8278 	 -114.599 	 
C 	 49.6519 	 -12.7082 	 -116.28 	 
H 	 48.8025 	 -12.7024 	 -116.978 	 
H 	 49.8899 	 -11.7481 	 -115.906 	 
H 	 50.4865 	 -13.0351 	 -116.941 	 
S 	 46.427 	 -17.1511 	 -120.563 	 
C 	 46.2172 	 -16.5231 	 -122.19 	 
C 	 46.0916 	 -15.2015 	 -122.243 	 
C 	 46.1053 	 -14.597 	 -120.951 	 
C 	 46.2975 	 -15.4867 	 -119.948 	 
H 	 46.0408 	 -14.7109 	 -123.174 	 
C 	 46.0026 	 -13.0899 	 -120.845 	 
H 	 45.124 	 -13.0599 	 -120.218 	 
H 	 45.7232 	 -12.6564 	 -121.791 	 
C 	 47.1852 	 -12.2346 	 -120.234 	 
H 	 48.0691 	 -12.1076 	 -120.905 	 
H 	 47.5767 	 -12.8097 	 -119.339 	 
C 	 46.7714 	 -10.8346 	 -119.74 	 
H 	 45.8515 	 -10.6397 	 -120.316 	 
H 	 47.4512 	 -10.0108 	 -119.837 	 
H 	 46.4331 	 -10.9831 	 -118.781 	 
H 	 46.2536 	 -14.9281 	 -115.036 	 
H 	 46.2591 	 -17.3336 	 -122.992 	 
*
