! wB97X-D3 SP def2-SVP
%pal
nprocs 24
end

* xyz 0 1
S 	 45.8467 	 -34.876 	 -118.9 	 
C 	 45.143 	 -33.7728 	 -120.095 	 
C 	 45.3927 	 -32.4648 	 -119.645 	 
C 	 46.2641 	 -32.3358 	 -118.541 	 
C 	 46.6999 	 -33.563 	 -118.033 	 
H 	 46.6563 	 -31.4277 	 -118.066 	 
C 	 44.8424 	 -31.2287 	 -120.363 	 
H 	 45.0944 	 -31.2327 	 -121.39 	 
H 	 45.5645 	 -30.4375 	 -119.996 	 
C 	 43.4003 	 -30.8956 	 -120.089 	 
H 	 43.1367 	 -29.8933 	 -120.57 	 
H 	 42.7641 	 -31.6378 	 -120.48 	 
C 	 43.0332 	 -30.8956 	 -118.559 	 
H 	 43.0332 	 -31.9319 	 -118.242 	 
H 	 43.8162 	 -30.293 	 -118.084 	 
H 	 42.1467 	 -30.3581 	 -118.33 	 
S 	 49.2189 	 -34.5036 	 -117.879 	 
C 	 50.1416 	 -34.4492 	 -116.358 	 
C 	 49.3892 	 -33.7889 	 -115.357 	 
C 	 48.1781 	 -33.3263 	 -115.914 	 
C 	 47.8588 	 -33.7745 	 -117.152 	 
H 	 49.9266 	 -33.7307 	 -114.343 	 
C 	 47.1515 	 -32.6052 	 -115.069 	 
H 	 46.7808 	 -33.352 	 -114.287 	 
H 	 46.2217 	 -32.2181 	 -115.59 	 
C 	 47.8251 	 -31.4635 	 -114.202 	 
H 	 48.6625 	 -31.8944 	 -113.694 	 
H 	 47.1585 	 -31.1528 	 -113.46 	 
C 	 48.2074 	 -30.2109 	 -115.083 	 
H 	 48.5477 	 -30.5418 	 -116.035 	 
H 	 49.0267 	 -29.633 	 -114.604 	 
H 	 47.3534 	 -29.5024 	 -115.157 	 
H 	 44.4767 	 -34.0644 	 -120.846 	 
H 	 51.167 	 -34.8825 	 -116.261 	 
*
