! wB97X-D3 SP def2-SVP
%pal
nprocs 24
end

* xyz 0 1
S 	 43.4197 	 -21.395 	 -114.239 	 
C 	 42.678 	 -20.6158 	 -112.867 	 
C 	 43.6827 	 -20.1465 	 -112.021 	 
C 	 45.0105 	 -20.4465 	 -112.505 	 
C 	 45.0452 	 -21.1418 	 -113.672 	 
H 	 45.9035 	 -20.2707 	 -111.969 	 
C 	 43.3985 	 -19.2865 	 -110.868 	 
H 	 42.3632 	 -19.4997 	 -110.673 	 
H 	 43.5036 	 -18.2572 	 -111.301 	 
C 	 44.3089 	 -19.4985 	 -109.674 	 
H 	 45.3231 	 -19.6472 	 -110.029 	 
H 	 44.3319 	 -18.5873 	 -109.105 	 
C 	 43.7386 	 -20.5091 	 -108.73 	 
H 	 43.4836 	 -21.4836 	 -109.174 	 
H 	 44.3733 	 -20.7033 	 -107.936 	 
H 	 42.7888 	 -20.1861 	 -108.318 	 
S 	 46.2344 	 -21.6067 	 -116.096 	 
C 	 47.8581 	 -22.2563 	 -116.3 	 
C 	 48.339 	 -22.5827 	 -115.029 	 
C 	 47.5071 	 -22.1052 	 -113.897 	 
C 	 46.3171 	 -21.5712 	 -114.376 	 
H 	 49.385 	 -22.9473 	 -114.877 	 
C 	 47.886 	 -22.3385 	 -112.401 	 
H 	 47.9354 	 -23.4234 	 -112.338 	 
H 	 47.0651 	 -22.0335 	 -111.846 	 
C 	 49.0641 	 -21.5895 	 -111.904 	 
H 	 48.7268 	 -20.5014 	 -111.898 	 
H 	 49.8975 	 -21.7525 	 -112.586 	 
C 	 49.562 	 -22.002 	 -110.478 	 
H 	 48.7655 	 -22.0495 	 -109.829 	 
H 	 50.3499 	 -21.4406 	 -110.065 	 
H 	 49.8762 	 -23.0172 	 -110.577 	 
H 	 41.5701 	 -20.4376 	 -112.76 	 
H 	 48.3942 	 -22.4308 	 -117.193 	 
*
