! wB97X-D3 SP def2-SVP
%pal
nprocs 24
end

* xyz 0 1
S 	 26.0433 	 -5.3148 	 -109.204 	 
C 	 26.3731 	 -6.76029 	 -110.05 	 
C 	 25.8419 	 -6.82763 	 -111.37 	 
C 	 24.9424 	 -5.67894 	 -111.615 	 
C 	 25.0107 	 -4.79147 	 -110.536 	 
H 	 24.3086 	 -5.49262 	 -112.516 	 
C 	 25.8539 	 -8.08969 	 -112.217 	 
H 	 24.9706 	 -8.62709 	 -111.888 	 
H 	 26.7869 	 -8.61572 	 -111.892 	 
C 	 25.9092 	 -7.81996 	 -113.707 	 
H 	 24.8869 	 -7.51698 	 -113.926 	 
H 	 26.6594 	 -7.10612 	 -114.009 	 
C 	 26.1139 	 -9.10232 	 -114.571 	 
H 	 25.2887 	 -9.75541 	 -114.49 	 
H 	 26.3105 	 -8.8799 	 -115.584 	 
H 	 26.962 	 -9.71741 	 -114.371 	 
S 	 24.9609 	 -2.10744 	 -110.135 	 
C 	 23.4757 	 -1.27953 	 -110.037 	 
C 	 22.447 	 -2.13889 	 -110.309 	 
C 	 22.7632 	 -3.54424 	 -110.404 	 
C 	 24.1547 	 -3.65606 	 -110.339 	 
H 	 21.4093 	 -1.71534 	 -110.502 	 
C 	 21.7311 	 -4.59373 	 -110.634 	 
H 	 22.079 	 -5.43857 	 -111.203 	 
H 	 20.8825 	 -4.2626 	 -111.162 	 
C 	 20.974 	 -5.1232 	 -109.405 	 
H 	 20.5018 	 -4.2296 	 -109.008 	 
H 	 21.64 	 -5.5906 	 -108.669 	 
C 	 19.8956 	 -6.14342 	 -109.789 	 
H 	 19.3134 	 -5.74876 	 -110.654 	 
H 	 19.2744 	 -6.34257 	 -108.958 	 
H 	 20.3329 	 -7.05805 	 -110.043 	 
H 	 26.9263 	 -7.56313 	 -109.577 	 
H 	 23.3916 	 -0.214428 	 -109.789 	 
*
