! wB97X-D3 SP def2-SVP
%pal
nprocs 24
end

* xyz 0 1
S 	 36.9686 	 -7.89369 	 -116.899 	 
C 	 38.2729 	 -9.13527 	 -116.858 	 
C 	 39.1036 	 -8.89428 	 -115.753 	 
C 	 38.7172 	 -7.72278 	 -115.032 	 
C 	 37.5893 	 -7.06521 	 -115.495 	 
H 	 39.1506 	 -7.22339 	 -114.099 	 
C 	 40.1953 	 -9.71137 	 -115.197 	 
H 	 39.8861 	 -10.7473 	 -115.401 	 
H 	 40.2016 	 -9.64407 	 -114.051 	 
C 	 41.6243 	 -9.45565 	 -115.542 	 
H 	 41.6296 	 -9.52743 	 -116.601 	 
H 	 41.9008 	 -8.51302 	 -115.257 	 
C 	 42.6731 	 -10.4576 	 -115.033 	 
H 	 42.649 	 -10.7309 	 -113.972 	 
H 	 42.5242 	 -11.407 	 -115.61 	 
H 	 43.662 	 -10.1451 	 -115.433 	 
S 	 36.1441 	 -4.5815 	 -115.604 	 
C 	 35.7566 	 -3.84287 	 -114.104 	 
C 	 35.7962 	 -4.77536 	 -113.044 	 
C 	 36.5008 	 -5.94 	 -113.437 	 
C 	 36.7969 	 -6.02172 	 -114.814 	 
H 	 35.4449 	 -4.37767 	 -112.053 	 
C 	 36.8829 	 -6.89432 	 -112.39 	 
H 	 36.9057 	 -6.47455 	 -111.366 	 
H 	 37.8298 	 -7.26604 	 -112.607 	 
C 	 35.8827 	 -8.04356 	 -112.191 	 
H 	 36.2154 	 -8.7955 	 -111.516 	 
H 	 35.6448 	 -8.63661 	 -113.12 	 
C 	 34.4183 	 -7.69657 	 -111.822 	 
H 	 34.5216 	 -7.2271 	 -110.88 	 
H 	 33.746 	 -8.48966 	 -111.745 	 
H 	 33.9721 	 -6.8661 	 -112.472 	 
H 	 38.3541 	 -10.064 	 -117.436 	 
H 	 35.1563 	 -2.91824 	 -114.148 	 
*
