! wB97X-D3 SP def2-SVP
%pal
nprocs 24
end

* xyz 0 1
S 	 -2.26538 	 -24.8232 	 -118.252 	 
C 	 -0.684793 	 -25.6255 	 -118.556 	 
C 	 0.279131 	 -25.2233 	 -117.647 	 
C 	 -0.283916 	 -24.5779 	 -116.486 	 
C 	 -1.61478 	 -24.3904 	 -116.613 	 
H 	 0.218937 	 -24.2231 	 -115.595 	 
C 	 1.79494 	 -25.5777 	 -117.735 	 
H 	 2.01467 	 -25.912 	 -118.763 	 
H 	 1.98301 	 -26.4944 	 -117.236 	 
C 	 2.78244 	 -24.5917 	 -117.153 	 
H 	 2.53501 	 -24.2824 	 -116.119 	 
H 	 3.7083 	 -25.0899 	 -116.981 	 
C 	 2.91654 	 -23.2549 	 -117.96 	 
H 	 3.61157 	 -22.4422 	 -117.52 	 
H 	 3.37009 	 -23.4181 	 -118.99 	 
H 	 1.91377 	 -22.8451 	 -118.139 	 
S 	 -3.97051 	 -24.9895 	 -115.224 	 
C 	 -4.43655 	 -24.066 	 -113.799 	 
C 	 -3.45733 	 -23.1353 	 -113.487 	 
C 	 -2.43672 	 -23.084 	 -114.475 	 
C 	 -2.56339 	 -23.948 	 -115.53 	 
H 	 -3.5416 	 -22.5575 	 -112.635 	 
C 	 -1.32417 	 -22.0898 	 -114.168 	 
H 	 -1.75173 	 -21.0922 	 -113.959 	 
H 	 -0.759562 	 -22.075 	 -115.055 	 
C 	 -0.403019 	 -22.5287 	 -113.002 	 
H 	 -0.121686 	 -23.5514 	 -113.125 	 
H 	 -0.830049 	 -22.4098 	 -111.963 	 
C 	 0.89582 	 -21.6957 	 -112.932 	 
H 	 1.59553 	 -21.9669 	 -113.724 	 
H 	 1.48764 	 -21.9713 	 -112.008 	 
H 	 0.659808 	 -20.6313 	 -112.929 	 
H 	 -0.5158 	 -26.2173 	 -119.446 	 
H 	 -5.18595 	 -24.2082 	 -113.106 	 
*
