! wB97X-D3 SP def2-SVP
%pal
nprocs 24
end

* xyz 0 1
S 	 -120.424 	 60.1152 	 -39.1973 	 
C 	 -121.717 	 59.0571 	 -39.6391 	 
C 	 -122.301 	 58.4984 	 -38.5076 	 
C 	 -121.723 	 58.9707 	 -37.2708 	 
C 	 -120.545 	 59.7012 	 -37.5143 	 
H 	 -121.939 	 58.7557 	 -36.2358 	 
C 	 -123.597 	 57.7459 	 -38.5111 	 
H 	 -124.325 	 58.0788 	 -39.2696 	 
H 	 -124.138 	 57.9731 	 -37.53 	 
C 	 -123.357 	 56.2122 	 -38.7382 	 
H 	 -124.246 	 55.7021 	 -38.8579 	 
H 	 -122.847 	 56.0409 	 -39.7029 	 
C 	 -122.692 	 55.4491 	 -37.5394 	 
H 	 -123.245 	 55.5174 	 -36.7014 	 
H 	 -122.618 	 54.328 	 -37.6757 	 
H 	 -121.669 	 55.7598 	 -37.305 	 
S 	 -117.847 	 59.6187 	 -36.8249 	 
C 	 -117.366 	 60.1972 	 -35.2233 	 
C 	 -118.438 	 60.7608 	 -34.5961 	 
C 	 -119.688 	 60.6787 	 -35.296 	 
C 	 -119.552 	 60.0743 	 -36.5226 	 
H 	 -118.137 	 61.2014 	 -33.6629 	 
C 	 -120.833 	 61.4737 	 -34.7297 	 
H 	 -121.76 	 61.3481 	 -35.3118 	 
H 	 -120.567 	 62.5191 	 -34.9315 	 
C 	 -121.181 	 61.1465 	 -33.2626 	 
H 	 -122.074 	 61.73 	 -32.9189 	 
H 	 -120.34 	 61.5062 	 -32.6216 	 
C 	 -121.525 	 59.6303 	 -33.1394 	 
H 	 -122.201 	 59.4488 	 -33.9982 	 
H 	 -121.996 	 59.4317 	 -32.2684 	 
H 	 -120.647 	 59.0165 	 -33.1965 	 
H 	 -122.089 	 58.8211 	 -40.638 	 
H 	 -116.407 	 60.1822 	 -34.7696 	 
*
