! wB97X-D3 SP def2-SVP
%pal
nprocs 24
end

* xyz 0 1
S 	 41.2212 	 -10.6078 	 -125.45 	 
C 	 41.3513 	 -10.8807 	 -123.66 	 
C 	 41.2928 	 -12.2227 	 -123.313 	 
C 	 41.0439 	 -13.0253 	 -124.539 	 
C 	 41.0987 	 -12.3091 	 -125.727 	 
H 	 40.8373 	 -14.0888 	 -124.48 	 
C 	 41.4989 	 -12.728 	 -121.872 	 
H 	 41.8709 	 -13.769 	 -121.952 	 
H 	 40.5712 	 -12.8341 	 -121.401 	 
C 	 42.4322 	 -11.869 	 -120.965 	 
H 	 42.0625 	 -10.8659 	 -120.896 	 
H 	 42.2898 	 -12.2298 	 -119.958 	 
C 	 43.8985 	 -12.0699 	 -121.316 	 
H 	 44.0713 	 -13.0492 	 -121.668 	 
H 	 44.1444 	 -11.4001 	 -122.096 	 
H 	 44.6007 	 -11.7848 	 -120.505 	 
S 	 39.6501 	 -12.0335 	 -127.961 	 
C 	 39.7133 	 -13.2268 	 -129.223 	 
C 	 40.6206 	 -14.168 	 -128.963 	 
C 	 41.308 	 -13.9848 	 -127.721 	 
C 	 40.8175 	 -12.8868 	 -127.017 	 
H 	 40.8602 	 -14.8037 	 -129.747 	 
C 	 42.3689 	 -14.915 	 -127.212 	 
H 	 42.8231 	 -14.5539 	 -126.287 	 
H 	 43.2126 	 -14.8809 	 -127.881 	 
C 	 41.8766 	 -16.2959 	 -126.78 	 
H 	 41.3644 	 -16.7864 	 -127.544 	 
H 	 41.1286 	 -16.1213 	 -126.031 	 
C 	 43.092 	 -17.1537 	 -126.357 	 
H 	 42.7605 	 -18.1936 	 -126.3 	 
H 	 43.544 	 -16.8735 	 -125.416 	 
H 	 43.794 	 -17.0727 	 -127.149 	 
H 	 41.4411 	 -10.1436 	 -122.931 	 
H 	 39.229 	 -13.1989 	 -130.176 	 
*
