! wB97X-D3 SP def2-SVP
%pal
nprocs 24
end

* xyz 0 1
S 	 -90.9177 	 -35.607 	 -64.7361 	 
C 	 -92.7274 	 -35.5462 	 -64.8043 	 
C 	 -93.1725 	 -35.0837 	 -66.0319 	 
C 	 -92.1076 	 -34.8031 	 -66.9607 	 
C 	 -90.8254 	 -34.8732 	 -66.3603 	 
H 	 -92.1941 	 -34.4716 	 -68.0366 	 
C 	 -94.6131 	 -34.9812 	 -66.5372 	 
H 	 -94.6138 	 -34.2286 	 -67.2984 	 
H 	 -95.3248 	 -34.6475 	 -65.7724 	 
C 	 -95.3629 	 -36.2816 	 -67.0191 	 
H 	 -95.5651 	 -37.0812 	 -66.2799 	 
H 	 -96.3956 	 -36.0755 	 -67.3577 	 
C 	 -94.6038 	 -37.0477 	 -68.1322 	 
H 	 -94.0066 	 -36.4185 	 -68.7863 	 
H 	 -94.0784 	 -37.8525 	 -67.6156 	 
H 	 -95.3637 	 -37.4747 	 -68.703 	 
S 	 -88.3423 	 -33.6727 	 -66.1616 	 
C 	 -87.3732 	 -33.3761 	 -67.5442 	 
C 	 -87.9272 	 -34.0903 	 -68.6035 	 
C 	 -89.127 	 -34.6984 	 -68.3197 	 
C 	 -89.5496 	 -34.5794 	 -67.0192 	 
H 	 -87.4163 	 -34.1895 	 -69.4909 	 
C 	 -89.9235 	 -35.5176 	 -69.382 	 
H 	 -89.3414 	 -35.4392 	 -70.3413 	 
H 	 -90.8071 	 -34.8652 	 -69.5731 	 
C 	 -90.3013 	 -36.9688 	 -69.1215 	 
H 	 -90.7762 	 -37.0569 	 -68.1604 	 
H 	 -89.2744 	 -37.4731 	 -68.9962 	 
C 	 -91.0754 	 -37.5867 	 -70.356 	 
H 	 -90.2741 	 -37.7238 	 -71.0612 	 
H 	 -91.809 	 -36.8866 	 -70.7483 	 
H 	 -91.5216 	 -38.5531 	 -70.1422 	 
H 	 -93.364 	 -35.7524 	 -63.9167 	 
H 	 -86.416 	 -32.9281 	 -67.597 	 
*
