! wB97X-D3 SP def2-SVP
%pal
nprocs 24
end

* xyz 0 1
S 	 -42.3381 	 -49.4778 	 -71.5827 	 
C 	 -42.1596 	 -47.7546 	 -72.0063 	 
C 	 -42.7241 	 -46.9517 	 -71.0297 	 
C 	 -43.4446 	 -47.6492 	 -69.9674 	 
C 	 -43.3846 	 -49.0317 	 -70.1777 	 
H 	 -43.9059 	 -47.3171 	 -69.0326 	 
C 	 -42.6026 	 -45.449 	 -71.0209 	 
H 	 -41.5632 	 -45.152 	 -71.2306 	 
H 	 -42.8914 	 -45.1865 	 -70.0333 	 
C 	 -43.4952 	 -44.7292 	 -72.0401 	 
H 	 -43.0914 	 -43.7307 	 -72.1395 	 
H 	 -43.4375 	 -45.3701 	 -72.894 	 
C 	 -44.8669 	 -44.5574 	 -71.5146 	 
H 	 -45.0437 	 -44.2447 	 -70.4641 	 
H 	 -45.5256 	 -44.0364 	 -72.1274 	 
H 	 -45.3789 	 -45.5697 	 -71.5444 	 
S 	 -42.8039 	 -50.8471 	 -68.1753 	 
C 	 -44.0771 	 -51.5535 	 -67.2522 	 
C 	 -45.2541 	 -51.3668 	 -67.9261 	 
C 	 -45.2356 	 -50.3268 	 -68.9363 	 
C 	 -43.9649 	 -49.9801 	 -69.2057 	 
H 	 -46.1669 	 -51.9378 	 -67.6527 	 
C 	 -46.4656 	 -49.9365 	 -69.7213 	 
H 	 -46.4706 	 -48.8856 	 -69.7091 	 
H 	 -47.3152 	 -50.2658 	 -69.0462 	 
C 	 -46.4396 	 -50.404 	 -71.1921 	 
H 	 -45.6382 	 -49.8509 	 -71.6859 	 
H 	 -47.3217 	 -50.0505 	 -71.5862 	 
C 	 -46.3645 	 -51.9072 	 -71.4595 	 
H 	 -45.5522 	 -52.4656 	 -70.9286 	 
H 	 -46.3435 	 -52.1767 	 -72.5482 	 
H 	 -47.3339 	 -52.2946 	 -71.1175 	 
H 	 -41.5127 	 -47.3797 	 -72.8203 	 
H 	 -44.0637 	 -52.2648 	 -66.4716 	 
*
