! wB97X-D3 SP def2-SVP
%pal
nprocs 24
end

* xyz 0 1
S 	 -47.3191 	 -49.6428 	 -74.0975 	 
C 	 -46.17 	 -48.339 	 -74.1616 	 
C 	 -45.5822 	 -48.1674 	 -72.9501 	 
C 	 -45.7433 	 -49.3132 	 -72.0889 	 
C 	 -46.6304 	 -50.2515 	 -72.5848 	 
H 	 -45.115 	 -49.5914 	 -71.2112 	 
C 	 -44.7327 	 -46.9928 	 -72.5806 	 
H 	 -45.2885 	 -46.0302 	 -72.7459 	 
H 	 -43.8793 	 -46.8607 	 -73.2491 	 
C 	 -44.3485 	 -46.8152 	 -71.0609 	 
H 	 -45.2725 	 -46.7106 	 -70.4586 	 
H 	 -43.8795 	 -47.7112 	 -70.7641 	 
C 	 -43.4328 	 -45.646 	 -70.7587 	 
H 	 -42.5136 	 -45.7816 	 -71.288 	 
H 	 -43.94 	 -44.7099 	 -71.069 	 
H 	 -43.2332 	 -45.6604 	 -69.6654 	 
S 	 -46.1776 	 -52.9301 	 -72.0693 	 
C 	 -47.4592 	 -53.7671 	 -71.2978 	 
C 	 -48.4689 	 -52.8962 	 -70.8632 	 
C 	 -48.2241 	 -51.5681 	 -71.2018 	 
C 	 -47.0694 	 -51.4423 	 -71.9135 	 
H 	 -49.2482 	 -53.3025 	 -70.2267 	 
C 	 -49.2187 	 -50.3985 	 -70.9 	 
H 	 -50.0489 	 -50.879 	 -70.3526 	 
H 	 -49.6692 	 -50.0044 	 -71.8223 	 
C 	 -48.8416 	 -49.3567 	 -69.8007 	 
H 	 -49.6289 	 -48.6955 	 -69.7741 	 
H 	 -47.9545 	 -48.7051 	 -70.0356 	 
C 	 -48.5706 	 -50.0291 	 -68.4158 	 
H 	 -47.8967 	 -50.854 	 -68.5664 	 
H 	 -49.4816 	 -50.4856 	 -67.9394 	 
H 	 -48.1842 	 -49.3951 	 -67.615 	 
H 	 -46.1522 	 -47.5285 	 -74.9146 	 
H 	 -47.2997 	 -54.8272 	 -70.9946 	 
*
