! wB97X-D3 SP def2-SVP
%pal
nprocs 24
end

* xyz 0 1
S 	 -66.7007 	 7.19474 	 -102.368 	 
C 	 -65.4618 	 7.39758 	 -101.169 	 
C 	 -66.0085 	 7.56105 	 -99.9712 	 
C 	 -67.4655 	 7.35533 	 -100.002 	 
C 	 -68.0057 	 7.0841 	 -101.238 	 
H 	 -68.1273 	 7.44403 	 -99.0965 	 
C 	 -65.298 	 7.61174 	 -98.6166 	 
H 	 -64.4202 	 8.20293 	 -98.7937 	 
H 	 -65.1015 	 6.66565 	 -98.1138 	 
C 	 -66.0316 	 8.27621 	 -97.4269 	 
H 	 -66.9241 	 7.69317 	 -97.3451 	 
H 	 -65.5252 	 8.04561 	 -96.4387 	 
C 	 -66.4879 	 9.72274 	 -97.5213 	 
H 	 -65.7362 	 10.444 	 -97.7929 	 
H 	 -67.3763 	 9.82227 	 -98.0835 	 
H 	 -66.748 	 9.98414 	 -96.4818 	 
S 	 -69.8452 	 7.9184 	 -103.095 	 
C 	 -71.466 	 7.26508 	 -103.049 	 
C 	 -71.6142 	 6.43017 	 -101.99 	 
C 	 -70.4548 	 6.26571 	 -101.205 	 
C 	 -69.3623 	 6.97224 	 -101.721 	 
H 	 -72.6285 	 5.95358 	 -101.775 	 
C 	 -70.3353 	 5.22886 	 -100.028 	 
H 	 -69.6653 	 5.53908 	 -99.3059 	 
H 	 -69.9867 	 4.34321 	 -100.483 	 
C 	 -71.6987 	 4.96736 	 -99.4675 	 
H 	 -72.3607 	 4.46241 	 -100.086 	 
H 	 -72.0635 	 6.00192 	 -99.3689 	 
C 	 -71.6994 	 4.30228 	 -98.059 	 
H 	 -72.5524 	 4.60056 	 -97.4017 	 
H 	 -70.8463 	 4.61499 	 -97.4384 	 
H 	 -71.7377 	 3.1727 	 -98.0349 	 
H 	 -64.4186 	 7.28077 	 -101.303 	 
H 	 -72.1553 	 7.5245 	 -103.817 	 
*
