! wB97X-D3 SP def2-SVP
%pal
nprocs 24
end

* xyz 0 1
S 	 -115.028 	 38.7513 	 -116.488 	 
C 	 -114.151 	 38.3341 	 -117.928 	 
C 	 -113.004 	 37.7134 	 -117.615 	 
C 	 -112.899 	 37.4004 	 -116.214 	 
C 	 -113.974 	 37.8922 	 -115.458 	 
H 	 -112.027 	 36.905 	 -115.735 	 
C 	 -111.988 	 37.2111 	 -118.604 	 
H 	 -112.225 	 37.6482 	 -119.581 	 
H 	 -112.221 	 36.1387 	 -118.659 	 
C 	 -110.513 	 37.4865 	 -118.22 	 
H 	 -110.441 	 38.4725 	 -117.761 	 
H 	 -110.261 	 36.8038 	 -117.413 	 
C 	 -109.666 	 37.3283 	 -119.466 	 
H 	 -109.92 	 36.4803 	 -119.959 	 
H 	 -109.569 	 38.2007 	 -120.14 	 
H 	 -108.672 	 37.136 	 -119.138 	 
S 	 -113.597 	 39.4053 	 -113.277 	 
C 	 -113.744 	 38.7354 	 -111.722 	 
C 	 -113.854 	 37.3398 	 -111.76 	 
C 	 -113.759 	 36.8884 	 -113.097 	 
C 	 -113.97 	 37.9308 	 -114.004 	 
H 	 -113.939 	 36.6814 	 -110.819 	 
C 	 -113.65 	 35.4287 	 -113.423 	 
H 	 -113.144 	 35.1312 	 -112.474 	 
H 	 -112.9 	 35.3404 	 -114.256 	 
C 	 -114.999 	 34.7408 	 -113.743 	 
H 	 -115.379 	 35.2605 	 -114.537 	 
H 	 -115.628 	 34.8362 	 -112.855 	 
C 	 -114.809 	 33.3068 	 -114.249 	 
H 	 -115.764 	 33.0255 	 -114.69 	 
H 	 -114.624 	 32.6071 	 -113.455 	 
H 	 -113.9 	 33.3117 	 -114.937 	 
H 	 -114.419 	 38.6513 	 -118.949 	 
H 	 -113.772 	 39.3065 	 -110.815 	 
*
