! wB97X-D3 SP def2-SVP
%pal
nprocs 24
end

* xyz 0 1
S 	 -110.764 	 35.992 	 -17.5912 	 
C 	 -110.652 	 36.168 	 -15.8347 	 
C 	 -109.549 	 35.4061 	 -15.3973 	 
C 	 -109.119 	 34.4493 	 -16.3726 	 
C 	 -109.911 	 34.4623 	 -17.4758 	 
H 	 -108.361 	 33.6766 	 -16.1953 	 
C 	 -108.775 	 35.4697 	 -14.0458 	 
H 	 -109.068 	 34.5882 	 -13.438 	 
H 	 -109.11 	 36.4216 	 -13.5257 	 
C 	 -107.261 	 35.5472 	 -14.1004 	 
H 	 -106.878 	 34.8054 	 -14.8379 	 
H 	 -106.883 	 36.5759 	 -14.3468 	 
C 	 -106.653 	 35.2472 	 -12.7326 	 
H 	 -105.6 	 35.0723 	 -12.8457 	 
H 	 -106.868 	 36.1369 	 -12.182 	 
H 	 -107.018 	 34.3662 	 -12.3092 	 
S 	 -109.257 	 34.3175 	 -20.1196 	 
C 	 -109.321 	 32.7571 	 -20.9238 	 
C 	 -109.866 	 31.7709 	 -20.0775 	 
C 	 -110.268 	 32.2886 	 -18.8038 	 
C 	 -109.904 	 33.5993 	 -18.6512 	 
H 	 -109.877 	 30.6754 	 -20.291 	 
C 	 -110.884 	 31.3466 	 -17.8403 	 
H 	 -111.771 	 30.9932 	 -18.3044 	 
H 	 -111.278 	 31.9284 	 -17 	 
C 	 -109.88 	 30.2558 	 -17.3787 	 
H 	 -108.976 	 30.6446 	 -16.888 	 
H 	 -109.456 	 29.7514 	 -18.1694 	 
C 	 -110.513 	 29.2035 	 -16.4129 	 
H 	 -111.203 	 29.794 	 -15.7646 	 
H 	 -109.788 	 28.7019 	 -15.7837 	 
H 	 -111.049 	 28.4462 	 -16.9979 	 
H 	 -111.026 	 36.9627 	 -15.1775 	 
H 	 -108.793 	 32.4791 	 -21.7889 	 
*
