! wB97X-D3 SP def2-SVP
%pal
nprocs 24
end

* xyz 0 1
S 	 -47.1163 	 15.2457 	 25.1501 	 
C 	 -48.107 	 13.8343 	 24.8149 	 
C 	 -47.426 	 12.7713 	 24.2707 	 
C 	 -46.0801 	 13.1166 	 24.0928 	 
C 	 -45.6404 	 14.3369 	 24.6089 	 
H 	 -45.3533 	 12.6152 	 23.5488 	 
C 	 -48.0779 	 11.5205 	 23.693 	 
H 	 -47.197 	 10.8675 	 23.4445 	 
H 	 -48.5943 	 11.7073 	 22.6771 	 
C 	 -48.9598 	 10.6685 	 24.5762 	 
H 	 -48.5678 	 10.382 	 25.5638 	 
H 	 -49.8954 	 11.2398 	 24.6462 	 
C 	 -49.377 	 9.32595 	 23.8831 	 
H 	 -49.8556 	 9.31619 	 22.9136 	 
H 	 -48.4682 	 8.79528 	 23.5878 	 
H 	 -49.8378 	 8.59045 	 24.5156 	 
S 	 -44.3776 	 16.6596 	 23.9365 	 
C 	 -42.6467 	 16.632 	 23.7538 	 
C 	 -42.0373 	 15.407 	 24.039 	 
C 	 -43.0359 	 14.4962 	 24.4639 	 
C 	 -44.3425 	 14.9622 	 24.4073 	 
H 	 -40.9822 	 15.3203 	 23.8261 	 
C 	 -42.6822 	 13.0428 	 24.805 	 
H 	 -41.6861 	 12.8269 	 24.5425 	 
H 	 -43.2665 	 12.4882 	 24.0768 	 
C 	 -42.9578 	 12.641 	 26.2102 	 
H 	 -42.7403 	 11.5556 	 26.3625 	 
H 	 -44.0158 	 12.743 	 26.3821 	 
C 	 -42.3305 	 13.4893 	 27.3529 	 
H 	 -41.4364 	 13.8713 	 26.936 	 
H 	 -42.1826 	 12.8691 	 28.2409 	 
H 	 -43.0376 	 14.256 	 27.6812 	 
H 	 -49.0964 	 13.5859 	 25.0996 	 
H 	 -42.2155 	 17.5455 	 23.3223 	 
*
