! wB97X-D3 SP def2-SVP
%pal
nprocs 24
end

* xyz 0 1
S 	 -107.305 	 51.5686 	 -94.9383 	 
C 	 -105.751 	 50.7804 	 -94.6685 	 
C 	 -104.925 	 50.6745 	 -95.8123 	 
C 	 -105.508 	 51.4066 	 -96.9272 	 
C 	 -106.739 	 51.962 	 -96.583 	 
H 	 -105.08 	 51.607 	 -97.8936 	 
C 	 -103.531 	 50.0067 	 -95.8702 	 
H 	 -103.423 	 49.3343 	 -96.6911 	 
H 	 -103.302 	 49.4603 	 -94.8434 	 
C 	 -102.341 	 50.9747 	 -95.7982 	 
H 	 -101.45 	 50.3837 	 -95.9965 	 
H 	 -102.348 	 51.5353 	 -96.7907 	 
C 	 -102.369 	 51.8433 	 -94.5361 	 
H 	 -101.772 	 52.7607 	 -94.5133 	 
H 	 -103.446 	 52.1168 	 -94.2664 	 
H 	 -102.065 	 51.358 	 -93.5993 	 
S 	 -108.087 	 54.4279 	 -97.0883 	 
C 	 -108.797 	 54.7367 	 -98.6691 	 
C 	 -108.625 	 53.6196 	 -99.4699 	 
C 	 -107.873 	 52.5704 	 -98.8922 	 
C 	 -107.572 	 52.7629 	 -97.565 	 
H 	 -108.937 	 53.6636 	 -100.473 	 
C 	 -107.47 	 51.3729 	 -99.7186 	 
H 	 -106.409 	 51.4117 	 -99.8133 	 
H 	 -107.836 	 51.2984 	 -100.768 	 
C 	 -107.887 	 49.9618 	 -99.0769 	 
H 	 -108.964 	 49.8529 	 -99.0754 	 
H 	 -107.456 	 49.9473 	 -98.0538 	 
C 	 -107.306 	 48.7754 	 -99.7922 	 
H 	 -106.219 	 48.9382 	 -99.8943 	 
H 	 -107.714 	 48.4852 	 -100.731 	 
H 	 -107.422 	 47.8244 	 -99.15 	 
H 	 -105.478 	 50.375 	 -93.7356 	 
H 	 -109.371 	 55.5555 	 -98.8816 	 
*
