! wB97X-D3 SP def2-SVP
%pal
nprocs 24
end

* xyz 0 1
S 	 -60.3165 	 7.92841 	 -15.6765 	 
C 	 -60.2472 	 6.40034 	 -14.9231 	 
C 	 -60.2763 	 5.35392 	 -15.8569 	 
C 	 -60.3291 	 5.77178 	 -17.2344 	 
C 	 -60.3193 	 7.14456 	 -17.3057 	 
H 	 -60.305 	 5.07539 	 -18.0764 	 
C 	 -60.126 	 3.8733 	 -15.5909 	 
H 	 -60.7302 	 3.18686 	 -16.2182 	 
H 	 -60.4853 	 3.6286 	 -14.658 	 
C 	 -58.6322 	 3.45619 	 -15.6721 	 
H 	 -58.2237 	 3.87421 	 -16.5762 	 
H 	 -58.2662 	 3.92008 	 -14.7559 	 
C 	 -58.4876 	 1.93215 	 -15.4255 	 
H 	 -59.0183 	 1.60732 	 -14.5449 	 
H 	 -58.7971 	 1.36676 	 -16.2893 	 
H 	 -57.4241 	 1.8381 	 -15.2427 	 
S 	 -61.6617 	 9.20278 	 -18.4148 	 
C 	 -61.3956 	 9.58022 	 -20.1031 	 
C 	 -60.3328 	 8.86811 	 -20.591 	 
C 	 -59.7526 	 7.89896 	 -19.7393 	 
C 	 -60.4466 	 7.93503 	 -18.4972 	 
H 	 -60.0779 	 9.14378 	 -21.5927 	 
C 	 -58.5674 	 7.01142 	 -20.1696 	 
H 	 -58.1321 	 6.46156 	 -19.3124 	 
H 	 -57.7497 	 7.70747 	 -20.2882 	 
C 	 -58.692 	 6.05711 	 -21.381 	 
H 	 -57.8059 	 5.46793 	 -21.4651 	 
H 	 -58.8306 	 6.69147 	 -22.2965 	 
C 	 -59.7988 	 5.06571 	 -21.1956 	 
H 	 -59.6892 	 4.47316 	 -20.3307 	 
H 	 -59.6494 	 4.35493 	 -21.9989 	 
H 	 -60.7821 	 5.45698 	 -21.1484 	 
H 	 -60.4152 	 6.18512 	 -13.8464 	 
H 	 -61.8056 	 10.4354 	 -20.6331 	 
*
