! wB97X-D3 SP def2-SVP
%pal
nprocs 24
end

* xyz 0 1
S 	 -57.0619 	 14.4118 	 -83.9272 	 
C 	 -58.7359 	 14.4555 	 -84.4497 	 
C 	 -59.0377 	 15.7131 	 -84.9442 	 
C 	 -57.8782 	 16.5948 	 -84.9791 	 
C 	 -56.71 	 15.9775 	 -84.5767 	 
H 	 -57.7485 	 17.5412 	 -85.3657 	 
C 	 -60.3846 	 16.1979 	 -85.5049 	 
H 	 -60.4525 	 17.1722 	 -85.2076 	 
H 	 -61.1985 	 15.7286 	 -84.9666 	 
C 	 -60.6503 	 15.9624 	 -86.98 	 
H 	 -60.9083 	 14.9661 	 -87.1659 	 
H 	 -61.5226 	 16.5731 	 -87.1194 	 
C 	 -59.5732 	 16.2877 	 -87.9826 	 
H 	 -59.1868 	 17.3377 	 -87.8331 	 
H 	 -58.8866 	 15.4955 	 -87.8329 	 
H 	 -59.9497 	 16.3178 	 -88.9756 	 
S 	 -54.5982 	 16.9308 	 -83.1119 	 
C 	 -53.2193 	 17.5439 	 -83.9697 	 
C 	 -53.3448 	 17.7169 	 -85.2823 	 
C 	 -54.566 	 17.1353 	 -85.6919 	 
C 	 -55.3811 	 16.6533 	 -84.6517 	 
H 	 -52.5944 	 18.1757 	 -85.9128 	 
C 	 -54.945 	 17.2179 	 -87.1493 	 
H 	 -55.1328 	 18.261 	 -87.4269 	 
H 	 -55.8839 	 16.7069 	 -87.2596 	 
C 	 -53.902 	 16.7132 	 -88.0775 	 
H 	 -53.5024 	 15.7384 	 -87.7724 	 
H 	 -53.0699 	 17.3635 	 -88.0816 	 
C 	 -54.3438 	 16.5837 	 -89.5387 	 
H 	 -54.78 	 15.6284 	 -89.727 	 
H 	 -53.5646 	 16.6275 	 -90.273 	 
H 	 -55.1725 	 17.2476 	 -89.7346 	 
H 	 -59.4033 	 13.5815 	 -84.3517 	 
H 	 -52.2648 	 17.9026 	 -83.5188 	 
*
