! wB97X-D3 SP def2-SVP
%pal
nprocs 24
end

* xyz 0 1
S 	 -117.606 	 19.7785 	 -110.679 	 
C 	 -118.67 	 21.1828 	 -110.773 	 
C 	 -119.942 	 20.7566 	 -111.153 	 
C 	 -120.071 	 19.3182 	 -111.231 	 
C 	 -118.896 	 18.6407 	 -110.907 	 
H 	 -120.96 	 18.7375 	 -111.604 	 
C 	 -121.13 	 21.7091 	 -111.368 	 
H 	 -121.334 	 22.2282 	 -110.44 	 
H 	 -121.926 	 21.0146 	 -111.363 	 
C 	 -121.207 	 22.537 	 -112.724 	 
H 	 -121.84 	 23.3538 	 -112.43 	 
H 	 -120.247 	 23.0168 	 -113.106 	 
C 	 -121.69 	 21.7871 	 -113.878 	 
H 	 -121.557 	 22.3949 	 -114.784 	 
H 	 -121.182 	 20.8265 	 -114.028 	 
H 	 -122.772 	 21.5296 	 -113.872 	 
S 	 -117.379 	 16.7712 	 -112.123 	 
C 	 -117.558 	 15.0734 	 -111.679 	 
C 	 -118.464 	 14.8842 	 -110.648 	 
C 	 -119.224 	 16.0829 	 -110.345 	 
C 	 -118.673 	 17.2056 	 -111.056 	 
H 	 -118.579 	 13.8749 	 -110.154 	 
C 	 -120.234 	 16.1747 	 -109.26 	 
H 	 -120.887 	 17.0171 	 -109.624 	 
H 	 -119.805 	 16.8115 	 -108.458 	 
C 	 -120.874 	 14.8855 	 -108.765 	 
H 	 -120.144 	 14.0399 	 -108.534 	 
H 	 -121.515 	 14.4829 	 -109.449 	 
C 	 -121.531 	 15.245 	 -107.424 	 
H 	 -120.755 	 15.7009 	 -106.751 	 
H 	 -121.817 	 14.3645 	 -106.827 	 
H 	 -122.361 	 15.9674 	 -107.489 	 
H 	 -118.461 	 22.2388 	 -110.527 	 
H 	 -117.008 	 14.2769 	 -112.089 	 
*
