! wB97X-D3 SP def2-SVP
%pal
nprocs 24
end

* xyz 0 1
S 	 -110.353 	 54.8611 	 -89.1441 	 
C 	 -110.811 	 56.4183 	 -88.4129 	 
C 	 -109.74 	 57.3198 	 -88.4813 	 
C 	 -108.68 	 56.806 	 -89.2915 	 
C 	 -108.861 	 55.5683 	 -89.842 	 
H 	 -107.722 	 57.3273 	 -89.4506 	 
C 	 -109.655 	 58.6117 	 -87.7757 	 
H 	 -109.769 	 59.4354 	 -88.4588 	 
H 	 -108.641 	 58.7823 	 -87.5209 	 
C 	 -110.696 	 58.9602 	 -86.6864 	 
H 	 -110.645 	 60.0711 	 -86.3785 	 
H 	 -111.726 	 58.9578 	 -87.0155 	 
C 	 -110.552 	 58.1097 	 -85.4796 	 
H 	 -110.67 	 57.039 	 -85.7181 	 
H 	 -109.525 	 58.2629 	 -85.0198 	 
H 	 -111.362 	 58.4295 	 -84.84 	 
S 	 -108.325 	 52.9829 	 -90.6696 	 
C 	 -107.119 	 52.7464 	 -91.9404 	 
C 	 -106.619 	 53.9315 	 -92.4533 	 
C 	 -107.114 	 55.0423 	 -91.7447 	 
C 	 -108.042 	 54.7426 	 -90.7496 	 
H 	 -105.982 	 53.9886 	 -93.2837 	 
C 	 -106.689 	 56.4496 	 -92.1262 	 
H 	 -105.834 	 56.6541 	 -91.4998 	 
H 	 -107.393 	 57.1926 	 -91.7156 	 
C 	 -106.687 	 56.885 	 -93.5888 	 
H 	 -107.692 	 56.918 	 -94.0129 	 
H 	 -106.139 	 56.1949 	 -94.1033 	 
C 	 -105.898 	 58.2028 	 -93.8482 	 
H 	 -106.072 	 58.5465 	 -94.8994 	 
H 	 -104.826 	 58.0608 	 -93.7362 	 
H 	 -106.241 	 59.0145 	 -93.2271 	 
H 	 -111.659 	 56.5731 	 -87.7749 	 
H 	 -106.846 	 51.8455 	 -92.4103 	 
*
