! wB97X-D3 SP def2-SVP
%pal
nprocs 24
end

* xyz 0 1
S 	 -129.149 	 58.6842 	 -52.4644 	 
C 	 -130.123 	 59.4978 	 -53.6872 	 
C 	 -129.379 	 60.26 	 -54.5449 	 
C 	 -127.956 	 60.2089 	 -54.2364 	 
C 	 -127.688 	 59.4824 	 -53.1032 	 
H 	 -127.111 	 60.7848 	 -54.7931 	 
C 	 -129.835 	 61.0653 	 -55.7018 	 
H 	 -130.561 	 60.6135 	 -56.3338 	 
H 	 -128.923 	 61.1834 	 -56.3337 	 
C 	 -130.285 	 62.4329 	 -55.2685 	 
H 	 -131.089 	 62.2315 	 -54.5438 	 
H 	 -129.419 	 63.0146 	 -54.8436 	 
C 	 -130.755 	 63.2857 	 -56.4279 	 
H 	 -130.981 	 64.2659 	 -56.0299 	 
H 	 -130.084 	 63.3917 	 -57.2581 	 
H 	 -131.67 	 62.9774 	 -57.0088 	 
S 	 -126.142 	 59.3965 	 -50.827 	 
C 	 -124.455 	 59.0496 	 -50.8982 	 
C 	 -124.055 	 58.8659 	 -52.1931 	 
C 	 -125.103 	 58.89 	 -53.1485 	 
C 	 -126.352 	 59.2268 	 -52.5574 	 
H 	 -123.022 	 58.5966 	 -52.363 	 
C 	 -124.854 	 58.6859 	 -54.6594 	 
H 	 -125.798 	 58.716 	 -55.2124 	 
H 	 -124.408 	 57.6862 	 -54.8209 	 
C 	 -123.85 	 59.7107 	 -55.1536 	 
H 	 -122.819 	 59.5483 	 -54.8396 	 
H 	 -124.104 	 60.7736 	 -54.8903 	 
C 	 -123.779 	 59.6073 	 -56.6735 	 
H 	 -124.677 	 60.0384 	 -57.0521 	 
H 	 -123.7 	 58.6289 	 -57.059 	 
H 	 -122.903 	 60.2311 	 -57.0048 	 
H 	 -131.185 	 59.4272 	 -53.7874 	 
H 	 -123.795 	 59.1724 	 -50.1137 	 
*
