! wB97X-D3 SP def2-SVP
%pal
nprocs 24
end

* xyz 0 1
S 	 -43.9561 	 -5.41489 	 20.1098 	 
C 	 -45.6406 	 -5.15832 	 19.7458 	 
C 	 -46.3102 	 -4.54015 	 20.7872 	 
C 	 -45.3641 	 -4.24542 	 21.8631 	 
C 	 -44.0675 	 -4.56916 	 21.6117 	 
H 	 -45.5976 	 -3.75523 	 22.806 	 
C 	 -47.799 	 -4.17036 	 20.7933 	 
H 	 -48.1167 	 -4.18603 	 21.8183 	 
H 	 -48.3926 	 -4.97433 	 20.3894 	 
C 	 -48.0969 	 -2.78615 	 20.1445 	 
H 	 -47.5272 	 -1.98515 	 20.6044 	 
H 	 -47.6672 	 -2.65029 	 19.1853 	 
C 	 -49.6022 	 -2.40072 	 20.0094 	 
H 	 -50.3666 	 -2.63067 	 20.8498 	 
H 	 -49.692 	 -1.3013 	 19.8897 	 
H 	 -49.956 	 -2.68702 	 19.0201 	 
S 	 -41.7339 	 -5.35644 	 22.7544 	 
C 	 -40.7494 	 -4.22584 	 23.7145 	 
C 	 -41.229 	 -2.97687 	 23.6207 	 
C 	 -42.5106 	 -2.92128 	 22.9459 	 
C 	 -42.8761 	 -4.06997 	 22.2979 	 
H 	 -40.6731 	 -2.08308 	 23.8759 	 
C 	 -43.2658 	 -1.56318 	 22.7425 	 
H 	 -43.1841 	 -0.927093 	 23.6018 	 
H 	 -44.3266 	 -1.85203 	 22.5942 	 
C 	 -42.8112 	 -0.897314 	 21.441 	 
H 	 -42.9153 	 -1.63214 	 20.5921 	 
H 	 -41.7287 	 -0.776244 	 21.4449 	 
C 	 -43.3658 	 0.489221 	 21.0787 	 
H 	 -43.0984 	 1.21205 	 21.8177 	 
H 	 -44.4724 	 0.586329 	 20.9876 	 
H 	 -43.0165 	 0.861029 	 20.1532 	 
H 	 -46.1576 	 -5.53092 	 18.8934 	 
H 	 -39.7796 	 -4.33523 	 24.1105 	 
*
