! wB97X-D3 SP def2-SVP
%pal
nprocs 24
end

* xyz 0 1
S 	 -115.304 	 37.4079 	 -119.828 	 
C 	 -114.058 	 37.0128 	 -121.058 	 
C 	 -114.667 	 36.8208 	 -122.291 	 
C 	 -116.072 	 36.969 	 -122.279 	 
C 	 -116.579 	 37.4815 	 -121.094 	 
H 	 -116.798 	 36.7942 	 -123.058 	 
C 	 -113.989 	 36.3802 	 -123.566 	 
H 	 -112.957 	 36.8964 	 -123.552 	 
H 	 -114.524 	 36.8477 	 -124.403 	 
C 	 -113.818 	 34.8645 	 -123.759 	 
H 	 -113.188 	 34.5318 	 -124.611 	 
H 	 -113.342 	 34.5202 	 -122.869 	 
C 	 -115.26 	 34.2695 	 -123.989 	 
H 	 -115.189 	 33.2959 	 -124.449 	 
H 	 -115.811 	 34.1682 	 -123.014 	 
H 	 -115.887 	 34.8749 	 -124.612 	 
S 	 -119.013 	 38.4593 	 -121.951 	 
C 	 -120.397 	 38.4975 	 -120.974 	 
C 	 -120.167 	 37.8726 	 -119.808 	 
C 	 -118.855 	 37.3072 	 -119.683 	 
C 	 -118.023 	 37.6974 	 -120.738 	 
H 	 -120.96 	 37.7739 	 -119.119 	 
C 	 -118.444 	 36.3316 	 -118.6 	 
H 	 -119.093 	 36.5772 	 -117.841 	 
H 	 -117.41 	 36.5725 	 -118.323 	 
C 	 -118.643 	 34.8543 	 -119.036 	 
H 	 -118.193 	 34.2661 	 -118.3 	 
H 	 -118.2 	 34.6132 	 -119.97 	 
C 	 -120.1 	 34.2859 	 -119.152 	 
H 	 -120.695 	 34.9163 	 -119.814 	 
H 	 -120.691 	 34.1947 	 -118.249 	 
H 	 -120.02 	 33.2467 	 -119.641 	 
H 	 -113.036 	 36.7443 	 -120.864 	 
H 	 -121.326 	 38.9011 	 -121.334 	 
*
