! wB97X-D3 SP def2-SVP
%pal
nprocs 24
end

* xyz 0 1
S 	 -127.145 	 63.6265 	 -58.2385 	 
C 	 -127.126 	 64.786 	 -59.5478 	 
C 	 -128.248 	 65.5554 	 -59.5267 	 
C 	 -129.02 	 65.3898 	 -58.4221 	 
C 	 -128.679 	 64.2461 	 -57.6503 	 
H 	 -129.975 	 65.8846 	 -58.1401 	 
C 	 -128.603 	 66.545 	 -60.6772 	 
H 	 -129.534 	 66.3046 	 -61.1116 	 
H 	 -127.854 	 66.4614 	 -61.48 	 
C 	 -128.392 	 67.9922 	 -60.3209 	 
H 	 -128.603 	 68.5983 	 -61.161 	 
H 	 -129.13 	 68.146 	 -59.6632 	 
C 	 -127.042 	 68.4056 	 -59.6722 	 
H 	 -126.961 	 69.4742 	 -59.5567 	 
H 	 -126.882 	 68.0103 	 -58.6356 	 
H 	 -126.189 	 67.9787 	 -60.2562 	 
S 	 -128.224 	 63.7714 	 -54.9553 	 
C 	 -129.521 	 63.4081 	 -53.8698 	 
C 	 -130.619 	 63.1588 	 -54.6329 	 
C 	 -130.567 	 63.4857 	 -56.0132 	 
C 	 -129.223 	 63.8563 	 -56.3609 	 
H 	 -131.468 	 62.8383 	 -54.1239 	 
C 	 -131.7 	 63.5747 	 -56.9875 	 
H 	 -131.202 	 63.4271 	 -57.9954 	 
H 	 -132.002 	 64.6503 	 -56.8282 	 
C 	 -132.866 	 62.5864 	 -56.7184 	 
H 	 -133.241 	 62.7497 	 -55.7088 	 
H 	 -132.443 	 61.5978 	 -56.7485 	 
C 	 -134.127 	 62.7614 	 -57.6903 	 
H 	 -134.551 	 63.7206 	 -57.7355 	 
H 	 -134.992 	 62.1933 	 -57.2583 	 
H 	 -133.914 	 62.3585 	 -58.6707 	 
H 	 -126.651 	 64.6956 	 -60.4649 	 
H 	 -129.507 	 63.1492 	 -52.8605 	 
*
