! wB97X-D3 SP def2-SVP
%pal
nprocs 24
end

* xyz 0 1
S 	 -65.3245 	 17.5104 	 -112.102 	 
C 	 -66.6418 	 16.4338 	 -111.749 	 
C 	 -67.8024 	 17.199 	 -111.592 	 
C 	 -67.6329 	 18.5639 	 -111.988 	 
C 	 -66.2926 	 18.9432 	 -112.107 	 
H 	 -68.3526 	 19.3163 	 -112.141 	 
C 	 -69.1532 	 16.577 	 -111.108 	 
H 	 -69.4596 	 17.0412 	 -110.191 	 
H 	 -69.0717 	 15.5853 	 -110.793 	 
C 	 -70.3931 	 16.8171 	 -112.038 	 
H 	 -70.5414 	 17.8887 	 -112.156 	 
H 	 -70.123 	 16.23 	 -112.926 	 
C 	 -71.5766 	 16.1489 	 -111.401 	 
H 	 -71.9744 	 16.7362 	 -110.594 	 
H 	 -72.4731 	 15.8926 	 -112.003 	 
H 	 -71.358 	 15.1435 	 -111.066 	 
S 	 -66.2333 	 20.8552 	 -114.014 	 
C 	 -65.3122 	 22.2992 	 -113.85 	 
C 	 -64.6446 	 22.3276 	 -112.634 	 
C 	 -64.827 	 21.1541 	 -111.861 	 
C 	 -65.7072 	 20.218 	 -112.46 	 
H 	 -64.1005 	 23.205 	 -112.339 	 
C 	 -64.1528 	 21.0376 	 -110.486 	 
H 	 -63.1639 	 21.5209 	 -110.424 	 
H 	 -63.9958 	 19.9881 	 -110.234 	 
C 	 -64.9895 	 21.6093 	 -109.311 	 
H 	 -64.4695 	 21.5689 	 -108.319 	 
H 	 -65.9096 	 20.9617 	 -109.24 	 
C 	 -65.4338 	 23.0079 	 -109.407 	 
H 	 -64.5793 	 23.6906 	 -109.41 	 
H 	 -66.0895 	 23.2556 	 -108.619 	 
H 	 -66.0445 	 23.2081 	 -110.301 	 
H 	 -66.6891 	 15.3612 	 -111.608 	 
H 	 -65.352 	 23.1073 	 -114.632 	 
*
