! wB97X-D3 SP def2-SVP
%pal
nprocs 24
end

* xyz 0 1
S 	 -46.0624 	 11.6989 	 -16.7888 	 
C 	 -45.647 	 10.0539 	 -16.1975 	 
C 	 -44.3523 	 9.72184 	 -16.6828 	 
C 	 -43.8768 	 10.6838 	 -17.5429 	 
C 	 -44.709 	 11.7055 	 -17.8541 	 
H 	 -42.9228 	 10.6095 	 -18.1502 	 
C 	 -43.5971 	 8.45725 	 -16.4276 	 
H 	 -42.9115 	 8.46837 	 -15.5598 	 
H 	 -42.8605 	 8.32409 	 -17.248 	 
C 	 -44.4124 	 7.09109 	 -16.5842 	 
H 	 -45.1808 	 7.07027 	 -15.8141 	 
H 	 -44.9231 	 7.23243 	 -17.5106 	 
C 	 -43.6555 	 5.7787 	 -16.71 	 
H 	 -44.4127 	 4.94114 	 -16.857 	 
H 	 -42.9758 	 5.81847 	 -17.5376 	 
H 	 -43.2264 	 5.62344 	 -15.7012 	 
S 	 -45.7118 	 13.089 	 -20.1 	 
C 	 -44.7855 	 14.3867 	 -20.9231 	 
C 	 -43.5558 	 14.4071 	 -20.4065 	 
C 	 -43.3692 	 13.5032 	 -19.2792 	 
C 	 -44.5187 	 12.7487 	 -18.8971 	 
H 	 -42.9319 	 15.1047 	 -20.8828 	 
C 	 -41.9754 	 13.4949 	 -18.5429 	 
H 	 -42.1838 	 13.2373 	 -17.5399 	 
H 	 -41.6858 	 14.501 	 -18.4367 	 
C 	 -40.8734 	 12.5693 	 -19.1119 	 
H 	 -41.095 	 11.4819 	 -19.2188 	 
H 	 -40.0346 	 12.4385 	 -18.4067 	 
C 	 -40.2717 	 13.0933 	 -20.4268 	 
H 	 -40.3304 	 14.164 	 -20.5692 	 
H 	 -40.6613 	 12.6809 	 -21.359 	 
H 	 -39.159 	 12.9242 	 -20.286 	 
H 	 -46.1845 	 9.47577 	 -15.4336 	 
H 	 -45.1439 	 14.8231 	 -21.876 	 
*
