! wB97X-D3 SP def2-SVP
%pal
nprocs 24
end

* xyz 0 1
S 	 -28.3652 	 -36.3961 	 -93.7929 	 
C 	 -27.9848 	 -34.7431 	 -94.1087 	 
C 	 -29.1568 	 -34.1102 	 -94.4319 	 
C 	 -30.3022 	 -34.9366 	 -94.4198 	 
C 	 -30.0566 	 -36.2651 	 -94.1588 	 
H 	 -31.2997 	 -34.717 	 -94.6504 	 
C 	 -29.2863 	 -32.6462 	 -94.8697 	 
H 	 -29.2243 	 -32.6947 	 -95.9396 	 
H 	 -28.3462 	 -32.0693 	 -94.5963 	 
C 	 -30.5399 	 -31.8934 	 -94.4416 	 
H 	 -30.4087 	 -30.8864 	 -94.8503 	 
H 	 -31.2442 	 -32.4485 	 -95.0028 	 
C 	 -30.9331 	 -32.0415 	 -93.007 	 
H 	 -31.9764 	 -31.7261 	 -92.8391 	 
H 	 -30.6036 	 -32.9323 	 -92.5186 	 
H 	 -30.3226 	 -31.3199 	 -92.36 	 
S 	 -30.9468 	 -38.2561 	 -92.5028 	 
C 	 -32.4713 	 -39.1193 	 -92.7578 	 
C 	 -32.8249 	 -38.916 	 -94.0791 	 
C 	 -31.9836 	 -37.9376 	 -94.7494 	 
C 	 -30.9765 	 -37.3999 	 -93.9688 	 
H 	 -33.6688 	 -39.4197 	 -94.4499 	 
C 	 -32.2454 	 -37.4444 	 -96.1695 	 
H 	 -32.3185 	 -36.3382 	 -96.019 	 
H 	 -33.2086 	 -37.6974 	 -96.5492 	 
C 	 -31.1935 	 -37.823 	 -97.2362 	 
H 	 -30.2347 	 -37.9781 	 -96.7129 	 
H 	 -31.1052 	 -37.0092 	 -97.9492 	 
C 	 -31.5506 	 -39.0762 	 -97.998 	 
H 	 -31.8147 	 -39.9513 	 -97.3541 	 
H 	 -30.9811 	 -39.4167 	 -98.8784 	 
H 	 -32.5614 	 -38.9568 	 -98.4747 	 
H 	 -27.0654 	 -34.144 	 -94.1248 	 
H 	 -32.9677 	 -39.7592 	 -92.0738 	 
*
