! wB97X-D3 SP def2-SVP
%pal
nprocs 24
end

* xyz 0 1
S 	 -139.656 	 14.5402 	 -2.52701 	 
C 	 -140.189 	 13.0239 	 -1.7766 	 
C 	 -139.15 	 12.3183 	 -1.24052 	 
C 	 -137.871 	 12.9293 	 -1.45353 	 
C 	 -138.004 	 14.1133 	 -2.21295 	 
H 	 -136.875 	 12.5959 	 -1.15045 	 
C 	 -139.303 	 11.0345 	 -0.491584 	 
H 	 -140.317 	 11.173 	 0.0721384 	 
H 	 -138.523 	 11.0026 	 0.328587 	 
C 	 -139.207 	 9.82644 	 -1.31377 	 
H 	 -140.034 	 9.83951 	 -2.1188 	 
H 	 -138.295 	 9.84641 	 -1.87454 	 
C 	 -139.358 	 8.40414 	 -0.59898 	 
H 	 -140.27 	 8.34871 	 0.0694637 	 
H 	 -139.257 	 7.71127 	 -1.41998 	 
H 	 -138.531 	 8.29212 	 0.0780457 	 
S 	 -137.008 	 16.7661 	 -2.37916 	 
C 	 -135.433 	 17.0418 	 -3.04582 	 
C 	 -134.805 	 15.8704 	 -3.28977 	 
C 	 -135.584 	 14.7219 	 -2.94044 	 
C 	 -136.953 	 14.9804 	 -2.6406 	 
H 	 -133.749 	 15.6901 	 -3.64842 	 
C 	 -135.024 	 13.3497 	 -3.11583 	 
H 	 -134.68 	 13.3898 	 -4.1361 	 
H 	 -135.822 	 12.576 	 -3.1766 	 
C 	 -133.872 	 13.0372 	 -2.12948 	 
H 	 -134.251 	 13.2807 	 -1.15989 	 
H 	 -133.031 	 13.7015 	 -2.22006 	 
C 	 -133.227 	 11.6516 	 -2.30697 	 
H 	 -132.887 	 11.3031 	 -1.32663 	 
H 	 -132.427 	 11.6747 	 -3.06401 	 
H 	 -134.012 	 10.9721 	 -2.53619 	 
H 	 -141.179 	 12.6925 	 -1.6077 	 
H 	 -134.969 	 18.0125 	 -3.10994 	 
*
