! wB97X-D3 SP def2-SVP
%pal
nprocs 24
end

* xyz 0 1
S 	 -114.559 	 21.8973 	 -113.058 	 
C 	 -116.216 	 22.1552 	 -113.398 	 
C 	 -116.958 	 21.002 	 -113.454 	 
C 	 -116.106 	 19.8655 	 -113.395 	 
C 	 -114.767 	 20.2537 	 -113.515 	 
H 	 -116.293 	 18.8155 	 -113.562 	 
C 	 -118.422 	 20.8019 	 -113.666 	 
H 	 -118.833 	 20.2689 	 -112.809 	 
H 	 -118.599 	 20.1392 	 -114.578 	 
C 	 -119.307 	 22.0645 	 -113.782 	 
H 	 -119.149 	 22.7353 	 -112.888 	 
H 	 -119.083 	 22.5974 	 -114.696 	 
C 	 -120.882 	 21.8432 	 -113.876 	 
H 	 -121.15 	 21.2688 	 -114.761 	 
H 	 -121.273 	 21.3154 	 -112.992 	 
H 	 -121.364 	 22.8073 	 -113.805 	 
S 	 -112.964 	 19.0417 	 -111.934 	 
C 	 -111.819 	 17.9614 	 -112.591 	 
C 	 -112.347 	 17.4376 	 -113.73 	 
C 	 -113.38 	 18.2242 	 -114.307 	 
C 	 -113.702 	 19.2523 	 -113.477 	 
H 	 -112.034 	 16.5173 	 -114.159 	 
C 	 -114.171 	 17.6633 	 -115.439 	 
H 	 -115.212 	 17.8309 	 -115.422 	 
H 	 -114.092 	 16.5831 	 -115.531 	 
C 	 -113.592 	 18.1786 	 -116.796 	 
H 	 -113.942 	 17.4757 	 -117.553 	 
H 	 -112.546 	 18.1552 	 -116.692 	 
C 	 -113.893 	 19.6807 	 -117.229 	 
H 	 -113.286 	 19.7618 	 -118.184 	 
H 	 -113.573 	 20.3462 	 -116.341 	 
H 	 -114.962 	 19.9969 	 -117.341 	 
H 	 -116.686 	 23.1095 	 -113.353 	 
H 	 -111.187 	 17.265 	 -112.084 	 
*
