! wB97X-D3 SP def2-SVP
%pal
nprocs 24
end

* xyz 0 1
S 	 -103.133 	 50.7554 	 -98.5881 	 
C 	 -103.607 	 52.299 	 -99.213 	 
C 	 -104.183 	 52.1769 	 -100.501 	 
C 	 -103.798 	 50.9033 	 -101.081 	 
C 	 -103.135 	 50.0632 	 -100.185 	 
H 	 -104.079 	 50.553 	 -102.042 	 
C 	 -104.831 	 53.2948 	 -101.371 	 
H 	 -104.328 	 54.2442 	 -101.155 	 
H 	 -105.811 	 53.504 	 -100.979 	 
C 	 -105.002 	 53.0232 	 -102.838 	 
H 	 -105.632 	 52.0978 	 -103.049 	 
H 	 -105.616 	 53.7582 	 -103.333 	 
C 	 -103.605 	 53.0533 	 -103.595 	 
H 	 -103.668 	 52.6818 	 -104.612 	 
H 	 -103.155 	 54.0365 	 -103.703 	 
H 	 -102.899 	 52.5229 	 -102.989 	 
S 	 -103.289 	 47.4621 	 -99.2396 	 
C 	 -102.317 	 46.2544 	 -100.124 	 
C 	 -101.751 	 46.7768 	 -101.27 	 
C 	 -101.989 	 48.1742 	 -101.424 	 
C 	 -102.66 	 48.7207 	 -100.355 	 
H 	 -101.05 	 46.191 	 -101.864 	 
C 	 -101.252 	 48.8694 	 -102.617 	 
H 	 -101.658 	 49.8447 	 -102.866 	 
H 	 -101.552 	 48.3626 	 -103.53 	 
C 	 -99.8125 	 49.0267 	 -102.531 	 
H 	 -99.4805 	 49.5748 	 -103.432 	 
H 	 -99.3285 	 48.0494 	 -102.735 	 
C 	 -99.3919 	 49.6978 	 -101.262 	 
H 	 -98.2705 	 49.7869 	 -101.23 	 
H 	 -99.7632 	 49.2356 	 -100.378 	 
H 	 -99.6136 	 50.7351 	 -101.182 	 
H 	 -103.669 	 53.2701 	 -98.6553 	 
H 	 -102.096 	 45.2409 	 -99.7287 	 
*
