! wB97X-D3 SP def2-SVP
%pal
nprocs 24
end

* xyz 0 1
S 	 -97.3827 	 48.2232 	 -93.7442 	 
C 	 -98.1044 	 46.6951 	 -93.2412 	 
C 	 -98.4724 	 45.918 	 -94.3102 	 
C 	 -98.2327 	 46.5762 	 -95.4993 	 
C 	 -97.5292 	 47.8275 	 -95.4618 	 
H 	 -98.4559 	 46.0031 	 -96.4118 	 
C 	 -99.2429 	 44.5749 	 -94.1697 	 
H 	 -99.8272 	 44.3478 	 -95.0939 	 
H 	 -99.8979 	 44.6835 	 -93.2963 	 
C 	 -98.2586 	 43.3976 	 -93.9395 	 
H 	 -97.5779 	 43.303 	 -94.7897 	 
H 	 -97.4598 	 43.7023 	 -93.2449 	 
C 	 -98.8716 	 42.0392 	 -93.6623 	 
H 	 -99.6643 	 41.7587 	 -94.419 	 
H 	 -98.0923 	 41.1913 	 -93.7305 	 
H 	 -99.3409 	 42.0036 	 -92.6832 	 
S 	 -96.6464 	 50.3263 	 -96.148 	 
C 	 -96.3986 	 50.6522 	 -97.884 	 
C 	 -96.3488 	 49.4858 	 -98.6737 	 
C 	 -96.7153 	 48.3286 	 -97.8893 	 
C 	 -97.0813 	 48.662 	 -96.5537 	 
H 	 -96.2432 	 49.3271 	 -99.7369 	 
C 	 -96.3792 	 46.9189 	 -98.5319 	 
H 	 -96.5747 	 46.2052 	 -97.7846 	 
H 	 -95.3103 	 46.9164 	 -98.6883 	 
C 	 -97.2159 	 46.5845 	 -99.8431 	 
H 	 -96.9296 	 47.1681 	 -100.736 	 
H 	 -98.2286 	 46.9026 	 -99.6515 	 
C 	 -97.3837 	 45.1631 	 -100.212 	 
H 	 -97.9467 	 45.0569 	 -101.153 	 
H 	 -98.0737 	 44.7177 	 -99.4372 	 
H 	 -96.4221 	 44.7164 	 -100.091 	 
H 	 -98.4423 	 46.5512 	 -92.2114 	 
H 	 -96.169 	 51.6764 	 -98.2158 	 
*
