! wB97X-D3 SP def2-SVP
%pal
nprocs 24
end

* xyz 0 1
S 	 -111.197 	 52.2691 	 -88.7367 	 
C 	 -109.468 	 52.0278 	 -88.3709 	 
C 	 -108.77 	 53.1944 	 -88.6032 	 
C 	 -109.58 	 54.3185 	 -88.8333 	 
C 	 -110.905 	 53.9943 	 -88.9732 	 
H 	 -109.286 	 55.3392 	 -88.9516 	 
C 	 -107.264 	 53.3215 	 -88.4433 	 
H 	 -106.969 	 52.4275 	 -87.9093 	 
H 	 -107.118 	 54.1752 	 -87.7827 	 
C 	 -106.442 	 53.2891 	 -89.7849 	 
H 	 -106.611 	 54.249 	 -90.2144 	 
H 	 -105.383 	 53.4198 	 -89.7509 	 
C 	 -106.802 	 52.0844 	 -90.7526 	 
H 	 -106.497 	 51.0374 	 -90.5199 	 
H 	 -107.874 	 51.9949 	 -90.7951 	 
H 	 -106.417 	 52.3383 	 -91.7399 	 
S 	 -112.658 	 54.8035 	 -90.9746 	 
C 	 -113.282 	 56.3515 	 -90.9536 	 
C 	 -113.217 	 56.882 	 -89.6978 	 
C 	 -112.352 	 56.1144 	 -88.8462 	 
C 	 -111.967 	 54.9223 	 -89.417 	 
H 	 -113.718 	 57.8051 	 -89.5584 	 
C 	 -112 	 56.7187 	 -87.44 	 
H 	 -110.977 	 56.9579 	 -87.5015 	 
H 	 -112.175 	 55.8295 	 -86.73 	 
C 	 -112.896 	 57.8615 	 -86.8203 	 
H 	 -113.993 	 57.6126 	 -86.9148 	 
H 	 -112.804 	 58.726 	 -87.4608 	 
C 	 -112.423 	 58.3782 	 -85.4087 	 
H 	 -111.447 	 58.8691 	 -85.5603 	 
H 	 -112.186 	 57.6206 	 -84.6399 	 
H 	 -113.107 	 59.1681 	 -85.0851 	 
H 	 -109.083 	 51.0154 	 -88.1984 	 
H 	 -113.909 	 56.8702 	 -91.6961 	 
*
