! wB97X-D3 SP def2-SVP
%pal
nprocs 24
end

* xyz 0 1
S 	 -1.79964 	 -26.6615 	 -106.886 	 
C 	 -1.36726 	 -26.2793 	 -108.564 	 
C 	 -2.4418 	 -26.2393 	 -109.461 	 
C 	 -3.61665 	 -26.6943 	 -108.818 	 
C 	 -3.40919 	 -27.0757 	 -107.496 	 
H 	 -4.62109 	 -26.7729 	 -109.168 	 
C 	 -2.41643 	 -25.8674 	 -110.896 	 
H 	 -1.39044 	 -26.2179 	 -111.262 	 
H 	 -2.47503 	 -24.7498 	 -110.912 	 
C 	 -3.49716 	 -26.4267 	 -111.783 	 
H 	 -3.54287 	 -27.5035 	 -111.653 	 
H 	 -4.46248 	 -25.8251 	 -111.619 	 
C 	 -3.27319 	 -26.1633 	 -113.287 	 
H 	 -4.10538 	 -26.5558 	 -113.831 	 
H 	 -3.15036 	 -25.1271 	 -113.56 	 
H 	 -2.4338 	 -26.6935 	 -113.735 	 
S 	 -3.76518 	 -29.0161 	 -105.522 	 
C 	 -5.33144 	 -29.2423 	 -104.858 	 
C 	 -6.2296 	 -28.2532 	 -105.335 	 
C 	 -5.72379 	 -27.4497 	 -106.414 	 
C 	 -4.34856 	 -27.6896 	 -106.566 	 
H 	 -7.23869 	 -28.1833 	 -104.951 	 
C 	 -6.54241 	 -26.3502 	 -107.042 	 
H 	 -5.86226 	 -25.5806 	 -107.458 	 
H 	 -6.98866 	 -25.8003 	 -106.212 	 
C 	 -7.51226 	 -26.8035 	 -108.161 	 
H 	 -7.06269 	 -27.7134 	 -108.585 	 
H 	 -7.72682 	 -26.0526 	 -108.911 	 
C 	 -8.77243 	 -27.2435 	 -107.473 	 
H 	 -9.39693 	 -26.3597 	 -107.16 	 
H 	 -8.62877 	 -27.9471 	 -106.59 	 
H 	 -9.46902 	 -27.7666 	 -108.164 	 
H 	 -0.403463 	 -25.9308 	 -108.851 	 
H 	 -5.66277 	 -29.914 	 -104.026 	 
*
