! wB97X-D3 SP def2-SVP
%pal
nprocs 24
end

* xyz 0 1
S 	 -119.117 	 24.674 	 -16.9316 	 
C 	 -117.444 	 25.0071 	 -17.3448 	 
C 	 -116.596 	 25.2039 	 -16.2153 	 
C 	 -117.388 	 25.1538 	 -15.0235 	 
C 	 -118.767 	 24.9011 	 -15.1854 	 
H 	 -117.055 	 25.2441 	 -13.9782 	 
C 	 -115.17 	 25.5953 	 -16.2406 	 
H 	 -114.981 	 26.5513 	 -15.8114 	 
H 	 -114.92 	 25.7594 	 -17.3584 	 
C 	 -114.125 	 24.4464 	 -15.8423 	 
H 	 -114.164 	 24.1746 	 -14.7711 	 
H 	 -114.207 	 23.5538 	 -16.4117 	 
C 	 -112.702 	 24.8675 	 -16.021 	 
H 	 -112.405 	 24.5622 	 -17.0468 	 
H 	 -112.418 	 25.9212 	 -15.8259 	 
H 	 -111.924 	 24.3527 	 -15.4979 	 
S 	 -120.432 	 22.9358 	 -14.0882 	 
C 	 -121.529 	 23.2665 	 -12.8934 	 
C 	 -121.391 	 24.5691 	 -12.5153 	 
C 	 -120.319 	 25.2801 	 -13.0365 	 
C 	 -119.774 	 24.5584 	 -14.1312 	 
H 	 -122.12 	 24.9381 	 -11.8136 	 
C 	 -119.841 	 26.6878 	 -12.7463 	 
H 	 -118.737 	 26.6007 	 -12.6542 	 
H 	 -120.122 	 26.7088 	 -11.7183 	 
C 	 -120.389 	 27.9267 	 -13.5368 	 
H 	 -120.228 	 27.8323 	 -14.7096 	 
H 	 -119.838 	 28.8353 	 -13.1838 	 
C 	 -121.842 	 27.9481 	 -13.1976 	 
H 	 -122.004 	 27.9084 	 -12.1344 	 
H 	 -122.437 	 27.0389 	 -13.5621 	 
H 	 -122.279 	 28.8666 	 -13.6123 	 
H 	 -117.137 	 25.048 	 -18.382 	 
H 	 -122.14 	 22.5729 	 -12.4308 	 
*
