! wB97X-D3 SP def2-SVP
%pal
nprocs 24
end

* xyz 0 1
S 	 -44.5803 	 -11.1254 	 15.282 	 
C 	 -45.5012 	 -10.9213 	 16.7366 	 
C 	 -44.7168 	 -10.5374 	 17.7747 	 
C 	 -43.4204 	 -10.0869 	 17.3275 	 
C 	 -43.2643 	 -10.1672 	 15.9748 	 
H 	 -42.6335 	 -9.6847 	 17.99 	 
C 	 -45.0433 	 -10.7627 	 19.2619 	 
H 	 -44.4306 	 -11.5483 	 19.7037 	 
H 	 -46.0663 	 -11.1539 	 19.3831 	 
C 	 -44.9076 	 -9.44937 	 20.0847 	 
H 	 -44.0021 	 -8.95933 	 19.982 	 
H 	 -45.6848 	 -8.8076 	 19.7854 	 
C 	 -45.0825 	 -9.71994 	 21.5332 	 
H 	 -45.0071 	 -8.79119 	 22.116 	 
H 	 -46.1695 	 -10.0406 	 21.6836 	 
H 	 -44.4172 	 -10.4802 	 22.0095 	 
S 	 -41.2332 	 -10.9803 	 14.34 	 
C 	 -39.9409 	 -9.85454 	 13.9274 	 
C 	 -40.1897 	 -8.62104 	 14.4075 	 
C 	 -41.4086 	 -8.54425 	 15.1318 	 
C 	 -42.0818 	 -9.71982 	 15.228 	 
H 	 -39.5341 	 -7.85371 	 14.2258 	 
C 	 -41.8086 	 -7.33228 	 15.869 	 
H 	 -42.5988 	 -7.6578 	 16.5695 	 
H 	 -42.1845 	 -6.53596 	 15.2242 	 
C 	 -40.767 	 -6.63986 	 16.8167 	 
H 	 -41.2232 	 -5.8113 	 17.312 	 
H 	 -39.9085 	 -6.30517 	 16.1908 	 
C 	 -40.1587 	 -7.56895 	 17.942 	 
H 	 -39.8166 	 -8.4789 	 17.5828 	 
H 	 -40.8758 	 -7.86826 	 18.6665 	 
H 	 -39.4733 	 -7.08392 	 18.6569 	 
H 	 -46.5173 	 -11.2911 	 16.9236 	 
H 	 -39.022 	 -10.1898 	 13.4368 	 
*
