! wB97X-D3 SP def2-SVP
%pal
nprocs 24
end

* xyz 0 1
S 	 -45.6534 	 -51.5916 	 -73.8038 	 
C 	 -44.7115 	 -50.0742 	 -73.8744 	 
C 	 -43.9869 	 -49.8496 	 -72.7058 	 
C 	 -44.2351 	 -50.9073 	 -71.7903 	 
C 	 -45.1403 	 -51.8969 	 -72.1848 	 
H 	 -43.7971 	 -50.8503 	 -70.8097 	 
C 	 -42.948 	 -48.6988 	 -72.4512 	 
H 	 -42.8768 	 -48.4052 	 -71.3766 	 
H 	 -43.2496 	 -47.7849 	 -72.9271 	 
C 	 -41.4764 	 -49.1064 	 -72.7782 	 
H 	 -41.0528 	 -49.7055 	 -71.9445 	 
H 	 -41.4681 	 -49.5699 	 -73.7644 	 
C 	 -40.5856 	 -47.8592 	 -72.6733 	 
H 	 -39.5774 	 -48.0251 	 -72.9797 	 
H 	 -41.0196 	 -47.1781 	 -73.326 	 
H 	 -40.4861 	 -47.4386 	 -71.68 	 
S 	 -46.1815 	 -54.3758 	 -72.373 	 
C 	 -46.5095 	 -55.286 	 -70.8836 	 
C 	 -46.1147 	 -54.6342 	 -69.7234 	 
C 	 -45.556 	 -53.3779 	 -69.9922 	 
C 	 -45.6032 	 -53.0318 	 -71.3858 	 
H 	 -46.3145 	 -55.0468 	 -68.7838 	 
C 	 -45.0793 	 -52.4929 	 -68.837 	 
H 	 -45.5881 	 -51.5594 	 -68.9541 	 
H 	 -44.0558 	 -52.4432 	 -69.0881 	 
C 	 -45.2254 	 -52.9686 	 -67.3862 	 
H 	 -44.951 	 -54.0311 	 -67.2534 	 
H 	 -46.3127 	 -52.9094 	 -67.22 	 
C 	 -44.3634 	 -52.1303 	 -66.5279 	 
H 	 -43.343 	 -52.4864 	 -66.5864 	 
H 	 -44.7158 	 -52.3648 	 -65.4318 	 
H 	 -44.4508 	 -51.1044 	 -66.8525 	 
H 	 -44.5343 	 -49.5007 	 -74.7882 	 
H 	 -46.9939 	 -56.2262 	 -70.8911 	 
*
