! wB97X-D3 SP def2-SVP
%pal
nprocs 24
end

* xyz 0 1
S 	 -87.7917 	 -32.4404 	 -70.8071 	 
C 	 -88.3394 	 -33.6216 	 -72.0381 	 
C 	 -89.7135 	 -33.4635 	 -72.2027 	 
C 	 -90.2534 	 -32.3856 	 -71.4642 	 
C 	 -89.3207 	 -31.6601 	 -70.7593 	 
H 	 -91.2062 	 -31.9123 	 -71.4268 	 
C 	 -90.5301 	 -34.2412 	 -73.1915 	 
H 	 -91.4568 	 -34.4846 	 -72.6277 	 
H 	 -90.0349 	 -35.2235 	 -73.2918 	 
C 	 -90.7656 	 -33.5747 	 -74.602 	 
H 	 -91.1602 	 -32.543 	 -74.5945 	 
H 	 -89.7546 	 -33.4276 	 -74.9189 	 
C 	 -91.6636 	 -34.4496 	 -75.4992 	 
H 	 -92.7142 	 -34.2816 	 -75.3293 	 
H 	 -91.4145 	 -34.1265 	 -76.5468 	 
H 	 -91.4505 	 -35.4955 	 -75.3998 	 
S 	 -89.1376 	 -30.341 	 -68.3902 	 
C 	 -89.8002 	 -28.6766 	 -68.2288 	 
C 	 -90.0599 	 -28.1926 	 -69.4445 	 
C 	 -89.8718 	 -29.0902 	 -70.5221 	 
C 	 -89.4987 	 -30.374 	 -70.094 	 
H 	 -90.4295 	 -27.2063 	 -69.6277 	 
C 	 -90.1068 	 -28.6156 	 -71.954 	 
H 	 -91.2117 	 -28.5483 	 -72.0022 	 
H 	 -89.7032 	 -29.4084 	 -72.5107 	 
C 	 -89.5463 	 -27.308 	 -72.4063 	 
H 	 -90.259 	 -26.5219 	 -72.0317 	 
H 	 -89.6479 	 -27.223 	 -73.4946 	 
C 	 -88.0296 	 -27.0108 	 -72.1401 	 
H 	 -87.4574 	 -27.7926 	 -72.5666 	 
H 	 -87.8186 	 -26.8385 	 -71.096 	 
H 	 -87.7341 	 -26.0609 	 -72.6021 	 
H 	 -87.6591 	 -34.1759 	 -72.6992 	 
H 	 -89.8621 	 -28.0225 	 -67.3251 	 
*
