! wB97X-D3 SP def2-SVP
%pal
nprocs 24
end

* xyz 0 1
S 	 -62.7654 	 17.7013 	 -103.59 	 
C 	 -62.8116 	 16.1348 	 -102.852 	 
C 	 -61.823 	 15.3467 	 -103.238 	 
C 	 -61.1264 	 15.9455 	 -104.376 	 
C 	 -61.7194 	 17.1199 	 -104.809 	 
H 	 -60.3234 	 15.5443 	 -104.965 	 
C 	 -61.6008 	 13.9704 	 -102.708 	 
H 	 -62.1859 	 13.9489 	 -101.814 	 
H 	 -60.5386 	 13.822 	 -102.456 	 
C 	 -62.0465 	 12.8295 	 -103.612 	 
H 	 -63.0843 	 13.0088 	 -103.954 	 
H 	 -61.5717 	 12.8631 	 -104.585 	 
C 	 -62.0509 	 11.4072 	 -103.035 	 
H 	 -61.1518 	 11.2159 	 -102.532 	 
H 	 -62.861 	 11.3138 	 -102.263 	 
H 	 -62.2067 	 10.581 	 -103.747 	 
S 	 -59.9984 	 19.1249 	 -105.654 	 
C 	 -60.009 	 19.5505 	 -107.353 	 
C 	 -61.0661 	 18.8832 	 -108.014 	 
C 	 -61.8629 	 18.0217 	 -107.2 	 
C 	 -61.3127 	 17.9717 	 -105.925 	 
H 	 -61.1918 	 19.0756 	 -109.056 	 
C 	 -63.0459 	 17.2509 	 -107.782 	 
H 	 -63.5806 	 17.7794 	 -108.487 	 
H 	 -63.7642 	 17.0578 	 -107.045 	 
C 	 -62.786 	 15.8832 	 -108.441 	 
H 	 -63.7508 	 15.4353 	 -108.688 	 
H 	 -62.1934 	 15.3395 	 -107.713 	 
C 	 -61.8894 	 16.0033 	 -109.681 	 
H 	 -60.9457 	 16.3489 	 -109.444 	 
H 	 -62.3137 	 16.7292 	 -110.401 	 
H 	 -61.8127 	 15.0786 	 -110.176 	 
H 	 -63.4812 	 15.9201 	 -101.972 	 
H 	 -59.409 	 20.2918 	 -107.812 	 
*
