! wB97X-D3 SP def2-SVP
%pal
nprocs 24
end

* xyz 0 1
S 	 35.0383 	 -30.3418 	 -112.811 	 
C 	 33.501 	 -31.115 	 -112.338 	 
C 	 33.5644 	 -32.517 	 -112.453 	 
C 	 34.8335 	 -32.9516 	 -112.968 	 
C 	 35.6958 	 -31.9154 	 -113.264 	 
H 	 35.2117 	 -33.9729 	 -113.139 	 
C 	 32.4191 	 -33.471 	 -112.163 	 
H 	 32.3507 	 -34.0758 	 -113.035 	 
H 	 31.4848 	 -32.9576 	 -112.003 	 
C 	 32.6501 	 -34.4725 	 -110.985 	 
H 	 33.6361 	 -34.9264 	 -110.942 	 
H 	 32.5533 	 -33.9713 	 -109.972 	 
C 	 31.5785 	 -35.5855 	 -110.997 	 
H 	 30.5882 	 -35.2512 	 -110.837 	 
H 	 31.4634 	 -36.0492 	 -111.945 	 
H 	 31.755 	 -36.345 	 -110.248 	 
S 	 36.9568 	 -32.4516 	 -115.725 	 
C 	 38.659 	 -32.1666 	 -115.924 	 
C 	 39.2464 	 -31.8628 	 -114.724 	 
C 	 38.3039 	 -31.7734 	 -113.629 	 
C 	 36.9747 	 -32.0047 	 -113.99 	 
H 	 40.3352 	 -31.8296 	 -114.659 	 
C 	 38.7123 	 -31.2992 	 -112.268 	 
H 	 37.8924 	 -30.7133 	 -111.848 	 
H 	 39.4641 	 -30.5972 	 -112.425 	 
C 	 39.0788 	 -32.342 	 -111.249 	 
H 	 39.8265 	 -33.0765 	 -111.654 	 
H 	 38.3004 	 -33.101 	 -111.103 	 
C 	 39.5114 	 -31.6416 	 -109.97 	 
H 	 40.167 	 -30.7882 	 -110.114 	 
H 	 40.0873 	 -32.2888 	 -109.404 	 
H 	 38.6327 	 -31.3193 	 -109.368 	 
H 	 32.6479 	 -30.5942 	 -111.964 	 
H 	 39.2906 	 -32.2679 	 -116.761 	 
*
