! wB97X-D3 SP def2-SVP
%pal
nprocs 24
end

* xyz 0 1
S 	 -81.7596 	 -15.636 	 -53.3065 	 
C 	 -83.3941 	 -15.0852 	 -52.9789 	 
C 	 -84.1617 	 -16.1181 	 -52.4805 	 
C 	 -83.4328 	 -17.324 	 -52.2605 	 
C 	 -82.1095 	 -17.1804 	 -52.6003 	 
H 	 -83.7325 	 -18.2852 	 -51.9141 	 
C 	 -85.6148 	 -16.0409 	 -52.1011 	 
H 	 -86.1035 	 -16.7252 	 -52.8001 	 
H 	 -86.048 	 -15.0166 	 -52.3266 	 
C 	 -85.8561 	 -16.3828 	 -50.6578 	 
H 	 -85.4976 	 -17.3335 	 -50.3268 	 
H 	 -85.5057 	 -15.6286 	 -49.984 	 
C 	 -87.4441 	 -16.4771 	 -50.4933 	 
H 	 -87.7861 	 -17.3156 	 -51.067 	 
H 	 -87.8307 	 -16.7225 	 -49.5056 	 
H 	 -87.9891 	 -15.5799 	 -50.7628 	 
S 	 -80.5336 	 -18.4294 	 -50.7682 	 
C 	 -79.4215 	 -19.5506 	 -51.3019 	 
C 	 -79.4155 	 -19.7229 	 -52.6595 	 
C 	 -80.3002 	 -18.8292 	 -53.3033 	 
C 	 -81.0538 	 -18.1283 	 -52.4278 	 
H 	 -78.7295 	 -20.4315 	 -53.2147 	 
C 	 -80.3094 	 -18.6702 	 -54.8298 	 
H 	 -80.7584 	 -17.7119 	 -55.0975 	 
H 	 -81.1066 	 -19.3467 	 -55.167 	 
C 	 -79.0508 	 -18.7889 	 -55.5633 	 
H 	 -78.6084 	 -19.7225 	 -55.2546 	 
H 	 -78.3928 	 -17.9476 	 -55.3379 	 
C 	 -79.1893 	 -18.5694 	 -57.131 	 
H 	 -78.3322 	 -19.1259 	 -57.583 	 
H 	 -79.2324 	 -17.4866 	 -57.3932 	 
H 	 -80.1904 	 -18.9601 	 -57.4068 	 
H 	 -83.6999 	 -14.1164 	 -53.1259 	 
H 	 -78.7526 	 -20.0665 	 -50.6147 	 
*
