! wB97X-D3 SP def2-SVP
%pal
nprocs 24
end

* xyz 0 1
S 	 -89.9114 	 -34.8129 	 -64.6634 	 
C 	 -91.4608 	 -34.8853 	 -65.4648 	 
C 	 -91.6455 	 -33.8746 	 -66.4254 	 
C 	 -90.5793 	 -32.9079 	 -66.4025 	 
C 	 -89.4974 	 -33.3618 	 -65.6435 	 
H 	 -90.5016 	 -32.0148 	 -67.0347 	 
C 	 -92.7656 	 -33.7845 	 -67.3799 	 
H 	 -93.3799 	 -32.8979 	 -67.1341 	 
H 	 -93.4363 	 -34.6133 	 -67.2541 	 
C 	 -92.4825 	 -33.852 	 -68.9311 	 
H 	 -91.758 	 -33.0003 	 -69.0558 	 
H 	 -91.8822 	 -34.7343 	 -69.1782 	 
C 	 -93.7221 	 -33.8592 	 -69.8116 	 
H 	 -94.4835 	 -34.5907 	 -69.4216 	 
H 	 -94.318 	 -32.9714 	 -69.8125 	 
H 	 -93.5626 	 -33.9833 	 -70.8707 	 
S 	 -88.1199 	 -31.5679 	 -64.0961 	 
C 	 -86.6373 	 -30.9137 	 -64.5774 	 
C 	 -86.2978 	 -31.3191 	 -65.8333 	 
C 	 -87.2408 	 -32.2766 	 -66.3798 	 
C 	 -88.3248 	 -32.5268 	 -65.5088 	 
H 	 -85.4447 	 -30.8304 	 -66.2565 	 
C 	 -87.0632 	 -32.8748 	 -67.8012 	 
H 	 -87.7213 	 -33.7765 	 -67.8194 	 
H 	 -85.9773 	 -33.2087 	 -67.7766 	 
C 	 -87.3267 	 -32.0424 	 -69.0483 	 
H 	 -86.5885 	 -31.285 	 -69.0893 	 
H 	 -88.371 	 -31.659 	 -68.9145 	 
C 	 -87.2378 	 -32.8629 	 -70.2991 	 
H 	 -87.852 	 -32.5964 	 -71.184 	 
H 	 -87.4241 	 -33.9628 	 -70.1953 	 
H 	 -86.2316 	 -32.809 	 -70.6869 	 
H 	 -92.1789 	 -35.6476 	 -65.2108 	 
H 	 -86.1087 	 -30.1714 	 -63.97 	 
*
