! wB97X-D3 SP def2-SVP
%pal
nprocs 24
end

* xyz 0 1
S 	 39.0646 	 -6.66653 	 -117.338 	 
C 	 38.629 	 -8.2525 	 -116.671 	 
C 	 37.6077 	 -8.16682 	 -115.717 	 
C 	 36.9993 	 -6.88993 	 -115.738 	 
C 	 37.5718 	 -6.00485 	 -116.65 	 
H 	 36.0969 	 -6.58291 	 -115.131 	 
C 	 37.0553 	 -9.37757 	 -114.903 	 
H 	 37.8527 	 -10.1135 	 -114.947 	 
H 	 36.1634 	 -9.76659 	 -115.414 	 
C 	 36.6973 	 -8.93912 	 -113.457 	 
H 	 37.4764 	 -8.19896 	 -113.243 	 
H 	 35.6682 	 -8.4607 	 -113.583 	 
C 	 36.5625 	 -10.1347 	 -112.534 	 
H 	 37.4177 	 -10.802 	 -112.486 	 
H 	 36.4004 	 -9.7769 	 -111.512 	 
H 	 35.7824 	 -10.9185 	 -112.697 	 
S 	 37.275 	 -3.52782 	 -115.52 	 
C 	 36.8068 	 -2.15728 	 -116.497 	 
C 	 36.5978 	 -2.54895 	 -117.779 	 
C 	 36.7454 	 -3.91989 	 -117.987 	 
C 	 37.0619 	 -4.64337 	 -116.846 	 
H 	 36.2478 	 -1.83781 	 -118.546 	 
C 	 36.6904 	 -4.49266 	 -119.369 	 
H 	 37.2687 	 -5.45673 	 -119.361 	 
H 	 37.3051 	 -3.8245 	 -120.039 	 
C 	 35.1881 	 -4.73187 	 -119.839 	 
H 	 35.2582 	 -5.32424 	 -120.743 	 
H 	 34.7193 	 -3.79008 	 -120.065 	 
C 	 34.2152 	 -5.45321 	 -118.894 	 
H 	 33.1378 	 -5.29605 	 -119.171 	 
H 	 34.3134 	 -5.07888 	 -117.889 	 
H 	 34.4012 	 -6.51852 	 -118.802 	 
H 	 39.1568 	 -9.1775 	 -116.818 	 
H 	 36.6244 	 -1.22574 	 -116.118 	 
*
