! wB97X-D3 SP def2-SVP
%pal
nprocs 24
end

* xyz 0 1
S 	 -33.9281 	 -4.58538 	 5.70408 	 
C 	 -34.4553 	 -4.22278 	 7.28126 	 
C 	 -35.7763 	 -4.55717 	 7.39593 	 
C 	 -36.3813 	 -5.17413 	 6.24133 	 
C 	 -35.5199 	 -5.21682 	 5.18781 	 
H 	 -37.3325 	 -5.5676 	 6.17043 	 
C 	 -36.6075 	 -4.17699 	 8.60959 	 
H 	 -35.9688 	 -4.066 	 9.43432 	 
H 	 -37.2056 	 -5.04999 	 8.8751 	 
C 	 -37.502 	 -2.89137 	 8.49267 	 
H 	 -36.9251 	 -2.01922 	 8.22501 	 
H 	 -38.3016 	 -3.06718 	 7.80059 	 
C 	 -38.1171 	 -2.46725 	 9.88314 	 
H 	 -38.8903 	 -3.16431 	 10.1918 	 
H 	 -37.401 	 -2.35528 	 10.6736 	 
H 	 -38.5899 	 -1.514 	 9.76843 	 
S 	 -34.4508 	 -6.49207 	 3.03557 	 
C 	 -35.3431 	 -6.64625 	 1.61251 	 
C 	 -36.6459 	 -6.29057 	 1.77239 	 
C 	 -36.9068 	 -5.6908 	 3.04044 	 
C 	 -35.7861 	 -5.76402 	 3.83456 	 
H 	 -37.4804 	 -6.41179 	 1.03875 	 
C 	 -38.2786 	 -5.18592 	 3.35864 	 
H 	 -38.1637 	 -4.36999 	 3.99761 	 
H 	 -38.6286 	 -5.88205 	 4.14758 	 
C 	 -39.1644 	 -4.70669 	 2.19883 	 
H 	 -39.6181 	 -5.50271 	 1.57814 	 
H 	 -38.4874 	 -4.21222 	 1.51352 	 
C 	 -40.2431 	 -3.7437 	 2.57619 	 
H 	 -39.9183 	 -2.87389 	 3.13848 	 
H 	 -41.0836 	 -4.14675 	 3.08039 	 
H 	 -40.6883 	 -3.41485 	 1.59604 	 
H 	 -33.9235 	 -3.86349 	 8.12521 	 
H 	 -34.9616 	 -6.83368 	 0.652918 	 
*
