! wB97X-D3 SP def2-SVP
%pal
nprocs 24
end

* xyz 0 1
S 	 -86.3762 	 -47.316 	 -80.142 	 
C 	 -87.4147 	 -46.7352 	 -78.9159 	 
C 	 -87.7481 	 -47.7338 	 -78.0626 	 
C 	 -87.162 	 -48.9864 	 -78.4643 	 
C 	 -86.3971 	 -48.9105 	 -79.6201 	 
H 	 -87.3436 	 -49.9266 	 -77.9917 	 
C 	 -88.7318 	 -47.6091 	 -76.8671 	 
H 	 -89.325 	 -48.5295 	 -76.7324 	 
H 	 -89.6229 	 -46.9431 	 -77.3309 	 
C 	 -88.1888 	 -46.9602 	 -75.5925 	 
H 	 -88.6385 	 -47.5548 	 -74.77 	 
H 	 -87.1218 	 -47.1606 	 -75.4605 	 
C 	 -88.6748 	 -45.5494 	 -75.4134 	 
H 	 -88.5939 	 -44.8206 	 -76.2134 	 
H 	 -89.7098 	 -45.4936 	 -74.9489 	 
H 	 -88.0584 	 -45.0639 	 -74.7163 	 
S 	 -86.1801 	 -50.0972 	 -82.082 	 
C 	 -85.5144 	 -51.7613 	 -82.2069 	 
C 	 -85.1734 	 -52.196 	 -80.9603 	 
C 	 -85.4094 	 -51.3274 	 -79.8906 	 
C 	 -85.8352 	 -50.0519 	 -80.3505 	 
H 	 -84.745 	 -53.2091 	 -80.8825 	 
C 	 -84.9148 	 -51.6472 	 -78.5128 	 
H 	 -85.12 	 -52.7104 	 -78.5226 	 
H 	 -85.5901 	 -51.2717 	 -77.7863 	 
C 	 -83.4226 	 -51.5372 	 -78.2647 	 
H 	 -82.7917 	 -52.069 	 -78.9541 	 
H 	 -83.375 	 -52.1224 	 -77.3419 	 
C 	 -82.8433 	 -50.167 	 -78.0334 	 
H 	 -83.4527 	 -49.5275 	 -77.4501 	 
H 	 -82.6229 	 -49.5881 	 -78.9897 	 
H 	 -81.9075 	 -50.2773 	 -77.4389 	 
H 	 -87.6981 	 -45.7371 	 -78.779 	 
H 	 -85.5298 	 -52.373 	 -83.0929 	 
*
