! wB97X-D3 SP def2-SVP
%pal
nprocs 24
end

* xyz 0 1
S 	 -131.743 	 28.7906 	 -14.1297 	 
C 	 -132.029 	 27.3919 	 -13.149 	 
C 	 -131.904 	 26.2608 	 -13.9565 	 
C 	 -131.86 	 26.5471 	 -15.3205 	 
C 	 -131.923 	 27.8666 	 -15.6015 	 
H 	 -131.886 	 25.8772 	 -16.1643 	 
C 	 -131.84 	 24.8246 	 -13.3419 	 
H 	 -132.042 	 24.1498 	 -14.169 	 
H 	 -132.556 	 24.7 	 -12.5491 	 
C 	 -130.465 	 24.4483 	 -12.796 	 
H 	 -130.661 	 23.4061 	 -12.5741 	 
H 	 -129.779 	 24.4738 	 -13.5463 	 
C 	 -130.054 	 25.1403 	 -11.4856 	 
H 	 -129.305 	 24.5928 	 -10.9397 	 
H 	 -129.659 	 26.1472 	 -11.4981 	 
H 	 -130.904 	 25.118 	 -10.737 	 
S 	 -130.649 	 29.6376 	 -17.1565 	 
C 	 -131.212 	 30.0635 	 -18.7705 	 
C 	 -132.148 	 29.1344 	 -19.1196 	 
C 	 -132.565 	 28.2609 	 -18.0661 	 
C 	 -131.877 	 28.5153 	 -16.8997 	 
H 	 -132.51 	 29.1234 	 -20.1374 	 
C 	 -133.444 	 27.1136 	 -18.4323 	 
H 	 -134.149 	 27.5846 	 -19.1598 	 
H 	 -133.974 	 26.7764 	 -17.545 	 
C 	 -132.641 	 25.9537 	 -19.0656 	 
H 	 -131.796 	 25.7367 	 -18.5193 	 
H 	 -132.271 	 26.2998 	 -20.0638 	 
C 	 -133.43 	 24.5842 	 -19.375 	 
H 	 -132.688 	 23.8111 	 -19.5407 	 
H 	 -134.084 	 24.6993 	 -20.2034 	 
H 	 -134.015 	 24.1807 	 -18.553 	 
H 	 -132.182 	 27.4515 	 -12.0986 	 
H 	 -130.813 	 30.7728 	 -19.485 	 
*
