! wB97X-D3 SP def2-SVP
%pal
nprocs 24
end

* xyz 0 1
S 	 -56.3662 	 21.6371 	 22.6476 	 
C 	 -57.6756 	 20.8917 	 23.3839 	 
C 	 -57.4077 	 19.6053 	 23.8293 	 
C 	 -56.1234 	 19.135 	 23.4152 	 
C 	 -55.4435 	 20.0864 	 22.7769 	 
H 	 -55.5564 	 18.2168 	 23.5628 	 
C 	 -58.4 	 18.7644 	 24.6624 	 
H 	 -58.726 	 17.915 	 24.0604 	 
H 	 -59.2366 	 19.4197 	 24.895 	 
C 	 -57.7793 	 18.18 	 25.9114 	 
H 	 -56.7926 	 17.6464 	 25.6978 	 
H 	 -57.4612 	 19.0845 	 26.5099 	 
C 	 -58.7366 	 17.2256 	 26.6609 	 
H 	 -59.6665 	 17.8107 	 26.7787 	 
H 	 -59.0184 	 16.2748 	 26.1823 	 
H 	 -58.2834 	 17.0553 	 27.6113 	 
S 	 -53.8324 	 19.3413 	 20.7359 	 
C 	 -52.1158 	 19.5508 	 20.8744 	 
C 	 -51.7745 	 20.0731 	 22.1424 	 
C 	 -52.921 	 20.3046 	 22.9525 	 
C 	 -54.0864 	 19.9422 	 22.3266 	 
H 	 -50.7987 	 20.1775 	 22.5538 	 
C 	 -52.8528 	 21.0086 	 24.3413 	 
H 	 -53.6245 	 21.8385 	 24.353 	 
H 	 -51.8497 	 21.5232 	 24.4594 	 
C 	 -53.0092 	 20.1288 	 25.5532 	 
H 	 -54.0082 	 19.7162 	 25.5826 	 
H 	 -52.9847 	 20.7728 	 26.4333 	 
C 	 -51.8476 	 19.0889 	 25.6759 	 
H 	 -51.9486 	 18.4964 	 24.7833 	 
H 	 -52.0359 	 18.4828 	 26.635 	 
H 	 -50.869 	 19.5971 	 25.7501 	 
H 	 -58.6398 	 21.3633 	 23.5045 	 
H 	 -51.4473 	 19.2518 	 20.1648 	 
*
