! wB97X-D3 SP def2-SVP
%pal
nprocs 24
end

* xyz 0 1
S 	 -104.211 	 37.3415 	 -20.677 	 
C 	 -103.416 	 36.5981 	 -19.3029 	 
C 	 -103.239 	 35.2259 	 -19.5425 	 
C 	 -103.689 	 34.7831 	 -20.8415 	 
C 	 -104.221 	 35.7976 	 -21.5759 	 
H 	 -103.773 	 33.718 	 -21.1311 	 
C 	 -102.76 	 34.3123 	 -18.4562 	 
H 	 -102.936 	 33.3107 	 -18.7487 	 
H 	 -103.234 	 34.554 	 -17.5524 	 
C 	 -101.228 	 34.3804 	 -18.2017 	 
H 	 -100.641 	 34.2354 	 -19.1261 	 
H 	 -101.083 	 35.4003 	 -17.8507 	 
C 	 -100.758 	 33.5155 	 -16.9557 	 
H 	 -99.8304 	 33.9264 	 -16.4936 	 
H 	 -101.511 	 33.4507 	 -16.1856 	 
H 	 -100.536 	 32.5306 	 -17.2003 	 
S 	 -106.541 	 36.4486 	 -23.0628 	 
C 	 -106.716 	 35.6756 	 -24.6252 	 
C 	 -105.61 	 34.8975 	 -24.9008 	 
C 	 -104.56 	 35.0362 	 -23.9728 	 
C 	 -104.922 	 35.7654 	 -22.8491 	 
H 	 -105.458 	 34.377 	 -25.8928 	 
C 	 -103.138 	 34.4458 	 -24.1287 	 
H 	 -103.07 	 33.8301 	 -25.0038 	 
H 	 -102.926 	 33.7806 	 -23.3239 	 
C 	 -102.005 	 35.4867 	 -24.27 	 
H 	 -102.209 	 36.2469 	 -23.4753 	 
H 	 -102.187 	 36.0461 	 -25.1952 	 
C 	 -100.577 	 34.921 	 -23.9746 	 
H 	 -100.437 	 34.5668 	 -22.997 	 
H 	 -99.6728 	 35.4623 	 -24.1766 	 
H 	 -100.361 	 34.0836 	 -24.6282 	 
H 	 -103.197 	 37.063 	 -18.2499 	 
H 	 -107.568 	 35.7011 	 -25.2295 	 
*
