! wB97X-D3 SP def2-SVP
%pal
nprocs 24
end

* xyz 0 1
S 	 -108.573 	 0.355617 	 -112.027 	 
C 	 -110.111 	 1.26599 	 -112.211 	 
C 	 -110.187 	 1.88615 	 -113.467 	 
C 	 -108.975 	 1.52729 	 -114.262 	 
C 	 -108.107 	 0.62119 	 -113.658 	 
H 	 -108.77 	 1.96576 	 -115.221 	 
C 	 -111.113 	 2.99834 	 -113.924 	 
H 	 -110.652 	 3.94522 	 -113.787 	 
H 	 -111.907 	 3.10806 	 -113.166 	 
C 	 -111.569 	 2.75295 	 -115.397 	 
H 	 -110.711 	 2.97208 	 -115.995 	 
H 	 -111.657 	 1.74539 	 -115.711 	 
C 	 -112.576 	 3.79203 	 -115.879 	 
H 	 -112.892 	 3.53502 	 -116.924 	 
H 	 -113.371 	 3.84519 	 -115.128 	 
H 	 -112.017 	 4.73056 	 -115.842 	 
S 	 -105.373 	 0.0633139 	 -113.329 	 
C 	 -104.471 	 -0.52347 	 -114.654 	 
C 	 -105.361 	 -0.897803 	 -115.648 	 
C 	 -106.709 	 -0.605149 	 -115.399 	 
C 	 -106.904 	 0.0551471 	 -114.22 	 
H 	 -105.003 	 -1.31882 	 -116.598 	 
C 	 -107.843 	 -0.982558 	 -116.329 	 
H 	 -107.751 	 -0.405993 	 -117.225 	 
H 	 -108.722 	 -0.592252 	 -115.912 	 
C 	 -107.983 	 -2.43699 	 -116.77 	 
H 	 -106.988 	 -2.79599 	 -117.032 	 
H 	 -108.461 	 -2.31783 	 -117.751 	 
C 	 -108.607 	 -3.4823 	 -115.837 	 
H 	 -109.539 	 -3.14254 	 -115.414 	 
H 	 -107.943 	 -3.82346 	 -115.052 	 
H 	 -109.013 	 -4.33095 	 -116.464 	 
H 	 -110.905 	 1.4505 	 -111.484 	 
H 	 -103.387 	 -0.71596 	 -114.585 	 
*
