! wB97X-D3 SP def2-SVP
%pal
nprocs 24
end

* xyz 0 1
S 	 -118.509 	 25.2385 	 -15.8238 	 
C 	 -117.749 	 25.9078 	 -17.2555 	 
C 	 -117.794 	 27.3116 	 -17.1737 	 
C 	 -118.551 	 27.7719 	 -16.06 	 
C 	 -119.009 	 26.7842 	 -15.2537 	 
H 	 -118.71 	 28.8322 	 -15.7344 	 
C 	 -117.208 	 28.2533 	 -18.1367 	 
H 	 -116.204 	 27.9915 	 -18.3349 	 
H 	 -117.092 	 29.2511 	 -17.6522 	 
C 	 -117.968 	 28.5729 	 -19.3753 	 
H 	 -118.138 	 27.6573 	 -19.9118 	 
H 	 -118.948 	 28.9687 	 -19.0588 	 
C 	 -117.35 	 29.7008 	 -20.1811 	 
H 	 -116.294 	 29.4534 	 -20.0737 	 
H 	 -117.552 	 29.6047 	 -21.2847 	 
H 	 -117.614 	 30.7273 	 -19.7363 	 
S 	 -118.89 	 25.8973 	 -12.6433 	 
C 	 -119.844 	 26.6292 	 -11.4115 	 
C 	 -120.635 	 27.6605 	 -11.8834 	 
C 	 -120.543 	 27.7944 	 -13.2799 	 
C 	 -119.572 	 26.953 	 -13.9165 	 
H 	 -121.349 	 28.0697 	 -11.1505 	 
C 	 -121.537 	 28.7387 	 -14.0124 	 
H 	 -120.964 	 28.9832 	 -14.9292 	 
H 	 -121.763 	 29.6725 	 -13.451 	 
C 	 -122.922 	 28.2513 	 -14.4716 	 
H 	 -122.822 	 27.3471 	 -15.0547 	 
H 	 -123.212 	 29.0105 	 -15.2444 	 
C 	 -124.03 	 28.1093 	 -13.3344 	 
H 	 -124.988 	 28.1922 	 -13.8874 	 
H 	 -124.097 	 28.9893 	 -12.8459 	 
H 	 -123.966 	 27.3441 	 -12.6529 	 
H 	 -117.131 	 25.3472 	 -17.9943 	 
H 	 -119.96 	 26.2802 	 -10.4238 	 
*
