! wB97X-D3 SP def2-SVP
%pal
nprocs 24
end

* xyz 0 1
S 	 -96.5899 	 -0.810548 	 -117.643 	 
C 	 -95.2203 	 -1.8455 	 -117.857 	 
C 	 -95.5986 	 -3.05074 	 -118.386 	 
C 	 -96.989 	 -3.09646 	 -118.675 	 
C 	 -97.6816 	 -1.94254 	 -118.418 	 
H 	 -97.4494 	 -3.92039 	 -119.222 	 
C 	 -94.6043 	 -4.02061 	 -118.961 	 
H 	 -93.6196 	 -3.79534 	 -118.652 	 
H 	 -94.6734 	 -3.84903 	 -120.086 	 
C 	 -94.75 	 -5.53396 	 -118.545 	 
H 	 -95.7614 	 -5.80014 	 -118.65 	 
H 	 -94.1294 	 -6.04874 	 -119.268 	 
C 	 -94.2196 	 -5.95654 	 -117.105 	 
H 	 -93.156 	 -5.78854 	 -116.941 	 
H 	 -94.8701 	 -5.52897 	 -116.3 	 
H 	 -94.4498 	 -7.02491 	 -116.971 	 
S 	 -100.062 	 -1.95851 	 -117.106 	 
C 	 -101.509 	 -1.68007 	 -117.894 	 
C 	 -101.36 	 -1.76789 	 -119.235 	 
C 	 -99.9829 	 -2.0466 	 -119.578 	 
C 	 -99.1005 	 -1.8503 	 -118.549 	 
H 	 -102.237 	 -1.85889 	 -119.932 	 
C 	 -99.5075 	 -2.36408 	 -120.997 	 
H 	 -98.4265 	 -2.0962 	 -121.002 	 
H 	 -99.9246 	 -1.69099 	 -121.791 	 
C 	 -99.7435 	 -3.78611 	 -121.437 	 
H 	 -100.789 	 -4.01691 	 -121.143 	 
H 	 -99.1452 	 -4.51397 	 -120.809 	 
C 	 -99.5697 	 -4.12703 	 -122.941 	 
H 	 -99.4631 	 -5.23852 	 -123.105 	 
H 	 -98.6131 	 -3.63886 	 -123.159 	 
H 	 -100.381 	 -3.71399 	 -123.636 	 
H 	 -94.2041 	 -1.63188 	 -117.588 	 
H 	 -102.475 	 -1.65727 	 -117.403 	 
*
