! wB97X-D3 SP def2-SVP
%pal
nprocs 24
end

* xyz 0 1
S 	 -94.4807 	 11.6858 	 -118.933 	 
C 	 -94.6795 	 11.1827 	 -117.249 	 
C 	 -96.0237 	 11.0079 	 -116.892 	 
C 	 -96.9051 	 11.4344 	 -117.918 	 
C 	 -96.2457 	 11.841 	 -119.088 	 
H 	 -97.9638 	 11.4321 	 -117.898 	 
C 	 -96.513 	 10.2636 	 -115.652 	 
H 	 -95.8043 	 10.4205 	 -114.827 	 
H 	 -96.2103 	 9.29012 	 -116.095 	 
C 	 -97.9342 	 10.3265 	 -115.191 	 
H 	 -97.9828 	 10.144 	 -114.162 	 
H 	 -98.1992 	 11.3613 	 -115.215 	 
C 	 -98.8551 	 9.40579 	 -115.996 	 
H 	 -99.7213 	 9.08405 	 -115.413 	 
H 	 -99.2972 	 9.744 	 -116.884 	 
H 	 -98.2789 	 8.49299 	 -116.213 	 
S 	 -96.136 	 11.9714 	 -121.834 	 
C 	 -97.506 	 12.34 	 -122.797 	 
C 	 -98.425 	 12.9776 	 -121.991 	 
C 	 -98.1003 	 12.9085 	 -120.593 	 
C 	 -96.8932 	 12.2882 	 -120.315 	 
H 	 -99.2778 	 13.4183 	 -122.455 	 
C 	 -99.0283 	 13.6711 	 -119.685 	 
H 	 -99.5969 	 13.1006 	 -119.019 	 
H 	 -99.7733 	 14.1633 	 -120.246 	 
C 	 -98.151 	 14.6277 	 -118.854 	 
H 	 -97.542 	 15.2639 	 -119.436 	 
H 	 -97.5455 	 14.0847 	 -118.217 	 
C 	 -99.0082 	 15.4236 	 -117.855 	 
H 	 -99.7878 	 15.9542 	 -118.437 	 
H 	 -98.337 	 16.043 	 -117.253 	 
H 	 -99.4921 	 14.7632 	 -117.217 	 
H 	 -93.8069 	 10.9731 	 -116.658 	 
H 	 -97.6036 	 12.4356 	 -123.82 	 
*
