! wB97X-D3 SP def2-SVP
%pal
nprocs 24
end

* xyz 0 1
S 	 -107.384 	 38.5887 	 -12.5369 	 
C 	 -106.648 	 39.1364 	 -13.9997 	 
C 	 -105.549 	 38.3567 	 -14.292 	 
C 	 -105.348 	 37.2778 	 -13.434 	 
C 	 -106.285 	 37.2279 	 -12.3928 	 
H 	 -104.568 	 36.5693 	 -13.3573 	 
C 	 -104.731 	 38.598 	 -15.528 	 
H 	 -105.328 	 38.3747 	 -16.3802 	 
H 	 -103.883 	 37.9329 	 -15.5882 	 
C 	 -104.224 	 40.0331 	 -15.5564 	 
H 	 -105.16 	 40.6638 	 -15.7862 	 
H 	 -103.906 	 40.2108 	 -14.508 	 
C 	 -103.159 	 40.283 	 -16.584 	 
H 	 -102.368 	 39.5073 	 -16.6122 	 
H 	 -103.697 	 40.2844 	 -17.5314 	 
H 	 -102.646 	 41.169 	 -16.4315 	 
S 	 -106.097 	 37.0691 	 -9.55294 	 
C 	 -105.803 	 35.5708 	 -8.77204 	 
C 	 -105.601 	 34.5761 	 -9.70655 	 
C 	 -105.801 	 34.9902 	 -11.077 	 
C 	 -106.177 	 36.3536 	 -11.1701 	 
H 	 -105.263 	 33.6143 	 -9.37508 	 
C 	 -105.613 	 33.9882 	 -12.1736 	 
H 	 -104.592 	 33.6534 	 -12.0386 	 
H 	 -105.618 	 34.5873 	 -13.0321 	 
C 	 -106.658 	 32.8727 	 -12.2314 	 
H 	 -107.704 	 33.1998 	 -12.1435 	 
H 	 -106.553 	 32.2116 	 -11.3978 	 
C 	 -106.475 	 32.1254 	 -13.5326 	 
H 	 -105.464 	 31.7015 	 -13.5725 	 
H 	 -106.473 	 32.8169 	 -14.4108 	 
H 	 -107.302 	 31.386 	 -13.6176 	 
H 	 -107.013 	 39.9098 	 -14.6133 	 
H 	 -105.459 	 35.4545 	 -7.73767 	 
*
