! wB97X-D3 SP def2-SVP
%pal
nprocs 24
end

* xyz 0 1
S 	 -145.685 	 27.5471 	 -15.3891 	 
C 	 -145.633 	 25.8243 	 -15.6808 	 
C 	 -144.324 	 25.3319 	 -15.6506 	 
C 	 -143.387 	 26.3406 	 -15.2575 	 
C 	 -143.925 	 27.5858 	 -15.0414 	 
H 	 -142.354 	 26.1915 	 -15.0598 	 
C 	 -143.86 	 23.8879 	 -15.9376 	 
H 	 -143.399 	 23.3846 	 -15.0934 	 
H 	 -143.146 	 23.8704 	 -16.7273 	 
C 	 -145.003 	 22.8953 	 -16.337 	 
H 	 -145.72 	 22.8226 	 -15.5347 	 
H 	 -145.574 	 23.2022 	 -17.2687 	 
C 	 -144.402 	 21.4692 	 -16.5507 	 
H 	 -143.684 	 21.076 	 -15.8506 	 
H 	 -145.085 	 20.639 	 -16.8963 	 
H 	 -143.788 	 21.5092 	 -17.4625 	 
S 	 -144.003 	 29.6376 	 -13.1808 	 
C 	 -142.618 	 30.6779 	 -12.9887 	 
C 	 -141.611 	 30.3984 	 -13.881 	 
C 	 -141.955 	 29.3127 	 -14.7271 	 
C 	 -143.205 	 28.7628 	 -14.5216 	 
H 	 -140.81 	 31.1439 	 -13.9602 	 
C 	 -140.988 	 28.838 	 -15.7692 	 
H 	 -140.765 	 27.779 	 -15.5583 	 
H 	 -140.131 	 29.515 	 -15.6921 	 
C 	 -141.606 	 28.9557 	 -17.2062 	 
H 	 -142.075 	 29.8916 	 -17.2797 	 
H 	 -142.336 	 28.1544 	 -17.2469 	 
C 	 -140.648 	 28.5612 	 -18.3968 	 
H 	 -140.11 	 27.6769 	 -18.321 	 
H 	 -139.992 	 29.458 	 -18.4302 	 
H 	 -141.129 	 28.5806 	 -19.3711 	 
H 	 -146.535 	 25.2718 	 -15.9027 	 
H 	 -142.726 	 31.5422 	 -12.3165 	 
*
