! wB97X-D3 SP def2-SVP
%pal
nprocs 24
end

* xyz 0 1
S 	 -66.9106 	 8.22822 	 -69.1477 	 
C 	 -66.9488 	 8.35068 	 -70.8709 	 
C 	 -66.3905 	 7.23835 	 -71.4414 	 
C 	 -66.0494 	 6.22043 	 -70.4398 	 
C 	 -66.3729 	 6.57331 	 -69.1484 	 
H 	 -65.5953 	 5.28096 	 -70.6358 	 
C 	 -66.2712 	 6.86665 	 -72.8773 	 
H 	 -65.3654 	 6.17868 	 -72.9138 	 
H 	 -66.0106 	 7.7424 	 -73.4415 	 
C 	 -67.4507 	 6.22688 	 -73.6044 	 
H 	 -68.3173 	 6.63379 	 -73.0954 	 
H 	 -67.5186 	 6.42239 	 -74.701 	 
C 	 -67.4742 	 4.79737 	 -73.2342 	 
H 	 -67.5622 	 4.46534 	 -72.1722 	 
H 	 -68.3662 	 4.39084 	 -73.7366 	 
H 	 -66.6349 	 4.3174 	 -73.6856 	 
S 	 -65.2138 	 6.69831 	 -66.7268 	 
C 	 -65.2077 	 5.36215 	 -65.6602 	 
C 	 -65.6484 	 4.19695 	 -66.2716 	 
C 	 -66.2564 	 4.50469 	 -67.5189 	 
C 	 -66.0068 	 5.79927 	 -67.9558 	 
H 	 -65.6512 	 3.23667 	 -65.7535 	 
C 	 -66.8734 	 3.44332 	 -68.4547 	 
H 	 -67.651 	 3.88737 	 -69.1021 	 
H 	 -67.505 	 2.87179 	 -67.7593 	 
C 	 -65.9071 	 2.52549 	 -69.1769 	 
H 	 -65.5296 	 1.90629 	 -68.3909 	 
H 	 -65.0293 	 3.19211 	 -69.277 	 
C 	 -66.4175 	 1.70299 	 -70.4008 	 
H 	 -65.7849 	 0.852367 	 -70.5567 	 
H 	 -66.3783 	 2.34036 	 -71.2872 	 
H 	 -67.3345 	 1.13579 	 -70.2221 	 
H 	 -67.3383 	 9.1248 	 -71.4197 	 
H 	 -64.7196 	 5.41258 	 -64.759 	 
*
