! wB97X-D3 SP def2-SVP
%pal
nprocs 24
end

* xyz 0 1
S 	 -115.937 	 45.88 	 -114.687 	 
C 	 -116.604 	 44.3603 	 -115.276 	 
C 	 -116.553 	 43.4183 	 -114.279 	 
C 	 -116.15 	 43.9413 	 -112.997 	 
C 	 -115.807 	 45.2912 	 -113.087 	 
H 	 -116.103 	 43.3631 	 -112.056 	 
C 	 -117.035 	 42.0487 	 -114.424 	 
H 	 -117.934 	 42.0613 	 -115.124 	 
H 	 -117.392 	 41.7729 	 -113.474 	 
C 	 -115.994 	 41.0922 	 -115.159 	 
H 	 -115.68 	 41.5386 	 -116.082 	 
H 	 -115.115 	 41.0038 	 -114.486 	 
C 	 -116.453 	 39.6522 	 -115.45 	 
H 	 -116.335 	 39.0391 	 -114.579 	 
H 	 -117.449 	 39.6309 	 -115.862 	 
H 	 -115.787 	 39.0695 	 -116.11 	 
S 	 -116.143 	 47.3815 	 -111.451 	 
C 	 -114.847 	 47.9939 	 -110.34 	 
C 	 -113.714 	 47.169 	 -110.518 	 
C 	 -113.951 	 45.9961 	 -111.3 	 
C 	 -115.152 	 46.1149 	 -112.047 	 
H 	 -112.877 	 47.3534 	 -109.84 	 
C 	 -112.938 	 44.8488 	 -111.394 	 
H 	 -113.189 	 44.082 	 -112.169 	 
H 	 -112.984 	 44.3057 	 -110.452 	 
C 	 -111.403 	 45.3006 	 -111.462 	 
H 	 -110.934 	 44.3974 	 -111.125 	 
H 	 -111.241 	 46.0869 	 -110.806 	 
C 	 -111.044 	 45.5088 	 -112.954 	 
H 	 -110.832 	 46.5279 	 -113.192 	 
H 	 -111.688 	 45.0734 	 -113.726 	 
H 	 -110.116 	 44.9169 	 -113.095 	 
H 	 -116.882 	 44.2491 	 -116.291 	 
H 	 -114.947 	 48.7958 	 -109.586 	 
*
