! wB97X-D3 SP def2-SVP
%pal
nprocs 24
end

* xyz 0 1
S 	 -60.7538 	 11.4961 	 -99.9834 	 
C 	 -62.1328 	 11.8286 	 -101.018 	 
C 	 -62.0479 	 13.1283 	 -101.499 	 
C 	 -60.8972 	 13.8836 	 -101.067 	 
C 	 -60.0149 	 13.0837 	 -100.321 	 
H 	 -60.7829 	 14.901 	 -101.246 	 
C 	 -63.1333 	 13.6755 	 -102.396 	 
H 	 -64.0339 	 13.0425 	 -102.185 	 
H 	 -62.8793 	 13.5362 	 -103.391 	 
C 	 -63.4594 	 15.1513 	 -102.249 	 
H 	 -63.9623 	 15.3196 	 -101.258 	 
H 	 -62.5649 	 15.696 	 -102.118 	 
C 	 -64.2362 	 15.7066 	 -103.477 	 
H 	 -63.7913 	 15.5726 	 -104.52 	 
H 	 -65.2245 	 15.1908 	 -103.535 	 
H 	 -64.4481 	 16.7746 	 -103.142 	 
S 	 -58.4601 	 14.3915 	 -98.5624 	 
C 	 -56.6873 	 14.4159 	 -98.8836 	 
C 	 -56.3558 	 13.4776 	 -99.8086 	 
C 	 -57.48 	 12.8367 	 -100.413 	 
C 	 -58.6633 	 13.3482 	 -99.9385 	 
H 	 -55.2856 	 13.3142 	 -99.9298 	 
C 	 -57.4261 	 11.9178 	 -101.571 	 
H 	 -56.7399 	 12.2918 	 -102.423 	 
H 	 -58.418 	 11.5995 	 -102.011 	 
C 	 -56.7343 	 10.4785 	 -101.115 	 
H 	 -57.2078 	 10.0836 	 -100.14 	 
H 	 -55.6736 	 10.4926 	 -100.98 	 
C 	 -57.0545 	 9.4589 	 -102.197 	 
H 	 -56.5014 	 8.55473 	 -101.928 	 
H 	 -56.8939 	 9.90278 	 -103.196 	 
H 	 -58.1123 	 9.32865 	 -102.086 	 
H 	 -62.769 	 11.1356 	 -101.524 	 
H 	 -55.9616 	 15.0329 	 -98.3501 	 
*
