! wB97X-D3 SP def2-SVP
%pal
nprocs 24
end

* xyz 0 1
S 	 -35.8322 	 -12.0339 	 19.7049 	 
C 	 -35.6952 	 -10.3237 	 20.2911 	 
C 	 -35.0932 	 -9.58927 	 19.3164 	 
C 	 -34.6062 	 -10.3429 	 18.189 	 
C 	 -35.0243 	 -11.6469 	 18.1897 	 
H 	 -33.9464 	 -9.96816 	 17.3829 	 
C 	 -34.7165 	 -8.14025 	 19.4302 	 
H 	 -33.6602 	 -8.04136 	 19.6059 	 
H 	 -35.2555 	 -7.67431 	 20.3361 	 
C 	 -35.15 	 -7.29587 	 18.2293 	 
H 	 -35.1729 	 -6.2638 	 18.5654 	 
H 	 -34.4686 	 -7.30742 	 17.3354 	 
C 	 -36.5589 	 -7.53895 	 17.5207 	 
H 	 -37.4286 	 -7.53758 	 18.1595 	 
H 	 -36.813 	 -6.8363 	 16.6531 	 
H 	 -36.5091 	 -8.52356 	 17.0714 	 
S 	 -34.0542 	 -14.1794 	 17.9884 	 
C 	 -33.7199 	 -14.8442 	 16.4356 	 
C 	 -33.8745 	 -13.854 	 15.4103 	 
C 	 -34.4656 	 -12.6595 	 15.8867 	 
C 	 -34.5855 	 -12.6927 	 17.2847 	 
H 	 -33.5319 	 -14.0808 	 14.4234 	 
C 	 -35.0597 	 -11.6889 	 14.9249 	 
H 	 -34.4833 	 -11.5101 	 14.061 	 
H 	 -35.0311 	 -10.7759 	 15.3366 	 
C 	 -36.5479 	 -12.0252 	 14.735 	 
H 	 -37.0089 	 -11.8937 	 15.7244 	 
H 	 -36.6835 	 -13.1165 	 14.4746 	 
C 	 -37.2543 	 -11.0565 	 13.7148 	 
H 	 -37.1106 	 -11.4383 	 12.7157 	 
H 	 -36.7394 	 -10.0568 	 13.7513 	 
H 	 -38.3355 	 -10.9678 	 13.8226 	 
H 	 -36.0447 	 -9.90514 	 21.2626 	 
H 	 -33.1263 	 -15.6166 	 16.1559 	 
*
