! wB97X-D3 SP def2-SVP
%pal
nprocs 24
end

* xyz 0 1
S 	 -51.2716 	 -48.8304 	 -76.8798 	 
C 	 -50.6517 	 -47.4624 	 -76.0356 	 
C 	 -49.5034 	 -46.9307 	 -76.5771 	 
C 	 -49.0761 	 -47.7603 	 -77.6325 	 
C 	 -49.8799 	 -48.8577 	 -77.9323 	 
H 	 -48.0782 	 -47.6994 	 -78.1072 	 
C 	 -48.6657 	 -45.784 	 -76.1312 	 
H 	 -47.6962 	 -45.8848 	 -76.6672 	 
H 	 -48.3853 	 -46.1499 	 -75.1122 	 
C 	 -49.2788 	 -44.3517 	 -76.1084 	 
H 	 -48.4058 	 -43.6541 	 -76.205 	 
H 	 -49.756 	 -44.127 	 -77.0974 	 
C 	 -50.3492 	 -44.0037 	 -75.0519 	 
H 	 -51.1699 	 -44.7932 	 -75.0712 	 
H 	 -50.0857 	 -43.9101 	 -74.0156 	 
H 	 -50.6911 	 -43.0623 	 -75.4129 	 
S 	 -49.3742 	 -51.6118 	 -78.0576 	 
C 	 -48.8753 	 -52.2877 	 -79.5814 	 
C 	 -49.0182 	 -51.3862 	 -80.588 	 
C 	 -49.3319 	 -50.073 	 -80.1402 	 
C 	 -49.5646 	 -49.9997 	 -78.7873 	 
H 	 -48.8849 	 -51.5544 	 -81.6421 	 
C 	 -49.5011 	 -48.9449 	 -81.125 	 
H 	 -48.7097 	 -48.9569 	 -81.9219 	 
H 	 -49.4634 	 -48.0155 	 -80.5454 	 
C 	 -50.7838 	 -48.833 	 -81.8139 	 
H 	 -51.6078 	 -48.8455 	 -81.0382 	 
H 	 -50.9826 	 -49.7032 	 -82.4346 	 
C 	 -50.8608 	 -47.6554 	 -82.8021 	 
H 	 -50.2101 	 -47.5491 	 -83.6964 	 
H 	 -50.8995 	 -46.7401 	 -82.28 	 
H 	 -51.8138 	 -47.6122 	 -83.2575 	 
H 	 -51.2553 	 -47.101 	 -75.2313 	 
H 	 -48.6867 	 -53.3436 	 -79.7557 	 
*
