! wB97X-D3 SP def2-SVP
%pal
nprocs 24
end

* xyz 0 1
S 	 13.3004 	 -15.4054 	 -118.404 	 
C 	 11.7574 	 -14.677 	 -118.264 	 
C 	 10.7654 	 -15.5588 	 -117.904 	 
C 	 11.239 	 -16.8845 	 -117.686 	 
C 	 12.5872 	 -16.9604 	 -117.896 	 
H 	 10.6312 	 -17.7034 	 -117.296 	 
C 	 9.3173 	 -15.1214 	 -117.575 	 
H 	 8.7153 	 -15.3041 	 -118.472 	 
H 	 9.4199 	 -14.0571 	 -117.425 	 
C 	 8.48029 	 -15.7818 	 -116.389 	 
H 	 8.37921 	 -16.8467 	 -116.631 	 
H 	 9.1602 	 -15.8341 	 -115.558 	 
C 	 7.08185 	 -15.1888 	 -116.189 	 
H 	 6.46711 	 -14.8977 	 -117.024 	 
H 	 6.40276 	 -15.7295 	 -115.424 	 
H 	 7.30151 	 -14.2195 	 -115.703 	 
S 	 14.4241 	 -18.7043 	 -118.794 	 
C 	 14.9615 	 -20.0579 	 -117.862 	 
C 	 14.5328 	 -19.9291 	 -116.499 	 
C 	 13.6135 	 -18.8113 	 -116.358 	 
C 	 13.4724 	 -18.0408 	 -117.515 	 
H 	 14.843 	 -20.6383 	 -115.748 	 
C 	 13.036 	 -18.4651 	 -114.988 	 
H 	 12.7393 	 -17.3797 	 -114.938 	 
H 	 13.8896 	 -18.6698 	 -114.294 	 
C 	 11.7472 	 -19.2849 	 -114.489 	 
H 	 11.1874 	 -19.5445 	 -115.415 	 
H 	 11.1632 	 -18.6322 	 -113.899 	 
C 	 11.9889 	 -20.6382 	 -113.721 	 
H 	 12.099 	 -20.3508 	 -112.674 	 
H 	 12.8579 	 -21.1975 	 -114.006 	 
H 	 11.2507 	 -21.4754 	 -113.753 	 
H 	 11.6223 	 -13.5998 	 -118.47 	 
H 	 15.6172 	 -20.7211 	 -118.296 	 
*
