! wB97X-D3 SP def2-SVP
%pal
nprocs 24
end

* xyz 0 1
S 	 -117.371 	 44.1938 	 -112.659 	 
C 	 -117.986 	 42.7666 	 -113.566 	 
C 	 -117.268 	 42.4984 	 -114.68 	 
C 	 -116.106 	 43.3395 	 -114.796 	 
C 	 -116.068 	 44.4018 	 -113.89 	 
H 	 -115.43 	 43.159 	 -115.617 	 
C 	 -117.689 	 41.514 	 -115.779 	 
H 	 -118.647 	 40.9545 	 -115.57 	 
H 	 -116.856 	 40.8316 	 -115.805 	 
C 	 -118.005 	 42.1458 	 -117.135 	 
H 	 -118.951 	 42.7166 	 -116.975 	 
H 	 -117.189 	 42.8406 	 -117.362 	 
C 	 -118.089 	 41.2663 	 -118.39 	 
H 	 -118.763 	 40.4343 	 -118.274 	 
H 	 -118.489 	 41.7922 	 -119.247 	 
H 	 -117.136 	 40.9031 	 -118.67 	 
S 	 -115.831 	 47.1623 	 -114.18 	 
C 	 -114.243 	 47.8475 	 -113.981 	 
C 	 -113.322 	 46.9141 	 -113.624 	 
C 	 -113.847 	 45.5884 	 -113.555 	 
C 	 -115.171 	 45.5485 	 -113.852 	 
H 	 -112.349 	 47.2538 	 -113.31 	 
C 	 -112.991 	 44.4456 	 -113.169 	 
H 	 -113.608 	 43.5346 	 -113.254 	 
H 	 -112.675 	 44.4998 	 -112.16 	 
C 	 -111.683 	 44.2302 	 -113.992 	 
H 	 -111.193 	 43.4235 	 -113.548 	 
H 	 -111.038 	 45.0901 	 -113.818 	 
C 	 -111.91 	 44.033 	 -115.537 	 
H 	 -112.542 	 44.7614 	 -116.018 	 
H 	 -112.444 	 43.1493 	 -115.522 	 
H 	 -111.044 	 43.9795 	 -116.21 	 
H 	 -118.905 	 42.294 	 -113.377 	 
H 	 -113.996 	 48.9046 	 -114.155 	 
*
