! wB97X-D3 SP def2-SVP
%pal
nprocs 24
end

* xyz 0 1
S 	 -104.036 	 17.567 	 -111.768 	 
C 	 -104.053 	 17.486 	 -110.002 	 
C 	 -104.538 	 18.6689 	 -109.42 	 
C 	 -104.96 	 19.5689 	 -110.411 	 
C 	 -104.677 	 19.176 	 -111.746 	 
H 	 -105.494 	 20.487 	 -110.194 	 
C 	 -104.665 	 18.9983 	 -107.962 	 
H 	 -104.823 	 18.0346 	 -107.398 	 
H 	 -105.586 	 19.4881 	 -107.648 	 
C 	 -103.461 	 19.7069 	 -107.367 	 
H 	 -103.651 	 19.8489 	 -106.29 	 
H 	 -102.54 	 19.1982 	 -107.546 	 
C 	 -103.397 	 21.1306 	 -107.789 	 
H 	 -102.977 	 21.2203 	 -108.828 	 
H 	 -104.333 	 21.7006 	 -107.579 	 
H 	 -102.627 	 21.5963 	 -107.155 	 
S 	 -105.906 	 19.0956 	 -114.128 	 
C 	 -105.96 	 20.5219 	 -115.069 	 
C 	 -105.281 	 21.5943 	 -114.492 	 
C 	 -104.723 	 21.2397 	 -113.229 	 
C 	 -104.916 	 19.8618 	 -112.961 	 
H 	 -105.274 	 22.4712 	 -114.953 	 
C 	 -103.822 	 22.2393 	 -112.477 	 
H 	 -104.085 	 22.3724 	 -111.449 	 
H 	 -103.808 	 23.2103 	 -112.984 	 
C 	 -102.319 	 21.8577 	 -112.465 	 
H 	 -101.957 	 22.0849 	 -113.482 	 
H 	 -102.341 	 20.7381 	 -112.429 	 
C 	 -101.477 	 22.5321 	 -111.341 	 
H 	 -101.663 	 22.0124 	 -110.379 	 
H 	 -101.61 	 23.6367 	 -111.384 	 
H 	 -100.418 	 22.3143 	 -111.632 	 
H 	 -103.755 	 16.5993 	 -109.443 	 
H 	 -106.462 	 20.6804 	 -116.04 	 
*
