! wB97X-D3 SP def2-SVP
%pal
nprocs 24
end

* xyz 0 1
S 	 -63.5164 	 6.91995 	 -75.2204 	 
C 	 -63.9292 	 5.64845 	 -74.138 	 
C 	 -65.0221 	 4.99565 	 -74.6191 	 
C 	 -65.6582 	 5.64974 	 -75.7499 	 
C 	 -64.843 	 6.61805 	 -76.2984 	 
H 	 -66.5704 	 5.34475 	 -76.3241 	 
C 	 -65.5563 	 3.71963 	 -74.0583 	 
H 	 -66.5746 	 3.97614 	 -73.6872 	 
H 	 -64.9738 	 3.50402 	 -73.1631 	 
C 	 -65.5037 	 2.52927 	 -75.0731 	 
H 	 -66.1352 	 1.61376 	 -74.7741 	 
H 	 -66.0389 	 3.07286 	 -75.8675 	 
C 	 -64.1262 	 2.0865 	 -75.445 	 
H 	 -63.7192 	 1.80711 	 -74.4729 	 
H 	 -64.0898 	 1.21822 	 -76.1532 	 
H 	 -63.5857 	 2.96999 	 -75.8587 	 
S 	 -65.2214 	 9.14499 	 -77.2176 	 
C 	 -65.5486 	 9.41809 	 -78.858 	 
C 	 -65.7918 	 8.24517 	 -79.4932 	 
C 	 -65.5315 	 7.08314 	 -78.7271 	 
C 	 -65.1285 	 7.45545 	 -77.4912 	 
H 	 -66.0946 	 8.26738 	 -80.4946 	 
C 	 -65.671 	 5.66976 	 -79.3264 	 
H 	 -66.44 	 5.61878 	 -80.0918 	 
H 	 -66.0561 	 5.02532 	 -78.5761 	 
C 	 -64.2901 	 5.18583 	 -79.9607 	 
H 	 -63.5322 	 5.21569 	 -79.2053 	 
H 	 -63.9937 	 5.81845 	 -80.7788 	 
C 	 -64.4028 	 3.74389 	 -80.4568 	 
H 	 -63.4286 	 3.41775 	 -81.002 	 
H 	 -65.1712 	 3.72681 	 -81.2481 	 
H 	 -64.5133 	 2.98686 	 -79.6702 	 
H 	 -63.2218 	 5.47705 	 -73.3071 	 
H 	 -65.7357 	 10.4351 	 -79.1685 	 
*
