! wB97X-D3 SP def2-SVP
%pal
nprocs 24
end

* xyz 0 1
S 	 -100.53 	 1.36445 	 -103.626 	 
C 	 -100.017 	 2.89358 	 -104.362 	 
C 	 -100.917 	 3.38282 	 -105.271 	 
C 	 -102.001 	 2.4087 	 -105.471 	 
C 	 -101.928 	 1.20406 	 -104.74 	 
H 	 -102.808 	 2.53615 	 -106.197 	 
C 	 -100.933 	 4.7841 	 -105.911 	 
H 	 -100.165 	 5.41923 	 -105.46 	 
H 	 -101.916 	 5.1915 	 -105.617 	 
C 	 -100.712 	 4.85701 	 -107.411 	 
H 	 -100.375 	 5.8952 	 -107.602 	 
H 	 -99.9451 	 4.22173 	 -107.759 	 
C 	 -101.8 	 4.47934 	 -108.347 	 
H 	 -102.759 	 4.99231 	 -108.245 	 
H 	 -101.527 	 4.68909 	 -109.344 	 
H 	 -101.869 	 3.44973 	 -108.287 	 
S 	 -102.264 	 -1.48807 	 -103.898 	 
C 	 -103.703 	 -2.27647 	 -104.263 	 
C 	 -104.536 	 -1.45915 	 -104.975 	 
C 	 -104.052 	 -0.125394 	 -105.213 	 
C 	 -102.773 	 0.0619962 	 -104.695 	 
H 	 -105.445 	 -1.8109 	 -105.391 	 
C 	 -104.858 	 0.822221 	 -105.97 	 
H 	 -105.632 	 0.322182 	 -106.659 	 
H 	 -104.134 	 1.16316 	 -106.706 	 
C 	 -105.621 	 1.82716 	 -105.139 	 
H 	 -104.879 	 2.3119 	 -104.572 	 
H 	 -106.296 	 1.27394 	 -104.467 	 
C 	 -106.327 	 2.9315 	 -105.985 	 
H 	 -107.402 	 2.7239 	 -106.212 	 
H 	 -105.751 	 3.13127 	 -106.846 	 
H 	 -106.408 	 3.88023 	 -105.428 	 
H 	 -99.1385 	 3.46602 	 -104.074 	 
H 	 -103.988 	 -3.27886 	 -104.046 	 
*
