! wB97X-D3 SP def2-SVP
%pal
nprocs 24
end

* xyz 0 1
S 	 -2.016 	 -22.6761 	 -112.329 	 
C 	 -1.83167 	 -24.0614 	 -113.332 	 
C 	 -1.86283 	 -25.2427 	 -112.583 	 
C 	 -2.01648 	 -24.9763 	 -111.182 	 
C 	 -2.01965 	 -23.6104 	 -110.86 	 
H 	 -2.12736 	 -25.6973 	 -110.39 	 
C 	 -1.82678 	 -26.6401 	 -113.159 	 
H 	 -2.50915 	 -26.584 	 -114.057 	 
H 	 -2.14682 	 -27.3474 	 -112.411 	 
C 	 -0.356374 	 -26.9854 	 -113.593 	 
H 	 -0.0665619 	 -26.4454 	 -114.509 	 
H 	 0.340757 	 -26.6148 	 -112.822 	 
C 	 0.00272938 	 -28.4626 	 -113.844 	 
H 	 1.08194 	 -28.6408 	 -114.03 	 
H 	 -0.345842 	 -29.087 	 -113.021 	 
H 	 -0.63748 	 -28.9213 	 -114.526 	 
S 	 -2.62424 	 -21.3298 	 -109.539 	 
C 	 -2.59866 	 -21.186 	 -107.822 	 
C 	 -2.01226 	 -22.3168 	 -107.3 	 
C 	 -1.73388 	 -23.3187 	 -108.256 	 
C 	 -2.06158 	 -23 	 -109.571 	 
H 	 -1.68624 	 -22.4428 	 -106.226 	 
C 	 -0.985273 	 -24.5472 	 -107.818 	 
H 	 -0.0169633 	 -24.3819 	 -107.261 	 
H 	 -0.554654 	 -24.8582 	 -108.8 	 
C 	 -1.875 	 -25.6185 	 -107.173 	 
H 	 -2.75097 	 -25.6887 	 -107.783 	 
H 	 -2.18258 	 -25.2629 	 -106.152 	 
C 	 -1.17345 	 -26.9254 	 -106.875 	 
H 	 -0.657392 	 -27.0966 	 -107.812 	 
H 	 -1.81537 	 -27.7471 	 -106.701 	 
H 	 -0.321382 	 -26.8293 	 -106.175 	 
H 	 -2.05799 	 -24.1089 	 -114.355 	 
H 	 -2.98167 	 -20.3507 	 -107.248 	 
*
