! wB97X-D3 SP def2-SVP
%pal
nprocs 24
end

* xyz 0 1
S 	 -126.176 	 59.2398 	 -47.5776 	 
C 	 -126.406 	 57.9923 	 -48.7812 	 
C 	 -126.122 	 58.437 	 -50.0657 	 
C 	 -125.919 	 59.8453 	 -50.0964 	 
C 	 -126.084 	 60.4188 	 -48.8535 	 
H 	 -125.705 	 60.4807 	 -50.946 	 
C 	 -126.152 	 57.5531 	 -51.3096 	 
H 	 -125.564 	 56.6366 	 -51.0676 	 
H 	 -125.532 	 58.0641 	 -52.1086 	 
C 	 -127.523 	 57.0796 	 -51.801 	 
H 	 -127.318 	 56.4733 	 -52.7501 	 
H 	 -128.083 	 56.4226 	 -51.1364 	 
C 	 -128.47 	 58.221 	 -52.1205 	 
H 	 -128.946 	 58.6593 	 -51.2484 	 
H 	 -128.038 	 58.9529 	 -52.8413 	 
H 	 -129.239 	 57.7621 	 -52.6933 	 
S 	 -126.248 	 63.0077 	 -49.9707 	 
C 	 -125.984 	 64.3889 	 -48.995 	 
C 	 -125.898 	 64.0823 	 -47.6466 	 
C 	 -125.881 	 62.6271 	 -47.4328 	 
C 	 -125.972 	 61.869 	 -48.5784 	 
H 	 -125.775 	 64.9299 	 -46.8989 	 
C 	 -125.802 	 62.0364 	 -46.0044 	 
H 	 -125.18 	 61.0909 	 -46.0097 	 
H 	 -126.821 	 61.7175 	 -45.6386 	 
C 	 -125.475 	 63.022 	 -44.7977 	 
H 	 -126.342 	 63.7579 	 -44.7068 	 
H 	 -124.651 	 63.7331 	 -45.0791 	 
C 	 -125.332 	 62.2743 	 -43.4919 	 
H 	 -124.657 	 61.4234 	 -43.4627 	 
H 	 -126.24 	 62.0195 	 -42.8938 	 
H 	 -124.91 	 63.0725 	 -42.8765 	 
H 	 -126.679 	 56.9789 	 -48.5883 	 
H 	 -125.933 	 65.3506 	 -49.3134 	 
*
