! wB97X-D3 SP def2-SVP
%pal
nprocs 24
end

* xyz 0 1
S 	 -113.35 	 16.9229 	 -114.17 	 
C 	 -111.757 	 17.1482 	 -115.03 	 
C 	 -111.849 	 16.7519 	 -116.367 	 
C 	 -113.119 	 16.1171 	 -116.679 	 
C 	 -113.957 	 16.0841 	 -115.595 	 
H 	 -113.355 	 15.7062 	 -117.573 	 
C 	 -110.784 	 16.9034 	 -117.503 	 
H 	 -110.531 	 15.8892 	 -117.839 	 
H 	 -109.837 	 17.4303 	 -117.188 	 
C 	 -111.352 	 17.6129 	 -118.804 	 
H 	 -112.281 	 17.1155 	 -119.104 	 
H 	 -111.707 	 18.6618 	 -118.539 	 
C 	 -110.34 	 17.7304 	 -120.023 	 
H 	 -109.752 	 18.6018 	 -119.928 	 
H 	 -109.676 	 16.907 	 -119.963 	 
H 	 -110.903 	 17.8141 	 -120.917 	 
S 	 -115.836 	 14.163 	 -116.444 	 
C 	 -117.512 	 14.6387 	 -116.228 	 
C 	 -117.667 	 15.8538 	 -115.581 	 
C 	 -116.434 	 16.5194 	 -115.293 	 
C 	 -115.333 	 15.707 	 -115.645 	 
H 	 -118.612 	 16.2293 	 -115.361 	 
C 	 -116.398 	 17.9197 	 -114.723 	 
H 	 -115.451 	 18.2849 	 -114.851 	 
H 	 -116.381 	 17.7463 	 -113.622 	 
C 	 -117.519 	 18.9495 	 -115.245 	 
H 	 -117.448 	 19.8804 	 -114.595 	 
H 	 -118.501 	 18.446 	 -114.98 	 
C 	 -117.445 	 19.4257 	 -116.666 	 
H 	 -118.208 	 20.11 	 -116.918 	 
H 	 -117.704 	 18.5293 	 -117.232 	 
H 	 -116.437 	 19.7232 	 -117.04 	 
H 	 -111.003 	 17.7233 	 -114.658 	 
H 	 -118.425 	 14.139 	 -116.583 	 
*
