! wB97X-D3 SP def2-SVP
%pal
nprocs 24
end

* xyz 0 1
S 	 46.3631 	 -18.4856 	 -112.914 	 
C 	 47.2551 	 -19.9565 	 -113.34 	 
C 	 46.6295 	 -21.1112 	 -112.898 	 
C 	 45.3306 	 -20.8465 	 -112.345 	 
C 	 45.0754 	 -19.5065 	 -112.279 	 
H 	 44.6547 	 -21.6282 	 -111.809 	 
C 	 47.2922 	 -22.462 	 -112.787 	 
H 	 47.1656 	 -22.9775 	 -111.82 	 
H 	 48.3766 	 -22.3427 	 -112.722 	 
C 	 46.8472 	 -23.372 	 -113.921 	 
H 	 46.4839 	 -22.6992 	 -114.732 	 
H 	 47.5916 	 -23.9606 	 -114.494 	 
C 	 45.5573 	 -24.216 	 -113.688 	 
H 	 44.7328 	 -23.6372 	 -113.93 	 
H 	 45.5515 	 -25.1366 	 -114.296 	 
H 	 45.5578 	 -24.4223 	 -112.617 	 
S 	 43.7973 	 -17.5636 	 -110.832 	 
C 	 42.0553 	 -17.6441 	 -110.755 	 
C 	 41.4982 	 -18.7696 	 -111.324 	 
C 	 42.5367 	 -19.5774 	 -112.005 	 
C 	 43.8401 	 -19.0188 	 -111.827 	 
H 	 40.4468 	 -19.0013 	 -111.169 	 
C 	 42.0395 	 -20.8243 	 -112.758 	 
H 	 41.6723 	 -21.4967 	 -111.982 	 
H 	 42.92 	 -21.3868 	 -113.259 	 
C 	 40.8991 	 -20.7083 	 -113.739 	 
H 	 40.1285 	 -20.0938 	 -113.153 	 
H 	 40.5705 	 -21.7031 	 -113.928 	 
C 	 41.3592 	 -20.1375 	 -115.098 	 
H 	 41.845 	 -19.1914 	 -114.976 	 
H 	 40.5274 	 -19.9059 	 -115.648 	 
H 	 41.8956 	 -20.8244 	 -115.699 	 
H 	 48.3229 	 -19.9822 	 -113.578 	 
H 	 41.4738 	 -17.0225 	 -110.105 	 
*
