! wB97X-D3 SP def2-SVP
%pal
nprocs 24
end

* xyz 0 1
S 	 -136.113 	 5.97258 	 -14.4113 	 
C 	 -136.102 	 7.15686 	 -13.1272 	 
C 	 -135.103 	 8.08128 	 -13.2684 	 
C 	 -134.538 	 7.9785 	 -14.5964 	 
C 	 -134.861 	 6.80026 	 -15.3019 	 
H 	 -133.835 	 8.69533 	 -15.0121 	 
C 	 -134.684 	 9.20361 	 -12.2633 	 
H 	 -133.682 	 9.32584 	 -12.4808 	 
H 	 -134.741 	 8.76917 	 -11.2483 	 
C 	 -135.597 	 10.407 	 -12.4009 	 
H 	 -135.21 	 10.7071 	 -13.3957 	 
H 	 -136.585 	 9.9888 	 -12.4204 	 
C 	 -135.595 	 11.4745 	 -11.3325 	 
H 	 -135.959 	 11.2218 	 -10.3512 	 
H 	 -134.567 	 11.8449 	 -11.2648 	 
H 	 -136.202 	 12.3157 	 -11.727 	 
S 	 -133.808 	 7.66321 	 -17.666 	 
C 	 -133.421 	 6.50711 	 -18.898 	 
C 	 -133.52 	 5.23735 	 -18.5476 	 
C 	 -134.12 	 5.178 	 -17.2314 	 
C 	 -134.441 	 6.4365 	 -16.6464 	 
H 	 -133.169 	 4.48405 	 -19.1985 	 
C 	 -134.13 	 3.87209 	 -16.4567 	 
H 	 -133.914 	 3.13358 	 -17.1543 	 
H 	 -135.089 	 3.79017 	 -16.0189 	 
C 	 -133.01 	 3.89418 	 -15.4027 	 
H 	 -133.043 	 4.7551 	 -14.7627 	 
H 	 -131.996 	 3.96451 	 -15.856 	 
C 	 -132.992 	 2.47723 	 -14.7071 	 
H 	 -132.772 	 1.71968 	 -15.5134 	 
H 	 -133.917 	 2.25615 	 -14.1512 	 
H 	 -132.171 	 2.4296 	 -13.9555 	 
H 	 -136.763 	 7.10361 	 -12.2601 	 
H 	 -132.842 	 6.66891 	 -19.8157 	 
*
