! wB97X-D3 SP def2-SVP
%pal
nprocs 24
end

* xyz 0 1
S 	 -86.7875 	 -2.02672 	 -64.7052 	 
C 	 -87.6372 	 -0.523032 	 -64.4563 	 
C 	 -87.5622 	 -0.216568 	 -63.1057 	 
C 	 -86.7788 	 -1.11655 	 -62.355 	 
C 	 -86.2369 	 -2.17155 	 -63.0663 	 
H 	 -86.5066 	 -0.986166 	 -61.3054 	 
C 	 -88.0064 	 1.12979 	 -62.5517 	 
H 	 -88.7027 	 0.804662 	 -61.7139 	 
H 	 -88.6122 	 1.62341 	 -63.4172 	 
C 	 -86.937 	 1.96508 	 -62.0495 	 
H 	 -87.2709 	 2.82344 	 -61.4153 	 
H 	 -86.4392 	 1.48012 	 -61.2651 	 
C 	 -85.9677 	 2.48116 	 -63.2227 	 
H 	 -86.6018 	 3.24261 	 -63.8035 	 
H 	 -85.0946 	 2.95747 	 -62.8261 	 
H 	 -85.5326 	 1.78607 	 -63.8755 	 
S 	 -84.0895 	 -3.73545 	 -63.5449 	 
C 	 -83.6218 	 -5.03511 	 -62.4422 	 
C 	 -84.2971 	 -4.93138 	 -61.2325 	 
C 	 -85.2276 	 -3.88038 	 -61.2719 	 
C 	 -85.4134 	 -3.24255 	 -62.5091 	 
H 	 -84.1558 	 -5.59479 	 -60.4229 	 
C 	 -86.104 	 -3.61194 	 -60.0624 	 
H 	 -86.5888 	 -4.56209 	 -59.6625 	 
H 	 -86.9235 	 -3.02338 	 -60.4152 	 
C 	 -85.539 	 -2.77628 	 -58.8299 	 
H 	 -86.4741 	 -2.21216 	 -58.4874 	 
H 	 -84.7571 	 -2.03889 	 -59.0926 	 
C 	 -85.0528 	 -3.62808 	 -57.5814 	 
H 	 -84.1246 	 -4.08766 	 -57.8356 	 
H 	 -85.7345 	 -4.42398 	 -57.3549 	 
H 	 -84.9019 	 -3.06064 	 -56.6345 	 
H 	 -87.9627 	 0.213362 	 -65.2114 	 
H 	 -82.8517 	 -5.75161 	 -62.7314 	 
*
