! wB97X-D3 SP def2-SVP
%pal
nprocs 24
end

* xyz 0 1
S 	 -44.3407 	 -1.94982 	 -10.6281 	 
C 	 -44.7503 	 -0.942541 	 -9.30606 	 
C 	 -46.0933 	 -1.0378 	 -8.99942 	 
C 	 -46.7318 	 -2.01658 	 -9.74573 	 
C 	 -45.9255 	 -2.75347 	 -10.6329 	 
H 	 -47.7995 	 -2.30934 	 -9.69399 	 
C 	 -46.8378 	 -0.291534 	 -7.87241 	 
H 	 -47.9594 	 -0.368635 	 -7.92913 	 
H 	 -46.6703 	 0.813272 	 -7.89514 	 
C 	 -46.3426 	 -0.816355 	 -6.4545 	 
H 	 -46.6837 	 -1.89759 	 -6.31241 	 
H 	 -45.2559 	 -0.855359 	 -6.30543 	 
C 	 -46.8955 	 0.0398728 	 -5.30269 	 
H 	 -46.6915 	 -0.417288 	 -4.34751 	 
H 	 -46.3657 	 0.989712 	 -5.2604 	 
H 	 -47.9613 	 0.31445 	 -5.4823 	 
S 	 -46.0186 	 -3.45696 	 -13.2604 	 
C 	 -46.6638 	 -4.98206 	 -13.7689 	 
C 	 -47.4289 	 -5.45387 	 -12.7423 	 
C 	 -47.2851 	 -4.66769 	 -11.5416 	 
C 	 -46.3494 	 -3.69286 	 -11.6338 	 
H 	 -48.044 	 -6.33398 	 -12.8337 	 
C 	 -47.9822 	 -5.0708 	 -10.2072 	 
H 	 -48.704 	 -4.34424 	 -9.83545 	 
H 	 -47.174 	 -5.13008 	 -9.48629 	 
C 	 -48.7391 	 -6.49878 	 -10.1044 	 
H 	 -47.9542 	 -7.21682 	 -10.2483 	 
H 	 -49.532 	 -6.73392 	 -10.8115 	 
C 	 -49.2225 	 -6.79112 	 -8.70487 	 
H 	 -49.4849 	 -7.86406 	 -8.55256 	 
H 	 -50.1894 	 -6.2488 	 -8.45607 	 
H 	 -48.5322 	 -6.60548 	 -7.91657 	 
H 	 -44.132 	 -0.298787 	 -8.75143 	 
H 	 -46.7181 	 -5.38791 	 -14.747 	 
*
