! wB97X-D3 SP def2-SVP
%pal
nprocs 24
end

* xyz 0 1
S 	 -105.203 	 -0.701946 	 -104.278 	 
C 	 -105.333 	 0.240485 	 -102.825 	 
C 	 -105.278 	 1.57299 	 -103.076 	 
C 	 -104.857 	 1.83855 	 -104.442 	 
C 	 -104.892 	 0.731092 	 -105.233 	 
H 	 -104.718 	 2.76796 	 -104.975 	 
C 	 -105.468 	 2.69893 	 -102.101 	 
H 	 -104.557 	 3.21972 	 -102.056 	 
H 	 -105.537 	 2.22484 	 -101.14 	 
C 	 -106.613 	 3.59396 	 -102.417 	 
H 	 -106.71 	 4.27604 	 -101.519 	 
H 	 -106.376 	 4.09439 	 -103.392 	 
C 	 -107.877 	 2.85195 	 -102.668 	 
H 	 -108.727 	 3.51648 	 -102.532 	 
H 	 -107.835 	 2.46321 	 -103.71 	 
H 	 -108.149 	 1.98542 	 -102.009 	 
S 	 -103.012 	 -0.34243 	 -107.089 	 
C 	 -103.17 	 0.0976102 	 -108.732 	 
C 	 -104.095 	 1.06735 	 -108.962 	 
C 	 -104.846 	 1.32737 	 -107.749 	 
C 	 -104.392 	 0.681221 	 -106.639 	 
H 	 -104.262 	 1.36159 	 -109.987 	 
C 	 -105.921 	 2.43473 	 -107.761 	 
H 	 -105.395 	 3.36979 	 -107.871 	 
H 	 -106.357 	 2.55144 	 -106.792 	 
C 	 -106.985 	 2.02263 	 -108.758 	 
H 	 -107.463 	 1.10934 	 -108.336 	 
H 	 -106.693 	 1.75157 	 -109.778 	 
C 	 -108.097 	 3.08671 	 -108.746 	 
H 	 -107.681 	 3.95419 	 -109.115 	 
H 	 -108.286 	 3.20082 	 -107.65 	 
H 	 -108.895 	 2.80986 	 -109.485 	 
H 	 -105.606 	 -0.27383 	 -101.906 	 
H 	 -102.703 	 -0.385854 	 -109.589 	 
*
