! wB97X-D3 SP def2-SVP
%pal
nprocs 24
end

* xyz 0 1
S 	 38.4857 	 -33.5735 	 -119.732 	 
C 	 38.629 	 -32.0661 	 -120.653 	 
C 	 39.8702 	 -31.47 	 -120.449 	 
C 	 40.7591 	 -32.3724 	 -119.755 	 
C 	 40.1695 	 -33.5247 	 -119.296 	 
H 	 41.8352 	 -32.2132 	 -119.614 	 
C 	 40.3222 	 -30.2077 	 -120.997 	 
H 	 39.852 	 -29.8802 	 -121.872 	 
H 	 41.4046 	 -30.3125 	 -121.34 	 
C 	 40.2715 	 -28.9939 	 -120.07 	 
H 	 40.5349 	 -28.0886 	 -120.577 	 
H 	 39.2269 	 -28.9165 	 -119.724 	 
C 	 41.212 	 -29.0948 	 -118.857 	 
H 	 41.4566 	 -28.1769 	 -118.347 	 
H 	 40.8768 	 -29.8418 	 -118.111 	 
H 	 42.0949 	 -29.5636 	 -119.112 	 
S 	 42.3289 	 -35.0899 	 -119.061 	 
C 	 42.4593 	 -36.289 	 -117.742 	 
C 	 41.4117 	 -36.0923 	 -116.903 	 
C 	 40.3836 	 -35.166 	 -117.326 	 
C 	 40.7799 	 -34.5456 	 -118.55 	 
H 	 41.2211 	 -36.723 	 -116.007 	 
C 	 39.1153 	 -34.8609 	 -116.497 	 
H 	 39.0447 	 -33.7875 	 -116.657 	 
H 	 39.3574 	 -34.914 	 -115.417 	 
C 	 37.7688 	 -35.6075 	 -116.79 	 
H 	 37.5219 	 -35.5648 	 -117.882 	 
H 	 36.9719 	 -35.0064 	 -116.321 	 
C 	 37.7826 	 -37.1297 	 -116.38 	 
H 	 38.6469 	 -37.3549 	 -115.694 	 
H 	 37.8574 	 -37.8846 	 -117.26 	 
H 	 36.9541 	 -37.3011 	 -115.698 	 
H 	 37.8335 	 -31.5183 	 -121.169 	 
H 	 43.3891 	 -36.71 	 -117.559 	 
*
