! wB97X-D3 SP def2-SVP
%pal
nprocs 24
end

* xyz 0 1
S 	 -136.693 	 67.3913 	 -61.7738 	 
C 	 -135.457 	 67.4851 	 -62.9899 	 
C 	 -136.043 	 67.7187 	 -64.2756 	 
C 	 -137.465 	 67.9389 	 -64.1345 	 
C 	 -137.98 	 67.9008 	 -62.8327 	 
H 	 -138.111 	 68.0964 	 -65.0251 	 
C 	 -135.387 	 67.5105 	 -65.6499 	 
H 	 -136.074 	 66.9731 	 -66.3064 	 
H 	 -134.553 	 66.824 	 -65.627 	 
C 	 -134.797 	 68.7053 	 -66.4148 	 
H 	 -134.338 	 69.4012 	 -65.7662 	 
H 	 -134.234 	 68.2896 	 -67.1802 	 
C 	 -135.954 	 69.4945 	 -67.0517 	 
H 	 -136.564 	 69.962 	 -66.3119 	 
H 	 -135.632 	 70.3028 	 -67.6994 	 
H 	 -136.578 	 68.8523 	 -67.5281 	 
S 	 -139.635 	 68.0842 	 -60.7153 	 
C 	 -141.338 	 68.2724 	 -61.0321 	 
C 	 -141.67 	 68.6086 	 -62.357 	 
C 	 -140.51 	 68.559 	 -63.2158 	 
C 	 -139.32 	 68.2497 	 -62.486 	 
H 	 -142.677 	 68.691 	 -62.6692 	 
C 	 -140.781 	 68.8301 	 -64.6771 	 
H 	 -139.912 	 69.379 	 -65.0319 	 
H 	 -141.556 	 69.7016 	 -64.7096 	 
C 	 -141.344 	 67.7056 	 -65.5593 	 
H 	 -142.225 	 67.3844 	 -65.0522 	 
H 	 -140.688 	 66.8503 	 -65.5278 	 
C 	 -141.52 	 68.1059 	 -67.0342 	 
H 	 -141.909 	 69.1214 	 -67.0499 	 
H 	 -142.178 	 67.405 	 -67.5698 	 
H 	 -140.536 	 68.0556 	 -67.4629 	 
H 	 -134.535 	 67.0263 	 -62.8957 	 
H 	 -142.121 	 68.0641 	 -60.3316 	 
*
