! wB97X-D3 SP def2-SVP
%pal
nprocs 24
end

* xyz 0 1
S 	 -97.3344 	 15.9514 	 -117.455 	 
C 	 -97.2763 	 15.2199 	 -115.843 	 
C 	 -98.3065 	 14.3435 	 -115.638 	 
C 	 -99.1512 	 14.2528 	 -116.795 	 
C 	 -98.7627 	 14.947 	 -117.893 	 
H 	 -100.076 	 13.8211 	 -116.76 	 
C 	 -98.7063 	 13.6853 	 -114.371 	 
H 	 -99.5527 	 14.3368 	 -114.033 	 
H 	 -97.8112 	 13.7559 	 -113.687 	 
C 	 -99.1588 	 12.1976 	 -114.64 	 
H 	 -99.4172 	 11.7764 	 -113.618 	 
H 	 -100.109 	 12.2632 	 -115.27 	 
C 	 -98.0716 	 11.3881 	 -115.376 	 
H 	 -98.4297 	 10.3898 	 -115.547 	 
H 	 -97.7618 	 11.7917 	 -116.411 	 
H 	 -97.1209 	 11.1722 	 -114.799 	 
S 	 -99.2004 	 16.669 	 -119.952 	 
C 	 -100.1 	 16.1342 	 -121.342 	 
C 	 -100.544 	 14.8152 	 -121.227 	 
C 	 -100.34 	 14.3197 	 -119.904 	 
C 	 -99.4894 	 15.1355 	 -119.13 	 
H 	 -100.95 	 14.2972 	 -122.04 	 
C 	 -100.915 	 12.8909 	 -119.606 	 
H 	 -102.009 	 12.7824 	 -119.832 	 
H 	 -100.913 	 12.725 	 -118.545 	 
C 	 -100.023 	 11.7964 	 -120.295 	 
H 	 -98.9722 	 11.9575 	 -120.13 	 
H 	 -100.091 	 11.9174 	 -121.421 	 
C 	 -100.436 	 10.2931 	 -119.828 	 
H 	 -100.046 	 10.1259 	 -118.756 	 
H 	 -99.9864 	 9.5279 	 -120.489 	 
H 	 -101.512 	 10.1671 	 -119.855 	 
H 	 -96.5767 	 15.538 	 -115.133 	 
H 	 -100.326 	 16.6939 	 -122.301 	 
*
