! wB97X-D3 SP def2-SVP
%pal
nprocs 24
end

* xyz 0 1
S 	 -38.7806 	 -51.1328 	 -72.8702 	 
C 	 -38.6344 	 -50.0487 	 -74.202 	 
C 	 -39.4189 	 -48.9111 	 -74.0564 	 
C 	 -40.2999 	 -49.0551 	 -72.924 	 
C 	 -40.1354 	 -50.2362 	 -72.1855 	 
H 	 -41.0393 	 -48.3339 	 -72.5751 	 
C 	 -39.5363 	 -47.772 	 -75.0464 	 
H 	 -38.5293 	 -47.517 	 -75.4281 	 
H 	 -39.783 	 -46.8735 	 -74.4695 	 
C 	 -40.6495 	 -47.8753 	 -76.0588 	 
H 	 -40.5721 	 -47.0095 	 -76.665 	 
H 	 -40.5843 	 -48.7109 	 -76.7688 	 
C 	 -42.0605 	 -47.8979 	 -75.4873 	 
H 	 -42.802 	 -48.0625 	 -76.289 	 
H 	 -42.3463 	 -48.5542 	 -74.7074 	 
H 	 -42.3505 	 -46.9576 	 -75.0552 	 
S 	 -39.7895 	 -51.1138 	 -69.671 	 
C 	 -41.081 	 -50.8127 	 -68.4504 	 
C 	 -42.3156 	 -50.5326 	 -69.075 	 
C 	 -42.143 	 -50.2984 	 -70.4947 	 
C 	 -40.8463 	 -50.5539 	 -70.9728 	 
H 	 -43.2004 	 -50.4617 	 -68.4833 	 
C 	 -43.2417 	 -49.7923 	 -71.3785 	 
H 	 -42.9803 	 -50.1281 	 -72.3327 	 
H 	 -43.1837 	 -48.6729 	 -71.4078 	 
C 	 -44.5753 	 -50.3513 	 -71.0907 	 
H 	 -44.7854 	 -50.1451 	 -70.0219 	 
H 	 -44.5433 	 -51.4585 	 -70.9937 	 
C 	 -45.6506 	 -49.9093 	 -71.9552 	 
H 	 -45.6008 	 -50.4239 	 -72.9068 	 
H 	 -45.391 	 -48.7985 	 -72.2185 	 
H 	 -46.6152 	 -50.0003 	 -71.4619 	 
H 	 -37.8644 	 -50.1619 	 -74.9973 	 
H 	 -40.9897 	 -51.0406 	 -67.4486 	 
*
