! wB97X-D3 SP def2-SVP
%pal
nprocs 24
end

* xyz 0 1
S 	 -129.19 	 25.5668 	 -16.9518 	 
C 	 -128.805 	 23.9037 	 -16.5588 	 
C 	 -129.834 	 23.2792 	 -15.9448 	 
C 	 -130.955 	 24.1161 	 -15.6894 	 
C 	 -130.758 	 25.4057 	 -16.1301 	 
H 	 -131.813 	 23.8349 	 -15.1136 	 
C 	 -129.958 	 21.8135 	 -15.6968 	 
H 	 -128.947 	 21.4022 	 -15.8887 	 
H 	 -130.566 	 21.5258 	 -16.5196 	 
C 	 -130.335 	 21.3564 	 -14.2581 	 
H 	 -131.377 	 21.565 	 -14.0472 	 
H 	 -130.108 	 20.2915 	 -14.2218 	 
C 	 -129.489 	 21.952 	 -13.1947 	 
H 	 -129.819 	 22.8383 	 -12.6835 	 
H 	 -129.259 	 21.161 	 -12.4897 	 
H 	 -128.474 	 22.0885 	 -13.6093 	 
S 	 -130.989 	 27.953 	 -15.1753 	 
C 	 -132.547 	 28.6667 	 -14.9227 	 
C 	 -133.533 	 27.876 	 -15.3462 	 
C 	 -133.09 	 26.6102 	 -15.8875 	 
C 	 -131.681 	 26.5802 	 -15.9641 	 
H 	 -134.505 	 28.3373 	 -15.0935 	 
C 	 -134.045 	 25.5502 	 -16.2661 	 
H 	 -133.445 	 24.8572 	 -16.8375 	 
H 	 -134.818 	 25.9643 	 -16.9887 	 
C 	 -134.753 	 24.7655 	 -15.1554 	 
H 	 -135.543 	 25.3154 	 -14.6453 	 
H 	 -134.044 	 24.536 	 -14.3004 	 
C 	 -135.323 	 23.3986 	 -15.5273 	 
H 	 -135.859 	 23.0195 	 -14.671 	 
H 	 -134.467 	 22.6962 	 -15.7399 	 
H 	 -136.008 	 23.5066 	 -16.4162 	 
H 	 -128.125 	 23.3241 	 -17.1882 	 
H 	 -132.756 	 29.5731 	 -14.4032 	 
*
