! wB97X-D3 SP def2-SVP
%pal
nprocs 24
end

* xyz 0 1
S 	 -122.235 	 30.8273 	 -113.936 	 
C 	 -120.664 	 30.2563 	 -114.543 	 
C 	 -119.623 	 31.0924 	 -114.148 	 
C 	 -120.117 	 32.2061 	 -113.315 	 
C 	 -121.529 	 32.1703 	 -113.125 	 
H 	 -119.442 	 32.9825 	 -112.942 	 
C 	 -118.177 	 31.0214 	 -114.633 	 
H 	 -117.536 	 31.8317 	 -114.205 	 
H 	 -118.215 	 31.2054 	 -115.741 	 
C 	 -117.389 	 29.7094 	 -114.282 	 
H 	 -117.859 	 28.8902 	 -114.719 	 
H 	 -116.391 	 29.889 	 -114.722 	 
C 	 -117.256 	 29.5465 	 -112.785 	 
H 	 -116.634 	 28.7565 	 -112.349 	 
H 	 -116.803 	 30.4447 	 -112.424 	 
H 	 -118.259 	 29.4825 	 -112.309 	 
S 	 -123.802 	 32.31 	 -111.543 	 
C 	 -124.275 	 33.7796 	 -110.736 	 
C 	 -123.4 	 34.8034 	 -111.019 	 
C 	 -122.314 	 34.3853 	 -111.868 	 
C 	 -122.329 	 33.0351 	 -112.208 	 
H 	 -123.486 	 35.7523 	 -110.572 	 
C 	 -121.301 	 35.4182 	 -112.37 	 
H 	 -121.763 	 36.3817 	 -112.449 	 
H 	 -121.05 	 35.1427 	 -113.391 	 
C 	 -120.005 	 35.4702 	 -111.469 	 
H 	 -119.269 	 36.2209 	 -111.798 	 
H 	 -119.464 	 34.5108 	 -111.497 	 
C 	 -120.419 	 35.7591 	 -110.002 	 
H 	 -120.7 	 36.7697 	 -109.863 	 
H 	 -119.633 	 35.6971 	 -109.208 	 
H 	 -121.18 	 35.1239 	 -109.613 	 
H 	 -120.543 	 29.5107 	 -115.278 	 
H 	 -125.063 	 33.7648 	 -109.987 	 
*
