! wB97X-D3 SP def2-SVP
%pal
nprocs 24
end

* xyz 0 1
S 	 -78.5837 	 -22.3756 	 -55.0505 	 
C 	 -79.2066 	 -20.8363 	 -54.4999 	 
C 	 -79.356 	 -20.7937 	 -53.1542 	 
C 	 -79.2148 	 -22.117 	 -52.5944 	 
C 	 -78.6546 	 -23.0545 	 -53.4582 	 
H 	 -79.4497 	 -22.4381 	 -51.5986 	 
C 	 -79.9115 	 -19.6176 	 -52.3299 	 
H 	 -79.7521 	 -18.692 	 -52.9501 	 
H 	 -79.3081 	 -19.3782 	 -51.4296 	 
C 	 -81.4255 	 -19.6732 	 -52.0289 	 
H 	 -81.6501 	 -20.4331 	 -51.2647 	 
H 	 -81.699 	 -18.6559 	 -51.5786 	 
C 	 -82.4052 	 -19.9108 	 -53.2128 	 
H 	 -82.4613 	 -19.0464 	 -53.9301 	 
H 	 -82.1175 	 -20.8496 	 -53.7804 	 
H 	 -83.3761 	 -19.9943 	 -52.9631 	 
S 	 -79.2735 	 -24.9922 	 -51.7049 	 
C 	 -78.4614 	 -26.587 	 -51.7384 	 
C 	 -77.8296 	 -26.715 	 -52.946 	 
C 	 -77.9208 	 -25.5522 	 -53.7956 	 
C 	 -78.482 	 -24.426 	 -53.1716 	 
H 	 -77.4832 	 -27.6805 	 -53.3907 	 
C 	 -77.1963 	 -25.6599 	 -55.1518 	 
H 	 -76.3331 	 -26.365 	 -55.0612 	 
H 	 -76.8216 	 -24.6765 	 -55.3928 	 
C 	 -77.9499 	 -26.2588 	 -56.4129 	 
H 	 -78.1515 	 -27.3002 	 -56.4846 	 
H 	 -77.193 	 -26.1045 	 -57.1887 	 
C 	 -79.3023 	 -25.5385 	 -56.6485 	 
H 	 -80.034 	 -25.8216 	 -55.8405 	 
H 	 -79.6939 	 -25.7973 	 -57.5801 	 
H 	 -79.3992 	 -24.4715 	 -56.5086 	 
H 	 -79.3243 	 -19.9789 	 -55.0257 	 
H 	 -78.6518 	 -27.3976 	 -51.0916 	 
*
