! wB97X-D3 SP def2-SVP
%pal
nprocs 24
end

* xyz 0 1
S 	 47.3494 	 -24.0673 	 -114.747 	 
C 	 48.7624 	 -23.9302 	 -113.783 	 
C 	 49.1062 	 -22.5909 	 -113.558 	 
C 	 48.4251 	 -21.7446 	 -114.497 	 
C 	 47.453 	 -22.387 	 -115.168 	 
H 	 48.4593 	 -20.6824 	 -114.566 	 
C 	 50.2093 	 -21.9662 	 -112.68 	 
H 	 50.7877 	 -21.155 	 -113.167 	 
H 	 50.8901 	 -22.7577 	 -112.442 	 
C 	 49.6826 	 -21.4565 	 -111.398 	 
H 	 49.0155 	 -22.1279 	 -110.822 	 
H 	 50.5799 	 -21.4352 	 -110.748 	 
C 	 49.0892 	 -20.1058 	 -111.378 	 
H 	 48.356 	 -20.002 	 -110.577 	 
H 	 49.7888 	 -19.2911 	 -111.231 	 
H 	 48.5545 	 -19.9164 	 -112.335 	 
S 	 46.6114 	 -22.7688 	 -117.799 	 
C 	 45.9782 	 -21.5212 	 -118.715 	 
C 	 45.8497 	 -20.3407 	 -117.99 	 
C 	 46.2488 	 -20.5874 	 -116.615 	 
C 	 46.7883 	 -21.8128 	 -116.374 	 
H 	 45.3571 	 -19.5463 	 -118.459 	 
C 	 46.3215 	 -19.4135 	 -115.583 	 
H 	 46.1868 	 -19.7384 	 -114.54 	 
H 	 45.5088 	 -18.7718 	 -115.754 	 
C 	 47.5598 	 -18.5426 	 -115.829 	 
H 	 47.4736 	 -18.1114 	 -116.812 	 
H 	 48.5124 	 -18.9588 	 -115.895 	 
C 	 47.5823 	 -17.4338 	 -114.889 	 
H 	 48.3725 	 -16.6747 	 -115.196 	 
H 	 47.8472 	 -17.7841 	 -113.868 	 
H 	 46.6264 	 -16.9842 	 -114.869 	 
H 	 49.1532 	 -24.7289 	 -113.189 	 
H 	 45.7413 	 -21.5044 	 -119.794 	 
*
