! wB97X-D3 SP def2-SVP
%pal
nprocs 24
end

* xyz 0 1
S 	 -102.232 	 -5.69836 	 -106.889 	 
C 	 -103.549 	 -5.42472 	 -105.807 	 
C 	 -103.154 	 -4.77986 	 -104.594 	 
C 	 -101.748 	 -4.51215 	 -104.695 	 
C 	 -101.186 	 -4.88328 	 -105.877 	 
H 	 -101.192 	 -3.902 	 -104.059 	 
C 	 -104 	 -4.3057 	 -103.518 	 
H 	 -103.32 	 -4.07112 	 -102.708 	 
H 	 -104.511 	 -5.22767 	 -103.191 	 
C 	 -104.899 	 -3.12857 	 -103.895 	 
H 	 -104.258 	 -2.12801 	 -103.822 	 
H 	 -105.342 	 -3.17088 	 -104.901 	 
C 	 -106.115 	 -2.9408 	 -102.986 	 
H 	 -106.619 	 -1.92366 	 -103.039 	 
H 	 -106.922 	 -3.73324 	 -103.135 	 
H 	 -105.863 	 -3.1071 	 -101.93 	 
S 	 -98.8461 	 -6.28103 	 -106.338 	 
C 	 -97.3891 	 -5.47326 	 -106.626 	 
C 	 -97.5722 	 -4.09865 	 -106.696 	 
C 	 -98.9347 	 -3.7069 	 -106.44 	 
C 	 -99.7417 	 -4.77293 	 -106.206 	 
H 	 -96.6649 	 -3.4565 	 -106.764 	 
C 	 -99.2793 	 -2.24699 	 -106.336 	 
H 	 -100.375 	 -2.23839 	 -106.507 	 
H 	 -98.9579 	 -1.73485 	 -107.145 	 
C 	 -98.9416 	 -1.6924 	 -104.938 	 
H 	 -97.8895 	 -1.55525 	 -104.903 	 
H 	 -99.1687 	 -2.42758 	 -104.134 	 
C 	 -99.4392 	 -0.339779 	 -104.525 	 
H 	 -99.3595 	 0.443243 	 -105.284 	 
H 	 -98.7424 	 0.0473938 	 -103.779 	 
H 	 -100.426 	 -0.292372 	 -104.021 	 
H 	 -104.524 	 -5.80021 	 -105.924 	 
H 	 -96.4449 	 -5.93387 	 -106.879 	 
*
