! wB97X-D3 SP def2-SVP
%pal
nprocs 24
end

* xyz 0 1
S 	 44.5529 	 -15.1128 	 -125.837 	 
C 	 44.9789 	 -13.3911 	 -125.708 	 
C 	 44.1518 	 -12.7467 	 -124.747 	 
C 	 43.3935 	 -13.7183 	 -124.022 	 
C 	 43.6082 	 -14.9984 	 -124.367 	 
H 	 42.7949 	 -13.4974 	 -123.211 	 
C 	 44.2921 	 -11.3927 	 -124.212 	 
H 	 45.258 	 -11.2646 	 -123.726 	 
H 	 43.7063 	 -11.427 	 -123.263 	 
C 	 43.9918 	 -10.2309 	 -125.153 	 
H 	 42.8941 	 -10.2794 	 -125.309 	 
H 	 44.0844 	 -9.18373 	 -124.66 	 
C 	 44.714 	 -9.99633 	 -126.409 	 
H 	 44.145 	 -9.20084 	 -126.874 	 
H 	 45.7405 	 -9.62153 	 -126.288 	 
H 	 44.7583 	 -10.8419 	 -127.103 	 
S 	 43.7514 	 -16.72 	 -122.27 	 
C 	 42.5241 	 -17.9424 	 -122.025 	 
C 	 41.5069 	 -17.788 	 -122.954 	 
C 	 41.7516 	 -16.7874 	 -123.949 	 
C 	 42.9352 	 -16.1053 	 -123.728 	 
H 	 40.6772 	 -18.491 	 -122.79 	 
C 	 40.7138 	 -16.2668 	 -124.963 	 
H 	 40.9057 	 -15.228 	 -125.201 	 
H 	 39.762 	 -16.1264 	 -124.419 	 
C 	 40.4606 	 -17.2921 	 -126.153 	 
H 	 41.3112 	 -17.216 	 -126.879 	 
H 	 39.6617 	 -16.8165 	 -126.623 	 
C 	 40.3311 	 -18.7574 	 -125.831 	 
H 	 39.7865 	 -19.2069 	 -126.607 	 
H 	 39.769 	 -18.7594 	 -124.922 	 
H 	 41.3548 	 -19.1773 	 -125.627 	 
H 	 45.7416 	 -13.0065 	 -126.394 	 
H 	 42.5903 	 -18.7638 	 -121.38 	 
*
