! wB97X-D3 SP def2-SVP
%pal
nprocs 24
end

* xyz 0 1
S 	 35.9417 	 -7.17842 	 -115.743 	 
C 	 37.0301 	 -8.53716 	 -115.634 	 
C 	 37.8335 	 -8.40106 	 -114.5 	 
C 	 37.6394 	 -7.16909 	 -113.744 	 
C 	 36.5755 	 -6.53789 	 -114.246 	 
H 	 38.1386 	 -6.84872 	 -112.894 	 
C 	 38.9917 	 -9.29124 	 -114.121 	 
H 	 39.3611 	 -9.00186 	 -113.116 	 
H 	 39.7113 	 -8.96155 	 -114.79 	 
C 	 38.7699 	 -10.7957 	 -114.04 	 
H 	 38.0709 	 -10.9305 	 -113.248 	 
H 	 38.2054 	 -11.1657 	 -114.888 	 
C 	 39.9247 	 -11.6638 	 -113.748 	 
H 	 39.5704 	 -12.7639 	 -113.858 	 
H 	 40.7978 	 -11.4767 	 -114.351 	 
H 	 40.3632 	 -11.4241 	 -112.784 	 
S 	 36.275 	 -3.85532 	 -114.301 	 
C 	 35.2645 	 -3.01854 	 -113.167 	 
C 	 34.5973 	 -3.94173 	 -112.397 	 
C 	 34.9157 	 -5.28888 	 -112.639 	 
C 	 35.8199 	 -5.40017 	 -113.707 	 
H 	 33.971 	 -3.6712 	 -111.498 	 
C 	 34.3855 	 -6.41904 	 -111.844 	 
H 	 33.9206 	 -6.07393 	 -110.985 	 
H 	 35.2844 	 -6.95341 	 -111.561 	 
C 	 33.4025 	 -7.45753 	 -112.53 	 
H 	 33.2634 	 -8.34601 	 -111.873 	 
H 	 34.0147 	 -7.70548 	 -113.374 	 
C 	 32.0505 	 -7.0502 	 -112.988 	 
H 	 31.2572 	 -7.25977 	 -112.238 	 
H 	 31.7703 	 -7.66929 	 -113.86 	 
H 	 32.0655 	 -6.01086 	 -113.217 	 
H 	 37.048 	 -9.45951 	 -116.139 	 
H 	 35.2439 	 -1.94526 	 -113.007 	 
*
