! wB97X-D3 SP def2-SVP
%pal
nprocs 24
end

* xyz 0 1
S 	 -105.749 	 42.3356 	 -95.1646 	 
C 	 -104.614 	 40.9927 	 -95.2586 	 
C 	 -103.335 	 41.2474 	 -94.6522 	 
C 	 -103.386 	 42.5291 	 -93.9676 	 
C 	 -104.523 	 43.3054 	 -94.2998 	 
H 	 -102.58 	 42.8287 	 -93.3828 	 
C 	 -102.144 	 40.3179 	 -94.7398 	 
H 	 -102.483 	 39.2722 	 -94.7267 	 
H 	 -101.59 	 40.4515 	 -93.7591 	 
C 	 -101.285 	 40.5838 	 -96.0467 	 
H 	 -102.005 	 40.4204 	 -96.8923 	 
H 	 -100.815 	 41.5322 	 -96.0184 	 
C 	 -100.311 	 39.3998 	 -96.2375 	 
H 	 -99.5813 	 39.3592 	 -95.476 	 
H 	 -100.748 	 38.4411 	 -96.1056 	 
H 	 -99.7753 	 39.4423 	 -97.228 	 
S 	 -106.208 	 45.0486 	 -93.2009 	 
C 	 -105.816 	 46.7521 	 -93.1405 	 
C 	 -104.443 	 46.9264 	 -93.3494 	 
C 	 -103.774 	 45.7579 	 -93.8259 	 
C 	 -104.699 	 44.7255 	 -93.9012 	 
H 	 -103.983 	 47.9153 	 -93.3869 	 
C 	 -102.399 	 45.7954 	 -94.4074 	 
H 	 -102.102 	 44.7621 	 -94.468 	 
H 	 -101.724 	 46.3122 	 -93.722 	 
C 	 -102.295 	 46.3788 	 -95.7693 	 
H 	 -101.237 	 46.1938 	 -96.0165 	 
H 	 -102.501 	 47.4319 	 -95.8181 	 
C 	 -103.133 	 45.6521 	 -96.7992 	 
H 	 -102.826 	 44.5777 	 -96.7772 	 
H 	 -102.95 	 46.0069 	 -97.8457 	 
H 	 -104.186 	 45.7549 	 -96.6471 	 
H 	 -104.83 	 39.9715 	 -95.7173 	 
H 	 -106.529 	 47.6381 	 -92.9359 	 
*
