! wB97X-D3 SP def2-SVP
%pal
nprocs 24
end

* xyz 0 1
S 	 -99.9499 	 -1.57916 	 -119.713 	 
C 	 -101.646 	 -1.43496 	 -120.167 	 
C 	 -102.453 	 -1.83892 	 -119.125 	 
C 	 -101.739 	 -1.97669 	 -117.87 	 
C 	 -100.384 	 -2.03056 	 -118.111 	 
H 	 -102.145 	 -2.17367 	 -116.899 	 
C 	 -103.955 	 -2.06031 	 -119.226 	 
H 	 -104.483 	 -1.47659 	 -120.047 	 
H 	 -104.214 	 -1.74982 	 -118.265 	 
C 	 -104.204 	 -3.52442 	 -119.444 	 
H 	 -103.855 	 -3.65543 	 -120.458 	 
H 	 -103.426 	 -4.01317 	 -118.852 	 
C 	 -105.707 	 -3.97417 	 -119.309 	 
H 	 -106.222 	 -3.83718 	 -118.348 	 
H 	 -106.186 	 -3.23283 	 -119.976 	 
H 	 -105.848 	 -4.92749 	 -119.871 	 
S 	 -97.998 	 -1.48232 	 -117.038 	 
C 	 -97.0464 	 -2.67807 	 -116.23 	 
C 	 -97.7079 	 -3.85544 	 -116.209 	 
C 	 -98.9799 	 -3.78711 	 -116.792 	 
C 	 -99.2991 	 -2.54984 	 -117.255 	 
H 	 -97.232 	 -4.72359 	 -115.882 	 
C 	 -99.8822 	 -4.97073 	 -116.89 	 
H 	 -100.916 	 -4.60417 	 -116.62 	 
H 	 -99.5277 	 -5.77153 	 -116.111 	 
C 	 -99.942 	 -5.53441 	 -118.28 	 
H 	 -100.209 	 -4.80163 	 -119.075 	 
H 	 -100.815 	 -6.15517 	 -118.444 	 
C 	 -98.7871 	 -6.28338 	 -118.842 	 
H 	 -98.8112 	 -6.50462 	 -119.922 	 
H 	 -98.5984 	 -7.18633 	 -118.373 	 
H 	 -97.877 	 -5.76872 	 -118.753 	 
H 	 -102.028 	 -1.35298 	 -121.147 	 
H 	 -96.103 	 -2.52686 	 -115.66 	 
*
