! wB97X-D3 SP def2-SVP
%pal
nprocs 24
end

* xyz 0 1
S 	 -107.613 	 21.1996 	 -118.944 	 
C 	 -107.399 	 19.6467 	 -118.164 	 
C 	 -106.812 	 18.7398 	 -118.997 	 
C 	 -106.439 	 19.314 	 -120.25 	 
C 	 -106.908 	 20.6109 	 -120.438 	 
H 	 -105.968 	 18.8767 	 -121.121 	 
C 	 -106.512 	 17.3113 	 -118.573 	 
H 	 -106.246 	 16.881 	 -119.462 	 
H 	 -107.471 	 16.772 	 -118.307 	 
C 	 -105.497 	 17.2288 	 -117.384 	 
H 	 -105.98 	 17.7448 	 -116.494 	 
H 	 -105.446 	 16.1944 	 -117.104 	 
C 	 -104.134 	 17.7762 	 -117.773 	 
H 	 -104.198 	 18.8151 	 -118.099 	 
H 	 -103.645 	 17.6818 	 -116.899 	 
H 	 -103.527 	 17.2985 	 -118.61 	 
S 	 -105.495 	 22.714 	 -121.553 	 
C 	 -105.759 	 23.2142 	 -123.214 	 
C 	 -106.68 	 22.4021 	 -123.757 	 
C 	 -107.234 	 21.4164 	 -122.867 	 
C 	 -106.738 	 21.4681 	 -121.576 	 
H 	 -106.907 	 22.5344 	 -124.805 	 
C 	 -108.196 	 20.4687 	 -123.44 	 
H 	 -108.925 	 20.9541 	 -124.082 	 
H 	 -108.776 	 20.1067 	 -122.589 	 
C 	 -107.617 	 19.2106 	 -124.2 	 
H 	 -106.641 	 18.869 	 -123.83 	 
H 	 -107.422 	 19.44 	 -125.257 	 
C 	 -108.645 	 18.066 	 -124.246 	 
H 	 -108.809 	 17.6584 	 -123.214 	 
H 	 -108.22 	 17.2828 	 -124.83 	 
H 	 -109.543 	 18.3511 	 -124.755 	 
H 	 -107.679 	 19.3831 	 -117.18 	 
H 	 -105.341 	 24.0422 	 -123.802 	 
*
