! wB97X-D3 SP def2-SVP
%pal
nprocs 24
end

* xyz 0 1
S 	 -30.2602 	 10.0599 	 11.1984 	 
C 	 -31.2744 	 11.4539 	 11.3805 	 
C 	 -32.2438 	 11.3885 	 12.3796 	 
C 	 -32.1765 	 10.1117 	 12.9882 	 
C 	 -31.1519 	 9.268 	 12.4983 	 
H 	 -32.7811 	 9.73627 	 13.817 	 
C 	 -33.0537 	 12.5274 	 12.8672 	 
H 	 -32.5915 	 13.1257 	 13.6681 	 
H 	 -34.0249 	 12.1794 	 13.2382 	 
C 	 -33.3523 	 13.4865 	 11.6393 	 
H 	 -32.4503 	 13.8451 	 11.344 	 
H 	 -33.8086 	 12.9035 	 10.798 	 
C 	 -34.1211 	 14.7438 	 12.0691 	 
H 	 -34.1184 	 15.5409 	 11.2733 	 
H 	 -35.1598 	 14.4285 	 12.3528 	 
H 	 -33.6284 	 15.226 	 12.8502 	 
S 	 -30.7979 	 6.5482 	 11.9833 	 
C 	 -30.2736 	 5.53759 	 13.2718 	 
C 	 -30.1558 	 6.25593 	 14.4387 	 
C 	 -30.4403 	 7.64178 	 14.327 	 
C 	 -30.7848 	 7.9888 	 13.0129 	 
H 	 -29.8288 	 5.8114 	 15.3216 	 
C 	 -30.3066 	 8.67616 	 15.5205 	 
H 	 -29.9789 	 8.27 	 16.4546 	 
H 	 -31.3654 	 8.98206 	 15.6732 	 
C 	 -29.4316 	 9.93562 	 15.2876 	 
H 	 -29.8459 	 10.4839 	 14.4952 	 
H 	 -28.4235 	 9.63833 	 14.9305 	 
C 	 -29.3562 	 10.9498 	 16.4684 	 
H 	 -30.3228 	 11.1585 	 16.8728 	 
H 	 -28.9911 	 11.9354 	 16.114 	 
H 	 -28.7909 	 10.5546 	 17.2858 	 
H 	 -30.8476 	 12.3613 	 10.9848 	 
H 	 -30.0102 	 4.52164 	 13.1325 	 
*
