! wB97X-D3 SP def2-SVP
%pal
nprocs 24
end

* xyz 0 1
S 	 -106.526 	 54.3887 	 -111.71 	 
C 	 -106.285 	 56.0714 	 -111.274 	 
C 	 -107.178 	 56.5042 	 -110.337 	 
C 	 -108.1 	 55.4448 	 -109.948 	 
C 	 -107.935 	 54.2821 	 -110.698 	 
H 	 -108.959 	 55.559 	 -109.201 	 
C 	 -107.428 	 57.919 	 -109.806 	 
H 	 -108.333 	 57.8891 	 -109.17 	 
H 	 -107.73 	 58.5969 	 -110.631 	 
C 	 -106.247 	 58.5631 	 -109.056 	 
H 	 -105.561 	 58.893 	 -109.784 	 
H 	 -106.614 	 59.5428 	 -108.626 	 
C 	 -105.526 	 57.75 	 -107.895 	 
H 	 -104.776 	 58.2379 	 -107.377 	 
H 	 -106.224 	 57.4294 	 -107.185 	 
H 	 -105.131 	 56.8327 	 -108.318 	 
S 	 -107.803 	 51.6316 	 -110.256 	 
C 	 -109.287 	 50.6437 	 -110.16 	 
C 	 -110.347 	 51.4397 	 -110.047 	 
C 	 -110.05 	 52.805 	 -110.386 	 
C 	 -108.693 	 53.0496 	 -110.532 	 
H 	 -111.294 	 50.9977 	 -109.757 	 
C 	 -111.196 	 53.845 	 -110.411 	 
H 	 -111.204 	 54.4145 	 -111.334 	 
H 	 -110.883 	 54.6023 	 -109.712 	 
C 	 -112.67 	 53.2805 	 -110.199 	 
H 	 -112.748 	 52.5479 	 -109.465 	 
H 	 -112.803 	 52.6475 	 -111.08 	 
C 	 -113.799 	 54.3215 	 -110.04 	 
H 	 -114.015 	 54.8089 	 -110.966 	 
H 	 -113.583 	 55.0902 	 -109.318 	 
H 	 -114.689 	 53.8929 	 -109.649 	 
H 	 -105.559 	 56.7418 	 -111.725 	 
H 	 -109.293 	 49.6275 	 -109.997 	 
*
