! wB97X-D3 SP def2-SVP
%pal
nprocs 24
end

* xyz 0 1
S 	 -146.073 	 26.9946 	 -14.2487 	 
C 	 -146.983 	 26.8317 	 -15.8081 	 
C 	 -147.396 	 28.1236 	 -16.2108 	 
C 	 -147.136 	 29.1579 	 -15.2814 	 
C 	 -146.49 	 28.6781 	 -14.1258 	 
H 	 -147.303 	 30.256 	 -15.4082 	 
C 	 -148.093 	 28.4172 	 -17.5081 	 
H 	 -148.859 	 29.1832 	 -17.3952 	 
H 	 -148.728 	 27.5171 	 -17.7478 	 
C 	 -147.201 	 28.7459 	 -18.6493 	 
H 	 -146.431 	 29.4219 	 -18.2638 	 
H 	 -146.664 	 27.8799 	 -19.0269 	 
C 	 -147.951 	 29.3186 	 -19.889 	 
H 	 -148.753 	 28.6638 	 -20.1263 	 
H 	 -148.495 	 30.1826 	 -19.5162 	 
H 	 -147.347 	 29.5936 	 -20.6907 	 
S 	 -144.538 	 28.7547 	 -12.0759 	 
C 	 -144.255 	 30.2393 	 -11.1566 	 
C 	 -145.088 	 31.2543 	 -11.5681 	 
C 	 -146.005 	 30.8325 	 -12.5997 	 
C 	 -145.872 	 29.4752 	 -13.0195 	 
H 	 -144.862 	 32.2306 	 -11.0696 	 
C 	 -146.989 	 31.7438 	 -13.2064 	 
H 	 -147.422 	 32.3763 	 -12.4121 	 
H 	 -147.85 	 31.1578 	 -13.3738 	 
C 	 -146.665 	 32.7229 	 -14.3382 	 
H 	 -147.642 	 33.2089 	 -14.6024 	 
H 	 -146.502 	 32.2565 	 -15.266 	 
C 	 -145.676 	 33.84 	 -13.9532 	 
H 	 -145.598 	 34.4453 	 -14.8675 	 
H 	 -144.72 	 33.4999 	 -13.5979 	 
H 	 -146.156 	 34.4293 	 -13.15 	 
H 	 -147.133 	 25.9035 	 -16.3674 	 
H 	 -143.416 	 30.3998 	 -10.557 	 
*
