! wB97X-D3 SP def2-SVP
%pal
nprocs 24
end

* xyz 0 1
S 	 -107.227 	 36.3075 	 -17.6092 	 
C 	 -105.499 	 36.6884 	 -17.2675 	 
C 	 -104.637 	 36.0989 	 -18.1294 	 
C 	 -105.348 	 35.3992 	 -19.1934 	 
C 	 -106.715 	 35.3358 	 -18.9668 	 
H 	 -104.808 	 34.967 	 -20.0112 	 
C 	 -103.062 	 35.9806 	 -17.998 	 
H 	 -102.724 	 36.7012 	 -18.7489 	 
H 	 -102.777 	 34.9682 	 -18.2039 	 
C 	 -102.486 	 36.3603 	 -16.6027 	 
H 	 -102.81 	 37.3177 	 -16.3835 	 
H 	 -102.944 	 35.7507 	 -15.8946 	 
C 	 -100.979 	 36.1937 	 -16.5162 	 
H 	 -100.525 	 36.9368 	 -17.1644 	 
H 	 -100.665 	 36.3593 	 -15.5096 	 
H 	 -100.744 	 35.1302 	 -16.856 	 
S 	 -109.249 	 35.4355 	 -19.9375 	 
C 	 -110.015 	 34.0768 	 -20.6129 	 
C 	 -109.131 	 33.0179 	 -20.6285 	 
C 	 -107.781 	 33.3223 	 -20.2864 	 
C 	 -107.698 	 34.617 	 -19.8035 	 
H 	 -109.489 	 32.014 	 -20.8438 	 
C 	 -106.743 	 32.2394 	 -20.3284 	 
H 	 -105.804 	 32.6052 	 -19.9109 	 
H 	 -106.619 	 31.9271 	 -21.3772 	 
C 	 -107.197 	 31.0674 	 -19.4295 	 
H 	 -108.237 	 30.7954 	 -19.5452 	 
H 	 -107.123 	 31.4214 	 -18.3756 	 
C 	 -106.36 	 29.7525 	 -19.6228 	 
H 	 -105.992 	 29.8037 	 -20.5968 	 
H 	 -106.977 	 28.9096 	 -19.4816 	 
H 	 -105.565 	 29.6979 	 -18.8977 	 
H 	 -105.331 	 37.4478 	 -16.5048 	 
H 	 -111.07 	 33.9263 	 -20.7645 	 
*
