! wB97X-D3 SP def2-SVP
%pal
nprocs 24
end

* xyz 0 1
S 	 -40.4299 	 -51.6049 	 -72.9125 	 
C 	 -38.7707 	 -52.1034 	 -72.8409 	 
C 	 -38.6616 	 -53.41 	 -73.2151 	 
C 	 -39.9147 	 -54.0692 	 -73.3671 	 
C 	 -41.0085 	 -53.191 	 -73.3762 	 
H 	 -40.0919 	 -55.0427 	 -73.6595 	 
C 	 -37.3696 	 -54.1706 	 -73.2809 	 
H 	 -36.6008 	 -53.4909 	 -72.9544 	 
H 	 -37.099 	 -54.3971 	 -74.3066 	 
C 	 -37.3562 	 -55.3942 	 -72.3162 	 
H 	 -38.1981 	 -56.0468 	 -72.5961 	 
H 	 -36.4516 	 -55.9415 	 -72.5313 	 
C 	 -37.3485 	 -55.2039 	 -70.7846 	 
H 	 -37.1468 	 -56.205 	 -70.4669 	 
H 	 -36.4955 	 -54.564 	 -70.493 	 
H 	 -38.3298 	 -54.9151 	 -70.4011 	 
S 	 -43.2185 	 -52.0461 	 -74.3115 	 
C 	 -44.7341 	 -52.8703 	 -74.5216 	 
C 	 -44.5323 	 -54.2102 	 -74.3449 	 
C 	 -43.2748 	 -54.5707 	 -73.7403 	 
C 	 -42.4315 	 -53.4366 	 -73.555 	 
H 	 -45.284 	 -54.898 	 -74.675 	 
C 	 -42.9525 	 -56.014 	 -73.3959 	 
H 	 -42.9277 	 -56.0687 	 -72.3047 	 
H 	 -41.9813 	 -56.1982 	 -73.9155 	 
C 	 -44.0021 	 -57.0293 	 -73.8668 	 
H 	 -44.2921 	 -56.7289 	 -74.8838 	 
H 	 -44.8274 	 -56.9823 	 -73.1106 	 
C 	 -43.5405 	 -58.4928 	 -73.9122 	 
H 	 -44.4232 	 -58.9866 	 -74.3502 	 
H 	 -43.4175 	 -58.8719 	 -72.8702 	 
H 	 -42.659 	 -58.8063 	 -74.4734 	 
H 	 -37.9319 	 -51.5098 	 -72.7185 	 
H 	 -45.5712 	 -52.3645 	 -74.9921 	 
*
