! wB97X-D3 SP def2-SVP
%pal
nprocs 24
end

* xyz 0 1
S 	 -59.4457 	 13.7814 	 -96.4881 	 
C 	 -58.5412 	 15.283 	 -96.1074 	 
C 	 -57.6455 	 15.5376 	 -97.1133 	 
C 	 -57.5332 	 14.4935 	 -98.0862 	 
C 	 -58.4495 	 13.4879 	 -97.9112 	 
H 	 -56.8353 	 14.4246 	 -98.9345 	 
C 	 -56.8296 	 16.7982 	 -97.0463 	 
H 	 -56.3442 	 16.9258 	 -96.1214 	 
H 	 -57.5373 	 17.6256 	 -96.9978 	 
C 	 -55.8046 	 16.9909 	 -98.2566 	 
H 	 -56.2999 	 16.921 	 -99.1842 	 
H 	 -55.584 	 18.0675 	 -98.1572 	 
C 	 -54.5704 	 16.0872 	 -98.2397 	 
H 	 -54.7632 	 15.1749 	 -97.6836 	 
H 	 -54.2766 	 15.8686 	 -99.2301 	 
H 	 -53.7399 	 16.5709 	 -97.5873 	 
S 	 -58.8362 	 10.7931 	 -97.7856 	 
C 	 -59.0233 	 9.91418 	 -99.283 	 
C 	 -58.8707 	 10.7214 	 -100.369 	 
C 	 -58.6564 	 12.0704 	 -100.088 	 
C 	 -58.6191 	 12.2577 	 -98.7272 	 
H 	 -59.0413 	 10.285 	 -101.31 	 
C 	 -58.4762 	 13.0456 	 -101.238 	 
H 	 -58.5766 	 14.0657 	 -100.921 	 
H 	 -59.4165 	 12.9929 	 -101.862 	 
C 	 -57.1542 	 12.9145 	 -102 	 
H 	 -56.8449 	 11.9557 	 -102.356 	 
H 	 -56.355 	 13.3354 	 -101.313 	 
C 	 -57.188 	 13.7351 	 -103.354 	 
H 	 -56.2783 	 13.816 	 -103.894 	 
H 	 -57.5541 	 14.7463 	 -103.303 	 
H 	 -57.9666 	 13.4227 	 -104.068 	 
H 	 -58.7112 	 15.902 	 -95.2571 	 
H 	 -59.2062 	 8.86327 	 -99.3809 	 
*
