! wB97X-D3 SP def2-SVP
%pal
nprocs 24
end

* xyz 0 1
S 	 -128.477 	 62.2787 	 -59.5508 	 
C 	 -127.567 	 60.8684 	 -60.0803 	 
C 	 -127.681 	 59.8676 	 -59.152 	 
C 	 -128.402 	 60.2369 	 -57.9833 	 
C 	 -128.749 	 61.5324 	 -57.9515 	 
H 	 -128.757 	 59.6202 	 -57.1888 	 
C 	 -126.984 	 58.4869 	 -59.2046 	 
H 	 -126.911 	 58.0724 	 -58.1872 	 
H 	 -125.921 	 58.5313 	 -59.5992 	 
C 	 -127.676 	 57.5015 	 -60.0996 	 
H 	 -128.76 	 57.6478 	 -59.9451 	 
H 	 -127.523 	 57.8482 	 -61.1246 	 
C 	 -127.392 	 56.0375 	 -59.8296 	 
H 	 -126.394 	 55.8403 	 -59.5041 	 
H 	 -128.096 	 55.5737 	 -59.0848 	 
H 	 -127.485 	 55.3746 	 -60.6784 	 
S 	 -130.92 	 63.0483 	 -57.519 	 
C 	 -131.501 	 63.2972 	 -55.9064 	 
C 	 -130.548 	 62.9408 	 -54.9689 	 
C 	 -129.385 	 62.3663 	 -55.5574 	 
C 	 -129.487 	 62.2909 	 -56.9352 	 
H 	 -130.719 	 63.0535 	 -53.9593 	 
C 	 -128.189 	 61.9637 	 -54.739 	 
H 	 -127.409 	 61.5735 	 -55.3388 	 
H 	 -128.424 	 61.1645 	 -54.0061 	 
C 	 -127.524 	 63.1764 	 -53.8936 	 
H 	 -128.026 	 63.2085 	 -52.8753 	 
H 	 -127.749 	 64.1446 	 -54.3898 	 
C 	 -126.041 	 62.9438 	 -53.8044 	 
H 	 -125.651 	 62.9114 	 -54.8356 	 
H 	 -125.873 	 62.0695 	 -53.2189 	 
H 	 -125.509 	 63.7697 	 -53.242 	 
H 	 -126.942 	 60.7243 	 -60.9639 	 
H 	 -132.502 	 63.6827 	 -55.6352 	 
*
