! wB97X-D3 SP def2-SVP
%pal
nprocs 24
end

* xyz 0 1
S 	 -126.813 	 57.7674 	 -59.0205 	 
C 	 -126.448 	 57.9614 	 -60.6856 	 
C 	 -127.533 	 58.3989 	 -61.4117 	 
C 	 -128.698 	 58.715 	 -60.5993 	 
C 	 -128.373 	 58.4163 	 -59.2417 	 
H 	 -129.674 	 59.0354 	 -60.975 	 
C 	 -127.592 	 58.62 	 -62.9027 	 
H 	 -128.557 	 58.2773 	 -63.2053 	 
H 	 -126.86 	 57.9758 	 -63.4365 	 
C 	 -127.263 	 60.1341 	 -63.3471 	 
H 	 -128.117 	 60.7482 	 -63.0374 	 
H 	 -126.346 	 60.5151 	 -62.8411 	 
C 	 -127.022 	 60.1272 	 -64.8914 	 
H 	 -127.792 	 59.5336 	 -65.494 	 
H 	 -126.92 	 61.1339 	 -65.3621 	 
H 	 -126.053 	 59.6227 	 -65.042 	 
S 	 -129.426 	 57.1068 	 -57.0578 	 
C 	 -130.791 	 57.8223 	 -56.2651 	 
C 	 -130.811 	 59.1563 	 -56.5674 	 
C 	 -129.878 	 59.6686 	 -57.5468 	 
C 	 -129.198 	 58.6039 	 -58.0847 	 
H 	 -131.646 	 59.6512 	 -56.0742 	 
C 	 -129.781 	 61.1125 	 -58.0357 	 
H 	 -128.845 	 61.2837 	 -58.7134 	 
H 	 -129.65 	 61.7943 	 -57.2144 	 
C 	 -130.998 	 61.5962 	 -58.838 	 
H 	 -131.877 	 61.3816 	 -58.3399 	 
H 	 -131.207 	 61.134 	 -59.7681 	 
C 	 -130.791 	 63.106 	 -59.2236 	 
H 	 -130.616 	 63.673 	 -58.2663 	 
H 	 -131.655 	 63.6684 	 -59.6586 	 
H 	 -129.888 	 63.2637 	 -59.8961 	 
H 	 -125.544 	 57.794 	 -61.1538 	 
H 	 -131.428 	 57.4763 	 -55.4691 	 
*
