! wB97X-D3 SP def2-SVP
%pal
nprocs 24
end

* xyz 0 1
S 	 -57.2857 	 -2.3583 	 -27.3755 	 
C 	 -56.3584 	 -1.67673 	 -26.0142 	 
C 	 -55.2468 	 -0.909297 	 -26.4137 	 
C 	 -55.1103 	 -0.98289 	 -27.841 	 
C 	 -56.1394 	 -1.70243 	 -28.5016 	 
H 	 -54.3212 	 -0.693535 	 -28.5084 	 
C 	 -54.1474 	 -0.396668 	 -25.542 	 
H 	 -54.4273 	 -0.247441 	 -24.4818 	 
H 	 -53.8858 	 0.579328 	 -25.8426 	 
C 	 -52.909 	 -1.32422 	 -25.5339 	 
H 	 -53.2316 	 -2.25254 	 -25.0176 	 
H 	 -52.7259 	 -1.7015 	 -26.5313 	 
C 	 -51.5768 	 -0.877781 	 -24.7238 	 
H 	 -50.696 	 -1.50028 	 -24.8301 	 
H 	 -51.1553 	 0.0155076 	 -25.1463 	 
H 	 -51.7515 	 -0.771661 	 -23.6401 	 
S 	 -56.6502 	 -3.57989 	 -30.5029 	 
C 	 -56.5931 	 -3.05684 	 -32.1702 	 
C 	 -56.0711 	 -1.82844 	 -32.2971 	 
C 	 -55.9493 	 -1.13016 	 -31.0288 	 
C 	 -56.1555 	 -1.98415 	 -29.95 	 
H 	 -55.9429 	 -1.40884 	 -33.3301 	 
C 	 -55.6182 	 0.291854 	 -30.9966 	 
H 	 -55.4074 	 0.724365 	 -31.9782 	 
H 	 -54.6421 	 0.269847 	 -30.6524 	 
C 	 -56.4902 	 1.22471 	 -30.1328 	 
H 	 -56.1612 	 2.22919 	 -30.2884 	 
H 	 -56.3549 	 1.06343 	 -29.0833 	 
C 	 -57.9691 	 1.25548 	 -30.5935 	 
H 	 -57.9822 	 1.66315 	 -31.5924 	 
H 	 -58.5815 	 1.88837 	 -29.9243 	 
H 	 -58.5153 	 0.346172 	 -30.4934 	 
H 	 -56.6494 	 -2.06157 	 -25.0259 	 
H 	 -56.8882 	 -3.57991 	 -33.039 	 
*
