! wB97X-D3 SP def2-SVP
%pal
nprocs 24
end

* xyz 0 1
S 	 -64.6609 	 18.1991 	 -114.677 	 
C 	 -64.4736 	 16.4854 	 -114.598 	 
C 	 -63.3656 	 16.0724 	 -115.307 	 
C 	 -62.636 	 17.134 	 -115.889 	 
C 	 -63.1946 	 18.3601 	 -115.675 	 
H 	 -61.7429 	 17.1685 	 -116.482 	 
C 	 -62.7208 	 14.7613 	 -115.215 	 
H 	 -62.1352 	 14.6321 	 -116.12 	 
H 	 -63.4943 	 13.9824 	 -115.316 	 
C 	 -61.8703 	 14.5765 	 -113.955 	 
H 	 -61.1381 	 15.4339 	 -113.744 	 
H 	 -62.551 	 14.6304 	 -113.113 	 
C 	 -61.0552 	 13.3173 	 -113.957 	 
H 	 -61.8202 	 12.6448 	 -113.906 	 
H 	 -60.5233 	 13.2028 	 -114.902 	 
H 	 -60.3958 	 13.1718 	 -113.111 	 
S 	 -63.4232 	 20.2781 	 -117.5 	 
C 	 -62.1218 	 21.5126 	 -117.65 	 
C 	 -61.1471 	 21.391 	 -116.67 	 
C 	 -61.4431 	 20.3294 	 -115.76 	 
C 	 -62.6046 	 19.5911 	 -116.13 	 
H 	 -60.2797 	 22.0111 	 -116.653 	 
C 	 -60.5848 	 19.9921 	 -114.594 	 
H 	 -59.7742 	 20.7423 	 -114.508 	 
H 	 -60.0315 	 19.0794 	 -114.715 	 
C 	 -61.3095 	 19.9789 	 -113.252 	 
H 	 -62.0675 	 19.1833 	 -113.284 	 
H 	 -61.886 	 20.8973 	 -113.107 	 
C 	 -60.4014 	 19.7142 	 -112.101 	 
H 	 -59.7685 	 18.7642 	 -112.244 	 
H 	 -60.9519 	 19.6653 	 -111.169 	 
H 	 -59.6186 	 20.4638 	 -111.951 	 
H 	 -64.9469 	 15.8536 	 -113.863 	 
H 	 -61.9877 	 22.2411 	 -118.45 	 
*
