! wB97X-D3 SP def2-SVP
%pal
nprocs 24
end

* xyz 0 1
S 	 15.5935 	 -8.90639 	 -125.252 	 
C 	 13.9828 	 -8.20767 	 -125.386 	 
C 	 13.038 	 -8.88872 	 -126.083 	 
C 	 13.7073 	 -10.0516 	 -126.629 	 
C 	 14.9638 	 -10.3584 	 -126.049 	 
H 	 13.355 	 -10.9254 	 -127.12 	 
C 	 11.5978 	 -8.43575 	 -126.462 	 
H 	 11.0698 	 -8.25529 	 -125.535 	 
H 	 11.1419 	 -9.22561 	 -127.006 	 
C 	 11.2701 	 -7.12663 	 -127.31 	 
H 	 10.2223 	 -6.93212 	 -127.504 	 
H 	 11.7274 	 -6.32462 	 -126.752 	 
C 	 11.9426 	 -7.30394 	 -128.654 	 
H 	 12.9967 	 -7.52122 	 -128.538 	 
H 	 11.4125 	 -8.11891 	 -129.136 	 
H 	 11.911 	 -6.30411 	 -129.234 	 
S 	 17.4126 	 -11.4023 	 -126.931 	 
C 	 17.5094 	 -13.1014 	 -126.958 	 
C 	 16.3421 	 -13.7671 	 -126.677 	 
C 	 15.3097 	 -12.8631 	 -126.257 	 
C 	 15.72 	 -11.5229 	 -126.289 	 
H 	 16.2983 	 -14.8967 	 -126.713 	 
C 	 13.9253 	 -13.3379 	 -125.749 	 
H 	 13.1856 	 -12.5775 	 -125.5 	 
H 	 14.0724 	 -13.847 	 -124.796 	 
C 	 13.2173 	 -14.3014 	 -126.747 	 
H 	 12.3046 	 -14.6186 	 -126.337 	 
H 	 13.8023 	 -15.2582 	 -126.858 	 
C 	 13.0252 	 -13.5621 	 -128.031 	 
H 	 13.9026 	 -13.1929 	 -128.58 	 
H 	 12.2341 	 -12.7867 	 -127.89 	 
H 	 12.5365 	 -14.3611 	 -128.709 	 
H 	 13.6157 	 -7.17289 	 -125.149 	 
H 	 18.4674 	 -13.5945 	 -127.117 	 
*
