! wB97X-D3 SP def2-SVP
%pal
nprocs 24
end

* xyz 0 1
S 	 42.1622 	 -7.74341 	 -105.833 	 
C 	 42.9953 	 -6.30766 	 -106.193 	 
C 	 42.3751 	 -5.61162 	 -107.257 	 
C 	 41.3731 	 -6.38979 	 -107.948 	 
C 	 41.2333 	 -7.65559 	 -107.36 	 
H 	 40.7801 	 -6.15048 	 -108.788 	 
C 	 42.6839 	 -4.1567 	 -107.566 	 
H 	 42.8591 	 -3.61874 	 -106.644 	 
H 	 41.8645 	 -3.73035 	 -108.022 	 
C 	 43.9268 	 -3.94829 	 -108.474 	 
H 	 44.7835 	 -4.56217 	 -108.101 	 
H 	 43.4795 	 -4.32102 	 -109.403 	 
C 	 44.6182 	 -2.5934 	 -108.755 	 
H 	 45.4862 	 -2.78392 	 -109.351 	 
H 	 44.067 	 -1.80696 	 -109.333 	 
H 	 44.9134 	 -2.16849 	 -107.817 	 
S 	 41.6614 	 -10.2534 	 -107.949 	 
C 	 40.4809 	 -11.2008 	 -108.732 	 
C 	 39.3038 	 -10.5013 	 -108.86 	 
C 	 39.4617 	 -9.09125 	 -108.703 	 
C 	 40.6264 	 -8.82988 	 -107.927 	 
H 	 38.4543 	 -11.1167 	 -109.11 	 
C 	 38.4378 	 -8.10493 	 -109.13 	 
H 	 38.8231 	 -7.2923 	 -109.808 	 
H 	 38.2437 	 -7.56864 	 -108.198 	 
C 	 37.1221 	 -8.72008 	 -109.786 	 
H 	 36.3463 	 -7.99223 	 -109.769 	 
H 	 36.7164 	 -9.47101 	 -109.164 	 
C 	 37.3419 	 -9.20143 	 -111.25 	 
H 	 37.9507 	 -8.38424 	 -111.773 	 
H 	 36.3966 	 -9.43431 	 -111.733 	 
H 	 37.9309 	 -10.1632 	 -111.289 	 
H 	 43.7046 	 -5.82818 	 -105.498 	 
H 	 40.6804 	 -12.2598 	 -108.971 	 
*
