! wB97X-D3 SP def2-SVP
%pal
nprocs 24
end

* xyz 0 1
S 	 -116.342 	 44.3214 	 -111.837 	 
C 	 -117.732 	 43.7883 	 -112.765 	 
C 	 -117.437 	 42.6375 	 -113.553 	 
C 	 -116.024 	 42.3685 	 -113.598 	 
C 	 -115.324 	 43.1533 	 -112.758 	 
H 	 -115.474 	 41.6709 	 -114.143 	 
C 	 -118.397 	 41.8401 	 -114.323 	 
H 	 -118.764 	 42.5306 	 -115.066 	 
H 	 -119.28 	 41.5983 	 -113.756 	 
C 	 -117.896 	 40.5287 	 -114.926 	 
H 	 -116.993 	 40.6972 	 -115.559 	 
H 	 -117.505 	 39.8714 	 -114.134 	 
C 	 -118.967 	 39.7693 	 -115.729 	 
H 	 -118.54 	 38.7938 	 -116.056 	 
H 	 -119.723 	 39.5269 	 -115.059 	 
H 	 -119.305 	 40.1562 	 -116.635 	 
S 	 -112.97 	 43.5222 	 -113.976 	 
C 	 -111.394 	 43.2491 	 -113.156 	 
C 	 -111.641 	 43.1341 	 -111.79 	 
C 	 -112.981 	 43.0666 	 -111.476 	 
C 	 -113.849 	 43.207 	 -112.548 	 
H 	 -110.727 	 42.9605 	 -111.134 	 
C 	 -113.399 	 42.7832 	 -110.036 	 
H 	 -114.328 	 43.2784 	 -109.926 	 
H 	 -112.683 	 43.3298 	 -109.332 	 
C 	 -113.566 	 41.3561 	 -109.517 	 
H 	 -113.742 	 41.3555 	 -108.442 	 
H 	 -112.582 	 40.8894 	 -109.593 	 
C 	 -114.556 	 40.5414 	 -110.394 	 
H 	 -114.211 	 40.237 	 -111.36 	 
H 	 -115.473 	 41.0645 	 -110.487 	 
H 	 -114.907 	 39.5713 	 -109.901 	 
H 	 -118.772 	 44.189 	 -112.588 	 
H 	 -110.401 	 43.4817 	 -113.552 	 
*
