! wB97X-D3 SP def2-SVP
%pal
nprocs 24
end

* xyz 0 1
S 	 -106.538 	 61.6606 	 -96.7669 	 
C 	 -107.854 	 60.796 	 -97.5969 	 
C 	 -107.466 	 60.126 	 -98.7516 	 
C 	 -106.088 	 60.4593 	 -99.0042 	 
C 	 -105.407 	 61.1919 	 -98.0433 	 
H 	 -105.432 	 60.0777 	 -99.7738 	 
C 	 -108.283 	 59.1656 	 -99.5743 	 
H 	 -108.982 	 58.748 	 -98.836 	 
H 	 -107.608 	 58.3136 	 -99.9241 	 
C 	 -109.008 	 59.8894 	 -100.706 	 
H 	 -109.829 	 59.3624 	 -101.084 	 
H 	 -109.343 	 60.8835 	 -100.404 	 
C 	 -107.987 	 59.995 	 -101.843 	 
H 	 -107.375 	 60.966 	 -101.702 	 
H 	 -107.338 	 59.1607 	 -101.97 	 
H 	 -108.52 	 59.879 	 -102.787 	 
S 	 -103.696 	 63.2758 	 -98.1812 	 
C 	 -101.971 	 63.1214 	 -98.1283 	 
C 	 -101.608 	 61.7806 	 -98.0743 	 
C 	 -102.784 	 60.8699 	 -98.1031 	 
C 	 -103.991 	 61.5587 	 -98.036 	 
H 	 -100.595 	 61.4945 	 -97.9444 	 
C 	 -102.675 	 59.3971 	 -98.1389 	 
H 	 -103.478 	 58.8921 	 -97.6032 	 
H 	 -101.798 	 59.269 	 -97.6119 	 
C 	 -102.626 	 58.7666 	 -99.5774 	 
H 	 -102.522 	 59.4748 	 -100.418 	 
H 	 -103.571 	 58.3053 	 -99.8594 	 
C 	 -101.47 	 57.7621 	 -99.6217 	 
H 	 -101.409 	 57.2074 	 -100.501 	 
H 	 -101.461 	 57.1112 	 -98.7092 	 
H 	 -100.596 	 58.3613 	 -99.7446 	 
H 	 -108.858 	 60.7229 	 -97.2236 	 
H 	 -101.241 	 63.9574 	 -98.2736 	 
*
