! wB97X-D3 SP def2-SVP
%pal
nprocs 24
end

* xyz 0 1
S 	 -48.4592 	 2.42794 	 -17.596 	 
C 	 -49.078 	 0.960597 	 -18.1971 	 
C 	 -50.0683 	 0.403314 	 -17.4396 	 
C 	 -50.3798 	 1.2869 	 -16.3799 	 
C 	 -49.4734 	 2.33596 	 -16.2614 	 
H 	 -51.2406 	 1.21623 	 -15.7414 	 
C 	 -50.9499 	 -0.789578 	 -17.8174 	 
H 	 -50.9471 	 -1.33258 	 -16.8849 	 
H 	 -50.403 	 -1.35331 	 -18.6156 	 
C 	 -52.404 	 -0.474543 	 -18.1224 	 
H 	 -52.7917 	 0.00656732 	 -17.2279 	 
H 	 -52.4153 	 0.252358 	 -18.972 	 
C 	 -53.3048 	 -1.73051 	 -18.3218 	 
H 	 -54.3802 	 -1.58009 	 -18.3997 	 
H 	 -53.1992 	 -2.19374 	 -19.2951 	 
H 	 -52.9872 	 -2.53448 	 -17.5948 	 
S 	 -50.1701 	 4.82117 	 -15.618 	 
C 	 -49.9615 	 5.46118 	 -13.9264 	 
C 	 -49.5475 	 4.44853 	 -13.1063 	 
C 	 -49.2385 	 3.19643 	 -13.7948 	 
C 	 -49.4976 	 3.31773 	 -15.1994 	 
H 	 -49.6224 	 4.62747 	 -11.9944 	 
C 	 -48.7144 	 1.93795 	 -13.12 	 
H 	 -47.8691 	 2.27375 	 -12.5097 	 
H 	 -48.2433 	 1.20411 	 -13.8218 	 
C 	 -49.8001 	 1.15962 	 -12.2944 	 
H 	 -50.3896 	 0.58803 	 -13.0743 	 
H 	 -50.4594 	 1.88295 	 -11.7929 	 
C 	 -49.2508 	 0.218182 	 -11.2613 	 
H 	 -49.1452 	 -0.770306 	 -11.5898 	 
H 	 -49.8931 	 0.248962 	 -10.387 	 
H 	 -48.2475 	 0.57027 	 -11.1207 	 
H 	 -48.663 	 0.567799 	 -19.1488 	 
H 	 -50.4017 	 6.41405 	 -13.5512 	 
*
