! wB97X-D3 SP def2-SVP
%pal
nprocs 24
end

* xyz 0 1
S 	 46.2551 	 -15.5673 	 -108.551 	 
C 	 47.0595 	 -15.3387 	 -110.094 	 
C 	 46.6155 	 -14.2654 	 -110.781 	 
C 	 45.6839 	 -13.5363 	 -109.965 	 
C 	 45.3649 	 -14.046 	 -108.738 	 
H 	 45.1633 	 -12.634 	 -110.372 	 
C 	 47.1004 	 -13.8461 	 -112.186 	 
H 	 46.3169 	 -13.9801 	 -112.931 	 
H 	 47.8201 	 -14.6101 	 -112.387 	 
C 	 47.7649 	 -12.4587 	 -112.332 	 
H 	 47.0862 	 -11.723 	 -111.924 	 
H 	 48.5658 	 -12.3935 	 -111.634 	 
C 	 48.1744 	 -12.208 	 -113.871 	 
H 	 48.8632 	 -11.3958 	 -113.924 	 
H 	 48.7184 	 -13.0502 	 -114.43 	 
H 	 47.2226 	 -11.9741 	 -114.388 	 
S 	 43.2074 	 -14.4657 	 -107.202 	 
C 	 42.4005 	 -13.1321 	 -106.404 	 
C 	 43.2452 	 -12.0384 	 -106.409 	 
C 	 44.4211 	 -12.225 	 -107.189 	 
C 	 44.5529 	 -13.478 	 -107.689 	 
H 	 42.9062 	 -11.1047 	 -105.903 	 
C 	 45.5179 	 -11.1916 	 -107.23 	 
H 	 46.2385 	 -11.5617 	 -107.976 	 
H 	 45.9962 	 -11.3252 	 -106.255 	 
C 	 45.1399 	 -9.72562 	 -107.539 	 
H 	 46.1423 	 -9.25978 	 -107.57 	 
H 	 44.5842 	 -9.3393 	 -106.708 	 
C 	 44.3883 	 -9.50004 	 -108.79 	 
H 	 44.125 	 -8.49374 	 -108.838 	 
H 	 43.3982 	 -10.0266 	 -108.73 	 
H 	 44.893 	 -9.93507 	 -109.644 	 
H 	 47.8637 	 -15.9072 	 -110.602 	 
H 	 41.3554 	 -13.1627 	 -106.054 	 
*
