! wB97X-D3 SP def2-SVP
%pal
nprocs 24
end

* xyz 0 1
S 	 -30.8432 	 12.0706 	 -0.173968 	 
C 	 -32.2084 	 11.1652 	 -0.811602 	 
C 	 -32.7421 	 10.3863 	 0.172446 	 
C 	 -32.162 	 10.5981 	 1.42667 	 
C 	 -31.0443 	 11.4117 	 1.47144 	 
H 	 -32.4161 	 10.0094 	 2.33659 	 
C 	 -33.8826 	 9.42036 	 -0.0420753 	 
H 	 -34.0366 	 8.79628 	 0.848296 	 
H 	 -33.6591 	 8.63991 	 -0.82023 	 
C 	 -35.2495 	 10.0298 	 -0.33294 	 
H 	 -35.2673 	 10.5451 	 -1.30524 	 
H 	 -35.9288 	 9.18961 	 -0.309049 	 
C 	 -35.6254 	 11.1673 	 0.69991 	 
H 	 -34.808 	 11.8284 	 1.09109 	 
H 	 -36.473 	 11.8528 	 0.384166 	 
H 	 -36.003 	 10.6259 	 1.58128 	 
S 	 -28.5295 	 11.1998 	 2.41521 	 
C 	 -28.0997 	 11.8743 	 3.92734 	 
C 	 -29.192 	 12.5437 	 4.42414 	 
C 	 -30.4014 	 12.393 	 3.72278 	 
C 	 -30.1748 	 11.7462 	 2.51835 	 
H 	 -29.0631 	 13.104 	 5.3553 	 
C 	 -31.6291 	 13.1037 	 4.19597 	 
H 	 -32.237 	 13.3043 	 3.30507 	 
H 	 -31.2975 	 14.071 	 4.64693 	 
C 	 -32.494 	 12.2842 	 5.16891 	 
H 	 -31.8171 	 11.9305 	 5.98157 	 
H 	 -32.8418 	 11.4213 	 4.57705 	 
C 	 -33.7938 	 12.9961 	 5.63472 	 
H 	 -34.5015 	 12.4049 	 6.24523 	 
H 	 -34.4073 	 13.3049 	 4.75298 	 
H 	 -33.6301 	 14.0276 	 6.13841 	 
H 	 -32.5617 	 11.1912 	 -1.86185 	 
H 	 -27.0917 	 12.0453 	 4.38039 	 
*
