! wB97X-D3 SP def2-SVP
%pal
nprocs 24
end

* xyz 0 1
S 	 -76.2841 	 -5.13597 	 -58.6756 	 
C 	 -76.7955 	 -3.71504 	 -59.397 	 
C 	 -78.1091 	 -3.81479 	 -59.8707 	 
C 	 -78.4763 	 -5.19058 	 -59.9142 	 
C 	 -77.6587 	 -6.0325 	 -59.1807 	 
H 	 -79.3863 	 -5.62079 	 -60.2376 	 
C 	 -78.9608 	 -2.69086 	 -60.4605 	 
H 	 -78.2868 	 -1.99613 	 -60.8689 	 
H 	 -79.549 	 -2.21375 	 -59.624 	 
C 	 -79.8507 	 -3.11006 	 -61.6344 	 
H 	 -79.2961 	 -3.50561 	 -62.4677 	 
H 	 -80.6415 	 -3.81266 	 -61.424 	 
C 	 -80.5949 	 -1.81417 	 -62.1073 	 
H 	 -79.6415 	 -1.19204 	 -62.4872 	 
H 	 -81.3074 	 -1.90448 	 -62.9686 	 
H 	 -81.0875 	 -1.26564 	 -61.336 	 
S 	 -76.8227 	 -8.63164 	 -59.6984 	 
C 	 -77.5392 	 -9.91812 	 -58.8195 	 
C 	 -78.5834 	 -9.50438 	 -58.0535 	 
C 	 -78.7374 	 -8.06771 	 -58.0853 	 
C 	 -77.7996 	 -7.43535 	 -58.931 	 
H 	 -79.2504 	 -10.2296 	 -57.6135 	 
C 	 -79.7328 	 -7.3861 	 -57.1782 	 
H 	 -80.7533 	 -7.48233 	 -57.6368 	 
H 	 -79.509 	 -6.31899 	 -57.0322 	 
C 	 -79.8668 	 -7.88086 	 -55.7711 	 
H 	 -80.2035 	 -8.8645 	 -55.6887 	 
H 	 -80.6028 	 -7.35462 	 -55.1571 	 
C 	 -78.5186 	 -7.68453 	 -55.08 	 
H 	 -77.952 	 -6.69442 	 -55.2053 	 
H 	 -77.765 	 -8.38319 	 -55.3719 	 
H 	 -78.5673 	 -7.92255 	 -53.9955 	 
H 	 -76.4075 	 -2.6941 	 -59.1744 	 
H 	 -77.3284 	 -10.9349 	 -59.0901 	 
*
