! wB97X-D3 SP def2-SVP
%pal
nprocs 24
end

* xyz 0 1
S 	 -99.1387 	 9.23712 	 3.34063 	 
C 	 -99.2773 	 8.59362 	 1.76262 	 
C 	 -98.5052 	 7.43392 	 1.61517 	 
C 	 -97.5293 	 7.31785 	 2.65197 	 
C 	 -97.7327 	 8.19194 	 3.65356 	 
H 	 -96.8237 	 6.53297 	 2.77087 	 
C 	 -98.5092 	 6.52175 	 0.389361 	 
H 	 -99.564 	 6.41073 	 0.113201 	 
H 	 -98.1925 	 5.50175 	 0.695146 	 
C 	 -97.5448 	 6.90535 	 -0.727608 	 
H 	 -97.6173 	 8.02938 	 -0.813988 	 
H 	 -96.4754 	 6.67034 	 -0.581227 	 
C 	 -97.7619 	 6.2205 	 -2.00545 	 
H 	 -98.7071 	 6.26186 	 -2.34557 	 
H 	 -97.0071 	 6.65987 	 -2.67194 	 
H 	 -97.5056 	 5.17882 	 -1.75822 	 
S 	 -97.7762 	 9.13606 	 6.25636 	 
C 	 -96.3483 	 9.09928 	 7.23345 	 
C 	 -95.1957 	 8.74068 	 6.57104 	 
C 	 -95.5499 	 8.26976 	 5.26252 	 
C 	 -96.9243 	 8.44055 	 4.86525 	 
H 	 -94.2647 	 8.67195 	 7.06598 	 
C 	 -94.428 	 7.69948 	 4.37048 	 
H 	 -93.4592 	 8.07962 	 4.50519 	 
H 	 -94.6642 	 8.03484 	 3.34608 	 
C 	 -94.2294 	 6.12771 	 4.33469 	 
H 	 -93.3799 	 5.87586 	 3.74758 	 
H 	 -95.1612 	 5.60668 	 3.90401 	 
C 	 -94.0497 	 5.52237 	 5.75979 	 
H 	 -93.1219 	 5.87723 	 6.19154 	 
H 	 -93.9273 	 4.43302 	 5.78048 	 
H 	 -94.8645 	 5.71809 	 6.47219 	 
H 	 -99.8231 	 9.05869 	 0.950908 	 
H 	 -96.3222 	 9.39962 	 8.25183 	 
*
