! wB97X-D3 SP def2-SVP
%pal
nprocs 24
end

* xyz 0 1
S 	 -48.3946 	 -1.53389 	 20.316 	 
C 	 -49.7667 	 -0.996996 	 19.4572 	 
C 	 -50.8332 	 -1.87029 	 19.4948 	 
C 	 -50.4539 	 -3.12721 	 20.0814 	 
C 	 -49.1462 	 -3.08213 	 20.5319 	 
H 	 -51.0247 	 -4.06227 	 20.0807 	 
C 	 -52.2192 	 -1.70117 	 18.8902 	 
H 	 -52.8346 	 -0.837143 	 19.311 	 
H 	 -52.8156 	 -2.63265 	 19.0893 	 
C 	 -52.2396 	 -1.63093 	 17.3916 	 
H 	 -51.7378 	 -0.675293 	 17.1748 	 
H 	 -51.6563 	 -2.42449 	 16.9372 	 
C 	 -53.6159 	 -1.56503 	 16.7768 	 
H 	 -54.2396 	 -2.42301 	 16.9314 	 
H 	 -54.064 	 -0.616986 	 17.0668 	 
H 	 -53.4598 	 -1.49371 	 15.7297 	 
S 	 -47.7073 	 -5.32354 	 20.0323 	 
C 	 -47.0095 	 -6.19914 	 21.279 	 
C 	 -47.5298 	 -5.79624 	 22.5009 	 
C 	 -48.4379 	 -4.69887 	 22.3387 	 
C 	 -48.4215 	 -4.17374 	 21.1164 	 
H 	 -47.3732 	 -6.33723 	 23.3644 	 
C 	 -49.095 	 -4.01984 	 23.5323 	 
H 	 -49.3665 	 -2.98145 	 23.2777 	 
H 	 -48.2993 	 -3.87677 	 24.3499 	 
C 	 -50.2935 	 -4.89513 	 24.1544 	 
H 	 -49.9146 	 -5.85999 	 24.5587 	 
H 	 -50.9515 	 -5.23265 	 23.4149 	 
C 	 -50.9884 	 -4.18376 	 25.2724 	 
H 	 -51.6534 	 -4.88595 	 25.6762 	 
H 	 -51.61 	 -3.39347 	 24.7939 	 
H 	 -50.3256 	 -3.81152 	 26.0628 	 
H 	 -49.8001 	 -0.0308535 	 18.9736 	 
H 	 -46.3375 	 -7.0217 	 21.2042 	 
*
