! wB97X-D3 SP def2-SVP
%pal
nprocs 24
end

* xyz 0 1
S 	 -109.174 	 35.8434 	 -17.2636 	 
C 	 -109.12 	 34.6081 	 -16.0466 	 
C 	 -108.165 	 33.6693 	 -16.3576 	 
C 	 -107.659 	 33.9377 	 -17.6926 	 
C 	 -108.106 	 35.051 	 -18.3556 	 
H 	 -106.775 	 33.4828 	 -18.1234 	 
C 	 -107.674 	 32.4839 	 -15.4962 	 
H 	 -108.32 	 32.333 	 -14.6875 	 
H 	 -106.67 	 32.7818 	 -15.1511 	 
C 	 -107.604 	 31.2097 	 -16.3094 	 
H 	 -108.641 	 30.9546 	 -16.6803 	 
H 	 -106.82 	 31.3186 	 -17.058 	 
C 	 -107.24 	 30.0228 	 -15.4914 	 
H 	 -107.197 	 29.2321 	 -16.1618 	 
H 	 -106.281 	 30.2057 	 -14.9889 	 
H 	 -107.987 	 29.8876 	 -14.7123 	 
S 	 -107.328 	 37.3181 	 -19.8376 	 
C 	 -106.495 	 37.0372 	 -21.2998 	 
C 	 -106.642 	 35.737 	 -21.6852 	 
C 	 -107.297 	 34.878 	 -20.7426 	 
C 	 -107.636 	 35.5792 	 -19.599 	 
H 	 -106.255 	 35.5299 	 -22.6591 	 
C 	 -107.45 	 33.4015 	 -20.963 	 
H 	 -108.111 	 33.3619 	 -21.8399 	 
H 	 -108.009 	 32.9519 	 -20.1452 	 
C 	 -106.149 	 32.6884 	 -21.3258 	 
H 	 -105.544 	 32.813 	 -20.3786 	 
H 	 -105.521 	 33.2216 	 -22.0413 	 
C 	 -106.207 	 31.1087 	 -21.4948 	 
H 	 -105.237 	 30.6202 	 -21.6379 	 
H 	 -106.7 	 30.9352 	 -22.3914 	 
H 	 -106.728 	 30.6236 	 -20.6249 	 
H 	 -109.619 	 34.5251 	 -15.1372 	 
H 	 -106.259 	 37.834 	 -22.0283 	 
*
