! wB97X-D3 SP def2-SVP
%pal
nprocs 24
end

* xyz 0 1
S 	 -123.551 	 33.08 	 -112.359 	 
C 	 -123.42 	 31.4539 	 -112.819 	 
C 	 -122.879 	 30.6191 	 -111.874 	 
C 	 -122.551 	 31.3726 	 -110.714 	 
C 	 -122.864 	 32.7279 	 -110.736 	 
H 	 -122.137 	 31.0329 	 -109.774 	 
C 	 -122.601 	 29.1323 	 -112.056 	 
H 	 -121.792 	 28.7673 	 -111.405 	 
H 	 -122.301 	 28.9536 	 -113.149 	 
C 	 -123.9 	 28.2348 	 -111.865 	 
H 	 -124.486 	 28.5524 	 -111.029 	 
H 	 -124.522 	 28.4792 	 -112.734 	 
C 	 -123.569 	 26.7297 	 -111.834 	 
H 	 -122.95 	 26.4221 	 -112.721 	 
H 	 -123.093 	 26.4638 	 -110.854 	 
H 	 -124.557 	 26.2015 	 -111.922 	 
S 	 -121.225 	 34.3582 	 -109.329 	 
C 	 -121.944 	 35.3652 	 -108.109 	 
C 	 -123.281 	 35.5095 	 -108.408 	 
C 	 -123.777 	 34.3903 	 -109.089 	 
C 	 -122.749 	 33.6408 	 -109.652 	 
H 	 -123.883 	 36.1958 	 -107.909 	 
C 	 -125.229 	 34.2271 	 -109.463 	 
H 	 -125.435 	 33.3257 	 -110.012 	 
H 	 -125.505 	 34.8913 	 -110.232 	 
C 	 -126.232 	 34.324 	 -108.3 	 
H 	 -126.141 	 35.3011 	 -107.861 	 
H 	 -125.944 	 33.5822 	 -107.534 	 
C 	 -127.671 	 34.0932 	 -108.539 	 
H 	 -128.107 	 34.7609 	 -109.274 	 
H 	 -128.332 	 34.2112 	 -107.726 	 
H 	 -127.69 	 33.099 	 -108.889 	 
H 	 -123.746 	 30.9507 	 -113.726 	 
H 	 -121.504 	 36.1699 	 -107.536 	 
*
