! wB97X-D3 SP def2-SVP
%pal
nprocs 24
end

* xyz 0 1
S 	 -74.7888 	 -4.97903 	 5.57603 	 
C 	 -73.6542 	 -3.6885 	 5.06058 	 
C 	 -73.5905 	 -3.64705 	 3.67721 	 
C 	 -74.3413 	 -4.72152 	 3.03013 	 
C 	 -75.0685 	 -5.54842 	 3.903 	 
H 	 -74.4054 	 -5.07207 	 1.99006 	 
C 	 -72.7777 	 -2.60465 	 2.85991 	 
H 	 -72.3518 	 -1.82048 	 3.45242 	 
H 	 -73.4069 	 -2.18418 	 2.01687 	 
C 	 -71.5528 	 -3.17886 	 2.21421 	 
H 	 -70.9424 	 -2.4256 	 1.8011 	 
H 	 -70.7986 	 -3.58319 	 2.92923 	 
C 	 -71.8663 	 -4.2447 	 1.13637 	 
H 	 -71.0258 	 -4.3954 	 0.43336 	 
H 	 -72.0536 	 -5.27696 	 1.56376 	 
H 	 -72.7735 	 -4.06953 	 0.556265 	 
S 	 -77.4262 	 -5.96959 	 2.66615 	 
C 	 -78.1552 	 -7.58236 	 2.81905 	 
C 	 -77.3186 	 -8.47697 	 3.51757 	 
C 	 -76.1375 	 -7.85245 	 4.0024 	 
C 	 -76.0624 	 -6.56359 	 3.58938 	 
H 	 -77.6568 	 -9.4784 	 3.66192 	 
C 	 -75.0889 	 -8.56418 	 4.84728 	 
H 	 -75.6324 	 -9.179 	 5.56333 	 
H 	 -74.477 	 -7.87818 	 5.40723 	 
C 	 -74.1367 	 -9.39104 	 3.94657 	 
H 	 -73.7788 	 -8.82963 	 3.08075 	 
H 	 -74.7337 	 -10.129 	 3.42401 	 
C 	 -72.941 	 -9.94924 	 4.79442 	 
H 	 -73.164 	 -10.8393 	 5.3452 	 
H 	 -72.7716 	 -9.17786 	 5.57705 	 
H 	 -71.9549 	 -9.99984 	 4.31062 	 
H 	 -72.9409 	 -3.14872 	 5.71979 	 
H 	 -79.098 	 -7.91811 	 2.44407 	 
*
