! wB97X-D3 SP def2-SVP
%pal
nprocs 24
end

* xyz 0 1
S 	 -139.785 	 13.1824 	 0.605419 	 
C 	 -141.024 	 11.9983 	 0.398549 	 
C 	 -140.573 	 10.7106 	 0.584638 	 
C 	 -139.16 	 10.6947 	 0.76198 	 
C 	 -138.541 	 11.9661 	 0.757575 	 
H 	 -138.59 	 9.85252 	 0.90976 	 
C 	 -141.398 	 9.42052 	 0.68698 	 
H 	 -142.398 	 9.59472 	 0.232718 	 
H 	 -141.67 	 9.42366 	 1.789 	 
C 	 -140.75 	 8.15205 	 0.265853 	 
H 	 -140.162 	 8.35703 	 -0.677962 	 
H 	 -139.944 	 7.93561 	 0.966617 	 
C 	 -141.632 	 6.89061 	 0.278857 	 
H 	 -140.99 	 6.06326 	 -0.0755327 	 
H 	 -141.895 	 6.61122 	 1.24256 	 
H 	 -142.503 	 6.88491 	 -0.370978 	 
S 	 -136.531 	 13.8152 	 0.348204 	 
C 	 -134.918 	 13.5407 	 0.768073 	 
C 	 -134.846 	 12.4608 	 1.61379 	 
C 	 -136.124 	 11.7751 	 1.7816 	 
C 	 -137.124 	 12.3452 	 1.03945 	 
H 	 -134.014 	 12.1815 	 2.1854 	 
C 	 -136.237 	 10.5025 	 2.69434 	 
H 	 -137.209 	 10.1053 	 2.74666 	 
H 	 -135.858 	 10.8306 	 3.66728 	 
C 	 -135.349 	 9.3191 	 2.25497 	 
H 	 -134.381 	 9.70728 	 2.07826 	 
H 	 -135.677 	 9.01844 	 1.24425 	 
C 	 -135.412 	 8.20519 	 3.29642 	 
H 	 -134.753 	 8.31961 	 4.12942 	 
H 	 -135.144 	 7.23722 	 2.81555 	 
H 	 -136.407 	 8.00264 	 3.57089 	 
H 	 -142.057 	 12.1451 	 0.241747 	 
H 	 -134.191 	 14.3675 	 0.553276 	 
*
