! wB97X-D3 SP def2-SVP
%pal
nprocs 24
end

* xyz 0 1
S 	 -72.7658 	 4.94975 	 -103.063 	 
C 	 -73.7043 	 6.26671 	 -102.613 	 
C 	 -74.9636 	 6.00475 	 -103.013 	 
C 	 -75.0809 	 4.91624 	 -103.954 	 
C 	 -73.8835 	 4.30985 	 -104.204 	 
H 	 -76.0728 	 4.53963 	 -104.253 	 
C 	 -76.1141 	 6.83419 	 -102.654 	 
H 	 -75.7417 	 7.77766 	 -102.122 	 
H 	 -76.5975 	 6.26866 	 -101.875 	 
C 	 -77.1648 	 7.36052 	 -103.729 	 
H 	 -77.477 	 6.45762 	 -104.262 	 
H 	 -78.0184 	 7.66946 	 -103.063 	 
C 	 -76.659 	 8.29889 	 -104.789 	 
H 	 -76.6386 	 9.33205 	 -104.442 	 
H 	 -75.6229 	 8.16782 	 -105.065 	 
H 	 -77.3475 	 8.16164 	 -105.63 	 
S 	 -74.3208 	 1.62091 	 -104.469 	 
C 	 -73.7434 	 0.814241 	 -105.891 	 
C 	 -73.0488 	 1.66687 	 -106.721 	 
C 	 -72.9629 	 3.02576 	 -106.207 	 
C 	 -73.7263 	 3.15732 	 -105.082 	 
H 	 -72.681 	 1.2126 	 -107.625 	 
C 	 -72.2387 	 4.07388 	 -107.143 	 
H 	 -71.2616 	 3.89551 	 -107.054 	 
H 	 -72.2889 	 5.0876 	 -106.713 	 
C 	 -72.7445 	 4.1554 	 -108.549 	 
H 	 -73.8142 	 4.20838 	 -108.549 	 
H 	 -72.5577 	 3.24971 	 -109.057 	 
C 	 -72.2504 	 5.43075 	 -109.238 	 
H 	 -72.8683 	 6.3077 	 -108.955 	 
H 	 -72.3957 	 5.35962 	 -110.267 	 
H 	 -71.1967 	 5.72847 	 -109.163 	 
H 	 -73.4661 	 7.11201 	 -102.001 	 
H 	 -73.8458 	 -0.201588 	 -106.236 	 
*
