! wB97X-D3 SP def2-SVP
%pal
nprocs 24
end

* xyz 0 1
S 	 -98.71 	 -26.9267 	 -64.9547 	 
C 	 -99.1293 	 -25.2841 	 -64.5805 	 
C 	 -98.0029 	 -24.5414 	 -64.3341 	 
C 	 -96.8609 	 -25.3593 	 -64.1871 	 
C 	 -97.0417 	 -26.7085 	 -64.4325 	 
H 	 -95.8723 	 -24.9256 	 -63.9209 	 
C 	 -97.9102 	 -23.0943 	 -64.0621 	 
H 	 -97.2002 	 -22.7433 	 -64.8113 	 
H 	 -97.4361 	 -23.0765 	 -63.0979 	 
C 	 -99.2144 	 -22.2314 	 -63.9494 	 
H 	 -99.9485 	 -22.7311 	 -63.2662 	 
H 	 -98.8716 	 -21.3102 	 -63.3949 	 
C 	 -99.8761 	 -21.6986 	 -65.1738 	 
H 	 -100.915 	 -21.3977 	 -65.0994 	 
H 	 -99.3615 	 -20.8625 	 -65.6559 	 
H 	 -99.8794 	 -22.5011 	 -65.8944 	 
S 	 -96.3547 	 -29.2158 	 -63.482 	 
C 	 -94.7617 	 -29.7745 	 -63.7442 	 
C 	 -94.1163 	 -29.0467 	 -64.6581 	 
C 	 -94.8352 	 -27.8897 	 -65.1234 	 
C 	 -96.0469 	 -27.7561 	 -64.4703 	 
H 	 -93.1965 	 -29.5112 	 -64.989 	 
C 	 -94.3744 	 -26.8487 	 -66.1744 	 
H 	 -95.152 	 -26.0938 	 -66.2082 	 
H 	 -94.4687 	 -27.2965 	 -67.1606 	 
C 	 -93.0127 	 -26.2933 	 -65.9904 	 
H 	 -92.2662 	 -27.0564 	 -66.0496 	 
H 	 -93.0073 	 -25.9138 	 -64.9429 	 
C 	 -92.5886 	 -25.3845 	 -67.1705 	 
H 	 -92.7689 	 -25.969 	 -68.0873 	 
H 	 -91.5274 	 -25.1834 	 -67.1681 	 
H 	 -93.1396 	 -24.441 	 -67.1734 	 
H 	 -100.067 	 -24.7477 	 -64.7552 	 
H 	 -94.3187 	 -30.6654 	 -63.3888 	 
*
