! wB97X-D3 SP def2-SVP
%pal
nprocs 24
end

* xyz 0 1
S 	 22.173 	 0.863438 	 -109.996 	 
C 	 21.4249 	 0.624501 	 -111.582 	 
C 	 22.3761 	 0.73591 	 -112.571 	 
C 	 23.6106 	 1.19986 	 -112.041 	 
C 	 23.6718 	 1.46964 	 -110.689 	 
H 	 24.4805 	 1.27281 	 -112.62 	 
C 	 22.1579 	 0.278028 	 -114.013 	 
H 	 21.2528 	 -0.248962 	 -114.22 	 
H 	 22.9899 	 -0.433503 	 -114.303 	 
C 	 22.1535 	 1.43835 	 -114.956 	 
H 	 21.1938 	 1.96281 	 -114.671 	 
H 	 22.9499 	 2.14506 	 -114.661 	 
C 	 22.393 	 1.20642 	 -116.445 	 
H 	 22.399 	 2.09112 	 -117.013 	 
H 	 23.3022 	 0.730481 	 -116.653 	 
H 	 21.6138 	 0.635646 	 -116.752 	 
S 	 25.559 	 0.469264 	 -108.995 	 
C 	 26.9728 	 1.42502 	 -108.601 	 
C 	 26.8596 	 2.65807 	 -109.153 	 
C 	 25.6699 	 2.87255 	 -109.895 	 
C 	 24.8524 	 1.7288 	 -109.919 	 
H 	 27.6376 	 3.35139 	 -108.948 	 
C 	 25.5048 	 4.09898 	 -110.743 	 
H 	 24.9432 	 3.89327 	 -111.627 	 
H 	 26.5318 	 4.35354 	 -111.202 	 
C 	 24.9111 	 5.23348 	 -109.91 	 
H 	 25.5701 	 5.60203 	 -109.216 	 
H 	 24.0534 	 4.89307 	 -109.448 	 
C 	 24.4257 	 6.33738 	 -110.899 	 
H 	 25.2026 	 7.04618 	 -111.238 	 
H 	 23.6123 	 7.0568 	 -110.473 	 
H 	 23.9993 	 5.96112 	 -111.87 	 
H 	 20.4105 	 0.313087 	 -111.782 	 
H 	 27.8541 	 1.14614 	 -107.984 	 
*
