! wB97X-D3 SP def2-SVP
%pal
nprocs 24
end

* xyz 0 1
S 	 -78.2212 	 -0.613396 	 -58.8772 	 
C 	 -79.9346 	 -0.22586 	 -58.614 	 
C 	 -80.7914 	 -1.28094 	 -58.8941 	 
C 	 -79.9858 	 -2.46455 	 -59.1937 	 
C 	 -78.6089 	 -2.24868 	 -59.154 	 
H 	 -80.3737 	 -3.34097 	 -59.456 	 
C 	 -82.3069 	 -1.20212 	 -58.813 	 
H 	 -82.7308 	 -1.52061 	 -59.7912 	 
H 	 -82.496 	 -0.0941367 	 -58.8469 	 
C 	 -82.9378 	 -1.94392 	 -57.5878 	 
H 	 -82.8729 	 -3.04938 	 -57.664 	 
H 	 -82.3577 	 -1.74265 	 -56.6616 	 
C 	 -84.3908 	 -1.64522 	 -57.2828 	 
H 	 -85.0339 	 -1.8073 	 -58.1417 	 
H 	 -84.8609 	 -2.08535 	 -56.3757 	 
H 	 -84.6059 	 -0.572243 	 -57.029 	 
S 	 -76.4545 	 -3.28254 	 -60.6949 	 
C 	 -75.7429 	 -4.76874 	 -60.1629 	 
C 	 -76.288 	 -5.22468 	 -58.945 	 
C 	 -77.2615 	 -4.33557 	 -58.4121 	 
C 	 -77.5322 	 -3.24535 	 -59.2321 	 
H 	 -76.0924 	 -6.15432 	 -58.4031 	 
C 	 -77.9872 	 -4.7659 	 -57.154 	 
H 	 -78.0031 	 -5.82786 	 -56.9993 	 
H 	 -79.0492 	 -4.41612 	 -57.1597 	 
C 	 -77.382 	 -4.27497 	 -55.8442 	 
H 	 -76.3082 	 -4.5549 	 -55.8308 	 
H 	 -77.6883 	 -4.91375 	 -55.0201 	 
C 	 -77.4862 	 -2.81254 	 -55.5191 	 
H 	 -78.5198 	 -2.69787 	 -55.27 	 
H 	 -77.2442 	 -2.15261 	 -56.3609 	 
H 	 -76.8102 	 -2.54109 	 -54.6766 	 
H 	 -80.1991 	 0.777219 	 -58.4426 	 
H 	 -74.974 	 -5.23081 	 -60.7691 	 
*
