! wB97X-D3 SP def2-SVP
%pal
nprocs 24
end

* xyz 0 1
S 	 -105.145 	 53.3189 	 -13.5117 	 
C 	 -104.752 	 54.5787 	 -14.6725 	 
C 	 -103.356 	 54.5241 	 -14.9845 	 
C 	 -102.707 	 53.3891 	 -14.3617 	 
C 	 -103.555 	 52.606 	 -13.5972 	 
H 	 -101.659 	 53.1862 	 -14.5153 	 
C 	 -102.546 	 55.5148 	 -15.7946 	 
H 	 -101.92 	 56.2266 	 -15.183 	 
H 	 -103.221 	 56.212 	 -16.3045 	 
C 	 -101.599 	 55.0372 	 -16.8852 	 
H 	 -101.015 	 54.2042 	 -16.5072 	 
H 	 -102.119 	 54.685 	 -17.7594 	 
C 	 -100.598 	 56.0861 	 -17.4406 	 
H 	 -99.9587 	 55.6316 	 -18.1119 	 
H 	 -101.02 	 57.0077 	 -17.8005 	 
H 	 -99.9446 	 56.2943 	 -16.6132 	 
S 	 -104.385 	 50.075 	 -13.1142 	 
C 	 -103.305 	 48.8827 	 -12.5668 	 
C 	 -102.246 	 49.4655 	 -11.9978 	 
C 	 -102.169 	 50.8355 	 -12.1894 	 
C 	 -103.192 	 51.3218 	 -12.9687 	 
H 	 -101.514 	 48.8473 	 -11.5279 	 
C 	 -101.082 	 51.6665 	 -11.594 	 
H 	 -101.034 	 52.6526 	 -12.0777 	 
H 	 -100.121 	 51.0871 	 -11.7968 	 
C 	 -101.321 	 51.8355 	 -10.0436 	 
H 	 -100.501 	 52.3772 	 -9.57404 	 
H 	 -101.129 	 50.8539 	 -9.60488 	 
C 	 -102.604 	 52.4537 	 -9.579 	 
H 	 -102.627 	 52.7578 	 -8.51583 	 
H 	 -103.36 	 51.676 	 -9.60326 	 
H 	 -102.951 	 53.272 	 -10.1444 	 
H 	 -105.44 	 55.3752 	 -14.9338 	 
H 	 -103.519 	 47.8494 	 -12.6839 	 
*
