! wB97X-D3 SP def2-SVP
%pal
nprocs 24
end

* xyz 0 1
S 	 -59.3933 	 15.008 	 -90.5902 	 
C 	 -58.0424 	 16.0027 	 -90.0822 	 
C 	 -56.8828 	 15.4335 	 -90.4329 	 
C 	 -57.0294 	 14.2155 	 -91.2012 	 
C 	 -58.3493 	 13.6967 	 -91.1126 	 
H 	 -56.2859 	 13.6179 	 -91.7325 	 
C 	 -55.5156 	 16.0529 	 -90.1746 	 
H 	 -54.7897 	 15.2716 	 -89.9153 	 
H 	 -55.601 	 16.7226 	 -89.2437 	 
C 	 -54.8507 	 16.8376 	 -91.3327 	 
H 	 -55.579 	 17.6287 	 -91.4789 	 
H 	 -53.9243 	 17.3027 	 -90.9516 	 
C 	 -54.5416 	 16.0223 	 -92.5943 	 
H 	 -55.3612 	 15.4767 	 -93.0213 	 
H 	 -54.0632 	 16.5511 	 -93.42 	 
H 	 -53.7846 	 15.348 	 -92.2191 	 
S 	 -59.924 	 12.552 	 -92.9366 	 
C 	 -60.0714 	 10.7611 	 -93.0616 	 
C 	 -59.0992 	 10.1801 	 -92.2102 	 
C 	 -58.4054 	 11.1806 	 -91.4004 	 
C 	 -58.8972 	 12.4405 	 -91.5738 	 
H 	 -58.902 	 9.15277 	 -92.084 	 
C 	 -57.206 	 10.8493 	 -90.5416 	 
H 	 -57.4214 	 10.1289 	 -89.7862 	 
H 	 -57.0485 	 11.6644 	 -89.8538 	 
C 	 -55.911 	 10.4941 	 -91.3081 	 
H 	 -55.5893 	 11.398 	 -91.8287 	 
H 	 -56.0265 	 9.69095 	 -92.0168 	 
C 	 -54.7602 	 10.1722 	 -90.348 	 
H 	 -54.836 	 9.14331 	 -89.9734 	 
H 	 -54.6754 	 10.9234 	 -89.5112 	 
H 	 -53.8343 	 10.2633 	 -90.8267 	 
H 	 -58.1776 	 16.9072 	 -89.5402 	 
H 	 -60.5798 	 10.2142 	 -93.8956 	 
*
