! wB97X-D3 SP def2-SVP
%pal
nprocs 24
end

* xyz 0 1
S 	 -66.0271 	 -56.9782 	 -83.1101 	 
C 	 -67.452 	 -57.7649 	 -83.7723 	 
C 	 -68.5878 	 -57.4023 	 -83.0634 	 
C 	 -68.3431 	 -56.6298 	 -81.9166 	 
C 	 -67.0019 	 -56.2804 	 -81.7981 	 
H 	 -69.1244 	 -56.2021 	 -81.2803 	 
C 	 -69.9718 	 -57.7317 	 -83.5527 	 
H 	 -70.4952 	 -58.258 	 -82.7678 	 
H 	 -69.7766 	 -58.4554 	 -84.3268 	 
C 	 -70.7748 	 -56.578 	 -84.2483 	 
H 	 -71.2199 	 -55.8861 	 -83.5505 	 
H 	 -70.0473 	 -55.9321 	 -84.7683 	 
C 	 -71.9424 	 -57.0953 	 -85.1581 	 
H 	 -72.6515 	 -57.6816 	 -84.528 	 
H 	 -72.4917 	 -56.304 	 -85.6731 	 
H 	 -71.5222 	 -57.7781 	 -85.9717 	 
S 	 -65.9654 	 -53.8796 	 -81.208 	 
C 	 -65.5271 	 -53.4433 	 -79.532 	 
C 	 -65.7158 	 -54.5328 	 -78.7178 	 
C 	 -66.2374 	 -55.6936 	 -79.3882 	 
C 	 -66.3646 	 -55.4654 	 -80.773 	 
H 	 -65.3542 	 -54.5194 	 -77.6998 	 
C 	 -66.286 	 -57.1214 	 -78.797 	 
H 	 -65.971 	 -57.8614 	 -79.5582 	 
H 	 -67.3576 	 -57.2583 	 -78.6158 	 
C 	 -65.4228 	 -57.3579 	 -77.5954 	 
H 	 -65.7407 	 -56.7903 	 -76.6994 	 
H 	 -64.4391 	 -56.9273 	 -77.8381 	 
C 	 -65.4704 	 -58.9366 	 -77.2227 	 
H 	 -65.5885 	 -59.6296 	 -78.0965 	 
H 	 -66.2411 	 -59.1043 	 -76.3479 	 
H 	 -64.4965 	 -59.1485 	 -76.8724 	 
H 	 -67.3716 	 -58.4023 	 -84.5838 	 
H 	 -65.0438 	 -52.5768 	 -79.1967 	 
*
