! wB97X-D3 SP def2-SVP
%pal
nprocs 24
end

* xyz 0 1
S 	 -109.619 	 62.4183 	 -70.2488 	 
C 	 -109.524 	 64.1538 	 -70.2354 	 
C 	 -110.701 	 64.8282 	 -70.5525 	 
C 	 -111.709 	 63.8758 	 -70.8425 	 
C 	 -111.344 	 62.5386 	 -70.7887 	 
H 	 -112.761 	 64.1778 	 -71.0995 	 
C 	 -110.876 	 66.3231 	 -70.6933 	 
H 	 -110.78 	 66.5748 	 -69.615 	 
H 	 -111.913 	 66.4524 	 -70.8637 	 
C 	 -109.852 	 67.1446 	 -71.493 	 
H 	 -110.26 	 68.104 	 -71.3543 	 
H 	 -108.861 	 67.2146 	 -71.074 	 
C 	 -109.701 	 66.7978 	 -73.0064 	 
H 	 -108.657 	 66.3987 	 -73.1041 	 
H 	 -110.443 	 66.0306 	 -73.3462 	 
H 	 -109.762 	 67.6965 	 -73.6673 	 
S 	 -112.416 	 60.429 	 -69.284 	 
C 	 -113.898 	 59.7652 	 -69.864 	 
C 	 -114.308 	 60.2982 	 -71.0809 	 
C 	 -113.378 	 61.1958 	 -71.5651 	 
C 	 -112.276 	 61.3783 	 -70.766 	 
H 	 -115.262 	 60.0005 	 -71.4373 	 
C 	 -113.621 	 61.7634 	 -72.8876 	 
H 	 -113.607 	 62.7923 	 -72.8001 	 
H 	 -114.678 	 61.6111 	 -73.1095 	 
C 	 -112.659 	 61.4456 	 -74.0447 	 
H 	 -111.658 	 61.5617 	 -73.624 	 
H 	 -112.789 	 62.2567 	 -74.829 	 
C 	 -112.867 	 60.0921 	 -74.6784 	 
H 	 -112.226 	 59.9741 	 -75.5957 	 
H 	 -113.893 	 59.9353 	 -74.9285 	 
H 	 -112.59 	 59.4044 	 -73.9566 	 
H 	 -108.558 	 64.6436 	 -70.0194 	 
H 	 -114.591 	 59.1439 	 -69.3255 	 
*
