! wB97X-D3 SP def2-SVP
%pal
nprocs 24
end

* xyz 0 1
S 	 -3.43097 	 -26.9987 	 -117.008 	 
C 	 -3.07343 	 -25.997 	 -118.426 	 
C 	 -2.0142 	 -25.1022 	 -118.179 	 
C 	 -1.45314 	 -25.2721 	 -116.886 	 
C 	 -1.95374 	 -26.3709 	 -116.258 	 
H 	 -0.645027 	 -24.6911 	 -116.529 	 
C 	 -1.50417 	 -24.1393 	 -119.215 	 
H 	 -1.83745 	 -24.3049 	 -120.23 	 
H 	 -0.457604 	 -24.3361 	 -119.262 	 
C 	 -1.80011 	 -22.6725 	 -118.843 	 
H 	 -1.34271 	 -22.3291 	 -117.943 	 
H 	 -1.33824 	 -22.0667 	 -119.572 	 
C 	 -3.22067 	 -22.2411 	 -118.603 	 
H 	 -3.17324 	 -21.2072 	 -118.197 	 
H 	 -3.90455 	 -22.3373 	 -119.514 	 
H 	 -3.5681 	 -22.8797 	 -117.798 	 
S 	 0.106983 	 -27.3022 	 -114.496 	 
C 	 -0.23381 	 -27.6345 	 -112.806 	 
C 	 -1.55489 	 -27.1977 	 -112.59 	 
C 	 -2.30788 	 -26.6618 	 -113.686 	 
C 	 -1.54363 	 -26.6974 	 -114.857 	 
H 	 -1.9429 	 -27.1257 	 -111.566 	 
C 	 -3.79179 	 -26.2788 	 -113.608 	 
H 	 -4.16478 	 -26.0583 	 -114.583 	 
H 	 -3.82532 	 -25.3354 	 -113.026 	 
C 	 -4.74116 	 -27.3089 	 -113.055 	 
H 	 -4.58136 	 -27.258 	 -111.962 	 
H 	 -4.52345 	 -28.3636 	 -113.359 	 
C 	 -6.25801 	 -27.0449 	 -113.419 	 
H 	 -6.33264 	 -26.9776 	 -114.482 	 
H 	 -6.59355 	 -26.1693 	 -113.023 	 
H 	 -6.87594 	 -27.8442 	 -113.116 	 
H 	 -3.60536 	 -26.0828 	 -119.423 	 
H 	 0.554149 	 -28.018 	 -112.167 	 
*
