! wB97X-D3 SP def2-SVP
%pal
nprocs 24
end

* xyz 0 1
S 	 -3.5535 	 -21.5632 	 -105.501 	 
C 	 -3.18692 	 -23.2581 	 -105.461 	 
C 	 -4.27581 	 -24.0012 	 -104.967 	 
C 	 -5.43326 	 -23.184 	 -104.642 	 
C 	 -5.20595 	 -21.8172 	 -104.853 	 
H 	 -6.39743 	 -23.5744 	 -104.367 	 
C 	 -4.35484 	 -25.5447 	 -104.672 	 
H 	 -4.86312 	 -26.0204 	 -105.496 	 
H 	 -4.96345 	 -25.729 	 -103.767 	 
C 	 -2.9493 	 -26.2661 	 -104.476 	 
H 	 -2.45866 	 -26.0345 	 -105.428 	 
H 	 -2.46233 	 -25.8116 	 -103.592 	 
C 	 -2.98525 	 -27.7941 	 -104.239 	 
H 	 -3.50708 	 -28.3192 	 -105.053 	 
H 	 -1.98986 	 -28.1963 	 -104.195 	 
H 	 -3.50162 	 -28.1922 	 -103.373 	 
S 	 -6.20334 	 -19.7051 	 -106.144 	 
C 	 -7.55788 	 -18.7934 	 -105.617 	 
C 	 -8.01436 	 -19.3334 	 -104.45 	 
C 	 -7.18371 	 -20.3207 	 -103.848 	 
C 	 -6.19021 	 -20.7469 	 -104.77 	 
H 	 -8.86545 	 -18.7815 	 -103.977 	 
C 	 -7.48269 	 -20.8413 	 -102.473 	 
H 	 -7.96632 	 -21.8597 	 -102.516 	 
H 	 -8.33782 	 -20.3044 	 -102.055 	 
C 	 -6.32786 	 -20.6616 	 -101.487 	 
H 	 -5.45197 	 -21.174 	 -101.86 	 
H 	 -6.58569 	 -21.2846 	 -100.519 	 
C 	 -5.91123 	 -19.1603 	 -101.335 	 
H 	 -5.28885 	 -18.967 	 -100.489 	 
H 	 -6.7865 	 -18.5497 	 -101.241 	 
H 	 -5.33304 	 -18.778 	 -102.134 	 
H 	 -2.27732 	 -23.7088 	 -105.714 	 
H 	 -7.93935 	 -18.0559 	 -106.261 	 
*
