! wB97X-D3 SP def2-SVP
%pal
nprocs 24
end

* xyz 0 1
S 	 -94.4445 	 13.9218 	 -116.038 	 
C 	 -92.7952 	 13.2436 	 -115.938 	 
C 	 -92.221 	 13.0605 	 -117.183 	 
C 	 -93.1501 	 13.3104 	 -118.257 	 
C 	 -94.3105 	 13.8912 	 -117.83 	 
H 	 -93.018 	 13.178 	 -119.353 	 
C 	 -90.8599 	 12.6052 	 -117.604 	 
H 	 -90.2445 	 13.1953 	 -117.03 	 
H 	 -90.7398 	 12.8568 	 -118.65 	 
C 	 -90.5287 	 11.0825 	 -117.389 	 
H 	 -89.5114 	 10.8333 	 -117.781 	 
H 	 -90.4722 	 10.842 	 -116.318 	 
C 	 -91.633 	 10.1431 	 -117.921 	 
H 	 -91.3075 	 9.09615 	 -117.905 	 
H 	 -92.6618 	 10.127 	 -117.467 	 
H 	 -91.6452 	 10.1851 	 -118.996 	 
S 	 -96.9267 	 13.8047 	 -118.438 	 
C 	 -97.618 	 14.6134 	 -119.847 	 
C 	 -96.63 	 15.2852 	 -120.507 	 
C 	 -95.3444 	 15.121 	 -119.927 	 
C 	 -95.3193 	 14.3571 	 -118.774 	 
H 	 -96.8815 	 15.8456 	 -121.376 	 
C 	 -94.2039 	 16.0158 	 -120.49 	 
H 	 -94.3087 	 15.9998 	 -121.568 	 
H 	 -93.1926 	 15.5392 	 -120.315 	 
C 	 -94.2894 	 17.4296 	 -119.941 	 
H 	 -94.1855 	 17.4962 	 -118.864 	 
H 	 -95.359 	 17.7179 	 -120.168 	 
C 	 -93.1829 	 18.3311 	 -120.537 	 
H 	 -92.2447 	 18.2655 	 -119.976 	 
H 	 -93.5761 	 19.3026 	 -120.441 	 
H 	 -92.9858 	 18.0709 	 -121.551 	 
H 	 -92.2747 	 13.0143 	 -115.021 	 
H 	 -98.6207 	 14.4832 	 -120.193 	 
*
