! wB97X-D3 SP def2-SVP
%pal
nprocs 24
end

* xyz 0 1
S 	 39.8316 	 -25.1124 	 -121.481 	 
C 	 38.1443 	 -24.6089 	 -121.709 	 
C 	 37.5625 	 -25.6067 	 -122.538 	 
C 	 38.4139 	 -26.752 	 -122.758 	 
C 	 39.7168 	 -26.538 	 -122.379 	 
H 	 38.1687 	 -27.5884 	 -123.397 	 
C 	 36.1142 	 -25.6612 	 -122.769 	 
H 	 35.7711 	 -24.6666 	 -122.451 	 
H 	 35.7419 	 -26.4065 	 -122.09 	 
C 	 35.6181 	 -26.0762 	 -124.205 	 
H 	 35.8802 	 -27.0703 	 -124.582 	 
H 	 34.4657 	 -25.9834 	 -124.164 	 
C 	 36.0306 	 -25.0317 	 -125.23 	 
H 	 37.1002 	 -25.1124 	 -125.405 	 
H 	 35.3687 	 -25.1412 	 -126.069 	 
H 	 35.9002 	 -24.0242 	 -124.852 	 
S 	 41.9839 	 -26.6812 	 -123.877 	 
C 	 42.8793 	 -28.1873 	 -123.928 	 
C 	 42.395 	 -29.1053 	 -123.032 	 
C 	 41.1866 	 -28.71 	 -122.407 	 
C 	 40.8907 	 -27.3919 	 -122.727 	 
H 	 42.8578 	 -30.0349 	 -122.804 	 
C 	 40.4381 	 -29.566 	 -121.394 	 
H 	 40.0086 	 -28.7941 	 -120.72 	 
H 	 41.2451 	 -30.06 	 -120.825 	 
C 	 39.4278 	 -30.6215 	 -121.89 	 
H 	 38.8114 	 -30.0769 	 -122.627 	 
H 	 38.7396 	 -30.944 	 -121.091 	 
C 	 39.9672 	 -31.8145 	 -122.755 	 
H 	 40.9377 	 -31.5787 	 -123.215 	 
H 	 39.3014 	 -32.0884 	 -123.587 	 
H 	 40.0885 	 -32.7535 	 -122.22 	 
H 	 37.7509 	 -23.6551 	 -121.234 	 
H 	 43.7674 	 -28.2897 	 -124.452 	 
*
