! wB97X-D3 SP def2-SVP
%pal
nprocs 24
end

* xyz 0 1
S 	 -34.649 	 -7.11586 	 6.65015 	 
C 	 -35.318 	 -5.86202 	 7.63795 	 
C 	 -35.9368 	 -4.88532 	 6.92377 	 
C 	 -35.91 	 -5.18194 	 5.49752 	 
C 	 -35.1344 	 -6.27406 	 5.19365 	 
H 	 -36.3461 	 -4.58343 	 4.74646 	 
C 	 -36.7849 	 -3.78978 	 7.60636 	 
H 	 -36.5553 	 -3.57803 	 8.67876 	 
H 	 -37.7112 	 -4.26919 	 7.60724 	 
C 	 -37.0011 	 -2.53972 	 6.82102 	 
H 	 -37.404 	 -2.69025 	 5.85554 	 
H 	 -37.8394 	 -2.05287 	 7.36987 	 
C 	 -35.7477 	 -1.64904 	 6.65864 	 
H 	 -36.0119 	 -0.661301 	 6.35879 	 
H 	 -35.1953 	 -1.50987 	 7.59852 	 
H 	 -35.0265 	 -2.03893 	 5.90538 	 
S 	 -34.7036 	 -8.54996 	 3.71589 	 
C 	 -34.6116 	 -8.35467 	 1.9477 	 
C 	 -34.4869 	 -7.02771 	 1.60897 	 
C 	 -34.5038 	 -6.09704 	 2.71142 	 
C 	 -34.7188 	 -6.82533 	 3.90384 	 
H 	 -34.3517 	 -6.66327 	 0.562657 	 
C 	 -34.4537 	 -4.5759 	 2.49483 	 
H 	 -33.5311 	 -4.26944 	 2.00156 	 
H 	 -34.3964 	 -4.02753 	 3.42555 	 
C 	 -35.6485 	 -4.14226 	 1.59154 	 
H 	 -36.672 	 -4.46295 	 1.8361 	 
H 	 -35.4876 	 -4.48519 	 0.655267 	 
C 	 -35.6809 	 -2.58795 	 1.38269 	 
H 	 -34.7468 	 -2.15506 	 1.09591 	 
H 	 -35.9357 	 -2.21033 	 2.34053 	 
H 	 -36.469 	 -2.21139 	 0.756676 	 
H 	 -35.1568 	 -5.8955 	 8.70594 	 
H 	 -34.5103 	 -9.04457 	 1.13575 	 
*
