! wB97X-D3 SP def2-SVP
%pal
nprocs 24
end

* xyz 0 1
S 	 25.2955 	 -27.9328 	 -131.972 	 
C 	 24.5863 	 -26.4815 	 -132.593 	 
C 	 25.6168 	 -25.4861 	 -132.538 	 
C 	 26.8372 	 -25.9371 	 -131.934 	 
C 	 26.855 	 -27.2355 	 -131.573 	 
H 	 27.788 	 -25.3797 	 -131.814 	 
C 	 25.491 	 -24.0551 	 -133.088 	 
H 	 25.927 	 -24.0877 	 -134.106 	 
H 	 26.0692 	 -23.2907 	 -132.65 	 
C 	 24.0597 	 -23.5049 	 -133.016 	 
H 	 23.3346 	 -24.0518 	 -133.638 	 
H 	 23.6578 	 -23.4709 	 -132.018 	 
C 	 23.9692 	 -21.9903 	 -133.348 	 
H 	 23.6945 	 -21.7416 	 -134.352 	 
H 	 23.2354 	 -21.5098 	 -132.695 	 
H 	 24.8679 	 -21.4896 	 -133.16 	 
S 	 27.4611 	 -29.4326 	 -130.056 	 
C 	 29.1588 	 -29.7775 	 -129.798 	 
C 	 29.9564 	 -28.9967 	 -130.631 	 
C 	 29.2843 	 -28.049 	 -131.408 	 
C 	 27.931 	 -27.9953 	 -131.027 	 
H 	 31.0033 	 -29.396 	 -130.64 	 
C 	 29.9968 	 -27.3562 	 -132.556 	 
H 	 30.7527 	 -26.762 	 -131.994 	 
H 	 29.2966 	 -26.6921 	 -132.905 	 
C 	 30.6039 	 -28.2438 	 -133.669 	 
H 	 30.1862 	 -29.254 	 -133.828 	 
H 	 31.5684 	 -28.3016 	 -133.341 	 
C 	 30.7003 	 -27.6159 	 -135.069 	 
H 	 29.7005 	 -27.4154 	 -135.349 	 
H 	 31.1953 	 -28.2494 	 -135.752 	 
H 	 31.2337 	 -26.6542 	 -134.852 	 
H 	 23.5984 	 -26.2544 	 -132.936 	 
H 	 29.5101 	 -30.6843 	 -129.358 	 
*
