! wB97X-D3 SP def2-SVP
%pal
nprocs 24
end

* xyz 0 1
S 	 -105.521 	 53.9117 	 -13.3139 	 
C 	 -104.806 	 55.0727 	 -14.4472 	 
C 	 -104.378 	 54.3982 	 -15.6094 	 
C 	 -104.26 	 52.9769 	 -15.3375 	 
C 	 -104.74 	 52.556 	 -14.1084 	 
H 	 -103.862 	 52.2381 	 -15.9593 	 
C 	 -103.985 	 55.0411 	 -16.914 	 
H 	 -104.287 	 56.0788 	 -16.7923 	 
H 	 -104.521 	 54.5403 	 -17.7054 	 
C 	 -102.532 	 54.9965 	 -17.2259 	 
H 	 -101.948 	 55.2564 	 -16.3869 	 
H 	 -102.185 	 53.9941 	 -17.5025 	 
C 	 -102.128 	 55.8053 	 -18.3992 	 
H 	 -101.005 	 55.8077 	 -18.4232 	 
H 	 -102.551 	 55.3351 	 -19.2811 	 
H 	 -102.426 	 56.8635 	 -18.3343 	 
S 	 -106.388 	 50.4058 	 -13.9369 	 
C 	 -105.625 	 48.965 	 -13.3164 	 
C 	 -104.418 	 49.182 	 -12.6903 	 
C 	 -103.933 	 50.4907 	 -12.879 	 
C 	 -104.839 	 51.2017 	 -13.6357 	 
H 	 -103.919 	 48.4336 	 -12.1578 	 
C 	 -102.606 	 50.9017 	 -12.2725 	 
H 	 -102.34 	 51.9662 	 -12.6377 	 
H 	 -101.858 	 50.1713 	 -12.5936 	 
C 	 -102.552 	 50.782 	 -10.701 	 
H 	 -101.638 	 51.1496 	 -10.2614 	 
H 	 -102.58 	 49.7094 	 -10.4063 	 
C 	 -103.719 	 51.5417 	 -9.9849 	 
H 	 -103.594 	 51.3623 	 -8.89227 	 
H 	 -104.681 	 51.1541 	 -10.2084 	 
H 	 -103.888 	 52.6185 	 -10.1913 	 
H 	 -104.969 	 56.1686 	 -14.4111 	 
H 	 -106.133 	 48.0212 	 -13.1786 	 
*
