! wB97X-D3 SP def2-SVP
%pal
nprocs 24
end

* xyz 0 1
S 	 -106.318 	 58.7018 	 -92.2094 	 
C 	 -104.948 	 59.8086 	 -91.9094 	 
C 	 -104.287 	 59.8965 	 -93.0865 	 
C 	 -104.842 	 59.0643 	 -94.1527 	 
C 	 -105.927 	 58.3618 	 -93.8237 	 
H 	 -104.47 	 58.9074 	 -95.1823 	 
C 	 -103.151 	 60.8803 	 -93.406 	 
H 	 -103.03 	 60.7928 	 -94.5067 	 
H 	 -102.242 	 60.3989 	 -92.974 	 
C 	 -103.159 	 62.4115 	 -93.2179 	 
H 	 -103.875 	 62.7245 	 -94.0212 	 
H 	 -103.668 	 62.6679 	 -92.2234 	 
C 	 -101.822 	 62.9987 	 -93.3068 	 
H 	 -101.079 	 62.8355 	 -92.5384 	 
H 	 -101.424 	 62.8207 	 -94.2963 	 
H 	 -102.093 	 64.0441 	 -93.353 	 
S 	 -106.874 	 55.9088 	 -94.4434 	 
C 	 -108.25 	 55.7853 	 -95.5664 	 
C 	 -108.476 	 56.9531 	 -96.1534 	 
C 	 -107.832 	 58.0441 	 -95.5222 	 
C 	 -106.852 	 57.6546 	 -94.6513 	 
H 	 -109.165 	 57.102 	 -96.972 	 
C 	 -107.974 	 59.4392 	 -96.0552 	 
H 	 -107.446 	 60.1392 	 -95.4756 	 
H 	 -108.934 	 59.7577 	 -96.0135 	 
C 	 -107.633 	 59.7027 	 -97.5348 	 
H 	 -108.302 	 59.0064 	 -97.9807 	 
H 	 -106.612 	 59.3669 	 -97.7727 	 
C 	 -107.804 	 61.0813 	 -98.1506 	 
H 	 -108.882 	 61.4281 	 -98.1577 	 
H 	 -107.331 	 61.1607 	 -99.1764 	 
H 	 -107.194 	 61.8471 	 -97.7266 	 
H 	 -104.648 	 60.448 	 -91.0426 	 
H 	 -108.733 	 54.8373 	 -95.8709 	 
*
