! wB97X-D3 SP def2-SVP
%pal
nprocs 24
end

* xyz 0 1
S 	 -40.9026 	 6.69068 	 3.80498 	 
C 	 -39.9693 	 5.87787 	 2.59366 	 
C 	 -39.0746 	 4.98836 	 3.18472 	 
C 	 -39.0716 	 5.13298 	 4.60831 	 
C 	 -39.8929 	 6.12137 	 5.17919 	 
H 	 -38.4569 	 4.46799 	 5.20017 	 
C 	 -38.1916 	 3.8629 	 2.60091 	 
H 	 -37.2682 	 3.89795 	 3.20497 	 
H 	 -38.0307 	 4.21781 	 1.60958 	 
C 	 -38.9523 	 2.60796 	 2.56067 	 
H 	 -39.0163 	 2.33775 	 3.64346 	 
H 	 -39.9691 	 2.79537 	 2.28039 	 
C 	 -38.328 	 1.64313 	 1.51747 	 
H 	 -38.8633 	 0.762816 	 1.51601 	 
H 	 -38.3496 	 2.05169 	 0.568888 	 
H 	 -37.2463 	 1.48941 	 1.79387 	 
S 	 -38.828 	 7.3712 	 7.36094 	 
C 	 -39.8118 	 7.69101 	 8.64072 	 
C 	 -41.1573 	 7.45253 	 8.46035 	 
C 	 -41.3743 	 6.72673 	 7.245 	 
C 	 -40.1846 	 6.53583 	 6.55477 	 
H 	 -41.8339 	 7.66335 	 9.24039 	 
C 	 -42.7264 	 6.24834 	 6.78722 	 
H 	 -42.5061 	 5.97604 	 5.76209 	 
H 	 -43.478 	 7.06512 	 6.79995 	 
C 	 -43.2661 	 4.97067 	 7.49447 	 
H 	 -44.2121 	 4.7141 	 7.06298 	 
H 	 -43.6052 	 5.23056 	 8.48983 	 
C 	 -42.4375 	 3.67216 	 7.35193 	 
H 	 -42.345 	 3.24693 	 6.27024 	 
H 	 -42.8948 	 2.87314 	 7.94755 	 
H 	 -41.4218 	 3.91254 	 7.77189 	 
H 	 -40.242 	 5.76817 	 1.56275 	 
H 	 -39.4251 	 8.23497 	 9.47311 	 
*
