! wB97X-D3 SP def2-SVP
%pal
nprocs 24
end

* xyz 0 1
S 	 -94.1784 	 -34.0935 	 -67.5794 	 
C 	 -95.5272 	 -35.2041 	 -67.4421 	 
C 	 -96.4037 	 -34.768 	 -66.442 	 
C 	 -96.0544 	 -33.559 	 -65.8421 	 
C 	 -94.8947 	 -32.9852 	 -66.4485 	 
H 	 -96.3698 	 -33.0435 	 -64.9144 	 
C 	 -97.5631 	 -35.5525 	 -65.8893 	 
H 	 -97.481 	 -35.867 	 -64.8867 	 
H 	 -97.5032 	 -36.4871 	 -66.4081 	 
C 	 -98.9216 	 -34.9613 	 -66.0392 	 
H 	 -99.2747 	 -34.533 	 -66.981 	 
H 	 -99.6901 	 -35.6848 	 -65.8349 	 
C 	 -99.1116 	 -33.9366 	 -64.9674 	 
H 	 -100.122 	 -33.525 	 -64.8867 	 
H 	 -98.912 	 -34.3054 	 -63.9511 	 
H 	 -98.599 	 -33.0363 	 -65.1546 	 
S 	 -92.6427 	 -32.1903 	 -65.0256 	 
C 	 -92.4057 	 -30.5728 	 -64.6725 	 
C 	 -93.4336 	 -29.8273 	 -65.2542 	 
C 	 -94.4563 	 -30.52 	 -65.9422 	 
C 	 -94.1133 	 -31.8573 	 -66.0529 	 
H 	 -93.4771 	 -28.7885 	 -65.1515 	 
C 	 -95.6065 	 -29.8184 	 -66.7354 	 
H 	 -95.7302 	 -30.4775 	 -67.5972 	 
H 	 -95.3123 	 -28.8266 	 -67.0279 	 
C 	 -96.9271 	 -29.6859 	 -65.9436 	 
H 	 -96.8395 	 -28.8147 	 -65.3211 	 
H 	 -97.0265 	 -30.5843 	 -65.3695 	 
C 	 -98.1633 	 -29.4666 	 -66.8083 	 
H 	 -98.0794 	 -30.0662 	 -67.7131 	 
H 	 -98.0903 	 -28.4039 	 -67.1065 	 
H 	 -99.0461 	 -29.7267 	 -66.2605 	 
H 	 -95.5932 	 -36.2039 	 -67.8645 	 
H 	 -91.6534 	 -30.0948 	 -64.0758 	 
*
