! wB97X-D3 SP def2-SVP
%pal
nprocs 24
end

* xyz 0 1
S 	 -48.7688 	 19.5181 	 30.4007 	 
C 	 -47.7092 	 18.2407 	 30.7565 	 
C 	 -46.3822 	 18.575 	 30.8337 	 
C 	 -46.1973 	 19.9892 	 30.7621 	 
C 	 -47.354 	 20.739 	 30.6151 	 
H 	 -45.2077 	 20.394 	 30.9178 	 
C 	 -45.2505 	 17.6794 	 30.7475 	 
H 	 -45.6508 	 16.811 	 31.2553 	 
H 	 -44.3772 	 18.0467 	 31.279 	 
C 	 -44.8628 	 17.1159 	 29.3764 	 
H 	 -44.1741 	 16.2494 	 29.5039 	 
H 	 -45.8113 	 16.7022 	 28.9267 	 
C 	 -44.2955 	 18.0786 	 28.3689 	 
H 	 -44.3125 	 17.7451 	 27.3619 	 
H 	 -44.632 	 19.1607 	 28.371 	 
H 	 -43.2684 	 18.1774 	 28.6665 	 
S 	 -49.0623 	 22.7272 	 31.5168 	 
C 	 -48.5625 	 24.4036 	 31.3433 	 
C 	 -47.4414 	 24.5175 	 30.572 	 
C 	 -46.9299 	 23.2798 	 30.0752 	 
C 	 -47.6209 	 22.1799 	 30.6088 	 
H 	 -47.1692 	 25.5389 	 30.439 	 
C 	 -45.6055 	 23.2119 	 29.3533 	 
H 	 -45.4943 	 24.1015 	 28.7882 	 
H 	 -45.6542 	 22.4093 	 28.6154 	 
C 	 -44.3522 	 23.0684 	 30.2941 	 
H 	 -43.4463 	 23.0617 	 29.7489 	 
H 	 -44.4805 	 22.0697 	 30.6958 	 
C 	 -44.1762 	 24.0847 	 31.4191 	 
H 	 -44.0094 	 24.9945 	 30.899 	 
H 	 -43.2508 	 23.9313 	 31.9804 	 
H 	 -45.055 	 24.1679 	 32.0364 	 
H 	 -48.0452 	 17.2845 	 30.8075 	 
H 	 -49.0601 	 25.2353 	 31.8265 	 
*
