! wB97X-D3 SP def2-SVP
%pal
nprocs 24
end

* xyz 0 1
S 	 -63.2765 	 19.4362 	 19.5636 	 
C 	 -63.5227 	 18.1483 	 20.7739 	 
C 	 -62.3601 	 17.9675 	 21.5388 	 
C 	 -61.3924 	 18.9597 	 21.2233 	 
C 	 -61.6676 	 19.7908 	 20.1366 	 
H 	 -60.4749 	 19.1147 	 21.7424 	 
C 	 -62.3195 	 17.0205 	 22.7625 	 
H 	 -61.4864 	 17.2871 	 23.2971 	 
H 	 -62.0848 	 15.9796 	 22.3588 	 
C 	 -63.4757 	 17.0568 	 23.8322 	 
H 	 -63.649 	 18.0438 	 24.2979 	 
H 	 -64.4159 	 16.702 	 23.4441 	 
C 	 -63.1658 	 16.0931 	 25.0785 	 
H 	 -63.8597 	 16.1217 	 25.9087 	 
H 	 -62.9422 	 15.0927 	 24.7045 	 
H 	 -62.2342 	 16.4427 	 25.5076 	 
S 	 -61.7844 	 22.2193 	 18.8792 	 
C 	 -60.3668 	 23.1787 	 18.6608 	 
C 	 -59.2493 	 22.5498 	 19.1296 	 
C 	 -59.5688 	 21.3198 	 19.8383 	 
C 	 -60.9214 	 20.944 	 19.6886 	 
H 	 -58.2867 	 23.1227 	 19.1011 	 
C 	 -58.492 	 20.6392 	 20.5348 	 
H 	 -57.5508 	 20.7178 	 19.9375 	 
H 	 -58.6809 	 19.5932 	 20.5159 	 
C 	 -58.1141 	 21.2067 	 21.8898 	 
H 	 -58.9018 	 21.2772 	 22.6938 	 
H 	 -57.9073 	 22.2657 	 21.6718 	 
C 	 -56.9218 	 20.4844 	 22.4848 	 
H 	 -57.1754 	 19.6464 	 23.1612 	 
H 	 -56.5526 	 21.2945 	 23.149 	 
H 	 -56.3404 	 20.1854 	 21.6423 	 
H 	 -64.4322 	 17.5812 	 20.9696 	 
H 	 -60.3591 	 24.0571 	 18.0379 	 
*
