! wB97X-D3 SP def2-SVP
%pal
nprocs 24
end

* xyz 0 1
S 	 -104.406 	 62.8829 	 -99.4057 	 
C 	 -105.42 	 61.982 	 -100.407 	 
C 	 -104.797 	 61.2812 	 -101.413 	 
C 	 -103.425 	 61.7227 	 -101.496 	 
C 	 -102.994 	 62.5214 	 -100.41 	 
H 	 -102.71 	 61.4563 	 -102.299 	 
C 	 -105.432 	 60.2603 	 -102.355 	 
H 	 -105.815 	 60.7791 	 -103.278 	 
H 	 -106.353 	 59.8266 	 -101.946 	 
C 	 -104.498 	 59.1014 	 -102.862 	 
H 	 -103.668 	 59.5359 	 -103.501 	 
H 	 -103.998 	 58.4985 	 -102.091 	 
C 	 -105.237 	 58.1637 	 -103.871 	 
H 	 -106.129 	 57.8919 	 -103.411 	 
H 	 -105.505 	 58.7572 	 -104.8 	 
H 	 -104.73 	 57.2212 	 -104.138 	 
S 	 -101.743 	 64.9767 	 -100.173 	 
C 	 -99.9759 	 64.9871 	 -100.096 	 
C 	 -99.4728 	 63.7073 	 -100.114 	 
C 	 -100.48 	 62.6804 	 -100.177 	 
C 	 -101.735 	 63.2249 	 -100.215 	 
H 	 -98.3699 	 63.7474 	 -99.9039 	 
C 	 -100.142 	 61.1926 	 -99.9947 	 
H 	 -101.025 	 60.7236 	 -100.449 	 
H 	 -100.152 	 60.9583 	 -98.9463 	 
C 	 -98.8653 	 60.7418 	 -100.642 	 
H 	 -98.14 	 61.4475 	 -100.349 	 
H 	 -98.9149 	 60.7839 	 -101.758 	 
C 	 -98.4726 	 59.3278 	 -100.288 	 
H 	 -99.3006 	 58.6529 	 -100.289 	 
H 	 -97.8867 	 59.2352 	 -99.4265 	 
H 	 -97.7608 	 58.952 	 -101.015 	 
H 	 -106.4 	 61.8445 	 -100.068 	 
H 	 -99.3398 	 65.8794 	 -99.9961 	 
*
