! wB97X-D3 SP def2-SVP
%pal
nprocs 24
end

* xyz 0 1
S 	 -104.876 	 42.1198 	 -95.9649 	 
C 	 -103.504 	 41.2177 	 -95.4938 	 
C 	 -102.493 	 42.0336 	 -95.0135 	 
C 	 -102.923 	 43.4115 	 -94.8783 	 
C 	 -104.126 	 43.6739 	 -95.5 	 
H 	 -102.367 	 44.1443 	 -94.3952 	 
C 	 -101.195 	 41.5834 	 -94.4147 	 
H 	 -101.427 	 40.7049 	 -93.8013 	 
H 	 -100.967 	 42.3528 	 -93.648 	 
C 	 -100.138 	 41.3294 	 -95.4767 	 
H 	 -100.605 	 40.8091 	 -96.3095 	 
H 	 -99.9149 	 42.3465 	 -95.8213 	 
C 	 -98.7999 	 40.5931 	 -95.1305 	 
H 	 -98.2696 	 40.9645 	 -94.2623 	 
H 	 -98.8664 	 39.5491 	 -95.0389 	 
H 	 -98.0332 	 40.6845 	 -95.9125 	 
S 	 -106.445 	 44.6005 	 -94.2947 	 
C 	 -106.989 	 46.2263 	 -94.6712 	 
C 	 -106.003 	 46.9355 	 -95.2135 	 
C 	 -104.801 	 46.2421 	 -95.479 	 
C 	 -104.982 	 44.8729 	 -95.3339 	 
H 	 -106.225 	 47.9968 	 -95.3265 	 
C 	 -103.578 	 46.9037 	 -96.0795 	 
H 	 -103.012 	 46.1916 	 -96.6929 	 
H 	 -102.939 	 47.2456 	 -95.3016 	 
C 	 -103.793 	 48.0832 	 -97.0312 	 
H 	 -102.861 	 48.5538 	 -97.4589 	 
H 	 -104.375 	 48.8658 	 -96.5205 	 
C 	 -104.427 	 47.6807 	 -98.3545 	 
H 	 -103.508 	 47.441 	 -98.9608 	 
H 	 -104.913 	 48.5477 	 -98.8041 	 
H 	 -105.116 	 46.8096 	 -98.3551 	 
H 	 -103.142 	 40.2212 	 -95.7353 	 
H 	 -107.943 	 46.7418 	 -94.501 	 
*
