! wB97X-D3 SP def2-SVP
%pal
nprocs 24
end

* xyz 0 1
S 	 3.79856 	 -19.6194 	 -112.263 	 
C 	 3.20307 	 -18.8675 	 -113.712 	 
C 	 2.31527 	 -19.7177 	 -114.406 	 
C 	 2.29258 	 -21.0107 	 -113.834 	 
C 	 3.02976 	 -21.0864 	 -112.683 	 
H 	 1.7285 	 -21.9007 	 -114.178 	 
C 	 1.66458 	 -19.3528 	 -115.753 	 
H 	 2.20253 	 -18.5704 	 -116.31 	 
H 	 0.74154 	 -18.883 	 -115.448 	 
C 	 1.32217 	 -20.4921 	 -116.746 	 
H 	 0.844404 	 -21.3655 	 -116.204 	 
H 	 0.597148 	 -20.2144 	 -117.514 	 
C 	 2.60679 	 -20.9997 	 -117.381 	 
H 	 2.9129 	 -20.3656 	 -118.276 	 
H 	 3.42689 	 -20.9164 	 -116.697 	 
H 	 2.44875 	 -22.0177 	 -117.725 	 
S 	 2.29381 	 -21.983 	 -110.285 	 
C 	 2.44318 	 -23.6302 	 -109.777 	 
C 	 3.19065 	 -24.3226 	 -110.752 	 
C 	 3.48898 	 -23.5128 	 -111.925 	 
C 	 3.00054 	 -22.2619 	 -111.835 	 
H 	 3.4932 	 -25.367 	 -110.596 	 
C 	 4.41123 	 -23.9588 	 -113.07 	 
H 	 4.1866 	 -23.4643 	 -113.998 	 
H 	 4.08634 	 -24.9127 	 -113.296 	 
C 	 5.90874 	 -23.9398 	 -112.927 	 
H 	 6.21333 	 -24.3138 	 -113.889 	 
H 	 6.18089 	 -24.7475 	 -112.196 	 
C 	 6.49536 	 -22.6477 	 -112.404 	 
H 	 6.04022 	 -21.8475 	 -112.979 	 
H 	 7.59536 	 -22.5923 	 -112.615 	 
H 	 6.33273 	 -22.3911 	 -111.363 	 
H 	 3.61137 	 -17.8982 	 -113.979 	 
H 	 2.18025 	 -23.9555 	 -108.741 	 
*
