! wB97X-D3 SP def2-SVP
%pal
nprocs 24
end

* xyz 0 1
S 	 -47.3752 	 1.66912 	 -16.7783 	 
C 	 -47.3075 	 0.761217 	 -18.3021 	 
C 	 -48.2614 	 1.30894 	 -19.1975 	 
C 	 -48.941 	 2.48876 	 -18.7137 	 
C 	 -48.5447 	 2.79732 	 -17.4266 	 
H 	 -49.6973 	 3.03295 	 -19.1369 	 
C 	 -48.6165 	 0.778943 	 -20.5877 	 
H 	 -47.9248 	 -0.040113 	 -20.9014 	 
H 	 -48.3413 	 1.64519 	 -21.1931 	 
C 	 -50.0972 	 0.454457 	 -20.7927 	 
H 	 -50.4076 	 -0.208079 	 -20.0415 	 
H 	 -50.6703 	 1.3727 	 -20.7111 	 
C 	 -50.5275 	 -0.18797 	 -22.1143 	 
H 	 -50.41 	 0.575775 	 -22.8833 	 
H 	 -50.0647 	 -1.10018 	 -22.4461 	 
H 	 -51.5314 	 -0.385005 	 -22.0914 	 
S 	 -49.5762 	 5.24241 	 -17.6201 	 
C 	 -49.9769 	 6.20321 	 -16.2753 	 
C 	 -49.9914 	 5.45946 	 -15.1062 	 
C 	 -49.513 	 4.10358 	 -15.3001 	 
C 	 -49.2197 	 3.81005 	 -16.6637 	 
H 	 -50.3396 	 5.94616 	 -14.2342 	 
C 	 -49.5141 	 3.10387 	 -14.1682 	 
H 	 -49.6756 	 2.18318 	 -14.7017 	 
H 	 -50.4102 	 3.31051 	 -13.4963 	 
C 	 -48.245 	 2.99629 	 -13.3714 	 
H 	 -47.3711 	 3.08152 	 -14.0106 	 
H 	 -48.1245 	 1.94467 	 -12.9431 	 
C 	 -48.0248 	 4.05959 	 -12.3227 	 
H 	 -48.7918 	 3.96537 	 -11.5708 	 
H 	 -48.2143 	 5.04629 	 -12.6844 	 
H 	 -47.0335 	 4.06504 	 -11.8705 	 
H 	 -46.6118 	 -0.029754 	 -18.4883 	 
H 	 -50.2542 	 7.2507 	 -16.3692 	 
*
