! wB97X-D3 SP def2-SVP
%pal
nprocs 24
end

* xyz 0 1
S 	 1.09515 	 -22.4962 	 -115.082 	 
C 	 1.98655 	 -21.0609 	 -115.008 	 
C 	 1.47718 	 -20.1873 	 -114.054 	 
C 	 0.237606 	 -20.7082 	 -113.529 	 
C 	 -0.13504 	 -21.9271 	 -114.019 	 
H 	 -0.348466 	 -20.2757 	 -112.744 	 
C 	 2.07415 	 -18.8452 	 -113.742 	 
H 	 3.05777 	 -18.8956 	 -114.05 	 
H 	 2.14178 	 -18.7069 	 -112.663 	 
C 	 1.46716 	 -17.6176 	 -114.369 	 
H 	 0.401176 	 -17.6011 	 -113.962 	 
H 	 2.08924 	 -16.7803 	 -113.964 	 
C 	 1.31842 	 -17.5289 	 -115.915 	 
H 	 0.711939 	 -18.382 	 -116.315 	 
H 	 0.755312 	 -16.6692 	 -116.233 	 
H 	 2.29328 	 -17.4998 	 -116.38 	 
S 	 -0.665348 	 -24.2937 	 -112.752 	 
C 	 -2.32275 	 -24.8019 	 -112.562 	 
C 	 -3.14147 	 -23.7097 	 -112.64 	 
C 	 -2.5749 	 -22.6244 	 -113.358 	 
C 	 -1.22456 	 -22.7895 	 -113.538 	 
H 	 -4.19564 	 -23.7828 	 -112.436 	 
C 	 -3.39498 	 -21.4349 	 -113.818 	 
H 	 -2.7222 	 -20.9191 	 -114.603 	 
H 	 -3.51599 	 -20.7494 	 -112.946 	 
C 	 -4.81705 	 -21.7599 	 -114.302 	 
H 	 -5.40555 	 -20.8256 	 -114.419 	 
H 	 -5.37167 	 -22.5451 	 -113.695 	 
C 	 -4.72984 	 -22.3283 	 -115.783 	 
H 	 -4.0623 	 -23.1988 	 -115.701 	 
H 	 -4.32996 	 -21.6092 	 -116.508 	 
H 	 -5.64317 	 -22.7364 	 -116.174 	 
H 	 2.96788 	 -20.916 	 -115.483 	 
H 	 -2.72326 	 -25.6886 	 -112.044 	 
*
