! wB97X-D3 SP def2-SVP
%pal
nprocs 24
end

* xyz 0 1
S 	 -136.59 	 25.8062 	 -16.1841 	 
C 	 -137.601 	 24.6387 	 -16.9972 	 
C 	 -136.891 	 23.9105 	 -17.934 	 
C 	 -135.49 	 24.2949 	 -17.8827 	 
C 	 -135.189 	 25.4379 	 -17.17 	 
H 	 -134.746 	 23.8259 	 -18.466 	 
C 	 -137.402 	 22.6952 	 -18.6218 	 
H 	 -137.648 	 23.015 	 -19.6329 	 
H 	 -138.358 	 22.4923 	 -18.203 	 
C 	 -136.545 	 21.4024 	 -18.5237 	 
H 	 -137.004 	 20.6164 	 -19.1914 	 
H 	 -135.503 	 21.6084 	 -18.8372 	 
C 	 -136.609 	 20.8278 	 -17.0922 	 
H 	 -135.933 	 19.9873 	 -16.9553 	 
H 	 -136.315 	 21.6748 	 -16.4548 	 
H 	 -137.626 	 20.4786 	 -16.806 	 
S 	 -133.185 	 26.5372 	 -15.6034 	 
C 	 -131.705 	 27.0008 	 -16.3924 	 
C 	 -131.831 	 27.0415 	 -17.7415 	 
C 	 -133.097 	 26.4768 	 -18.1652 	 
C 	 -133.94 	 26.1471 	 -17.1611 	 
H 	 -131.021 	 27.3441 	 -18.3996 	 
C 	 -133.383 	 26.2197 	 -19.6555 	 
H 	 -134.409 	 26.0888 	 -19.8247 	 
H 	 -133.064 	 25.225 	 -19.8353 	 
C 	 -132.556 	 27.0154 	 -20.7122 	 
H 	 -131.518 	 26.6682 	 -20.5061 	 
H 	 -132.56 	 28.0937 	 -20.4629 	 
C 	 -133.003 	 26.8726 	 -22.1556 	 
H 	 -132.303 	 27.4225 	 -22.7852 	 
H 	 -134.014 	 27.2234 	 -22.3423 	 
H 	 -133.025 	 25.8537 	 -22.423 	 
H 	 -138.638 	 24.4012 	 -16.7413 	 
H 	 -130.781 	 27.2729 	 -15.8711 	 
*
