! wB97X-D3 SP def2-SVP
%pal
nprocs 24
end

* xyz 0 1
S 	 -82.0853 	 -28.2808 	 -55.4042 	 
C 	 -80.6187 	 -29.1901 	 -55.7061 	 
C 	 -79.9787 	 -29.6187 	 -54.5189 	 
C 	 -80.9228 	 -29.5261 	 -53.4535 	 
C 	 -82.0886 	 -28.8298 	 -53.7039 	 
H 	 -80.8379 	 -29.6687 	 -52.4014 	 
C 	 -78.6396 	 -30.3965 	 -54.4517 	 
H 	 -78.7243 	 -31.2423 	 -55.1578 	 
H 	 -78.42 	 -30.6779 	 -53.5165 	 
C 	 -77.4096 	 -29.6393 	 -55.0224 	 
H 	 -76.5584 	 -30.2937 	 -55.2417 	 
H 	 -77.7583 	 -29.188 	 -55.958 	 
C 	 -76.8689 	 -28.5638 	 -54.0791 	 
H 	 -77.7111 	 -27.78 	 -54.0632 	 
H 	 -76.7398 	 -28.9884 	 -53.0778 	 
H 	 -75.9095 	 -28.1673 	 -54.3745 	 
S 	 -83.4887 	 -26.8888 	 -52.3805 	 
C 	 -84.7857 	 -27.333 	 -51.3919 	 
C 	 -84.8248 	 -28.6943 	 -51.1434 	 
C 	 -83.9353 	 -29.419 	 -52.0224 	 
C 	 -83.148 	 -28.539 	 -52.7377 	 
H 	 -85.5531 	 -29.1297 	 -50.4873 	 
C 	 -83.933 	 -30.9358 	 -52.0907 	 
H 	 -84.2558 	 -31.199 	 -51.0357 	 
H 	 -82.892 	 -31.2394 	 -52.2085 	 
C 	 -84.7596 	 -31.6312 	 -53.1499 	 
H 	 -85.7996 	 -31.2855 	 -53.0763 	 
H 	 -84.7905 	 -32.6963 	 -52.991 	 
C 	 -84.37 	 -31.3151 	 -54.573 	 
H 	 -84.8449 	 -31.9408 	 -55.3215 	 
H 	 -83.3354 	 -31.4002 	 -54.7071 	 
H 	 -84.6028 	 -30.2444 	 -54.8416 	 
H 	 -80.2533 	 -29.4177 	 -56.7326 	 
H 	 -85.3873 	 -26.5146 	 -50.9968 	 
*
