! wB97X-D3 SP def2-SVP
%pal
nprocs 24
end

* xyz 0 1
S 	 -105.937 	 18.8691 	 -121.371 	 
C 	 -105.573 	 20.2194 	 -120.313 	 
C 	 -104.722 	 19.7774 	 -119.317 	 
C 	 -104.384 	 18.4127 	 -119.443 	 
C 	 -105.068 	 17.7209 	 -120.391 	 
H 	 -103.611 	 17.9533 	 -118.886 	 
C 	 -103.984 	 20.7297 	 -118.444 	 
H 	 -104.192 	 21.7639 	 -118.688 	 
H 	 -102.915 	 20.5575 	 -118.645 	 
C 	 -104.212 	 20.3406 	 -116.954 	 
H 	 -104.105 	 19.2428 	 -116.867 	 
H 	 -103.41 	 20.7971 	 -116.316 	 
C 	 -105.669 	 20.502 	 -116.523 	 
H 	 -106.366 	 19.8427 	 -117.083 	 
H 	 -105.711 	 20.2875 	 -115.454 	 
H 	 -105.948 	 21.5532 	 -116.597 	 
S 	 -104.403 	 15.9592 	 -122.366 	 
C 	 -104.398 	 14.2796 	 -122.02 	 
C 	 -104.913 	 14.0592 	 -120.788 	 
C 	 -105.164 	 15.1907 	 -120.003 	 
C 	 -104.91 	 16.3359 	 -120.746 	 
H 	 -104.982 	 13.0361 	 -120.443 	 
C 	 -105.566 	 15.0574 	 -118.509 	 
H 	 -106.253 	 14.2193 	 -118.359 	 
H 	 -106.204 	 15.9209 	 -118.341 	 
C 	 -104.456 	 15.1216 	 -117.527 	 
H 	 -103.883 	 16.0181 	 -117.784 	 
H 	 -103.856 	 14.2526 	 -117.686 	 
C 	 -105.017 	 15.3266 	 -116.093 	 
H 	 -105.709 	 16.1459 	 -116.099 	 
H 	 -104.229 	 15.5738 	 -115.413 	 
H 	 -105.499 	 14.5178 	 -115.63 	 
H 	 -105.94 	 21.2551 	 -120.489 	 
H 	 -104.155 	 13.5406 	 -122.693 	 
*
