! wB97X-D3 SP def2-SVP
%pal
nprocs 24
end

* xyz 0 1
S 	 -49.9397 	 15.6432 	 23.6329 	 
C 	 -51.2105 	 14.4095 	 23.8143 	 
C 	 -50.7092 	 13.2565 	 24.394 	 
C 	 -49.3337 	 13.3734 	 24.7303 	 
C 	 -48.7862 	 14.5945 	 24.4211 	 
H 	 -48.6652 	 12.6526 	 25.1947 	 
C 	 -51.578 	 12.0853 	 24.8339 	 
H 	 -50.9753 	 11.3239 	 25.208 	 
H 	 -52.0403 	 11.6313 	 23.8992 	 
C 	 -52.7943 	 12.413 	 25.7972 	 
H 	 -52.5116 	 13.0913 	 26.5921 	 
H 	 -53.3485 	 13.1224 	 25.2146 	 
C 	 -53.6866 	 11.3091 	 26.2093 	 
H 	 -54.5961 	 11.6723 	 26.8311 	 
H 	 -53.9608 	 10.6781 	 25.363 	 
H 	 -53.1365 	 10.5524 	 26.8438 	 
S 	 -46.5065 	 15.3858 	 23.0582 	 
C 	 -45.1325 	 15.7673 	 23.9403 	 
C 	 -45.154 	 15.4105 	 25.2802 	 
C 	 -46.4604 	 14.9675 	 25.6215 	 
C 	 -47.3309 	 14.8706 	 24.5216 	 
H 	 -44.2608 	 15.4846 	 25.839 	 
C 	 -46.8531 	 14.7892 	 27.0919 	 
H 	 -45.8395 	 14.6236 	 27.4919 	 
H 	 -47.4534 	 13.9124 	 27.0471 	 
C 	 -47.5738 	 15.9187 	 27.7577 	 
H 	 -48.1913 	 15.6511 	 28.5723 	 
H 	 -48.1188 	 16.4636 	 26.975 	 
C 	 -46.5875 	 16.9641 	 28.3459 	 
H 	 -46.0057 	 17.4925 	 27.6309 	 
H 	 -45.8774 	 16.3053 	 28.9205 	 
H 	 -46.9988 	 17.7414 	 29.0152 	 
H 	 -52.2269 	 14.5533 	 23.5361 	 
H 	 -44.357 	 16.3055 	 23.4709 	 
*
