! wB97X-D3 SP def2-SVP
%pal
nprocs 24
end

* xyz 0 1
S 	 -53.681 	 6.28826 	 -100.932 	 
C 	 -54.8587 	 6.91088 	 -102.019 	 
C 	 -55.2062 	 8.23446 	 -101.775 	 
C 	 -54.3907 	 8.70213 	 -100.778 	 
C 	 -53.4782 	 7.84626 	 -100.212 	 
H 	 -54.4267 	 9.70626 	 -100.328 	 
C 	 -56.1244 	 9.11378 	 -102.616 	 
H 	 -57.0544 	 9.38569 	 -102.144 	 
H 	 -56.4722 	 8.53289 	 -103.5 	 
C 	 -55.273 	 10.3449 	 -103.167 	 
H 	 -55.1636 	 10.9942 	 -102.234 	 
H 	 -54.2777 	 10.0556 	 -103.48 	 
C 	 -55.8326 	 11.2127 	 -104.354 	 
H 	 -56.8951 	 11.4528 	 -104.237 	 
H 	 -55.4023 	 12.2171 	 -104.404 	 
H 	 -55.8539 	 10.7164 	 -105.355 	 
S 	 -53.411 	 7.64466 	 -97.5543 	 
C 	 -52.2349 	 8.55702 	 -96.5645 	 
C 	 -51.3576 	 9.21925 	 -97.3891 	 
C 	 -51.7497 	 9.19237 	 -98.7976 	 
C 	 -52.66 	 8.12949 	 -99.0705 	 
H 	 -50.5613 	 9.79753 	 -96.9898 	 
C 	 -50.9821 	 10.0111 	 -99.8179 	 
H 	 -50.9345 	 9.4605 	 -100.771 	 
H 	 -49.9524 	 10.1646 	 -99.4416 	 
C 	 -51.6504 	 11.3783 	 -99.9227 	 
H 	 -51.7978 	 11.8973 	 -98.9137 	 
H 	 -52.6471 	 11.1622 	 -100.386 	 
C 	 -50.9539 	 12.4466 	 -100.82 	 
H 	 -49.9626 	 12.5694 	 -100.378 	 
H 	 -51.4056 	 13.4192 	 -100.835 	 
H 	 -50.9412 	 12.077 	 -101.821 	 
H 	 -55.3543 	 6.38442 	 -102.833 	 
H 	 -52.2158 	 8.45247 	 -95.5223 	 
*
