! wB97X-D3 SP def2-SVP
%pal
nprocs 24
end

* xyz 0 1
S 	 -116.735 	 46.4881 	 -112.851 	 
C 	 -117.983 	 45.4249 	 -113.557 	 
C 	 -117.433 	 44.1137 	 -113.519 	 
C 	 -116.082 	 43.9883 	 -113.112 	 
C 	 -115.513 	 45.1686 	 -112.783 	 
H 	 -115.483 	 43.1199 	 -113.084 	 
C 	 -118.158 	 42.9104 	 -113.998 	 
H 	 -117.686 	 42.4627 	 -114.897 	 
H 	 -119.177 	 43.3394 	 -114.226 	 
C 	 -118.38 	 41.8908 	 -112.88 	 
H 	 -117.402 	 41.7337 	 -112.306 	 
H 	 -119.001 	 42.352 	 -112.078 	 
C 	 -118.941 	 40.5037 	 -113.244 	 
H 	 -118.439 	 40.0373 	 -113.996 	 
H 	 -119.222 	 39.8166 	 -112.418 	 
H 	 -119.917 	 40.8091 	 -113.657 	 
S 	 -113.967 	 46.757 	 -111.144 	 
C 	 -112.228 	 46.4561 	 -111.241 	 
C 	 -111.809 	 45.442 	 -112.108 	 
C 	 -112.947 	 44.8819 	 -112.77 	 
C 	 -114.148 	 45.4063 	 -112.302 	 
H 	 -110.766 	 45.2407 	 -112.222 	 
C 	 -112.785 	 43.8093 	 -113.864 	 
H 	 -113.648 	 43.8344 	 -114.546 	 
H 	 -112.898 	 42.8135 	 -113.359 	 
C 	 -111.479 	 43.9473 	 -114.723 	 
H 	 -111.358 	 43.1105 	 -115.321 	 
H 	 -110.695 	 43.975 	 -114.018 	 
C 	 -111.449 	 45.2208 	 -115.48 	 
H 	 -112.214 	 45.2216 	 -116.28 	 
H 	 -110.434 	 45.3033 	 -115.988 	 
H 	 -111.637 	 46.0516 	 -114.817 	 
H 	 -118.987 	 45.7858 	 -113.961 	 
H 	 -111.513 	 46.9878 	 -110.662 	 
*
