! wB97X-D3 SP def2-SVP
%pal
nprocs 24
end

* xyz 0 1
S 	 -45.0912 	 12.5357 	 26.8382 	 
C 	 -44.4624 	 13.1224 	 25.324 	 
C 	 -45.4526 	 13.2474 	 24.3294 	 
C 	 -46.7591 	 12.9204 	 24.861 	 
C 	 -46.7642 	 12.6315 	 26.2106 	 
H 	 -47.6869 	 12.9697 	 24.3036 	 
C 	 -45.1792 	 13.6239 	 22.863 	 
H 	 -44.0788 	 13.5382 	 22.6953 	 
H 	 -45.4857 	 14.6711 	 22.6429 	 
C 	 -45.9097 	 12.7224 	 21.7626 	 
H 	 -45.7028 	 11.6525 	 21.9503 	 
H 	 -46.9476 	 13.06 	 21.8359 	 
C 	 -45.438 	 13.0582 	 20.3493 	 
H 	 -44.326 	 12.936 	 20.2738 	 
H 	 -46.0725 	 12.4741 	 19.6907 	 
H 	 -45.7313 	 14.155 	 20.1076 	 
S 	 -48.202 	 13.4192 	 28.3877 	 
C 	 -49.5674 	 12.4538 	 28.9494 	 
C 	 -49.9028 	 11.4156 	 28.1197 	 
C 	 -48.9239 	 11.3954 	 27.08 	 
C 	 -47.9248 	 12.3427 	 27.0708 	 
H 	 -50.7555 	 10.7611 	 28.3752 	 
C 	 -48.9744 	 10.1576 	 26.1752 	 
H 	 -49.3045 	 9.33909 	 26.7718 	 
H 	 -47.9262 	 9.85902 	 25.9804 	 
C 	 -49.7793 	 10.2093 	 24.8871 	 
H 	 -49.5479 	 11.1043 	 24.3589 	 
H 	 -50.8412 	 10.2016 	 25.0182 	 
C 	 -49.4769 	 9.10453 	 23.8921 	 
H 	 -49.5623 	 8.17805 	 24.4231 	 
H 	 -48.4642 	 9.11439 	 23.5039 	 
H 	 -50.1585 	 9.12131 	 22.9887 	 
H 	 -43.4357 	 13.3699 	 25.226 	 
H 	 -49.9858 	 12.5911 	 29.8932 	 
*
