! wB97X-D3 SP def2-SVP
%pal
nprocs 24
end

* xyz 0 1
S 	 -71.1195 	 15.0732 	 -77.2895 	 
C 	 -69.6231 	 14.9836 	 -78.1813 	 
C 	 -68.7119 	 14.0889 	 -77.6373 	 
C 	 -69.2818 	 13.3891 	 -76.5162 	 
C 	 -70.545 	 13.8767 	 -76.1656 	 
H 	 -68.8466 	 12.5472 	 -76.0681 	 
C 	 -67.3991 	 13.7121 	 -78.2283 	 
H 	 -67.3789 	 14.1487 	 -79.2519 	 
H 	 -67.2426 	 12.6466 	 -78.4757 	 
C 	 -66.1469 	 14.2703 	 -77.5218 	 
H 	 -65.2477 	 14.083 	 -77.9548 	 
H 	 -66.2804 	 15.3901 	 -77.5622 	 
C 	 -66.1126 	 13.8497 	 -76.0583 	 
H 	 -65.955 	 12.7919 	 -75.928 	 
H 	 -65.3105 	 14.3723 	 -75.5547 	 
H 	 -67.0225 	 14.2384 	 -75.504 	 
S 	 -73.0629 	 13.0463 	 -75.5109 	 
C 	 -73.3918 	 12.5526 	 -73.8124 	 
C 	 -72.2773 	 12.5544 	 -73.0107 	 
C 	 -71.1369 	 12.93 	 -73.8021 	 
C 	 -71.4414 	 13.353 	 -75.0896 	 
H 	 -72.3306 	 12.208 	 -71.9643 	 
C 	 -69.7959 	 12.6888 	 -73.2135 	 
H 	 -69.091 	 12.4117 	 -73.9606 	 
H 	 -69.8284 	 11.8063 	 -72.5416 	 
C 	 -69.1625 	 13.7692 	 -72.3643 	 
H 	 -69.7327 	 14.1477 	 -71.5121 	 
H 	 -69.2347 	 14.7098 	 -72.8863 	 
C 	 -67.7826 	 13.4503 	 -71.91 	 
H 	 -67.3224 	 14.3498 	 -71.4471 	 
H 	 -67.1483 	 13.1267 	 -72.7396 	 
H 	 -67.6941 	 12.5983 	 -71.2431 	 
H 	 -69.4329 	 15.5634 	 -79.0744 	 
H 	 -74.3287 	 12.2429 	 -73.4942 	 
*
