! wB97X-D3 SP def2-SVP
%pal
nprocs 24
end

* xyz 0 1
S 	 -102.145 	 -3.21819 	 -107.226 	 
C 	 -102.187 	 -4.36932 	 -108.526 	 
C 	 -102.377 	 -5.66479 	 -108.043 	 
C 	 -102.573 	 -5.66096 	 -106.647 	 
C 	 -102.262 	 -4.45852 	 -106.026 	 
H 	 -102.859 	 -6.53722 	 -106.151 	 
C 	 -102.641 	 -6.84916 	 -108.923 	 
H 	 -102.23 	 -6.62461 	 -109.914 	 
H 	 -103.713 	 -6.90398 	 -109.052 	 
C 	 -102.041 	 -8.21858 	 -108.614 	 
H 	 -102.336 	 -8.58249 	 -107.643 	 
H 	 -102.542 	 -8.87455 	 -109.33 	 
C 	 -100.5 	 -8.27421 	 -108.634 	 
H 	 -100.103 	 -9.31339 	 -108.563 	 
H 	 -100.235 	 -7.74994 	 -109.521 	 
H 	 -99.9351 	 -7.75237 	 -107.87 	 
S 	 -102.777 	 -2.67888 	 -104.096 	 
C 	 -102.354 	 -3.01286 	 -102.464 	 
C 	 -101.988 	 -4.33308 	 -102.262 	 
C 	 -101.797 	 -5.00859 	 -103.502 	 
C 	 -102.123 	 -4.24479 	 -104.617 	 
H 	 -101.913 	 -4.70198 	 -101.263 	 
C 	 -101.238 	 -6.42569 	 -103.601 	 
H 	 -100.451 	 -6.46292 	 -102.856 	 
H 	 -100.743 	 -6.52053 	 -104.584 	 
C 	 -102.178 	 -7.56994 	 -103.375 	 
H 	 -102.86 	 -7.64073 	 -104.216 	 
H 	 -102.753 	 -7.46401 	 -102.539 	 
C 	 -101.389 	 -8.91863 	 -103.222 	 
H 	 -100.787 	 -8.80737 	 -102.272 	 
H 	 -100.728 	 -9.11038 	 -104.053 	 
H 	 -101.983 	 -9.80524 	 -103.078 	 
H 	 -102 	 -4.01035 	 -109.504 	 
H 	 -102.384 	 -2.3728 	 -101.582 	 
*
