! wB97X-D3 SP def2-SVP
%pal
nprocs 24
end

* xyz 0 1
S 	 39.7782 	 -26.5745 	 -126.344 	 
C 	 39.344 	 -24.8785 	 -126.225 	 
C 	 40.3368 	 -23.9726 	 -126.621 	 
C 	 41.3527 	 -24.7101 	 -127.238 	 
C 	 41.2668 	 -26.06 	 -127.171 	 
H 	 42.2143 	 -24.3578 	 -127.816 	 
C 	 40.2918 	 -22.4851 	 -126.561 	 
H 	 41.3441 	 -22.287 	 -126.357 	 
H 	 39.6332 	 -22.1751 	 -125.733 	 
C 	 39.8424 	 -21.8052 	 -127.814 	 
H 	 40.6393 	 -21.8181 	 -128.576 	 
H 	 38.9042 	 -22.2344 	 -128.267 	 
C 	 39.5061 	 -20.3376 	 -127.523 	 
H 	 39.5228 	 -19.6797 	 -128.458 	 
H 	 38.5605 	 -20.2179 	 -127.006 	 
H 	 40.211 	 -19.9413 	 -126.896 	 
S 	 41.6737 	 -27.7497 	 -129.278 	 
C 	 43.3249 	 -28.2091 	 -129.857 	 
C 	 44.2802 	 -27.7014 	 -128.984 	 
C 	 43.6652 	 -26.9649 	 -127.911 	 
C 	 42.2105 	 -26.9442 	 -127.865 	 
H 	 45.3131 	 -27.7951 	 -129.255 	 
C 	 44.4541 	 -26.2657 	 -126.871 	 
H 	 45.1832 	 -26.9166 	 -126.287 	 
H 	 43.7696 	 -25.906 	 -126.148 	 
C 	 45.2367 	 -25.0291 	 -127.407 	 
H 	 44.4707 	 -24.3841 	 -127.857 	 
H 	 46.009 	 -25.3416 	 -128.13 	 
C 	 45.9354 	 -24.2604 	 -126.29 	 
H 	 46.401 	 -24.9106 	 -125.528 	 
H 	 45.2274 	 -23.6605 	 -125.776 	 
H 	 46.7342 	 -23.6296 	 -126.741 	 
H 	 38.346 	 -24.5155 	 -125.956 	 
H 	 43.5379 	 -28.614 	 -130.852 	 
*
