! wB97X-D3 SP def2-SVP
%pal
nprocs 24
end

* xyz 0 1
S 	 -62.2357 	 -3.54459 	 -21.8278 	 
C 	 -63.2985 	 -3.08529 	 -20.5362 	 
C 	 -63.757 	 -1.781 	 -20.7234 	 
C 	 -63.2562 	 -1.22573 	 -21.9526 	 
C 	 -62.3186 	 -1.98706 	 -22.6435 	 
H 	 -63.3809 	 -0.242172 	 -22.2798 	 
C 	 -64.6167 	 -1.05146 	 -19.759 	 
H 	 -63.8673 	 -0.422858 	 -19.1728 	 
H 	 -65.0635 	 -1.69682 	 -19.0431 	 
C 	 -65.7376 	 -0.183793 	 -20.4069 	 
H 	 -65.2609 	 0.465106 	 -21.1255 	 
H 	 -66.4615 	 -0.766731 	 -20.9667 	 
C 	 -66.3199 	 0.76452 	 -19.3512 	 
H 	 -66.7232 	 0.41299 	 -18.4179 	 
H 	 -65.4341 	 1.2432 	 -18.8528 	 
H 	 -66.891 	 1.54218 	 -19.7953 	 
S 	 -59.8442 	 -1.72608 	 -23.8842 	 
C 	 -59.783 	 -1.18272 	 -25.4917 	 
C 	 -61.0218 	 -0.674326 	 -25.8737 	 
C 	 -62.0588 	 -0.878545 	 -24.9187 	 
C 	 -61.6252 	 -1.55846 	 -23.8273 	 
H 	 -61.1682 	 -0.229899 	 -26.8812 	 
C 	 -63.5541 	 -0.470872 	 -25.1914 	 
H 	 -63.5037 	 0.170648 	 -26.0752 	 
H 	 -63.9258 	 0.245077 	 -24.4399 	 
C 	 -64.6316 	 -1.60879 	 -25.296 	 
H 	 -65.4214 	 -1.14141 	 -25.8348 	 
H 	 -64.8601 	 -1.98616 	 -24.3026 	 
C 	 -64.1427 	 -2.88739 	 -26.0756 	 
H 	 -63.3393 	 -3.3907 	 -25.4549 	 
H 	 -63.7644 	 -2.62733 	 -27.0829 	 
H 	 -64.8534 	 -3.64381 	 -26.3811 	 
H 	 -63.4871 	 -3.7358 	 -19.6997 	 
H 	 -58.9068 	 -1.17522 	 -26.1642 	 
*
