! wB97X-D3 SP def2-SVP
%pal
nprocs 24
end

* xyz 0 1
S 	 -107.86 	 61.5548 	 -16.523 	 
C 	 -108.525 	 62.2101 	 -15.0293 	 
C 	 -108.604 	 61.1583 	 -14.0945 	 
C 	 -108.229 	 59.848 	 -14.5944 	 
C 	 -107.745 	 59.9485 	 -15.9191 	 
H 	 -108.08 	 58.8362 	 -14.0837 	 
C 	 -108.945 	 61.4394 	 -12.6031 	 
H 	 -109.45 	 60.6049 	 -12.0903 	 
H 	 -109.853 	 62.0949 	 -12.624 	 
C 	 -107.861 	 62.1234 	 -11.7668 	 
H 	 -107.036 	 61.4843 	 -11.566 	 
H 	 -107.412 	 62.9868 	 -12.2901 	 
C 	 -108.445 	 62.556 	 -10.3937 	 
H 	 -107.871 	 63.4154 	 -9.97985 	 
H 	 -109.444 	 62.9834 	 -10.5358 	 
H 	 -108.669 	 61.6876 	 -9.75979 	 
S 	 -107.6 	 58.5504 	 -18.2866 	 
C 	 -106.17 	 57.4549 	 -18.4888 	 
C 	 -105.468 	 57.3044 	 -17.3159 	 
C 	 -105.959 	 58.1625 	 -16.2732 	 
C 	 -107.002 	 58.9479 	 -16.6335 	 
H 	 -104.652 	 56.5705 	 -17.1732 	 
C 	 -105.258 	 58.1731 	 -14.9229 	 
H 	 -104.958 	 57.1302 	 -14.615 	 
H 	 -106.017 	 58.2906 	 -14.1592 	 
C 	 -104.157 	 59.2037 	 -14.7435 	 
H 	 -104.655 	 60.1958 	 -14.5983 	 
H 	 -103.439 	 59.1645 	 -15.5612 	 
C 	 -103.374 	 58.8299 	 -13.4636 	 
H 	 -102.665 	 59.6534 	 -13.259 	 
H 	 -102.824 	 57.8535 	 -13.5739 	 
H 	 -103.987 	 58.7491 	 -12.5484 	 
H 	 -108.517 	 63.3116 	 -14.8189 	 
H 	 -105.994 	 56.7799 	 -19.326 	 
*
