! wB97X-D3 SP def2-SVP
%pal
nprocs 24
end

* xyz 0 1
S 	 -63.5868 	 14.3442 	 -74.8896 	 
C 	 -64.3661 	 14.3543 	 -73.3053 	 
C 	 -63.6055 	 13.6595 	 -72.3768 	 
C 	 -62.4011 	 13.0164 	 -72.9412 	 
C 	 -62.2547 	 13.289 	 -74.3312 	 
H 	 -61.7217 	 12.3732 	 -72.376 	 
C 	 -63.9243 	 13.5378 	 -70.885 	 
H 	 -63.866 	 14.4719 	 -70.2842 	 
H 	 -63.2371 	 12.8415 	 -70.4813 	 
C 	 -65.2762 	 12.8814 	 -70.5187 	 
H 	 -65.4247 	 12.9416 	 -69.4485 	 
H 	 -65.9499 	 13.558 	 -71.0115 	 
C 	 -65.5987 	 11.4937 	 -71.0777 	 
H 	 -65.5845 	 11.4414 	 -72.163 	 
H 	 -64.9064 	 10.7351 	 -70.7457 	 
H 	 -66.5253 	 11.2146 	 -70.7016 	 
S 	 -60.7126 	 11.1961 	 -75.1774 	 
C 	 -59.6151 	 11.3743 	 -76.5023 	 
C 	 -59.6184 	 12.6732 	 -77.0434 	 
C 	 -60.4569 	 13.5348 	 -76.2112 	 
C 	 -61.1971 	 12.8744 	 -75.2276 	 
H 	 -58.9358 	 12.9431 	 -77.8407 	 
C 	 -60.6492 	 15.0172 	 -76.4692 	 
H 	 -59.6867 	 15.4411 	 -76.3238 	 
H 	 -61.2447 	 15.4413 	 -75.6622 	 
C 	 -61.1818 	 15.3002 	 -77.9032 	 
H 	 -62.0395 	 14.6684 	 -78.1712 	 
H 	 -60.2975 	 15.0383 	 -78.5554 	 
C 	 -61.5581 	 16.7835 	 -78.1676 	 
H 	 -61.7904 	 16.9252 	 -79.1808 	 
H 	 -60.7216 	 17.4047 	 -77.8801 	 
H 	 -62.4651 	 16.9464 	 -77.5904 	 
H 	 -65.1294 	 14.9749 	 -73.1056 	 
H 	 -58.9842 	 10.5645 	 -76.9151 	 
*
