! wB97X-D3 SP def2-SVP
%pal
nprocs 24
end

* xyz 0 1
S 	 -47.3858 	 2.70755 	 -23.0598 	 
C 	 -46.1291 	 3.8034 	 -23.6439 	 
C 	 -46.7446 	 4.90056 	 -24.181 	 
C 	 -48.1775 	 4.86712 	 -24.2411 	 
C 	 -48.6712 	 3.68098 	 -23.6603 	 
H 	 -48.8428 	 5.60533 	 -24.6926 	 
C 	 -45.9492 	 6.09162 	 -24.7785 	 
H 	 -45.1221 	 6.23852 	 -24.1264 	 
H 	 -46.5394 	 7.07212 	 -24.8175 	 
C 	 -45.1955 	 5.72986 	 -26.0738 	 
H 	 -44.1295 	 5.50859 	 -25.8948 	 
H 	 -45.6057 	 4.70081 	 -26.4639 	 
C 	 -45.2753 	 6.77812 	 -27.1454 	 
H 	 -44.9555 	 7.74657 	 -26.7995 	 
H 	 -44.7142 	 6.58845 	 -28.0943 	 
H 	 -46.2904 	 6.91084 	 -27.4706 	 
S 	 -50.9636 	 3.61692 	 -25.0963 	 
C 	 -52.3752 	 3.05717 	 -24.383 	 
C 	 -52.3158 	 2.99419 	 -23.0243 	 
C 	 -50.9662 	 3.10773 	 -22.5447 	 
C 	 -50.0488 	 3.35172 	 -23.5924 	 
H 	 -53.1495 	 2.84054 	 -22.3972 	 
C 	 -50.6724 	 3.03229 	 -21.0591 	 
H 	 -51.5527 	 3.45201 	 -20.5924 	 
H 	 -49.8061 	 3.68323 	 -20.8422 	 
C 	 -50.5427 	 1.69328 	 -20.4049 	 
H 	 -49.6363 	 1.19511 	 -20.7058 	 
H 	 -51.3144 	 0.999489 	 -20.6866 	 
C 	 -50.6656 	 1.84459 	 -18.8636 	 
H 	 -50.0071 	 2.55537 	 -18.4738 	 
H 	 -50.2904 	 0.945633 	 -18.33 	 
H 	 -51.5915 	 2.00378 	 -18.4219 	 
H 	 -45.1304 	 3.54848 	 -23.6914 	 
H 	 -53.3068 	 2.90239 	 -24.8368 	 
*
