! wB97X-D3 SP def2-SVP
%pal
nprocs 24
end

* xyz 0 1
S 	 2.32657 	 -16.8352 	 -105.376 	 
C 	 1.95185 	 -18.2753 	 -106.384 	 
C 	 0.780231 	 -18.8633 	 -105.99 	 
C 	 0.206966 	 -18.1388 	 -104.867 	 
C 	 0.900215 	 -17.0167 	 -104.48 	 
H 	 -0.670791 	 -18.408 	 -104.371 	 
C 	 0.203958 	 -20.1875 	 -106.445 	 
H 	 -0.47542 	 -20.4996 	 -105.627 	 
H 	 1.02049 	 -20.8632 	 -106.419 	 
C 	 -0.371925 	 -20.1878 	 -107.838 	 
H 	 -1.29333 	 -19.7758 	 -107.915 	 
H 	 0.306671 	 -19.5553 	 -108.495 	 
C 	 -0.484822 	 -21.6166 	 -108.418 	 
H 	 -1.21534 	 -22.0799 	 -107.755 	 
H 	 -0.838814 	 -21.5975 	 -109.501 	 
H 	 0.512517 	 -22.0694 	 -108.535 	 
S 	 2.03041 	 -16.4805 	 -101.93 	 
C 	 1.00402 	 -15.627 	 -100.793 	 
C 	 -0.252993 	 -15.3528 	 -101.253 	 
C 	 -0.326917 	 -15.6495 	 -102.649 	 
C 	 0.775282 	 -16.275 	 -103.19 	 
H 	 -0.965215 	 -14.7915 	 -100.611 	 
C 	 -1.50501 	 -15.3362 	 -103.509 	 
H 	 -1.62429 	 -16.1148 	 -104.182 	 
H 	 -1.23321 	 -14.4964 	 -104.134 	 
C 	 -2.94072 	 -15.0934 	 -102.876 	 
H 	 -3.59234 	 -14.9772 	 -103.768 	 
H 	 -2.97853 	 -14.2131 	 -102.252 	 
C 	 -3.37691 	 -16.2454 	 -101.951 	 
H 	 -2.4922 	 -16.545 	 -101.344 	 
H 	 -3.77422 	 -17.103 	 -102.42 	 
H 	 -3.96954 	 -15.8186 	 -101.149 	 
H 	 2.62375 	 -18.6417 	 -107.115 	 
H 	 1.35109 	 -15.4241 	 -99.782 	 
*
