! wB97X-D3 SP def2-SVP
%pal
nprocs 24
end

* xyz 0 1
S 	 -35.3709 	 -11.8017 	 17.6052 	 
C 	 -35.6029 	 -10.0916 	 17.4986 	 
C 	 -34.6487 	 -9.62416 	 16.6247 	 
C 	 -33.8739 	 -10.6384 	 15.975 	 
C 	 -34.2732 	 -11.931 	 16.2606 	 
H 	 -33.0647 	 -10.3244 	 15.3 	 
C 	 -34.4732 	 -8.12674 	 16.3718 	 
H 	 -33.4725 	 -8.05819 	 16.8342 	 
H 	 -35.0324 	 -7.48154 	 16.9798 	 
C 	 -34.4778 	 -7.47912 	 14.9119 	 
H 	 -34.3592 	 -6.43935 	 15.0811 	 
H 	 -33.7171 	 -7.90639 	 14.3231 	 
C 	 -35.7704 	 -7.72421 	 14.13 	 
H 	 -36.0084 	 -8.78268 	 14.2155 	 
H 	 -36.5757 	 -7.13298 	 14.5155 	 
H 	 -35.7057 	 -7.47083 	 13.1227 	 
S 	 -33.472 	 -14.3925 	 17.1364 	 
C 	 -32.5203 	 -15.4687 	 16.1861 	 
C 	 -32.3947 	 -14.9902 	 14.8577 	 
C 	 -32.9166 	 -13.7023 	 14.7498 	 
C 	 -33.5606 	 -13.1786 	 15.8734 	 
H 	 -31.997 	 -15.5656 	 14.0903 	 
C 	 -32.6896 	 -12.9021 	 13.4631 	 
H 	 -31.7204 	 -13.114 	 13.1125 	 
H 	 -32.815 	 -11.8547 	 13.8058 	 
C 	 -33.5501 	 -13.05 	 12.2103 	 
H 	 -34.5734 	 -13.0245 	 12.4606 	 
H 	 -33.1837 	 -13.8718 	 11.6181 	 
C 	 -33.4988 	 -11.7847 	 11.3259 	 
H 	 -34.2525 	 -11.9001 	 10.6035 	 
H 	 -32.5486 	 -11.6818 	 10.749 	 
H 	 -33.763 	 -10.8213 	 11.7667 	 
H 	 -36.23 	 -9.41607 	 18.1142 	 
H 	 -32.1574 	 -16.4476 	 16.4373 	 
*
