! wB97X-D3 SP def2-SVP
%pal
nprocs 24
end

* xyz 0 1
S 	 -45.9646 	 11.5142 	 -20.9428 	 
C 	 -47.3975 	 10.5183 	 -20.903 	 
C 	 -47.9521 	 10.2669 	 -22.1352 	 
C 	 -47.1894 	 11.0824 	 -23.1307 	 
C 	 -46.192 	 11.8157 	 -22.6328 	 
H 	 -47.2996 	 11.0535 	 -24.2596 	 
C 	 -49.1443 	 9.34432 	 -22.516 	 
H 	 -48.8937 	 8.30577 	 -22.578 	 
H 	 -49.4057 	 9.66543 	 -23.5626 	 
C 	 -50.426 	 9.51922 	 -21.7232 	 
H 	 -50.0899 	 9.3706 	 -20.7195 	 
H 	 -50.8739 	 10.6023 	 -21.766 	 
C 	 -51.5973 	 8.65811 	 -22.179 	 
H 	 -52.5149 	 8.75165 	 -21.5854 	 
H 	 -51.9112 	 9.09611 	 -23.0613 	 
H 	 -51.3005 	 7.57892 	 -22.3186 	 
S 	 -45.0687 	 12.2231 	 -25.1292 	 
C 	 -44.1558 	 13.7205 	 -25.4127 	 
C 	 -44.0138 	 14.4946 	 -24.2782 	 
C 	 -44.6115 	 13.8723 	 -23.1121 	 
C 	 -45.3653 	 12.7175 	 -23.4317 	 
H 	 -43.4421 	 15.4522 	 -24.2476 	 
C 	 -44.6273 	 14.5726 	 -21.7809 	 
H 	 -45.5439 	 14.3369 	 -21.1684 	 
H 	 -44.7733 	 15.641 	 -21.9533 	 
C 	 -43.4156 	 14.3286 	 -20.85 	 
H 	 -42.5446 	 14.7817 	 -21.3502 	 
H 	 -43.1364 	 13.3371 	 -20.7419 	 
C 	 -43.5949 	 15.0161 	 -19.4712 	 
H 	 -43.9758 	 16.0196 	 -19.5197 	 
H 	 -42.6478 	 14.9863 	 -18.8951 	 
H 	 -44.3413 	 14.5366 	 -18.806 	 
H 	 -47.7935 	 10.0035 	 -20.0312 	 
H 	 -43.727 	 14.0987 	 -26.3273 	 
*
