! wB97X-D3 SP def2-SVP
%pal
nprocs 24
end

* xyz 0 1
S 	 -63.2138 	 -47.4237 	 -83.0553 	 
C 	 -61.6592 	 -48.0785 	 -83.1941 	 
C 	 -61.3515 	 -48.8503 	 -82.0562 	 
C 	 -62.4544 	 -48.932 	 -81.1782 	 
C 	 -63.5815 	 -48.2419 	 -81.5852 	 
H 	 -62.4114 	 -49.4922 	 -80.2755 	 
C 	 -60.0305 	 -49.5514 	 -81.7853 	 
H 	 -59.8878 	 -49.4492 	 -80.6871 	 
H 	 -59.2926 	 -49.0247 	 -82.2109 	 
C 	 -60.0186 	 -51.0642 	 -82.0047 	 
H 	 -59.0603 	 -51.4065 	 -81.725 	 
H 	 -60.7512 	 -51.6199 	 -81.363 	 
C 	 -60.2652 	 -51.4422 	 -83.4774 	 
H 	 -61.3371 	 -51.1356 	 -83.735 	 
H 	 -59.5941 	 -50.8322 	 -84.055 	 
H 	 -60.0489 	 -52.4938 	 -83.6461 	 
S 	 -65.395 	 -46.6359 	 -80.3952 	 
C 	 -66.607 	 -47.2029 	 -79.3885 	 
C 	 -66.6554 	 -48.5677 	 -79.4804 	 
C 	 -65.5797 	 -49.216 	 -80.2336 	 
C 	 -64.8636 	 -48.1995 	 -80.857 	 
H 	 -67.4178 	 -49.0709 	 -78.9176 	 
C 	 -65.4842 	 -50.646 	 -80.401 	 
H 	 -65.69 	 -50.8981 	 -79.3527 	 
H 	 -64.5184 	 -51.0341 	 -80.6692 	 
C 	 -66.4596 	 -51.2214 	 -81.4455 	 
H 	 -67.4832 	 -50.9504 	 -81.1873 	 
H 	 -66.5722 	 -52.3028 	 -81.399 	 
C 	 -66.1215 	 -50.7494 	 -82.8722 	 
H 	 -66.1968 	 -49.6951 	 -82.9615 	 
H 	 -66.8831 	 -51.0849 	 -83.5547 	 
H 	 -65.0862 	 -51.0206 	 -83.2039 	 
H 	 -60.9487 	 -47.7859 	 -84.0328 	 
H 	 -67.1368 	 -46.5013 	 -78.6864 	 
*
