! wB97X-D3 SP def2-SVP
%pal
nprocs 24
end

* xyz 0 1
S 	 -127.437 	 59.6822 	 -52.0351 	 
C 	 -128.634 	 59.7512 	 -53.2585 	 
C 	 -128.177 	 60.0361 	 -54.5019 	 
C 	 -126.755 	 60.2375 	 -54.4623 	 
C 	 -126.202 	 60.1632 	 -53.2129 	 
H 	 -126.143 	 60.5536 	 -55.3166 	 
C 	 -129.042 	 60.4436 	 -55.6868 	 
H 	 -129.905 	 59.803 	 -55.587 	 
H 	 -128.509 	 60.0263 	 -56.5551 	 
C 	 -129.289 	 61.9377 	 -55.7614 	 
H 	 -129.887 	 62.2978 	 -54.867 	 
H 	 -128.343 	 62.5137 	 -55.8457 	 
C 	 -130.127 	 62.3116 	 -57.0114 	 
H 	 -131.096 	 61.8266 	 -56.9355 	 
H 	 -130.313 	 63.424 	 -56.9458 	 
H 	 -129.671 	 62.1872 	 -57.9605 	 
S 	 -124.186 	 61.3877 	 -51.5496 	 
C 	 -122.69 	 60.7053 	 -51.479 	 
C 	 -122.398 	 59.9031 	 -52.579 	 
C 	 -123.594 	 59.6907 	 -53.3298 	 
C 	 -124.743 	 60.3098 	 -52.8573 	 
H 	 -121.424 	 59.4979 	 -52.741 	 
C 	 -123.581 	 58.8278 	 -54.5565 	 
H 	 -122.6 	 58.6997 	 -54.9972 	 
H 	 -124.258 	 59.3014 	 -55.2087 	 
C 	 -124.15 	 57.4121 	 -54.3566 	 
H 	 -125.228 	 57.5191 	 -54.1316 	 
H 	 -123.79 	 56.8847 	 -53.481 	 
C 	 -124.111 	 56.4217 	 -55.5742 	 
H 	 -123.081 	 56.2603 	 -55.9138 	 
H 	 -124.616 	 56.7874 	 -56.4173 	 
H 	 -124.491 	 55.4435 	 -55.3633 	 
H 	 -129.688 	 59.6975 	 -52.9991 	 
H 	 -121.905 	 61.0177 	 -50.7602 	 
*
