! wB97X-D3 SP def2-SVP
%pal
nprocs 24
end

* xyz 0 1
S 	 -36.2216 	 -10.4259 	 17.3312 	 
C 	 -35.5174 	 -11.9503 	 17.8228 	 
C 	 -36.1586 	 -12.9792 	 17.1533 	 
C 	 -37.3759 	 -12.5603 	 16.5788 	 
C 	 -37.5185 	 -11.2476 	 16.5216 	 
H 	 -38.121 	 -13.1447 	 16.1298 	 
C 	 -35.8025 	 -14.3801 	 17.3572 	 
H 	 -36.5309 	 -14.8289 	 18.0427 	 
H 	 -34.7858 	 -14.3547 	 17.7464 	 
C 	 -35.7687 	 -15.3555 	 16.1169 	 
H 	 -35.3735 	 -16.3366 	 16.4306 	 
H 	 -36.7981 	 -15.576 	 15.7855 	 
C 	 -34.8139 	 -14.8016 	 15.0133 	 
H 	 -33.7935 	 -14.6129 	 15.3528 	 
H 	 -34.9049 	 -15.5309 	 14.1739 	 
H 	 -35.2001 	 -13.8324 	 14.6449 	 
S 	 -39.7629 	 -9.92931 	 16.9811 	 
C 	 -40.4484 	 -8.83743 	 15.8221 	 
C 	 -39.8315 	 -9.00609 	 14.59 	 
C 	 -38.6726 	 -9.84524 	 14.5706 	 
C 	 -38.5635 	 -10.3975 	 15.8583 	 
H 	 -40.2389 	 -8.42588 	 13.7817 	 
C 	 -37.8278 	 -10.2296 	 13.3407 	 
H 	 -38.5427 	 -10.396 	 12.5385 	 
H 	 -37.4456 	 -11.1791 	 13.5724 	 
C 	 -36.9416 	 -9.12594 	 12.7607 	 
H 	 -37.6443 	 -8.28667 	 12.5525 	 
H 	 -36.4627 	 -9.53431 	 11.8845 	 
C 	 -35.8234 	 -8.7147 	 13.7564 	 
H 	 -36.172 	 -8.43282 	 14.7226 	 
H 	 -35.3273 	 -7.82763 	 13.4127 	 
H 	 -35.03 	 -9.51644 	 13.8626 	 
H 	 -34.5443 	 -12.0674 	 18.3131 	 
H 	 -41.2603 	 -8.20129 	 16.0287 	 
*
