! wB97X-D3 SP def2-SVP
%pal
nprocs 24
end

* xyz 0 1
S 	 -68.3931 	 -47.9374 	 -89.4456 	 
C 	 -67.7469 	 -47.7345 	 -91.0336 	 
C 	 -66.5455 	 -48.4173 	 -91.25 	 
C 	 -66.1914 	 -49.073 	 -90.0184 	 
C 	 -67.0761 	 -48.9091 	 -88.9895 	 
H 	 -65.3072 	 -49.5877 	 -89.8506 	 
C 	 -65.629 	 -48.2185 	 -92.4546 	 
H 	 -66.2039 	 -48.0524 	 -93.364 	 
H 	 -65.0842 	 -49.1521 	 -92.6854 	 
C 	 -64.5598 	 -47.099 	 -92.2743 	 
H 	 -64.9688 	 -46.0562 	 -92.2184 	 
H 	 -64.2196 	 -47.2373 	 -91.2334 	 
C 	 -63.3823 	 -47.0797 	 -93.1891 	 
H 	 -62.853 	 -48.0315 	 -93.0053 	 
H 	 -63.6009 	 -46.9175 	 -94.2054 	 
H 	 -62.6744 	 -46.3405 	 -92.8622 	 
S 	 -67.2479 	 -48.3623 	 -86.3015 	 
C 	 -67.3241 	 -49.7279 	 -85.2487 	 
C 	 -66.879 	 -50.9011 	 -85.8094 	 
C 	 -66.6905 	 -50.7098 	 -87.2118 	 
C 	 -66.9097 	 -49.4269 	 -87.653 	 
H 	 -66.789 	 -51.7523 	 -85.2296 	 
C 	 -66.5133 	 -51.9018 	 -88.0819 	 
H 	 -65.8848 	 -52.703 	 -87.7412 	 
H 	 -65.7752 	 -51.495 	 -88.7779 	 
C 	 -67.7505 	 -52.4865 	 -88.7052 	 
H 	 -67.4454 	 -53.0029 	 -89.5701 	 
H 	 -68.4408 	 -51.7389 	 -89.0549 	 
C 	 -68.619 	 -53.3113 	 -87.673 	 
H 	 -67.8639 	 -53.9377 	 -87.0944 	 
H 	 -69.4615 	 -53.9627 	 -88.1589 	 
H 	 -69.1255 	 -52.5717 	 -87.0377 	 
H 	 -68.1383 	 -46.9194 	 -91.6095 	 
H 	 -67.3972 	 -49.6364 	 -84.1741 	 
*
