! wB97X-D3 SP def2-SVP
%pal
nprocs 24
end

* xyz 0 1
S 	 -113.621 	 38.4971 	 -122.511 	 
C 	 -113.895 	 36.9936 	 -121.848 	 
C 	 -115.207 	 36.7733 	 -121.558 	 
C 	 -116.026 	 37.9034 	 -121.821 	 
C 	 -115.331 	 38.9503 	 -122.391 	 
H 	 -117.063 	 38.0742 	 -121.63 	 
C 	 -115.781 	 35.4732 	 -120.97 	 
H 	 -114.999 	 34.7114 	 -121.028 	 
H 	 -116.541 	 35.139 	 -121.714 	 
C 	 -116.408 	 35.468 	 -119.557 	 
H 	 -116.463 	 34.4425 	 -119.217 	 
H 	 -115.738 	 36.0597 	 -118.897 	 
C 	 -117.781 	 36.0684 	 -119.518 	 
H 	 -118.265 	 35.9778 	 -118.515 	 
H 	 -117.639 	 37.1609 	 -119.545 	 
H 	 -118.51 	 35.8077 	 -120.249 	 
S 	 -116.489 	 40.3202 	 -124.48 	 
C 	 -117.079 	 41.8732 	 -124.227 	 
C 	 -117.134 	 42.2225 	 -122.902 	 
C 	 -116.429 	 41.2243 	 -122.123 	 
C 	 -115.902 	 40.1849 	 -122.856 	 
H 	 -117.445 	 43.1518 	 -122.564 	 
C 	 -116.422 	 41.2133 	 -120.634 	 
H 	 -116.24 	 42.2286 	 -120.299 	 
H 	 -115.581 	 40.5199 	 -120.265 	 
C 	 -117.674 	 40.7676 	 -119.843 	 
H 	 -117.378 	 40.7829 	 -118.696 	 
H 	 -117.923 	 39.7978 	 -120.192 	 
C 	 -118.828 	 41.6604 	 -120.08 	 
H 	 -119.041 	 41.8282 	 -121.086 	 
H 	 -118.559 	 42.6123 	 -119.695 	 
H 	 -119.742 	 41.3486 	 -119.571 	 
H 	 -113.169 	 36.3109 	 -121.504 	 
H 	 -117.53 	 42.4231 	 -125.028 	 
*
