! wB97X-D3 SP def2-SVP
%pal
nprocs 24
end

* xyz 0 1
S 	 -121.299 	 52.2975 	 -32.9661 	 
C 	 -121.273 	 50.7021 	 -33.6204 	 
C 	 -122.192 	 49.8019 	 -33.1293 	 
C 	 -122.825 	 50.4135 	 -31.9869 	 
C 	 -122.485 	 51.7152 	 -31.7586 	 
H 	 -123.594 	 49.898 	 -31.3312 	 
C 	 -122.519 	 48.3631 	 -33.5868 	 
H 	 -121.724 	 47.7084 	 -33.2197 	 
H 	 -122.186 	 48.3667 	 -34.6509 	 
C 	 -123.86 	 47.7168 	 -33.4049 	 
H 	 -124.029 	 47.4483 	 -32.3629 	 
H 	 -124.705 	 48.3716 	 -33.8115 	 
C 	 -124.003 	 46.3361 	 -34.1406 	 
H 	 -124.856 	 45.7758 	 -33.9109 	 
H 	 -123.985 	 46.5984 	 -35.1895 	 
H 	 -123.185 	 45.7438 	 -34.0445 	 
S 	 -121.782 	 52.8303 	 -29.2677 	 
C 	 -122.945 	 53.9238 	 -28.4852 	 
C 	 -124.152 	 54.0882 	 -29.2157 	 
C 	 -124.033 	 53.3553 	 -30.4728 	 
C 	 -122.827 	 52.5902 	 -30.6346 	 
H 	 -124.862 	 54.8003 	 -28.8678 	 
C 	 -125.035 	 53.3724 	 -31.646 	 
H 	 -124.357 	 53.4442 	 -32.4911 	 
H 	 -125.434 	 54.3649 	 -31.6764 	 
C 	 -126.195 	 52.3348 	 -31.7842 	 
H 	 -126.911 	 52.2246 	 -30.949 	 
H 	 -125.632 	 51.3906 	 -31.8088 	 
C 	 -127.064 	 52.3914 	 -33.0564 	 
H 	 -127.631 	 51.4959 	 -33.2156 	 
H 	 -126.432 	 52.3914 	 -33.9069 	 
H 	 -127.723 	 53.3046 	 -33.1439 	 
H 	 -120.587 	 50.4109 	 -34.3993 	 
H 	 -122.64 	 54.4181 	 -27.5198 	 
*
