! wB97X-D3 SP def2-SVP
%pal
nprocs 24
end

* xyz 0 1
S 	 -108.305 	 53.8467 	 -95.7153 	 
C 	 -107.069 	 52.9084 	 -94.8336 	 
C 	 -106.189 	 52.3086 	 -95.7587 	 
C 	 -106.449 	 52.6554 	 -97.0927 	 
C 	 -107.633 	 53.3429 	 -97.2441 	 
H 	 -105.939 	 52.4284 	 -97.9546 	 
C 	 -105.143 	 51.3683 	 -95.292 	 
H 	 -105.339 	 50.528 	 -95.9655 	 
H 	 -105.277 	 51.0771 	 -94.2481 	 
C 	 -103.702 	 51.7572 	 -95.5202 	 
H 	 -103.077 	 50.8677 	 -95.4718 	 
H 	 -103.673 	 52.1642 	 -96.6216 	 
C 	 -103.292 	 52.7457 	 -94.3687 	 
H 	 -102.417 	 53.4005 	 -94.5894 	 
H 	 -104.118 	 53.4664 	 -94.2682 	 
H 	 -103.161 	 52.2211 	 -93.3832 	 
S 	 -108.719 	 55.4607 	 -98.5599 	 
C 	 -109.307 	 55.3709 	 -100.155 	 
C 	 -108.886 	 54.1494 	 -100.63 	 
C 	 -108.29 	 53.2442 	 -99.7043 	 
C 	 -108.101 	 53.8434 	 -98.4794 	 
H 	 -109.199 	 53.9198 	 -101.586 	 
C 	 -107.965 	 51.8045 	 -100.18 	 
H 	 -107.223 	 51.3845 	 -99.5337 	 
H 	 -107.49 	 51.9158 	 -101.145 	 
C 	 -109.231 	 50.9263 	 -100.3 	 
H 	 -110.029 	 51.5254 	 -100.733 	 
H 	 -109.423 	 50.7764 	 -99.2574 	 
C 	 -108.953 	 49.6225 	 -101.088 	 
H 	 -108.525 	 48.9915 	 -100.403 	 
H 	 -108.272 	 49.7497 	 -101.951 	 
H 	 -109.888 	 49.1665 	 -101.45 	 
H 	 -107.094 	 52.8053 	 -93.7271 	 
H 	 -109.872 	 56.0683 	 -100.69 	 
*
