! wB97X-D3 SP def2-SVP
%pal
nprocs 24
end

* xyz 0 1
S 	 -98.1187 	 49.5481 	 -92.5596 	 
C 	 -97.5523 	 48.1266 	 -91.7552 	 
C 	 -96.5308 	 47.5787 	 -92.4972 	 
C 	 -96.25 	 48.3001 	 -93.6579 	 
C 	 -97.1793 	 49.2844 	 -93.9226 	 
H 	 -95.4781 	 48.0631 	 -94.2849 	 
C 	 -95.7511 	 46.2895 	 -92.1665 	 
H 	 -95.7081 	 46.2806 	 -91.0398 	 
H 	 -94.7472 	 46.3956 	 -92.4693 	 
C 	 -96.3178 	 44.9587 	 -92.6559 	 
H 	 -97.319 	 44.8046 	 -92.239 	 
H 	 -96.4197 	 44.9644 	 -93.7806 	 
C 	 -95.4596 	 43.7563 	 -92.326 	 
H 	 -94.4641 	 43.9391 	 -92.6487 	 
H 	 -95.5316 	 43.577 	 -91.2268 	 
H 	 -95.8087 	 42.8163 	 -92.689 	 
S 	 -97.3132 	 51.9623 	 -94.8233 	 
C 	 -96.5756 	 52.291 	 -96.3833 	 
C 	 -96.3069 	 51.1591 	 -97.1009 	 
C 	 -96.6936 	 49.9855 	 -96.3693 	 
C 	 -97.1252 	 50.2471 	 -95.0418 	 
H 	 -95.8255 	 51.236 	 -98.0559 	 
C 	 -96.4092 	 48.5537 	 -96.9652 	 
H 	 -95.7331 	 48.0482 	 -96.2571 	 
H 	 -95.7695 	 48.6315 	 -97.8656 	 
C 	 -97.5005 	 47.7599 	 -97.4235 	 
H 	 -98.0334 	 48.2111 	 -98.1972 	 
H 	 -98.1195 	 47.5683 	 -96.5286 	 
C 	 -97.0906 	 46.359 	 -97.9942 	 
H 	 -96.215 	 46.3848 	 -98.5321 	 
H 	 -97.9425 	 45.9544 	 -98.5472 	 
H 	 -96.8318 	 45.7082 	 -97.2182 	 
H 	 -97.8701 	 47.7285 	 -90.8781 	 
H 	 -96.3748 	 53.2339 	 -96.7622 	 
*
