! wB97X-D3 SP def2-SVP
%pal
nprocs 24
end

* xyz 0 1
S 	 -57.5015 	 4.29812 	 -21.3583 	 
C 	 -57.764 	 3.66204 	 -19.7966 	 
C 	 -57.0689 	 4.25367 	 -18.811 	 
C 	 -56.2031 	 5.23121 	 -19.3537 	 
C 	 -56.408 	 5.53343 	 -20.6849 	 
H 	 -55.5393 	 5.72264 	 -18.7175 	 
C 	 -57.1509 	 4.03998 	 -17.2885 	 
H 	 -56.2379 	 3.76726 	 -16.8031 	 
H 	 -57.731 	 3.10984 	 -17.0507 	 
C 	 -57.647 	 5.30306 	 -16.5986 	 
H 	 -57.0199 	 6.14872 	 -16.9176 	 
H 	 -58.7295 	 5.44067 	 -16.8435 	 
C 	 -57.6057 	 5.1955 	 -15.068 	 
H 	 -58.4097 	 4.49948 	 -14.796 	 
H 	 -56.5851 	 4.97403 	 -14.7268 	 
H 	 -57.8213 	 6.21571 	 -14.748 	 
S 	 -54.833 	 5.82009 	 -23.091 	 
C 	 -54.117 	 7.37788 	 -23.3701 	 
C 	 -54.3687 	 8.19291 	 -22.3193 	 
C 	 -55.268 	 7.70137 	 -21.2813 	 
C 	 -55.6356 	 6.38877 	 -21.5849 	 
H 	 -53.7584 	 9.04453 	 -22.3623 	 
C 	 -55.7353 	 8.49972 	 -20.0667 	 
H 	 -55.85 	 7.89435 	 -19.1563 	 
H 	 -56.7401 	 8.82858 	 -20.2696 	 
C 	 -54.8607 	 9.68732 	 -19.7669 	 
H 	 -55.0104 	 10.4453 	 -20.4588 	 
H 	 -53.7679 	 9.60829 	 -19.6524 	 
C 	 -55.5627 	 10.3274 	 -18.5595 	 
H 	 -55.5257 	 9.56602 	 -17.7926 	 
H 	 -56.65 	 10.4345 	 -18.7818 	 
H 	 -55.1426 	 11.2419 	 -18.2162 	 
H 	 -58.5215 	 2.89144 	 -19.6631 	 
H 	 -53.385 	 7.5624 	 -24.1099 	 
*
