! wB97X-D3 SP def2-SVP
%pal
nprocs 24
end

* xyz 0 1
S 	 -67.1609 	 18.8084 	 -107.866 	 
C 	 -67.9056 	 17.2024 	 -107.468 	 
C 	 -67.235 	 16.1814 	 -108.083 	 
C 	 -66.1929 	 16.6631 	 -108.956 	 
C 	 -66.1377 	 18.0843 	 -109.12 	 
H 	 -65.4127 	 16.0629 	 -109.406 	 
C 	 -67.4353 	 14.6893 	 -107.722 	 
H 	 -68.4124 	 14.376 	 -108.033 	 
H 	 -67.3929 	 14.5729 	 -106.607 	 
C 	 -66.5675 	 13.6465 	 -108.405 	 
H 	 -66.7893 	 13.6485 	 -109.487 	 
H 	 -65.5564 	 14.028 	 -108.414 	 
C 	 -66.6544 	 12.214 	 -107.868 	 
H 	 -66.0772 	 11.6283 	 -108.542 	 
H 	 -66.4138 	 12.0886 	 -106.759 	 
H 	 -67.6654 	 11.8986 	 -107.945 	 
S 	 -64.1666 	 19.8865 	 -109.452 	 
C 	 -63.4892 	 20.2674 	 -111.022 	 
C 	 -64.1137 	 19.4847 	 -111.991 	 
C 	 -65.2203 	 18.7357 	 -111.466 	 
C 	 -65.36 	 18.8703 	 -110.075 	 
H 	 -63.8345 	 19.431 	 -113.012 	 
C 	 -66.1624 	 17.9632 	 -112.379 	 
H 	 -66.6514 	 18.6325 	 -113.083 	 
H 	 -66.9694 	 17.7141 	 -111.701 	 
C 	 -65.5128 	 16.8103 	 -113.164 	 
H 	 -64.9409 	 17.2431 	 -114.077 	 
H 	 -66.3432 	 16.2475 	 -113.615 	 
C 	 -64.5461 	 15.8799 	 -112.469 	 
H 	 -63.7549 	 16.3145 	 -111.839 	 
H 	 -64.0201 	 15.2928 	 -113.31 	 
H 	 -65.1569 	 15.1336 	 -111.876 	 
H 	 -68.715 	 17.1763 	 -106.693 	 
H 	 -62.7271 	 20.9327 	 -111.113 	 
*
