! wB97X-D3 SP def2-SVP
%pal
nprocs 24
end

* xyz 0 1
S 	 -60.8063 	 10.2619 	 -94.3646 	 
C 	 -59.8278 	 11.1371 	 -93.1896 	 
C 	 -60.6011 	 11.9333 	 -92.3841 	 
C 	 -61.9862 	 11.8892 	 -92.779 	 
C 	 -62.2886 	 11.0343 	 -93.8059 	 
H 	 -62.7817 	 12.5 	 -92.2582 	 
C 	 -60.0031 	 12.8175 	 -91.3649 	 
H 	 -60.3924 	 13.8576 	 -91.5197 	 
H 	 -58.9789 	 13.0169 	 -91.5248 	 
C 	 -60.1359 	 12.2716 	 -89.8869 	 
H 	 -59.555 	 11.3502 	 -89.7558 	 
H 	 -59.6738 	 12.9183 	 -89.2657 	 
C 	 -61.5077 	 11.7631 	 -89.3602 	 
H 	 -61.4417 	 11.3292 	 -88.344 	 
H 	 -62.2228 	 12.5439 	 -89.2801 	 
H 	 -61.8825 	 10.9711 	 -90.0507 	 
S 	 -63.7021 	 10.9614 	 -96.1002 	 
C 	 -65.4329 	 10.7822 	 -96.0907 	 
C 	 -65.9466 	 10.5528 	 -94.8143 	 
C 	 -64.9187 	 10.5629 	 -93.7927 	 
C 	 -63.6413 	 10.772 	 -94.3525 	 
H 	 -67.0637 	 10.458 	 -94.8035 	 
C 	 -65.0935 	 10.4611 	 -92.272 	 
H 	 -64.0453 	 10.3863 	 -91.8572 	 
H 	 -65.6457 	 9.48645 	 -92.0205 	 
C 	 -65.828 	 11.7521 	 -91.8167 	 
H 	 -66.9301 	 11.7445 	 -92.0261 	 
H 	 -65.4255 	 12.5779 	 -92.3244 	 
C 	 -65.8747 	 11.948 	 -90.2307 	 
H 	 -64.8664 	 11.9073 	 -89.7477 	 
H 	 -66.5068 	 11.1781 	 -89.8357 	 
H 	 -66.3965 	 12.8625 	 -90.0152 	 
H 	 -58.7964 	 11.0698 	 -93.1456 	 
H 	 -66.1011 	 10.7231 	 -96.9002 	 
*
