! wB97X-D3 SP def2-SVP
%pal
nprocs 24
end

* xyz 0 1
S 	 -41.4998 	 18.6434 	 26.9481 	 
C 	 -41.9469 	 16.925 	 27.1322 	 
C 	 -42.0304 	 16.3535 	 25.8314 	 
C 	 -41.7149 	 17.2692 	 24.7577 	 
C 	 -41.2074 	 18.4824 	 25.1587 	 
H 	 -41.6651 	 17.056 	 23.6653 	 
C 	 -42.3259 	 14.8777 	 25.5858 	 
H 	 -41.7085 	 14.2428 	 26.2211 	 
H 	 -42.0648 	 14.7455 	 24.5739 	 
C 	 -43.8708 	 14.5457 	 25.7917 	 
H 	 -43.9002 	 14.369 	 26.8746 	 
H 	 -44.5462 	 15.3551 	 25.5787 	 
C 	 -44.4025 	 13.3095 	 25.0701 	 
H 	 -43.9102 	 12.4501 	 25.534 	 
H 	 -45.4776 	 13.1944 	 25.1746 	 
H 	 -44.178 	 13.3405 	 23.9827 	 
S 	 -41.4543 	 21.1239 	 24.2674 	 
C 	 -40.3056 	 21.7802 	 23.1855 	 
C 	 -39.5594 	 20.7391 	 22.6912 	 
C 	 -39.6867 	 19.4948 	 23.3984 	 
C 	 -40.6441 	 19.6108 	 24.4036 	 
H 	 -38.9291 	 20.9852 	 21.8268 	 
C 	 -38.8853 	 18.2497 	 22.9613 	 
H 	 -39.0026 	 18.0979 	 21.8855 	 
H 	 -39.4202 	 17.35 	 23.3678 	 
C 	 -37.3837 	 18.3 	 23.3025 	 
H 	 -36.921 	 19.1559 	 22.7941 	 
H 	 -36.8353 	 17.3881 	 22.9298 	 
C 	 -37.1119 	 18.3011 	 24.8247 	 
H 	 -37.3421 	 17.3984 	 25.3806 	 
H 	 -37.6121 	 19.0988 	 25.3174 	 
H 	 -35.9913 	 18.496 	 24.9682 	 
H 	 -42.1993 	 16.4284 	 28.0328 	 
H 	 -40.3535 	 22.7583 	 22.7809 	 
*
