! wB97X-D3 SP def2-SVP
%pal
nprocs 24
end

* xyz 0 1
S 	 20.1004 	 -25.3106 	 -119.613 	 
C 	 21.2833 	 -26.5493 	 -119.368 	 
C 	 22.2075 	 -26.157 	 -118.392 	 
C 	 21.881 	 -24.9155 	 -117.729 	 
C 	 20.733 	 -24.3356 	 -118.264 	 
H 	 22.4472 	 -24.5269 	 -116.933 	 
C 	 23.3938 	 -27.0083 	 -117.981 	 
H 	 23.3773 	 -28.0285 	 -118.304 	 
H 	 23.4395 	 -27.072 	 -116.911 	 
C 	 24.7459 	 -26.3801 	 -118.213 	 
H 	 24.7972 	 -25.9927 	 -119.265 	 
H 	 24.8357 	 -25.4615 	 -117.598 	 
C 	 26.0398 	 -27.1843 	 -117.729 	 
H 	 26.0541 	 -28.1407 	 -118.258 	 
H 	 27.0052 	 -26.7318 	 -118.012 	 
H 	 25.9623 	 -27.3192 	 -116.659 	 
S 	 19.9165 	 -22.8086 	 -116.12 	 
C 	 19.2572 	 -21.1737 	 -116.376 	 
C 	 19.3858 	 -20.8035 	 -117.691 	 
C 	 19.9299 	 -21.8836 	 -118.472 	 
C 	 20.1752 	 -23.0371 	 -117.841 	 
H 	 19.1213 	 -19.797 	 -118.046 	 
C 	 20.187 	 -21.7336 	 -119.965 	 
H 	 20.9152 	 -22.4771 	 -120.464 	 
H 	 20.632 	 -20.7558 	 -120.074 	 
C 	 18.8551 	 -21.8309 	 -120.731 	 
H 	 18.3143 	 -20.9261 	 -120.461 	 
H 	 18.2746 	 -22.6528 	 -120.388 	 
C 	 19.0097 	 -21.8296 	 -122.236 	 
H 	 19.3341 	 -20.8763 	 -122.634 	 
H 	 18.0445 	 -22.0412 	 -122.744 	 
H 	 19.6462 	 -22.6719 	 -122.651 	 
H 	 21.4224 	 -27.4396 	 -119.938 	 
H 	 18.7952 	 -20.5351 	 -115.582 	 
*
