! wB97X-D3 SP def2-SVP
%pal
nprocs 24
end

* xyz 0 1
S 	 -37.9794 	 10.8571 	 24.9104 	 
C 	 -39.4716 	 11.2399 	 24.0033 	 
C 	 -40.0692 	 12.3599 	 24.5682 	 
C 	 -39.3884 	 12.8542 	 25.7602 	 
C 	 -38.1531 	 12.2939 	 25.8751 	 
H 	 -39.6829 	 13.6174 	 26.474 	 
C 	 -41.4682 	 12.8676 	 24.2767 	 
H 	 -41.8095 	 12.4129 	 23.3679 	 
H 	 -41.49 	 13.929 	 24.0662 	 
C 	 -42.41 	 12.4483 	 25.3652 	 
H 	 -42.6033 	 11.4251 	 25.4642 	 
H 	 -41.829 	 12.7542 	 26.2832 	 
C 	 -43.7598 	 13.1271 	 25.3125 	 
H 	 -44.1992 	 13.0197 	 24.2197 	 
H 	 -44.4982 	 12.5692 	 25.8962 	 
H 	 -43.6878 	 14.1664 	 25.542 	 
S 	 -36.629 	 14.2587 	 26.8878 	 
C 	 -35.4566 	 13.8775 	 28.2438 	 
C 	 -35.735 	 12.6815 	 28.7686 	 
C 	 -36.8629 	 12.0031 	 28.1095 	 
C 	 -37.2037 	 12.6276 	 26.8935 	 
H 	 -35.2923 	 12.3108 	 29.6595 	 
C 	 -37.2738 	 10.669 	 28.5381 	 
H 	 -36.5026 	 9.90008 	 28.4409 	 
H 	 -38.0912 	 10.3544 	 27.7909 	 
C 	 -37.7458 	 10.5512 	 29.9789 	 
H 	 -36.8901 	 10.4604 	 30.6221 	 
H 	 -38.2249 	 9.61279 	 30.2797 	 
C 	 -38.6012 	 11.7482 	 30.5036 	 
H 	 -39.6245 	 11.7006 	 30.1331 	 
H 	 -38.1432 	 12.7672 	 30.359 	 
H 	 -38.7323 	 11.5811 	 31.5965 	 
H 	 -39.8728 	 10.8072 	 23.1274 	 
H 	 -34.7834 	 14.5871 	 28.6363 	 
*
