! wB97X-D3 SP def2-SVP
%pal
nprocs 24
end

* xyz 0 1
S 	 -110.179 	 55.8067 	 -85.9105 	 
C 	 -111.864 	 56.3744 	 -85.9751 	 
C 	 -112.126 	 57.2239 	 -87.0562 	 
C 	 -110.933 	 57.4245 	 -87.8267 	 
C 	 -109.766 	 56.8952 	 -87.2563 	 
H 	 -110.858 	 57.9568 	 -88.7661 	 
C 	 -113.484 	 57.8268 	 -87.4882 	 
H 	 -114.167 	 56.9432 	 -87.574 	 
H 	 -113.433 	 58.1715 	 -88.5014 	 
C 	 -114.156 	 58.9436 	 -86.6844 	 
H 	 -113.623 	 59.851 	 -86.8235 	 
H 	 -115.16 	 59.0828 	 -87.1389 	 
C 	 -114.408 	 58.6419 	 -85.2486 	 
H 	 -114.734 	 59.5371 	 -84.6927 	 
H 	 -115.159 	 57.8169 	 -85.0446 	 
H 	 -113.471 	 58.2741 	 -84.7499 	 
S 	 -107.748 	 55.4362 	 -88.4144 	 
C 	 -106.376 	 56.2244 	 -88.9939 	 
C 	 -106.37 	 57.5592 	 -88.8013 	 
C 	 -107.497 	 57.9852 	 -88.0779 	 
C 	 -108.357 	 56.9473 	 -87.7656 	 
H 	 -105.652 	 58.2225 	 -89.1885 	 
C 	 -107.662 	 59.4737 	 -87.7463 	 
H 	 -108.652 	 59.7372 	 -88.1394 	 
H 	 -106.888 	 59.9966 	 -88.2672 	 
C 	 -107.598 	 59.8389 	 -86.3586 	 
H 	 -106.616 	 59.5904 	 -85.8649 	 
H 	 -108.331 	 59.249 	 -85.8372 	 
C 	 -107.808 	 61.36 	 -86.0154 	 
H 	 -108.039 	 61.5207 	 -84.9683 	 
H 	 -108.688 	 61.7787 	 -86.4402 	 
H 	 -107.03 	 61.9995 	 -86.3482 	 
H 	 -112.618 	 56.3216 	 -85.1728 	 
H 	 -105.658 	 55.7451 	 -89.5793 	 
*
