! wB97X-D3 SP def2-SVP
%pal
nprocs 24
end

* xyz 0 1
S 	 -40.9494 	 20.0021 	 26.3091 	 
C 	 -41.6469 	 19.7845 	 27.905 	 
C 	 -40.8559 	 19.0274 	 28.7319 	 
C 	 -39.777 	 18.4002 	 28.0259 	 
C 	 -39.73 	 18.8123 	 26.7002 	 
H 	 -39.0692 	 17.6692 	 28.3934 	 
C 	 -41.0429 	 18.9263 	 30.2401 	 
H 	 -40.1544 	 18.7375 	 30.8011 	 
H 	 -41.6416 	 18.0135 	 30.3063 	 
C 	 -41.8169 	 20.0678 	 30.8377 	 
H 	 -41.3648 	 20.9776 	 30.6071 	 
H 	 -42.778 	 20.189 	 30.4004 	 
C 	 -41.8321 	 19.9137 	 32.4621 	 
H 	 -40.7965 	 20.016 	 32.7737 	 
H 	 -42.4254 	 20.788 	 32.8931 	 
H 	 -42.201 	 18.9687 	 32.8617 	 
S 	 -39.745 	 17.5257 	 24.3462 	 
C 	 -38.2476 	 17.2616 	 23.4091 	 
C 	 -37.2357 	 17.9572 	 23.9921 	 
C 	 -37.5627 	 18.5742 	 25.253 	 
C 	 -38.8996 	 18.4169 	 25.6102 	 
H 	 -36.2603 	 18.0208 	 23.4955 	 
C 	 -36.5318 	 19.2976 	 26.1302 	 
H 	 -35.9698 	 18.7046 	 26.872 	 
H 	 -37.0473 	 20.0058 	 26.7586 	 
C 	 -35.5359 	 20.1842 	 25.3997 	 
H 	 -36.0871 	 20.8815 	 24.7928 	 
H 	 -35.0825 	 19.4592 	 24.6934 	 
C 	 -34.3924 	 20.7813 	 26.1587 	 
H 	 -33.6558 	 21.256 	 25.4918 	 
H 	 -33.9092 	 19.8467 	 26.6084 	 
H 	 -34.725 	 21.473 	 26.9243 	 
H 	 -42.3507 	 20.4992 	 28.2927 	 
H 	 -38.2257 	 16.7452 	 22.4085 	 
*
