! wB97X-D3 SP def2-SVP
%pal
nprocs 24
end

* xyz 0 1
S 	 -34.8448 	 -48.3183 	 -75.6837 	 
C 	 -33.1907 	 -48.6183 	 -76.1757 	 
C 	 -32.3122 	 -47.5814 	 -75.9592 	 
C 	 -33.078 	 -46.426 	 -75.5475 	 
C 	 -34.4367 	 -46.688 	 -75.3404 	 
H 	 -32.712 	 -45.3911 	 -75.3519 	 
C 	 -30.831 	 -47.6312 	 -76.2779 	 
H 	 -30.2727 	 -46.6671 	 -76.0324 	 
H 	 -30.6961 	 -47.869 	 -77.3707 	 
C 	 -30.1109 	 -48.6973 	 -75.4342 	 
H 	 -29.0897 	 -48.3358 	 -75.4418 	 
H 	 -30.4516 	 -48.7549 	 -74.4194 	 
C 	 -30.108 	 -50.1667 	 -75.9558 	 
H 	 -31.1265 	 -50.6763 	 -76.0058 	 
H 	 -29.5133 	 -50.3941 	 -76.8565 	 
H 	 -29.6121 	 -50.811 	 -75.221 	 
S 	 -36.2277 	 -45.9683 	 -73.3684 	 
C 	 -37.5182 	 -44.817 	 -73.703 	 
C 	 -37.2418 	 -44.168 	 -74.9255 	 
C 	 -36.1526 	 -44.6613 	 -75.6309 	 
C 	 -35.5676 	 -45.7734 	 -75.0099 	 
H 	 -37.7228 	 -43.3277 	 -75.2453 	 
C 	 -35.7758 	 -44.0979 	 -76.9836 	 
H 	 -34.7332 	 -44.4039 	 -77.0215 	 
H 	 -35.9759 	 -43.0634 	 -76.906 	 
C 	 -36.3867 	 -44.7391 	 -78.2092 	 
H 	 -37.4563 	 -44.6103 	 -78.3195 	 
H 	 -36.1961 	 -45.8709 	 -78.2191 	 
C 	 -35.7049 	 -44.2322 	 -79.506 	 
H 	 -35.9781 	 -43.2202 	 -79.8591 	 
H 	 -36.0152 	 -44.9315 	 -80.2985 	 
H 	 -34.574 	 -44.2045 	 -79.4854 	 
H 	 -32.887 	 -49.5694 	 -76.5204 	 
H 	 -38.4035 	 -44.509 	 -73.1136 	 
*
