! wB97X-D3 SP def2-SVP
%pal
nprocs 24
end

* xyz 0 1
S 	 -115.372 	 62.8566 	 -29.6238 	 
C 	 -115.32 	 62.5321 	 -27.8611 	 
C 	 -116.297 	 61.6053 	 -27.6225 	 
C 	 -117.173 	 61.245 	 -28.6968 	 
C 	 -116.836 	 61.8079 	 -29.875 	 
H 	 -117.948 	 60.496 	 -28.6974 	 
C 	 -116.383 	 60.9759 	 -26.2364 	 
H 	 -117.471 	 60.8513 	 -26.0015 	 
H 	 -116.051 	 61.604 	 -25.4499 	 
C 	 -115.724 	 59.6185 	 -26.1942 	 
H 	 -116.134 	 58.9455 	 -26.9349 	 
H 	 -114.695 	 59.8092 	 -26.5249 	 
C 	 -115.585 	 58.9889 	 -24.7642 	 
H 	 -116.523 	 59.0121 	 -24.2223 	 
H 	 -115.268 	 57.9781 	 -24.8525 	 
H 	 -114.845 	 59.4466 	 -24.1523 	 
S 	 -117.283 	 63.0333 	 -32.2168 	 
C 	 -118.113 	 62.1626 	 -33.478 	 
C 	 -118.569 	 60.9655 	 -33.0605 	 
C 	 -118.091 	 60.6036 	 -31.7936 	 
C 	 -117.398 	 61.6848 	 -31.1963 	 
H 	 -119.109 	 60.3351 	 -33.6969 	 
C 	 -118.2 	 59.2334 	 -31.0868 	 
H 	 -119.063 	 59.3454 	 -30.4954 	 
H 	 -117.383 	 59.0071 	 -30.4254 	 
C 	 -118.26 	 58.0629 	 -32.1038 	 
H 	 -117.511 	 58.1431 	 -32.8819 	 
H 	 -119.276 	 58.0729 	 -32.5424 	 
C 	 -118.048 	 56.7087 	 -31.4774 	 
H 	 -118.658 	 56.539 	 -30.5865 	 
H 	 -116.989 	 56.5991 	 -31.2009 	 
H 	 -118.219 	 55.8729 	 -32.1528 	 
H 	 -114.754 	 62.9637 	 -27.0535 	 
H 	 -118.388 	 62.4866 	 -34.4872 	 
*
