! wB97X-D3 SP def2-SVP
%pal
nprocs 24
end

* xyz 0 1
S 	 -39.7974 	 9.34977 	 2.50003 	 
C 	 -39.752 	 8.44716 	 1.02381 	 
C 	 -39.8736 	 7.07386 	 1.27447 	 
C 	 -40.1941 	 6.81445 	 2.66214 	 
C 	 -40.3453 	 7.97 	 3.42754 	 
H 	 -40.3709 	 5.85158 	 3.14894 	 
C 	 -39.7547 	 5.9682 	 0.218289 	 
H 	 -38.6764 	 5.73805 	 0.150895 	 
H 	 -40.018 	 6.35798 	 -0.778847 	 
C 	 -40.5698 	 4.71823 	 0.496192 	 
H 	 -39.9874 	 4.03077 	 1.14247 	 
H 	 -41.5963 	 4.99629 	 0.927668 	 
C 	 -40.893 	 3.91735 	 -0.795254 	 
H 	 -39.9594 	 3.73332 	 -1.36554 	 
H 	 -41.3429 	 2.95966 	 -0.450502 	 
H 	 -41.6181 	 4.41888 	 -1.48325 	 
S 	 -39.0348 	 7.93209 	 5.78505 	 
C 	 -39.8222 	 7.99767 	 7.29946 	 
C 	 -41.1837 	 7.87264 	 7.13266 	 
C 	 -41.5702 	 7.89742 	 5.76071 	 
C 	 -40.4842 	 7.92106 	 4.87559 	 
H 	 -41.8755 	 7.86041 	 7.95866 	 
C 	 -43.0423 	 7.71283 	 5.30378 	 
H 	 -43.01 	 7.85921 	 4.24967 	 
H 	 -43.6857 	 8.52002 	 5.7803 	 
C 	 -43.603 	 6.32012 	 5.57822 	 
H 	 -44.7023 	 6.34127 	 5.4631 	 
H 	 -43.2762 	 5.92841 	 6.5851 	 
C 	 -43.1135 	 5.24432 	 4.62753 	 
H 	 -43.5168 	 5.53244 	 3.57015 	 
H 	 -43.4882 	 4.28477 	 4.77409 	 
H 	 -41.9957 	 5.21982 	 4.54942 	 
H 	 -39.4457 	 8.82878 	 0.0679828 	 
H 	 -39.3632 	 8.39438 	 8.15425 	 
*
