! wB97X-D3 SP def2-SVP
%pal
nprocs 24
end

* xyz 0 1
S 	 -40.2441 	 -48.2971 	 -82.1249 	 
C 	 -41.1887 	 -49.6607 	 -82.8533 	 
C 	 -42.4496 	 -49.2521 	 -83.1245 	 
C 	 -42.7865 	 -47.9822 	 -82.5056 	 
C 	 -41.7136 	 -47.2757 	 -81.9988 	 
H 	 -43.7339 	 -47.5249 	 -82.6616 	 
C 	 -43.4947 	 -50.1077 	 -83.756 	 
H 	 -42.9176 	 -50.6727 	 -84.4912 	 
H 	 -44.1664 	 -49.5655 	 -84.4622 	 
C 	 -44.3245 	 -50.848 	 -82.7298 	 
H 	 -43.8932 	 -51.0768 	 -81.7844 	 
H 	 -45.1512 	 -50.2377 	 -82.3785 	 
C 	 -44.8793 	 -52.1293 	 -83.4167 	 
H 	 -45.5358 	 -52.5054 	 -82.7016 	 
H 	 -45.2757 	 -52.061 	 -84.4233 	 
H 	 -44.0573 	 -52.8995 	 -83.4179 	 
S 	 -41.4391 	 -44.6488 	 -82.8664 	 
C 	 -41.441 	 -43.4635 	 -81.5699 	 
C 	 -41.8629 	 -43.899 	 -80.3683 	 
C 	 -42.0726 	 -45.3452 	 -80.3609 	 
C 	 -41.7661 	 -45.8734 	 -81.5945 	 
H 	 -41.8895 	 -43.3269 	 -79.4363 	 
C 	 -42.4559 	 -46.1254 	 -79.1096 	 
H 	 -41.9939 	 -45.7969 	 -78.198 	 
H 	 -42.0488 	 -47.191 	 -79.2953 	 
C 	 -43.9442 	 -46.0935 	 -78.858 	 
H 	 -44.2231 	 -46.836 	 -78.1386 	 
H 	 -44.4419 	 -46.3595 	 -79.71 	 
C 	 -44.3844 	 -44.6669 	 -78.4564 	 
H 	 -45.4235 	 -44.7148 	 -78.0891 	 
H 	 -44.3335 	 -43.9108 	 -79.2544 	 
H 	 -43.8342 	 -44.3631 	 -77.6181 	 
H 	 -40.8164 	 -50.6152 	 -83.174 	 
H 	 -41.1852 	 -42.4644 	 -81.7314 	 
*
