! wB97X-D3 SP def2-SVP
%pal
nprocs 24
end

* xyz 0 1
S 	 -137.132 	 69.8516 	 -63.651 	 
C 	 -135.684 	 69.112 	 -64.4034 	 
C 	 -135.973 	 67.8185 	 -64.8904 	 
C 	 -137.315 	 67.5307 	 -64.7712 	 
C 	 -138.095 	 68.4567 	 -64.1244 	 
H 	 -137.81 	 66.6368 	 -65.1428 	 
C 	 -134.965 	 66.986 	 -65.7132 	 
H 	 -135.471 	 65.9796 	 -65.7883 	 
H 	 -134.058 	 66.7514 	 -65.1426 	 
C 	 -134.594 	 67.6029 	 -67.0947 	 
H 	 -134.471 	 68.7041 	 -67.0063 	 
H 	 -133.715 	 67.0876 	 -67.5327 	 
C 	 -135.732 	 67.4528 	 -68.0629 	 
H 	 -135.328 	 67.6412 	 -69.115 	 
H 	 -136.199 	 66.5032 	 -67.9833 	 
H 	 -136.596 	 68.138 	 -67.7825 	 
S 	 -140.003 	 68.2323 	 -62.1288 	 
C 	 -141.694 	 68.1491 	 -62.4492 	 
C 	 -141.865 	 68.3294 	 -63.8294 	 
C 	 -140.646 	 68.4661 	 -64.5776 	 
C 	 -139.502 	 68.4293 	 -63.7916 	 
H 	 -142.829 	 68.2612 	 -64.2412 	 
C 	 -140.657 	 68.4734 	 -66.0665 	 
H 	 -139.774 	 68.9376 	 -66.3782 	 
H 	 -141.415 	 69.2052 	 -66.3186 	 
C 	 -140.846 	 67.1714 	 -66.7821 	 
H 	 -141.784 	 66.7188 	 -66.3891 	 
H 	 -140.086 	 66.4275 	 -66.4447 	 
C 	 -140.979 	 67.3811 	 -68.3336 	 
H 	 -141.793 	 68.0333 	 -68.5501 	 
H 	 -141.197 	 66.4696 	 -68.9454 	 
H 	 -140.028 	 67.8009 	 -68.7407 	 
H 	 -134.684 	 69.5084 	 -64.4616 	 
H 	 -142.477 	 68.1627 	 -61.7203 	 
*
