! wB97X-D3 SP def2-SVP
%pal
nprocs 24
end

* xyz 0 1
S 	 -134.286 	 62.3752 	 -62.8888 	 
C 	 -135.119 	 63.8606 	 -62.989 	 
C 	 -135.287 	 64.5216 	 -61.7301 	 
C 	 -134.658 	 63.7564 	 -60.6833 	 
C 	 -134.087 	 62.5806 	 -61.1384 	 
H 	 -134.656 	 64.1882 	 -59.7143 	 
C 	 -135.932 	 65.8885 	 -61.5375 	 
H 	 -135.676 	 66.409 	 -62.3932 	 
H 	 -135.438 	 66.4134 	 -60.7567 	 
C 	 -137.429 	 65.9233 	 -61.1659 	 
H 	 -137.666 	 65.0897 	 -60.4252 	 
H 	 -137.618 	 66.9123 	 -60.9136 	 
C 	 -138.336 	 65.5513 	 -62.3988 	 
H 	 -138.366 	 64.4691 	 -62.3442 	 
H 	 -139.397 	 66.0357 	 -62.1428 	 
H 	 -137.948 	 65.8876 	 -63.3975 	 
S 	 -133.706 	 59.9382 	 -60.3777 	 
C 	 -132.896 	 59.5359 	 -58.8596 	 
C 	 -132.192 	 60.6324 	 -58.4962 	 
C 	 -132.344 	 61.8033 	 -59.3334 	 
C 	 -133.343 	 61.6529 	 -60.2829 	 
H 	 -131.749 	 60.6801 	 -57.5545 	 
C 	 -131.683 	 63.1782 	 -59.0636 	 
H 	 -131.472 	 63.2657 	 -58.014 	 
H 	 -132.442 	 63.9336 	 -59.2354 	 
C 	 -130.475 	 63.4552 	 -59.9658 	 
H 	 -129.8 	 62.662 	 -59.9816 	 
H 	 -130.062 	 64.3642 	 -59.637 	 
C 	 -130.707 	 63.7542 	 -61.4119 	 
H 	 -131.026 	 64.7716 	 -61.5576 	 
H 	 -131.563 	 63.2076 	 -61.9112 	 
H 	 -129.846 	 63.5058 	 -62.1058 	 
H 	 -135.659 	 64.2164 	 -63.9432 	 
H 	 -132.987 	 58.6351 	 -58.3141 	 
*
