! wB97X-D3 SP def2-SVP
%pal
nprocs 24
end

* xyz 0 1
S 	 -4.11264 	 -18.9158 	 -105.948 	 
C 	 -4.42256 	 -20.2902 	 -104.911 	 
C 	 -4.67511 	 -19.8403 	 -103.628 	 
C 	 -4.748 	 -18.3918 	 -103.54 	 
C 	 -4.60554 	 -17.7502 	 -104.759 	 
H 	 -4.90933 	 -17.7128 	 -102.679 	 
C 	 -4.77619 	 -20.8267 	 -102.457 	 
H 	 -4.78221 	 -21.8392 	 -102.935 	 
H 	 -5.75157 	 -20.6544 	 -102.002 	 
C 	 -3.6846 	 -20.6973 	 -101.455 	 
H 	 -2.70833 	 -21.0732 	 -101.837 	 
H 	 -3.534 	 -19.6665 	 -101.196 	 
C 	 -3.94831 	 -21.4678 	 -100.175 	 
H 	 -4.02351 	 -22.5028 	 -100.303 	 
H 	 -3.18783 	 -21.2938 	 -99.4165 	 
H 	 -4.93903 	 -21.1823 	 -99.7514 	 
S 	 -2.64975 	 -15.7554 	 -105.003 	 
C 	 -3.11789 	 -14.1279 	 -105.224 	 
C 	 -4.4865 	 -13.9936 	 -105.094 	 
C 	 -5.17362 	 -15.2103 	 -104.963 	 
C 	 -4.31659 	 -16.3314 	 -104.988 	 
H 	 -4.80492 	 -12.9382 	 -105.024 	 
C 	 -6.65486 	 -15.2271 	 -104.807 	 
H 	 -6.94939 	 -16.1732 	 -105.268 	 
H 	 -7.08955 	 -14.3212 	 -105.316 	 
C 	 -7.28925 	 -15.1925 	 -103.356 	 
H 	 -6.97744 	 -15.9568 	 -102.595 	 
H 	 -8.33942 	 -15.4006 	 -103.369 	 
C 	 -6.83461 	 -13.8915 	 -102.723 	 
H 	 -5.85773 	 -13.9763 	 -102.318 	 
H 	 -7.42686 	 -13.6618 	 -101.83 	 
H 	 -6.87553 	 -13.053 	 -103.459 	 
H 	 -4.41334 	 -21.3038 	 -105.175 	 
H 	 -2.45526 	 -13.2186 	 -105.322 	 
*
