! wB97X-D3 SP def2-SVP
%pal
nprocs 24
end

* xyz 0 1
S 	 -101.346 	 -1.4209 	 -105.129 	 
C 	 -100.201 	 -2.29153 	 -106.125 	 
C 	 -100.853 	 -3.00608 	 -107.143 	 
C 	 -102.286 	 -2.79727 	 -107.097 	 
C 	 -102.677 	 -1.99183 	 -106.098 	 
H 	 -102.975 	 -3.07438 	 -107.811 	 
C 	 -100.142 	 -3.84306 	 -108.19 	 
H 	 -99.0405 	 -3.88772 	 -107.921 	 
H 	 -100.066 	 -3.22773 	 -109.043 	 
C 	 -100.85 	 -5.22311 	 -108.401 	 
H 	 -101.809 	 -5.1608 	 -108.93 	 
H 	 -100.365 	 -5.64914 	 -109.256 	 
C 	 -100.825 	 -6.192 	 -107.268 	 
H 	 -100.764 	 -7.24021 	 -107.662 	 
H 	 -99.9264 	 -6.1395 	 -106.7 	 
H 	 -101.732 	 -6.01396 	 -106.747 	 
S 	 -103.942 	 0.409681 	 -106.211 	 
C 	 -105.634 	 0.554415 	 -105.863 	 
C 	 -106.18 	 -0.703249 	 -105.666 	 
C 	 -105.234 	 -1.75098 	 -105.6 	 
C 	 -103.969 	 -1.32158 	 -105.91 	 
H 	 -107.249 	 -0.847731 	 -105.597 	 
C 	 -105.606 	 -3.19965 	 -105.479 	 
H 	 -105.282 	 -3.60749 	 -104.586 	 
H 	 -104.929 	 -3.75868 	 -106.149 	 
C 	 -107.054 	 -3.58777 	 -105.658 	 
H 	 -107.392 	 -3.04148 	 -106.559 	 
H 	 -107.585 	 -3.14734 	 -104.819 	 
C 	 -107.332 	 -5.06713 	 -105.828 	 
H 	 -108.381 	 -5.25125 	 -106.016 	 
H 	 -107.077 	 -5.71001 	 -104.969 	 
H 	 -106.669 	 -5.37404 	 -106.682 	 
H 	 -99.1386 	 -2.27674 	 -105.837 	 
H 	 -106.218 	 1.42522 	 -105.909 	 
*
