! wB97X-D3 SP def2-SVP
%pal
nprocs 24
end

* xyz 0 1
S 	 3.01307 	 -17.5188 	 -105.973 	 
C 	 2.52458 	 -18.633 	 -107.285 	 
C 	 1.38244 	 -19.3856 	 -106.914 	 
C 	 0.98946 	 -18.9163 	 -105.603 	 
C 	 1.77806 	 -18.0177 	 -104.868 	 
H 	 0.0942429 	 -19.3639 	 -105.174 	 
C 	 0.474953 	 -20.2485 	 -107.804 	 
H 	 0.35075 	 -19.6941 	 -108.686 	 
H 	 -0.462685 	 -20.4511 	 -107.361 	 
C 	 1.01168 	 -21.5948 	 -108.244 	 
H 	 1.98137 	 -21.5089 	 -108.779 	 
H 	 1.09286 	 -22.1617 	 -107.271 	 
C 	 0.0667685 	 -22.3263 	 -109.166 	 
H 	 0.604532 	 -22.996 	 -109.834 	 
H 	 -0.719929 	 -22.8497 	 -108.546 	 
H 	 -0.42124 	 -21.6923 	 -109.871 	 
S 	 1.14633 	 -18.6041 	 -102.264 	 
C 	 0.976764 	 -17.3112 	 -101.06 	 
C 	 1.11473 	 -16.0742 	 -101.658 	 
C 	 1.28585 	 -16.1768 	 -103.078 	 
C 	 1.49564 	 -17.4271 	 -103.585 	 
H 	 1.01236 	 -15.1506 	 -101.112 	 
C 	 1.38428 	 -14.8791 	 -103.945 	 
H 	 0.732403 	 -14.1465 	 -103.554 	 
H 	 0.998506 	 -14.9848 	 -104.986 	 
C 	 2.76365 	 -14.1969 	 -103.878 	 
H 	 3.467 	 -14.8786 	 -104.293 	 
H 	 3.13746 	 -14.2088 	 -102.857 	 
C 	 2.91312 	 -12.7958 	 -104.491 	 
H 	 3.87657 	 -12.2371 	 -104.287 	 
H 	 2.13958 	 -12.1847 	 -104.054 	 
H 	 2.68105 	 -12.8413 	 -105.581 	 
H 	 3.10321 	 -18.8573 	 -108.134 	 
H 	 0.957624 	 -17.4384 	 -99.9669 	 
*
