! wB97X-D3 SP def2-SVP
%pal
nprocs 24
end

* xyz 0 1
S 	 -120.009 	 25.202 	 -20.1236 	 
C 	 -118.755 	 24.6047 	 -21.177 	 
C 	 -117.546 	 25.2925 	 -20.9562 	 
C 	 -117.752 	 26.4252 	 -20.041 	 
C 	 -119.041 	 26.5481 	 -19.5266 	 
H 	 -116.956 	 27.0968 	 -19.7168 	 
C 	 -116.187 	 24.8828 	 -21.436 	 
H 	 -115.463 	 25.6887 	 -21.1655 	 
H 	 -116.079 	 24.827 	 -22.4709 	 
C 	 -115.708 	 23.5909 	 -20.8879 	 
H 	 -115.378 	 23.7548 	 -19.8955 	 
H 	 -116.607 	 22.9955 	 -20.9058 	 
C 	 -114.625 	 22.8942 	 -21.7318 	 
H 	 -113.643 	 23.2671 	 -21.5911 	 
H 	 -114.552 	 21.8864 	 -21.3222 	 
H 	 -114.881 	 22.819 	 -22.7762 	 
S 	 -120.766 	 26.9123 	 -17.4814 	 
C 	 -120.795 	 28.3469 	 -16.5553 	 
C 	 -119.853 	 29.1941 	 -16.9842 	 
C 	 -119.056 	 28.7304 	 -18.1282 	 
C 	 -119.582 	 27.4858 	 -18.5388 	 
H 	 -119.835 	 30.1403 	 -16.4153 	 
C 	 -118.049 	 29.5805 	 -18.9291 	 
H 	 -118.162 	 29.2255 	 -19.959 	 
H 	 -117.052 	 29.2967 	 -18.5921 	 
C 	 -118.175 	 31.0879 	 -18.8449 	 
H 	 -117.356 	 31.5071 	 -19.4048 	 
H 	 -117.982 	 31.2795 	 -17.7849 	 
C 	 -119.488 	 31.6195 	 -19.3862 	 
H 	 -119.533 	 31.5993 	 -20.4746 	 
H 	 -119.507 	 32.6591 	 -19.0731 	 
H 	 -120.472 	 31.2072 	 -19.0807 	 
H 	 -118.635 	 23.7245 	 -21.6531 	 
H 	 -121.502 	 28.6365 	 -15.8687 	 
*
