! wB97X-D3 SP def2-SVP
%pal
nprocs 24
end

* xyz 0 1
S 	 -52.422 	 14.8551 	 25.8158 	 
C 	 -52.0644 	 15.9079 	 27.1667 	 
C 	 -51.3365 	 17.048 	 26.8706 	 
C 	 -51.1427 	 17.1255 	 25.4571 	 
C 	 -51.6115 	 15.9984 	 24.7813 	 
H 	 -50.68 	 17.8054 	 24.7627 	 
C 	 -50.727 	 18.0512 	 27.851 	 
H 	 -50.1669 	 18.7683 	 27.3088 	 
H 	 -49.9896 	 17.4269 	 28.4005 	 
C 	 -51.6358 	 18.816 	 28.8446 	 
H 	 -52.3837 	 18.0682 	 29.1434 	 
H 	 -51.1061 	 19.1753 	 29.6913 	 
C 	 -52.4706 	 19.9593 	 28.2219 	 
H 	 -52.0347 	 20.6792 	 27.616 	 
H 	 -52.9977 	 19.4944 	 27.3618 	 
H 	 -53.1712 	 20.4721 	 28.8613 	 
S 	 -53.3102 	 15.5699 	 22.6524 	 
C 	 -52.717 	 15.7794 	 21.0013 	 
C 	 -51.3963 	 16.0209 	 20.9294 	 
C 	 -50.7769 	 16.0958 	 22.2798 	 
C 	 -51.6829 	 15.8737 	 23.3175 	 
H 	 -50.8605 	 16.0148 	 20.0331 	 
C 	 -49.3441 	 16.33 	 22.4924 	 
H 	 -48.8014 	 15.657 	 21.8054 	 
H 	 -49.1451 	 16.092 	 23.5452 	 
C 	 -48.8287 	 17.8014 	 22.2741 	 
H 	 -49.2145 	 18.4961 	 23.0332 	 
H 	 -49.2435 	 18.0972 	 21.3206 	 
C 	 -47.3259 	 17.9333 	 22.2785 	 
H 	 -46.9751 	 17.6826 	 23.2942 	 
H 	 -47.2001 	 19.0104 	 22.0795 	 
H 	 -46.7306 	 17.4513 	 21.4399 	 
H 	 -52.4204 	 15.8123 	 28.1903 	 
H 	 -53.3726 	 15.7391 	 20.1627 	 
*
