! wB97X-D3 SP def2-SVP
%pal
nprocs 24
end

* xyz 0 1
S 	 -116.659 	 47.7454 	 -120.25 	 
C 	 -115.269 	 46.705 	 -119.926 	 
C 	 -114.359 	 47.1663 	 -119.016 	 
C 	 -114.766 	 48.5539 	 -118.6 	 
C 	 -116.012 	 48.922 	 -119.142 	 
H 	 -114.324 	 49.2007 	 -117.876 	 
C 	 -113.201 	 46.4336 	 -118.408 	 
H 	 -113.364 	 45.4098 	 -118.706 	 
H 	 -113.304 	 46.482 	 -117.32 	 
C 	 -111.775 	 46.7484 	 -118.989 	 
H 	 -111.584 	 47.8168 	 -118.763 	 
H 	 -111.127 	 46.2224 	 -118.374 	 
C 	 -111.589 	 46.4877 	 -120.506 	 
H 	 -112.306 	 47.1159 	 -121.071 	 
H 	 -110.587 	 46.8734 	 -120.793 	 
H 	 -111.787 	 45.4026 	 -120.738 	 
S 	 -117.029 	 51.4379 	 -119.807 	 
C 	 -117.932 	 52.3315 	 -118.593 	 
C 	 -118.262 	 51.5442 	 -117.549 	 
C 	 -117.535 	 50.2787 	 -117.53 	 
C 	 -116.851 	 50.0614 	 -118.714 	 
H 	 -118.98 	 51.9183 	 -116.894 	 
C 	 -117.853 	 49.3077 	 -116.441 	 
H 	 -117.892 	 49.84 	 -115.503 	 
H 	 -116.879 	 48.7305 	 -116.288 	 
C 	 -119.024 	 48.2432 	 -116.648 	 
H 	 -118.91 	 47.4322 	 -115.927 	 
H 	 -118.977 	 47.8895 	 -117.699 	 
C 	 -120.448 	 48.7927 	 -116.51 	 
H 	 -121.253 	 48.1202 	 -116.664 	 
H 	 -120.545 	 49.496 	 -117.351 	 
H 	 -120.677 	 49.3271 	 -115.613 	 
H 	 -115.132 	 45.6989 	 -120.374 	 
H 	 -118.529 	 53.2037 	 -118.84 	 
*
