! wB97X-D3 SP def2-SVP
%pal
nprocs 24
end

* xyz 0 1
S 	 -38.1465 	 17.4303 	 15.2998 	 
C 	 -38.9722 	 16.5406 	 16.5335 	 
C 	 -40.3582 	 16.6605 	 16.4769 	 
C 	 -40.715 	 17.6696 	 15.5174 	 
C 	 -39.6923 	 18.0879 	 14.7344 	 
H 	 -41.6859 	 17.993 	 15.2827 	 
C 	 -41.3777 	 16.059 	 17.4285 	 
H 	 -41.3131 	 14.9474 	 17.7003 	 
H 	 -42.216 	 16.0944 	 16.8075 	 
C 	 -41.491 	 16.9353 	 18.6717 	 
H 	 -40.5905 	 16.8501 	 19.3298 	 
H 	 -41.4318 	 17.9477 	 18.4171 	 
C 	 -42.8724 	 16.7038 	 19.4158 	 
H 	 -42.9277 	 17.3188 	 20.3595 	 
H 	 -43.6907 	 17.0836 	 18.7833 	 
H 	 -43.0435 	 15.708 	 19.6605 	 
S 	 -40.8507 	 18.2731 	 12.139 	 
C 	 -40.5689 	 19.686 	 11.1734 	 
C 	 -39.5974 	 20.5183 	 11.81 	 
C 	 -39.1995 	 20.0709 	 13.0833 	 
C 	 -39.8368 	 18.9228 	 13.5261 	 
H 	 -39.2137 	 21.4164 	 11.3879 	 
C 	 -38.1465 	 20.7895 	 13.848 	 
H 	 -38.1968 	 20.354 	 14.8777 	 
H 	 -38.391 	 21.8891 	 13.9196 	 
C 	 -36.7103 	 20.75 	 13.3063 	 
H 	 -36.3718 	 19.6662 	 13.4115 	 
H 	 -36.1084 	 21.2101 	 13.9687 	 
C 	 -36.4287 	 21.2002 	 11.8195 	 
H 	 -36.7011 	 22.2288 	 11.7042 	 
H 	 -37.0074 	 20.6152 	 11.1256 	 
H 	 -35.3672 	 21.1269 	 11.4676 	 
H 	 -38.4001 	 15.9109 	 17.226 	 
H 	 -40.995 	 19.83 	 10.1705 	 
*
