! wB97X-D3 SP def2-SVP
%pal
nprocs 24
end

* xyz 0 1
S 	 -40.5041 	 -52.3139 	 -72.8231 	 
C 	 -38.8054 	 -51.7476 	 -72.8281 	 
C 	 -37.9397 	 -52.8182 	 -72.7107 	 
C 	 -38.6003 	 -54.0916 	 -72.8816 	 
C 	 -39.9913 	 -54.0023 	 -72.923 	 
H 	 -38.1933 	 -55.0622 	 -72.9693 	 
C 	 -36.4274 	 -52.6956 	 -72.6276 	 
H 	 -36.0512 	 -53.5392 	 -72.0421 	 
H 	 -36.1721 	 -51.8068 	 -72.0454 	 
C 	 -35.7766 	 -52.5808 	 -74.0017 	 
H 	 -36.31 	 -51.9426 	 -74.685 	 
H 	 -34.7797 	 -52.1395 	 -73.8671 	 
C 	 -35.5142 	 -53.914 	 -74.6412 	 
H 	 -34.9667 	 -53.7195 	 -75.6244 	 
H 	 -34.845 	 -54.4815 	 -73.992 	 
H 	 -36.484 	 -54.3772 	 -74.7184 	 
S 	 -41.5719 	 -55.1706 	 -74.7206 	 
C 	 -42.4144 	 -56.6687 	 -74.3462 	 
C 	 -42.3669 	 -57.0094 	 -72.9788 	 
C 	 -41.3814 	 -56.1445 	 -72.3141 	 
C 	 -40.9482 	 -55.0921 	 -73.1112 	 
H 	 -42.9049 	 -57.8855 	 -72.6333 	 
C 	 -40.9892 	 -56.4817 	 -70.8872 	 
H 	 -40.1622 	 -55.7791 	 -70.7141 	 
H 	 -40.7437 	 -57.4936 	 -70.9073 	 
C 	 -42.0261 	 -56.2515 	 -69.7338 	 
H 	 -42.8525 	 -56.9495 	 -69.8833 	 
H 	 -42.4566 	 -55.2542 	 -69.5642 	 
C 	 -41.4375 	 -56.7744 	 -68.4209 	 
H 	 -42.1591 	 -56.8336 	 -67.5487 	 
H 	 -40.4627 	 -56.2498 	 -68.1592 	 
H 	 -41.1656 	 -57.799 	 -68.5457 	 
H 	 -38.5884 	 -50.7008 	 -72.9856 	 
H 	 -42.9314 	 -57.2492 	 -75.1273 	 
*
