! wB97X-D3 SP def2-SVP
%pal
nprocs 24
end

* xyz 0 1
S 	 -36.2376 	 -44.5555 	 -79.7079 	 
C 	 -37.0878 	 -43.2579 	 -78.9031 	 
C 	 -36.1943 	 -42.6114 	 -78.0131 	 
C 	 -34.9984 	 -43.3123 	 -77.8311 	 
C 	 -34.8386 	 -44.3139 	 -78.7135 	 
H 	 -34.3144 	 -43.0034 	 -77.0766 	 
C 	 -36.5009 	 -41.3067 	 -77.2371 	 
H 	 -37.3905 	 -40.765 	 -77.6188 	 
H 	 -35.6287 	 -40.6267 	 -77.3926 	 
C 	 -36.826 	 -41.5963 	 -75.7485 	 
H 	 -37.3534 	 -42.5301 	 -75.7088 	 
H 	 -35.851 	 -41.7967 	 -75.2821 	 
C 	 -37.5362 	 -40.4873 	 -74.9926 	 
H 	 -38.5286 	 -40.3121 	 -75.3687 	 
H 	 -37.7113 	 -40.6964 	 -73.9584 	 
H 	 -36.8849 	 -39.5901 	 -74.8946 	 
S 	 -34.0933 	 -46.9202 	 -78.8071 	 
C 	 -32.4086 	 -47.3364 	 -78.6552 	 
C 	 -31.6182 	 -46.1773 	 -78.4993 	 
C 	 -32.3463 	 -44.9766 	 -78.663 	 
C 	 -33.7325 	 -45.214 	 -78.6532 	 
H 	 -30.4968 	 -46.2252 	 -78.3573 	 
C 	 -31.5788 	 -43.6607 	 -78.598 	 
H 	 -30.7412 	 -43.5965 	 -77.8831 	 
H 	 -32.2372 	 -42.8831 	 -78.1178 	 
C 	 -31.0576 	 -43.1769 	 -79.9518 	 
H 	 -30.6936 	 -42.1627 	 -79.8819 	 
H 	 -31.8963 	 -43.0281 	 -80.7173 	 
C 	 -29.9153 	 -44.034 	 -80.5992 	 
H 	 -29.4972 	 -43.5577 	 -81.5295 	 
H 	 -30.4342 	 -44.8841 	 -80.9245 	 
H 	 -29.0741 	 -44.3046 	 -79.9627 	 
H 	 -38.0028 	 -42.876 	 -79.1726 	 
H 	 -32.1639 	 -48.3671 	 -78.6687 	 
*
