! wB97X-D3 SP def2-SVP
%pal
nprocs 24
end

* xyz 0 1
S 	 -64.6291 	 10.9444 	 -20.2169 	 
C 	 -65.709 	 10.0175 	 -19.1398 	 
C 	 -65.0161 	 9.18137 	 -18.2467 	 
C 	 -63.6268 	 9.22163 	 -18.4349 	 
C 	 -63.2453 	 10.0923 	 -19.4809 	 
H 	 -62.9058 	 8.64932 	 -17.9443 	 
C 	 -65.5408 	 8.08375 	 -17.3748 	 
H 	 -65.0571 	 7.17105 	 -17.5921 	 
H 	 -66.5998 	 7.80371 	 -17.6443 	 
C 	 -65.4618 	 8.30347 	 -15.769 	 
H 	 -64.3509 	 8.11333 	 -15.574 	 
H 	 -65.6448 	 9.3367 	 -15.4388 	 
C 	 -66.2813 	 7.34828 	 -14.8933 	 
H 	 -65.9619 	 7.29556 	 -13.8944 	 
H 	 -67.3279 	 7.73162 	 -14.9868 	 
H 	 -66.2321 	 6.27823 	 -15.1592 	 
S 	 -61.6286 	 10.4801 	 -21.7766 	 
C 	 -59.8798 	 10.5743 	 -21.5006 	 
C 	 -59.5111 	 10.6865 	 -20.1829 	 
C 	 -60.6273 	 10.4305 	 -19.2942 	 
C 	 -61.8619 	 10.3761 	 -20.0154 	 
H 	 -58.5056 	 10.8135 	 -19.8627 	 
C 	 -60.4899 	 10.47 	 -17.7814 	 
H 	 -61.4466 	 10.2549 	 -17.3069 	 
H 	 -60.4158 	 11.562 	 -17.6808 	 
C 	 -59.392 	 9.56461 	 -17.1941 	 
H 	 -59.3564 	 9.79839 	 -16.1373 	 
H 	 -58.393 	 9.66545 	 -17.6828 	 
C 	 -59.7983 	 8.07094 	 -17.3474 	 
H 	 -59.0147 	 7.37511 	 -17.0949 	 
H 	 -59.9301 	 7.93985 	 -18.4233 	 
H 	 -60.6992 	 7.71168 	 -16.8746 	 
H 	 -66.783 	 10.1239 	 -19.1462 	 
H 	 -59.218 	 10.9389 	 -22.2856 	 
*
