! wB97X-D3 SP def2-SVP
%pal
nprocs 24
end

* xyz 0 1
S 	 -68.7238 	 14.6082 	 -69.781 	 
C 	 -67.3749 	 14.4579 	 -68.6625 	 
C 	 -66.8352 	 15.7083 	 -68.4497 	 
C 	 -67.4528 	 16.7218 	 -69.18 	 
C 	 -68.603 	 16.3308 	 -69.8089 	 
H 	 -67.2298 	 17.7235 	 -69.1368 	 
C 	 -65.6498 	 16.1215 	 -67.5727 	 
H 	 -66.0715 	 16.3432 	 -66.5872 	 
H 	 -65.202 	 17.077 	 -67.7792 	 
C 	 -64.4089 	 15.2034 	 -67.5317 	 
H 	 -63.8121 	 15.4251 	 -66.6807 	 
H 	 -64.8215 	 14.2159 	 -67.1969 	 
C 	 -63.5442 	 15.1692 	 -68.7434 	 
H 	 -64.2697 	 14.9477 	 -69.5676 	 
H 	 -63.0905 	 16.1091 	 -68.9923 	 
H 	 -62.7577 	 14.4084 	 -68.6826 	 
S 	 -70.2468 	 16.8127 	 -72.0221 	 
C 	 -71.1229 	 18.2974 	 -72.0939 	 
C 	 -71.0639 	 19.0136 	 -70.9336 	 
C 	 -70.0436 	 18.4975 	 -70.0612 	 
C 	 -69.6192 	 17.202 	 -70.3957 	 
H 	 -71.5537 	 19.9058 	 -70.8041 	 
C 	 -69.5934 	 19.2271 	 -68.8499 	 
H 	 -70.1536 	 20.1721 	 -68.8668 	 
H 	 -68.5352 	 19.4479 	 -68.9113 	 
C 	 -70.0417 	 18.4654 	 -67.5712 	 
H 	 -69.8804 	 19.1069 	 -66.736 	 
H 	 -69.3488 	 17.6262 	 -67.4321 	 
C 	 -71.557 	 18.1969 	 -67.5834 	 
H 	 -72.159 	 19.1158 	 -67.8143 	 
H 	 -72.0127 	 17.9171 	 -66.6502 	 
H 	 -71.6485 	 17.3977 	 -68.3474 	 
H 	 -67.0507 	 13.5215 	 -68.1565 	 
H 	 -71.7415 	 18.4768 	 -72.9573 	 
*
