! wB97X-D3 SP def2-SVP
%pal
nprocs 24
end

* xyz 0 1
S 	 45.2129 	 -21.0462 	 -111.033 	 
C 	 46.586 	 -21.3847 	 -109.948 	 
C 	 47.7737 	 -21.3959 	 -110.68 	 
C 	 47.5121 	 -21.3863 	 -112.104 	 
C 	 46.2172 	 -21.2162 	 -112.51 	 
H 	 48.2222 	 -21.37 	 -112.896 	 
C 	 49.1963 	 -21.2806 	 -110.101 	 
H 	 49.9105 	 -21.8117 	 -110.737 	 
H 	 49.0574 	 -21.9117 	 -109.196 	 
C 	 49.7292 	 -19.9591 	 -109.557 	 
H 	 49.0672 	 -19.6445 	 -108.823 	 
H 	 50.6707 	 -20.167 	 -108.98 	 
C 	 49.8366 	 -18.9602 	 -110.741 	 
H 	 50.621 	 -18.1445 	 -110.487 	 
H 	 50.0083 	 -19.5552 	 -111.626 	 
H 	 48.8515 	 -18.5969 	 -110.798 	 
S 	 44.4187 	 -22.3502 	 -114.217 	 
C 	 44.4622 	 -22.0913 	 -115.954 	 
C 	 45.1738 	 -20.9072 	 -116.144 	 
C 	 45.9755 	 -20.4398 	 -115.045 	 
C 	 45.7051 	 -21.208 	 -113.91 	 
H 	 45.2559 	 -20.6022 	 -117.197 	 
C 	 46.8641 	 -19.2761 	 -115.214 	 
H 	 46.8501 	 -18.7927 	 -114.34 	 
H 	 46.2213 	 -18.585 	 -115.768 	 
C 	 48.3179 	 -19.5392 	 -115.822 	 
H 	 48.386 	 -19.9284 	 -116.826 	 
H 	 48.8553 	 -20.268 	 -115.189 	 
C 	 49.0654 	 -18.2194 	 -115.747 	 
H 	 48.5184 	 -17.4706 	 -116.406 	 
H 	 50.0525 	 -18.2682 	 -116.188 	 
H 	 49.1812 	 -17.8803 	 -114.703 	 
H 	 46.6252 	 -21.3059 	 -108.854 	 
H 	 43.8786 	 -22.6366 	 -116.737 	 
*
