! wB97X-D3 SP def2-SVP
%pal
nprocs 24
end

* xyz 0 1
S 	 -127.947 	 59.4799 	 -57.4259 	 
C 	 -128.738 	 57.9873 	 -57.8608 	 
C 	 -129.861 	 57.7412 	 -57.1519 	 
C 	 -130.066 	 58.7937 	 -56.2324 	 
C 	 -129.088 	 59.7073 	 -56.1381 	 
H 	 -130.925 	 58.9538 	 -55.5652 	 
C 	 -130.89 	 56.5497 	 -57.3106 	 
H 	 -131.798 	 57.073 	 -57.0502 	 
H 	 -130.674 	 55.8296 	 -56.4714 	 
C 	 -130.98 	 55.9581 	 -58.6957 	 
H 	 -131.286 	 56.7145 	 -59.3264 	 
H 	 -129.913 	 55.657 	 -58.9685 	 
C 	 -131.857 	 54.6916 	 -58.7355 	 
H 	 -132.809 	 54.711 	 -58.2111 	 
H 	 -132.125 	 54.5316 	 -59.7868 	 
H 	 -131.374 	 53.6629 	 -58.5039 	 
S 	 -129.175 	 62.4678 	 -56.3511 	 
C 	 -129.647 	 63.3839 	 -54.9385 	 
C 	 -129.592 	 62.6136 	 -53.7939 	 
C 	 -129.146 	 61.2991 	 -54.1092 	 
C 	 -129.169 	 60.9854 	 -55.4369 	 
H 	 -129.805 	 63.0725 	 -52.7658 	 
C 	 -128.957 	 60.243 	 -53.031 	 
H 	 -128.084 	 60.498 	 -52.386 	 
H 	 -128.723 	 59.2434 	 -53.5726 	 
C 	 -130.299 	 59.8083 	 -52.3065 	 
H 	 -130.818 	 59.4455 	 -53.1319 	 
H 	 -130.849 	 60.6566 	 -51.9045 	 
C 	 -130.067 	 58.5988 	 -51.3569 	 
H 	 -130.995 	 58.3285 	 -50.8137 	 
H 	 -129.333 	 59.0422 	 -50.6385 	 
H 	 -129.643 	 57.7966 	 -51.9815 	 
H 	 -128.37 	 57.3982 	 -58.723 	 
H 	 -129.69 	 64.4791 	 -55.0746 	 
*
