! wB97X-D3 SP def2-SVP
%pal
nprocs 24
end

* xyz 0 1
S 	 -105.989 	 23.339 	 -115.8 	 
C 	 -105.424 	 23.0166 	 -114.216 	 
C 	 -106.03 	 21.9114 	 -113.634 	 
C 	 -106.908 	 21.2335 	 -114.58 	 
C 	 -106.935 	 21.8419 	 -115.846 	 
H 	 -107.486 	 20.3581 	 -114.395 	 
C 	 -106.039 	 21.5054 	 -112.181 	 
H 	 -106.756 	 20.8162 	 -111.784 	 
H 	 -106.325 	 22.5057 	 -111.701 	 
C 	 -104.623 	 21.1904 	 -111.587 	 
H 	 -103.995 	 22.1398 	 -111.626 	 
H 	 -104.76 	 21.0031 	 -110.495 	 
C 	 -103.872 	 19.9996 	 -112.213 	 
H 	 -104.095 	 19.9186 	 -113.296 	 
H 	 -102.869 	 19.969 	 -112.017 	 
H 	 -104.368 	 19.0642 	 -111.742 	 
S 	 -108.386 	 22.5969 	 -118.163 	 
C 	 -109.121 	 21.365 	 -119.136 	 
C 	 -108.77 	 20.1257 	 -118.608 	 
C 	 -107.919 	 20.1012 	 -117.47 	 
C 	 -107.716 	 21.4156 	 -116.997 	 
H 	 -109.037 	 19.2781 	 -119.239 	 
C 	 -107.392 	 18.8077 	 -116.904 	 
H 	 -108.284 	 18.3159 	 -116.448 	 
H 	 -106.724 	 19.1964 	 -116.172 	 
C 	 -106.673 	 17.8012 	 -117.826 	 
H 	 -107.412 	 17.4351 	 -118.612 	 
H 	 -106.365 	 16.9742 	 -117.157 	 
C 	 -105.478 	 18.2958 	 -118.633 	 
H 	 -105.81 	 18.9319 	 -119.462 	 
H 	 -104.875 	 17.436 	 -118.988 	 
H 	 -104.777 	 18.8409 	 -118.021 	 
H 	 -104.601 	 23.5789 	 -113.839 	 
H 	 -109.753 	 21.6408 	 -120.002 	 
*
