! wB97X-D3 SP def2-SVP
%pal
nprocs 24
end

* xyz 0 1
S 	 -50.0365 	 21.629 	 34.4541 	 
C 	 -48.4656 	 21.2598 	 33.7439 	 
C 	 -48.4834 	 19.9539 	 33.2542 	 
C 	 -49.746 	 19.2685 	 33.4783 	 
C 	 -50.7158 	 20.1034 	 33.9501 	 
H 	 -49.9419 	 18.2642 	 33.2034 	 
C 	 -47.2748 	 19.3216 	 32.4687 	 
H 	 -47.0884 	 18.3675 	 32.9892 	 
H 	 -46.4305 	 19.9952 	 32.605 	 
C 	 -47.4584 	 19.1138 	 30.9476 	 
H 	 -48.0552 	 20.0199 	 30.5996 	 
H 	 -46.501 	 19.034 	 30.4768 	 
C 	 -48.2715 	 17.8667 	 30.6923 	 
H 	 -47.9802 	 17.6572 	 29.651 	 
H 	 -48.0684 	 16.9746 	 31.2806 	 
H 	 -49.3119 	 17.9269 	 30.8588 	 
S 	 -52.2766 	 19.2991 	 36.1206 	 
C 	 -53.7877 	 18.4964 	 35.8609 	 
C 	 -54.0735 	 18.4809 	 34.5038 	 
C 	 -53.053 	 19.0492 	 33.6666 	 
C 	 -52.0444 	 19.6999 	 34.4118 	 
H 	 -55.0612 	 18.1377 	 34.1268 	 
C 	 -53.161 	 18.8243 	 32.178 	 
H 	 -54.1178 	 18.4468 	 31.8956 	 
H 	 -52.4893 	 18.0284 	 31.8116 	 
C 	 -52.9581 	 20.0435 	 31.2891 	 
H 	 -52.076 	 20.5157 	 31.6403 	 
H 	 -53.7353 	 20.7784 	 31.4907 	 
C 	 -52.8597 	 19.8307 	 29.7297 	 
H 	 -52.2832 	 19.0172 	 29.3759 	 
H 	 -52.3243 	 20.6481 	 29.2626 	 
H 	 -53.9111 	 19.8059 	 29.3655 	 
H 	 -47.5612 	 21.8915 	 33.7923 	 
H 	 -54.3157 	 17.9709 	 36.5932 	 
*
