! wB97X-D3 SP def2-SVP
%pal
nprocs 24
end

* xyz 0 1
S 	 -85.3226 	 -47.1407 	 -84.644 	 
C 	 -86.7399 	 -46.6532 	 -83.5981 	 
C 	 -86.5122 	 -47.0603 	 -82.2895 	 
C 	 -85.2041 	 -47.5951 	 -82.0738 	 
C 	 -84.4606 	 -47.7596 	 -83.2451 	 
H 	 -84.7234 	 -47.8378 	 -81.2191 	 
C 	 -87.5233 	 -46.8288 	 -81.2013 	 
H 	 -87.4175 	 -47.6737 	 -80.5325 	 
H 	 -88.4706 	 -46.8569 	 -81.6569 	 
C 	 -87.2387 	 -45.491 	 -80.4556 	 
H 	 -86.4448 	 -45.6067 	 -79.749 	 
H 	 -86.8553 	 -44.7037 	 -81.1447 	 
C 	 -88.4663 	 -44.8774 	 -79.6913 	 
H 	 -88.0848 	 -44.2196 	 -78.8673 	 
H 	 -89.0405 	 -44.2991 	 -80.3223 	 
H 	 -89.0867 	 -45.5858 	 -79.1207 	 
S 	 -81.9505 	 -47.1811 	 -84.0789 	 
C 	 -80.6414 	 -48.2892 	 -83.9544 	 
C 	 -81.0276 	 -49.4302 	 -83.2351 	 
C 	 -82.4248 	 -49.429 	 -82.9266 	 
C 	 -83.1131 	 -48.3228 	 -83.4462 	 
H 	 -80.1576 	 -50.0418 	 -82.9697 	 
C 	 -83.0685 	 -50.5026 	 -82.1053 	 
H 	 -84.1221 	 -50.2185 	 -81.9645 	 
H 	 -82.4701 	 -50.5761 	 -81.1861 	 
C 	 -83.0388 	 -51.7979 	 -82.808 	 
H 	 -82.0848 	 -52.2164 	 -82.803 	 
H 	 -83.3989 	 -51.8025 	 -83.8505 	 
C 	 -83.8378 	 -52.9196 	 -82.1474 	 
H 	 -83.765 	 -52.9773 	 -81.0833 	 
H 	 -83.4962 	 -53.8973 	 -82.4942 	 
H 	 -84.988 	 -52.9917 	 -82.3021 	 
H 	 -87.5803 	 -46.0907 	 -84.1136 	 
H 	 -79.6912 	 -48.2273 	 -84.481 	 
*
