! wB97X-D3 SP def2-SVP
%pal
nprocs 24
end

* xyz 0 1
S 	 30.0708 	 -22.7382 	 -124.119 	 
C 	 30.047 	 -22.6226 	 -125.876 	 
C 	 29.4 	 -23.7174 	 -126.463 	 
C 	 29.0126 	 -24.6636 	 -125.467 	 
C 	 29.2413 	 -24.2835 	 -124.193 	 
H 	 28.6291 	 -25.6562 	 -125.626 	 
C 	 29.286 	 -23.9225 	 -127.934 	 
H 	 29.8512 	 -23.2502 	 -128.559 	 
H 	 28.2191 	 -23.6461 	 -128.124 	 
C 	 29.3029 	 -25.3893 	 -128.351 	 
H 	 28.4835 	 -25.9258 	 -127.836 	 
H 	 28.9525 	 -25.4134 	 -129.452 	 
C 	 30.6524 	 -26.1209 	 -128.195 	 
H 	 30.6525 	 -27.1903 	 -128.519 	 
H 	 31.5459 	 -25.5544 	 -128.626 	 
H 	 30.8143 	 -26.2368 	 -127.126 	 
S 	 30.2861 	 -26.3356 	 -122.8 	 
C 	 29.4081 	 -27.1488 	 -121.568 	 
C 	 28.1668 	 -26.5879 	 -121.435 	 
C 	 27.92 	 -25.4959 	 -122.309 	 
C 	 29.0387 	 -25.1842 	 -123.106 	 
H 	 27.4858 	 -27.0397 	 -120.768 	 
C 	 26.5342 	 -24.888 	 -122.55 	 
H 	 25.7824 	 -25.6669 	 -122.459 	 
H 	 26.4556 	 -24.532 	 -123.554 	 
C 	 26.1704 	 -23.7564 	 -121.504 	 
H 	 25.9941 	 -24.1453 	 -120.472 	 
H 	 25.2747 	 -23.234 	 -121.856 	 
C 	 27.299 	 -22.7362 	 -121.35 	 
H 	 28.1965 	 -23.2444 	 -121.029 	 
H 	 26.9858 	 -22.0081 	 -120.671 	 
H 	 27.5413 	 -22.3606 	 -122.344 	 
H 	 30.4422 	 -21.8081 	 -126.465 	 
H 	 29.8251 	 -27.9615 	 -120.979 	 
*
