! wB97X-D3 SP def2-SVP
%pal
nprocs 24
end

* xyz 0 1
S 	 -35.8711 	 13.813 	 13.9807 	 
C 	 -35.6702 	 14.9206 	 15.3115 	 
C 	 -35.0351 	 16.0953 	 14.9258 	 
C 	 -34.7357 	 16.1012 	 13.5124 	 
C 	 -35.1747 	 14.944 	 12.8665 	 
H 	 -34.331 	 16.8909 	 12.9413 	 
C 	 -34.7805 	 17.322 	 15.7413 	 
H 	 -33.7184 	 17.4696 	 15.7252 	 
H 	 -34.9745 	 16.9559 	 16.7603 	 
C 	 -35.5725 	 18.5897 	 15.441 	 
H 	 -35.1931 	 18.979 	 14.5323 	 
H 	 -36.5984 	 18.3596 	 15.2373 	 
C 	 -35.4634 	 19.7163 	 16.5327 	 
H 	 -34.403 	 19.9149 	 16.678 	 
H 	 -35.8436 	 20.6572 	 16.2266 	 
H 	 -35.8961 	 19.4084 	 17.5038 	 
S 	 -34.5761 	 13.2714 	 10.6093 	 
C 	 -34.8278 	 14.0393 	 9.03706 	 
C 	 -35.4313 	 15.2484 	 9.13806 	 
C 	 -35.7163 	 15.7123 	 10.4705 	 
C 	 -35.2851 	 14.7389 	 11.3706 	 
H 	 -35.5805 	 15.7367 	 8.1661 	 
C 	 -36.2418 	 17.0925 	 10.7611 	 
H 	 -35.5693 	 17.6974 	 11.3808 	 
H 	 -37.1689 	 16.8382 	 11.3956 	 
C 	 -36.5779 	 17.986 	 9.56625 	 
H 	 -37.4266 	 17.5395 	 8.96064 	 
H 	 -35.6906 	 17.904 	 8.95483 	 
C 	 -37.0267 	 19.3699 	 10.04 	 
H 	 -36.2527 	 20.1135 	 10.1145 	 
H 	 -37.5054 	 19.3569 	 11.0922 	 
H 	 -37.7826 	 19.845 	 9.42503 	 
H 	 -35.9029 	 14.7656 	 16.4104 	 
H 	 -34.7565 	 13.452 	 8.13191 	 
*
