! wB97X-D3 SP def2-SVP
%pal
nprocs 24
end

* xyz 0 1
S 	 -62.883 	 12.4377 	 -88.9731 	 
C 	 -62.8913 	 14.1996 	 -89.1147 	 
C 	 -61.8877 	 14.78 	 -88.3078 	 
C 	 -61.4444 	 13.8644 	 -87.3677 	 
C 	 -61.8011 	 12.5545 	 -87.6081 	 
H 	 -60.7358 	 14.1322 	 -86.6048 	 
C 	 -61.3694 	 16.2066 	 -88.3425 	 
H 	 -61.6429 	 16.5936 	 -89.3143 	 
H 	 -60.3037 	 16.4402 	 -88.3445 	 
C 	 -61.9307 	 17.1793 	 -87.2625 	 
H 	 -61.1367 	 17.3019 	 -86.5312 	 
H 	 -62.0024 	 18.1428 	 -87.7443 	 
C 	 -63.2612 	 16.8848 	 -86.722 	 
H 	 -64.0025 	 16.7518 	 -87.5973 	 
H 	 -63.2838 	 16.0099 	 -86.0658 	 
H 	 -63.5022 	 17.7425 	 -86.0606 	 
S 	 -62.8474 	 10.696 	 -85.9343 	 
C 	 -61.7781 	 9.68047 	 -85.1192 	 
C 	 -60.4528 	 9.83803 	 -85.4837 	 
C 	 -60.3283 	 10.9001 	 -86.34 	 
C 	 -61.5015 	 11.4215 	 -86.7438 	 
H 	 -59.6454 	 9.22645 	 -85.0536 	 
C 	 -58.975 	 11.2917 	 -86.9581 	 
H 	 -58.3294 	 11.0037 	 -86.1891 	 
H 	 -58.8688 	 12.3327 	 -87.1442 	 
C 	 -58.5769 	 10.4963 	 -88.1469 	 
H 	 -57.5785 	 10.837 	 -88.4504 	 
H 	 -59.318 	 10.7573 	 -88.9825 	 
C 	 -58.6672 	 8.97116 	 -87.923 	 
H 	 -57.8844 	 8.56493 	 -87.2256 	 
H 	 -58.5227 	 8.49535 	 -88.8844 	 
H 	 -59.6604 	 8.68113 	 -87.6645 	 
H 	 -63.2223 	 14.8167 	 -89.9861 	 
H 	 -62.08 	 8.9257 	 -84.3725 	 
*
