! wB97X-D3 SP def2-SVP
%pal
nprocs 24
end

* xyz 0 1
S 	 -104.3 	 34.4988 	 -14.221 	 
C 	 -105.201 	 34.7634 	 -15.6917 	 
C 	 -106.329 	 35.5494 	 -15.442 	 
C 	 -106.48 	 35.8519 	 -14.0807 	 
C 	 -105.492 	 35.3357 	 -13.3274 	 
H 	 -107.253 	 36.458 	 -13.71 	 
C 	 -107.292 	 35.9456 	 -16.4683 	 
H 	 -106.856 	 36.5367 	 -17.2887 	 
H 	 -108.081 	 36.5674 	 -15.9172 	 
C 	 -107.925 	 34.7413 	 -17.23 	 
H 	 -107.162 	 34.0517 	 -17.6677 	 
H 	 -108.443 	 34.1649 	 -16.4821 	 
C 	 -108.97 	 34.9815 	 -18.3862 	 
H 	 -109.924 	 35.2291 	 -17.9256 	 
H 	 -108.625 	 35.7476 	 -19.1111 	 
H 	 -109.086 	 34.0709 	 -18.9788 	 
S 	 -104.72 	 36.9564 	 -11.252 	 
C 	 -104.708 	 36.36 	 -9.64238 	 
C 	 -105.1 	 35.0016 	 -9.61557 	 
C 	 -105.396 	 34.4471 	 -10.9122 	 
C 	 -105.337 	 35.3997 	 -11.8777 	 
H 	 -105.046 	 34.4865 	 -8.69761 	 
C 	 -105.711 	 32.9861 	 -11.1123 	 
H 	 -105.329 	 32.3863 	 -10.3181 	 
H 	 -105.146 	 32.7295 	 -12.0388 	 
C 	 -107.181 	 32.5564 	 -11.4257 	 
H 	 -107.633 	 33.2577 	 -12.0889 	 
H 	 -107.787 	 32.6423 	 -10.4959 	 
C 	 -107.22 	 31.0642 	 -11.9396 	 
H 	 -107.074 	 31.0607 	 -13.0406 	 
H 	 -108.131 	 30.5217 	 -11.8923 	 
H 	 -106.494 	 30.3234 	 -11.6188 	 
H 	 -105.053 	 34.2801 	 -16.6606 	 
H 	 -104.29 	 36.9379 	 -8.90808 	 
*
