! wB97X-D3 SP def2-SVP
%pal
nprocs 24
end

* xyz 0 1
S 	 -96.0795 	 -30.2057 	 -66.6975 	 
C 	 -97.4285 	 -31.2731 	 -66.4501 	 
C 	 -97.3169 	 -31.9468 	 -65.2212 	 
C 	 -96.1912 	 -31.543 	 -64.4575 	 
C 	 -95.4677 	 -30.5148 	 -65.0822 	 
H 	 -95.9017 	 -31.9674 	 -63.4647 	 
C 	 -98.3119 	 -32.8857 	 -64.6562 	 
H 	 -97.8499 	 -33.3324 	 -63.7244 	 
H 	 -98.4899 	 -33.707 	 -65.2761 	 
C 	 -99.6155 	 -32.2822 	 -64.1888 	 
H 	 -100.346 	 -32.1903 	 -65.0224 	 
H 	 -99.977 	 -33.0439 	 -63.4544 	 
C 	 -99.5927 	 -30.9606 	 -63.2763 	 
H 	 -100.577 	 -30.8138 	 -62.7436 	 
H 	 -98.9152 	 -31.0667 	 -62.501 	 
H 	 -99.3789 	 -30.0547 	 -63.824 	 
S 	 -92.9707 	 -29.5033 	 -65.6058 	 
C 	 -91.9687 	 -28.9026 	 -64.3662 	 
C 	 -92.7623 	 -28.7385 	 -63.2221 	 
C 	 -94.0825 	 -29.2304 	 -63.3204 	 
C 	 -94.3388 	 -29.7641 	 -64.5527 	 
H 	 -92.3552 	 -28.2268 	 -62.3836 	 
C 	 -95.0715 	 -29.1983 	 -62.1598 	 
H 	 -95.8963 	 -29.855 	 -62.3833 	 
H 	 -95.6526 	 -28.2994 	 -62.0519 	 
C 	 -94.4517 	 -29.7131 	 -60.8402 	 
H 	 -93.4761 	 -29.3226 	 -60.737 	 
H 	 -94.3893 	 -30.7799 	 -60.8955 	 
C 	 -95.2023 	 -29.3584 	 -59.5131 	 
H 	 -96.2388 	 -29.7675 	 -59.5296 	 
H 	 -95.2648 	 -28.3162 	 -59.3092 	 
H 	 -94.7474 	 -29.8124 	 -58.6174 	 
H 	 -98.2914 	 -31.3135 	 -67.0486 	 
H 	 -91.158 	 -28.3181 	 -64.6271 	 
*
