! wB97X-D3 SP def2-SVP
%pal
nprocs 24
end

* xyz 0 1
S 	 -45.6806 	 -4.36729 	 19.1053 	 
C 	 -47.3191 	 -4.32535 	 18.3677 	 
C 	 -47.6963 	 -3.06626 	 17.9345 	 
C 	 -46.6256 	 -2.16129 	 18.1457 	 
C 	 -45.426 	 -2.74024 	 18.6092 	 
H 	 -46.5769 	 -1.18148 	 17.6899 	 
C 	 -48.9343 	 -2.67527 	 17.3412 	 
H 	 -48.8556 	 -1.6082 	 17.1513 	 
H 	 -49.569 	 -2.85753 	 18.1578 	 
C 	 -49.4707 	 -3.43411 	 16.1638 	 
H 	 -48.7788 	 -3.32389 	 15.3497 	 
H 	 -49.2099 	 -4.45752 	 16.4737 	 
C 	 -50.825 	 -3.12678 	 15.6429 	 
H 	 -50.998 	 -3.43626 	 14.5501 	 
H 	 -51.5596 	 -3.67726 	 16.1916 	 
H 	 -51.0131 	 -2.04722 	 15.7622 	 
S 	 -42.8105 	 -2.80613 	 18.3871 	 
C 	 -41.7865 	 -1.54899 	 18.9142 	 
C 	 -42.5567 	 -0.555814 	 19.4642 	 
C 	 -43.9792 	 -0.782906 	 19.3782 	 
C 	 -44.2542 	 -1.98872 	 18.8024 	 
H 	 -42.1174 	 0.252513 	 19.9775 	 
C 	 -45.0484 	 0.0518681 	 19.9783 	 
H 	 -45.4853 	 -0.438561 	 20.894 	 
H 	 -45.8918 	 0.333541 	 19.3933 	 
C 	 -44.5674 	 1.42953 	 20.5895 	 
H 	 -43.7412 	 1.2324 	 21.2355 	 
H 	 -45.3217 	 1.80164 	 21.3148 	 
C 	 -44.2353 	 2.46208 	 19.5649 	 
H 	 -43.7742 	 3.34986 	 20.0058 	 
H 	 -45.0311 	 2.83658 	 18.965 	 
H 	 -43.3937 	 2.20245 	 18.8666 	 
H 	 -47.872 	 -5.24297 	 18.0753 	 
H 	 -40.689 	 -1.55156 	 18.9091 	 
*
