! wB97X-D3 SP def2-SVP
%pal
nprocs 24
end

* xyz 0 1
S 	 -62.2686 	 0.536393 	 -19.5541 	 
C 	 -63.6124 	 1.43183 	 -20.235 	 
C 	 -63.2634 	 1.98963 	 -21.4889 	 
C 	 -61.9563 	 1.57033 	 -21.9754 	 
C 	 -61.2936 	 0.775773 	 -21.0311 	 
H 	 -61.4435 	 1.90187 	 -22.8986 	 
C 	 -64.1037 	 2.9461 	 -22.3546 	 
H 	 -63.5681 	 2.89829 	 -23.2848 	 
H 	 -63.952 	 3.99206 	 -21.9691 	 
C 	 -65.5615 	 2.63509 	 -22.3319 	 
H 	 -65.7327 	 1.55692 	 -22.2844 	 
H 	 -65.9749 	 2.9217 	 -21.4092 	 
C 	 -66.3242 	 3.37703 	 -23.4356 	 
H 	 -66.0008 	 4.44 	 -23.3654 	 
H 	 -66.0127 	 3.00545 	 -24.4004 	 
H 	 -67.3899 	 3.16992 	 -23.2154 	 
S 	 -58.9416 	 1.52538 	 -19.9122 	 
C 	 -57.4763 	 0.649677 	 -20.3171 	 
C 	 -57.6978 	 -0.374655 	 -21.1737 	 
C 	 -59.0412 	 -0.342054 	 -21.6501 	 
C 	 -59.8645 	 0.473174 	 -20.9277 	 
H 	 -56.9684 	 -0.965942 	 -21.581 	 
C 	 -59.4046 	 -1.23919 	 -22.8208 	 
H 	 -58.5374 	 -1.69952 	 -23.2301 	 
H 	 -59.8544 	 -0.575957 	 -23.5896 	 
C 	 -60.4634 	 -2.34197 	 -22.4904 	 
H 	 -61.4831 	 -1.9869 	 -22.2479 	 
H 	 -60.0064 	 -2.83743 	 -21.578 	 
C 	 -60.7196 	 -3.40567 	 -23.6847 	 
H 	 -61.252 	 -3.05048 	 -24.5791 	 
H 	 -61.4321 	 -4.07209 	 -23.1621 	 
H 	 -59.7769 	 -3.96873 	 -23.9955 	 
H 	 -64.5915 	 1.58061 	 -19.7468 	 
H 	 -56.4556 	 0.980841 	 -20.1186 	 
*
