! wB97X-D3 SP def2-SVP
%pal
nprocs 24
end

* xyz 0 1
S 	 32.6057 	 -32.6691 	 -109.654 	 
C 	 32.3237 	 -32.5678 	 -107.958 	 
C 	 33.4505 	 -32.0173 	 -107.286 	 
C 	 34.4658 	 -31.5457 	 -108.194 	 
C 	 34.1919 	 -31.9234 	 -109.49 	 
H 	 35.3379 	 -31.0375 	 -107.886 	 
C 	 33.6913 	 -31.8993 	 -105.777 	 
H 	 32.8469 	 -31.9002 	 -105.089 	 
H 	 34.2077 	 -30.9572 	 -105.554 	 
C 	 34.5742 	 -33.1676 	 -105.352 	 
H 	 35.4333 	 -33.0399 	 -105.996 	 
H 	 34.8797 	 -33.0757 	 -104.3 	 
C 	 33.9811 	 -34.5864 	 -105.543 	 
H 	 33.2211 	 -34.8409 	 -104.83 	 
H 	 33.5788 	 -34.6215 	 -106.571 	 
H 	 34.8623 	 -35.269 	 -105.504 	 
S 	 34.2321 	 -30.6455 	 -111.829 	 
C 	 35.6415 	 -30.7048 	 -112.87 	 
C 	 36.5918 	 -31.4455 	 -112.264 	 
C 	 36.3222 	 -31.9794 	 -110.988 	 
C 	 34.9988 	 -31.6615 	 -110.646 	 
H 	 37.5649 	 -31.5714 	 -112.845 	 
C 	 37.3064 	 -32.6232 	 -110.051 	 
H 	 37.759 	 -33.5227 	 -110.422 	 
H 	 36.7239 	 -33.0111 	 -109.207 	 
C 	 38.392 	 -31.6687 	 -109.507 	 
H 	 37.9647 	 -30.8563 	 -109.068 	 
H 	 39.0269 	 -31.3691 	 -110.364 	 
C 	 39.0774 	 -32.3307 	 -108.368 	 
H 	 39.6348 	 -33.1803 	 -108.781 	 
H 	 38.4552 	 -32.7274 	 -107.58 	 
H 	 39.787 	 -31.6184 	 -107.837 	 
H 	 31.5124 	 -33.0106 	 -107.354 	 
H 	 35.8574 	 -30.3793 	 -113.857 	 
*
