! wB97X-D3 SP def2-SVP
%pal
nprocs 24
end

* xyz 0 1
S 	 -112.583 	 49.6591 	 -73.9997 	 
C 	 -112.718 	 49.1758 	 -75.6791 	 
C 	 -111.418 	 48.9194 	 -76.2084 	 
C 	 -110.411 	 48.9788 	 -75.1893 	 
C 	 -110.852 	 49.4343 	 -73.9705 	 
H 	 -109.34 	 48.7021 	 -75.2532 	 
C 	 -111.119 	 48.5356 	 -77.5889 	 
H 	 -111.332 	 47.5054 	 -77.6047 	 
H 	 -110.078 	 48.7301 	 -77.6229 	 
C 	 -111.888 	 49.1812 	 -78.7179 	 
H 	 -111.73 	 48.4298 	 -79.4498 	 
H 	 -112.946 	 49.2985 	 -78.5313 	 
C 	 -111.33 	 50.5841 	 -79.2136 	 
H 	 -110.314 	 50.4079 	 -79.5517 	 
H 	 -111.965 	 50.913 	 -80.0179 	 
H 	 -111.229 	 51.2944 	 -78.4218 	 
S 	 -110.489 	 47.9728 	 -71.5729 	 
C 	 -109.182 	 48.4352 	 -70.4413 	 
C 	 -108.43 	 49.4137 	 -70.9792 	 
C 	 -109.044 	 49.9484 	 -72.1568 	 
C 	 -110.06 	 49.2666 	 -72.7219 	 
H 	 -107.705 	 49.892 	 -70.2822 	 
C 	 -108.341 	 51.1051 	 -72.8449 	 
H 	 -108.557 	 51.1594 	 -73.9277 	 
H 	 -107.265 	 50.9366 	 -72.8265 	 
C 	 -108.583 	 52.5164 	 -72.4483 	 
H 	 -108.075 	 52.7032 	 -71.5209 	 
H 	 -109.642 	 52.7788 	 -72.3582 	 
C 	 -107.816 	 53.4626 	 -73.4395 	 
H 	 -107.762 	 54.4802 	 -73.04 	 
H 	 -108.29 	 53.4506 	 -74.42 	 
H 	 -106.752 	 53.1971 	 -73.4502 	 
H 	 -113.64 	 49.2343 	 -76.2285 	 
H 	 -108.834 	 47.8837 	 -69.4988 	 
*
