! wB97X-D3 SP def2-SVP
%pal
nprocs 24
end

* xyz 0 1
S 	 -60.4342 	 -55.8962 	 -82.1307 	 
C 	 -59.3138 	 -55.1654 	 -81.0989 	 
C 	 -58.0495 	 -55.6503 	 -81.2159 	 
C 	 -57.9235 	 -56.6818 	 -82.1984 	 
C 	 -59.1657 	 -56.9486 	 -82.8118 	 
H 	 -57.0286 	 -57.2684 	 -82.4397 	 
C 	 -56.8501 	 -55.1012 	 -80.5015 	 
H 	 -56.7777 	 -54.0213 	 -80.4864 	 
H 	 -56.0719 	 -55.3607 	 -81.2432 	 
C 	 -56.4816 	 -55.7455 	 -79.1286 	 
H 	 -57.3333 	 -55.5993 	 -78.4942 	 
H 	 -56.3463 	 -56.8363 	 -79.1549 	 
C 	 -55.4251 	 -55.0544 	 -78.2922 	 
H 	 -54.4668 	 -55.1714 	 -78.7971 	 
H 	 -55.6469 	 -54.0209 	 -78.174 	 
H 	 -55.2665 	 -55.6151 	 -77.3072 	 
S 	 -59.0804 	 -59.6511 	 -83.2554 	 
C 	 -59.459 	 -60.2249 	 -84.8428 	 
C 	 -59.9458 	 -59.2446 	 -85.6265 	 
C 	 -59.8939 	 -57.9418 	 -85.0701 	 
C 	 -59.3955 	 -57.9891 	 -83.7407 	 
H 	 -60.3544 	 -59.507 	 -86.6461 	 
C 	 -60.3466 	 -56.736 	 -85.7856 	 
H 	 -59.7953 	 -56.725 	 -86.7227 	 
H 	 -59.8548 	 -55.8789 	 -85.2031 	 
C 	 -61.8165 	 -56.5054 	 -85.9834 	 
H 	 -62.27 	 -56.5273 	 -85.0178 	 
H 	 -62.0397 	 -57.391 	 -86.5291 	 
C 	 -62.1852 	 -55.2857 	 -86.7564 	 
H 	 -63.3172 	 -55.2372 	 -86.8004 	 
H 	 -61.769 	 -55.1362 	 -87.7936 	 
H 	 -61.8394 	 -54.4998 	 -86.1625 	 
H 	 -59.5205 	 -54.2877 	 -80.4276 	 
H 	 -59.5092 	 -61.2163 	 -85.0715 	 
*
