! wB97X-D3 SP def2-SVP
%pal
nprocs 24
end

* xyz 0 1
S 	 -127.07 	 64.3398 	 -56.343 	 
C 	 -126.759 	 65.8556 	 -55.4879 	 
C 	 -126.912 	 66.9801 	 -56.2977 	 
C 	 -127.159 	 66.5904 	 -57.6332 	 
C 	 -127.256 	 65.2086 	 -57.8228 	 
H 	 -127.198 	 67.1916 	 -58.4723 	 
C 	 -126.593 	 68.4026 	 -55.906 	 
H 	 -125.923 	 68.7159 	 -56.6921 	 
H 	 -125.987 	 68.4945 	 -54.9778 	 
C 	 -127.837 	 69.2476 	 -55.604 	 
H 	 -128.112 	 68.9124 	 -54.6459 	 
H 	 -127.537 	 70.2665 	 -55.3562 	 
C 	 -128.975 	 69.293 	 -56.6447 	 
H 	 -128.495 	 69.4909 	 -57.5834 	 
H 	 -129.482 	 68.3065 	 -56.7492 	 
H 	 -129.77 	 69.9903 	 -56.4186 	 
S 	 -129.249 	 63.7011 	 -59.0591 	 
C 	 -129.255 	 63.5378 	 -60.7949 	 
C 	 -128.032 	 63.9627 	 -61.3257 	 
C 	 -127.129 	 64.6434 	 -60.3852 	 
C 	 -127.629 	 64.5428 	 -59.0649 	 
H 	 -127.742 	 63.7917 	 -62.3416 	 
C 	 -125.814 	 65.2973 	 -60.861 	 
H 	 -125.308 	 64.499 	 -61.4034 	 
H 	 -125.126 	 65.7019 	 -60.1666 	 
C 	 -125.96 	 66.3403 	 -61.9247 	 
H 	 -126.898 	 66.9369 	 -61.7818 	 
H 	 -126.145 	 65.7851 	 -62.8508 	 
C 	 -124.793 	 67.3067 	 -62.0893 	 
H 	 -124.741 	 67.8659 	 -61.1598 	 
H 	 -124.861 	 68.066 	 -62.9041 	 
H 	 -123.839 	 66.7814 	 -62.0276 	 
H 	 -126.563 	 65.8191 	 -54.4432 	 
H 	 -129.933 	 62.8879 	 -61.3909 	 
*
