! wB97X-D3 SP def2-SVP
%pal
nprocs 24
end

* xyz 0 1
S 	 -55.543 	 16.8218 	 -99.9273 	 
C 	 -55.6792 	 18.3419 	 -100.82 	 
C 	 -56.295 	 19.3505 	 -100.052 	 
C 	 -56.5552 	 18.8041 	 -98.7316 	 
C 	 -56.1228 	 17.5185 	 -98.4573 	 
H 	 -57.0867 	 19.2712 	 -98.0033 	 
C 	 -56.6877 	 20.7456 	 -100.52 	 
H 	 -55.8636 	 21.0604 	 -101.182 	 
H 	 -56.8155 	 21.3303 	 -99.6388 	 
C 	 -58.0721 	 20.8485 	 -101.249 	 
H 	 -57.9901 	 20.3871 	 -102.228 	 
H 	 -58.7928 	 20.189 	 -100.753 	 
C 	 -58.5214 	 22.3323 	 -101.37 	 
H 	 -59.398 	 22.3977 	 -102.03 	 
H 	 -58.8383 	 22.708 	 -100.387 	 
H 	 -57.7004 	 22.9215 	 -101.65 	 
S 	 -56.7674 	 15.1257 	 -97.2532 	 
C 	 -56.8714 	 15.0452 	 -95.5059 	 
C 	 -56.7549 	 16.3278 	 -94.9931 	 
C 	 -56.3582 	 17.3453 	 -95.875 	 
C 	 -56.2342 	 16.821 	 -97.1421 	 
H 	 -56.8633 	 16.4874 	 -93.9634 	 
C 	 -56.073 	 18.7152 	 -95.3307 	 
H 	 -55.4135 	 19.3846 	 -95.9382 	 
H 	 -55.4942 	 18.5384 	 -94.3719 	 
C 	 -57.4334 	 19.4045 	 -95.0289 	 
H 	 -58.0899 	 18.8788 	 -94.3691 	 
H 	 -57.8915 	 19.5396 	 -96.0056 	 
C 	 -57.3203 	 20.8554 	 -94.6028 	 
H 	 -57.1729 	 21.4765 	 -95.442 	 
H 	 -56.5187 	 20.9239 	 -93.9187 	 
H 	 -58.2319 	 21.2979 	 -94.0493 	 
H 	 -55.4799 	 18.4279 	 -101.876 	 
H 	 -57.3037 	 14.2661 	 -94.9651 	 
*
