! wB97X-D3 SP def2-SVP
%pal
nprocs 24
end

* xyz 0 1
S 	 -111.953 	 55.6844 	 -92.8408 	 
C 	 -110.63 	 55.8606 	 -93.9597 	 
C 	 -109.449 	 55.634 	 -93.3118 	 
C 	 -109.622 	 55.2766 	 -91.9682 	 
C 	 -110.856 	 55.2904 	 -91.497 	 
H 	 -108.817 	 55.0549 	 -91.2988 	 
C 	 -108.123 	 55.3746 	 -94.0121 	 
H 	 -108.341 	 54.8766 	 -94.9225 	 
H 	 -107.572 	 54.6501 	 -93.467 	 
C 	 -107.123 	 56.4558 	 -94.305 	 
H 	 -107.424 	 57.0323 	 -95.2323 	 
H 	 -106.994 	 57.2032 	 -93.4594 	 
C 	 -105.733 	 55.7626 	 -94.5823 	 
H 	 -105.377 	 55.2317 	 -93.7045 	 
H 	 -105.787 	 55.0809 	 -95.5002 	 
H 	 -104.916 	 56.4768 	 -94.7725 	 
S 	 -112.893 	 55.794 	 -89.7787 	 
C 	 -112.984 	 54.9798 	 -88.3017 	 
C 	 -111.789 	 54.444 	 -87.9072 	 
C 	 -110.872 	 54.3751 	 -89.016 	 
C 	 -111.389 	 55.0229 	 -90.1637 	 
H 	 -111.683 	 53.9699 	 -86.9506 	 
C 	 -109.486 	 53.7467 	 -88.8896 	 
H 	 -109.293 	 53.6622 	 -87.7724 	 
H 	 -108.76 	 54.4423 	 -89.2922 	 
C 	 -109.256 	 52.3775 	 -89.4673 	 
H 	 -109.638 	 52.5678 	 -90.4882 	 
H 	 -109.786 	 51.5567 	 -88.9524 	 
C 	 -107.766 	 51.967 	 -89.4645 	 
H 	 -107.301 	 52.2024 	 -88.4945 	 
H 	 -107.258 	 52.4738 	 -90.2033 	 
H 	 -107.721 	 50.8835 	 -89.6299 	 
H 	 -110.777 	 55.7666 	 -95.0279 	 
H 	 -113.814 	 55.2157 	 -87.6647 	 
*
