! wB97X-D3 SP def2-SVP
%pal
nprocs 24
end

* xyz 0 1
S 	 33.1772 	 -31.9292 	 -130.871 	 
C 	 34.2097 	 -30.7724 	 -130.012 	 
C 	 34.4423 	 -31.1982 	 -128.715 	 
C 	 33.6746 	 -32.3226 	 -128.343 	 
C 	 32.8752 	 -32.8164 	 -129.373 	 
H 	 33.6098 	 -32.7878 	 -127.344 	 
C 	 35.4655 	 -30.4972 	 -127.815 	 
H 	 34.9445 	 -30.1295 	 -126.955 	 
H 	 35.7933 	 -29.5966 	 -128.325 	 
C 	 36.6571 	 -31.3835 	 -127.42 	 
H 	 36.4425 	 -32.2181 	 -126.703 	 
H 	 37.2331 	 -31.8041 	 -128.18 	 
C 	 37.7177 	 -30.4975 	 -126.723 	 
H 	 37.3419 	 -29.8208 	 -125.845 	 
H 	 38.5212 	 -31.1996 	 -126.289 	 
H 	 38.2297 	 -29.6952 	 -127.263 	 
S 	 32.6254 	 -35.449 	 -130.344 	 
C 	 31.3411 	 -36.4982 	 -129.702 	 
C 	 30.6497 	 -35.7799 	 -128.695 	 
C 	 31.1252 	 -34.469 	 -128.447 	 
C 	 32.1241 	 -34.0993 	 -129.338 	 
H 	 29.8718 	 -36.2772 	 -128.2 	 
C 	 30.5084 	 -33.5374 	 -127.395 	 
H 	 29.4047 	 -33.8448 	 -127.447 	 
H 	 30.5759 	 -32.5755 	 -127.822 	 
C 	 31.121 	 -33.5802 	 -126.026 	 
H 	 30.3684 	 -33.0857 	 -125.416 	 
H 	 31.9608 	 -32.9032 	 -125.909 	 
C 	 31.3928 	 -34.996 	 -125.559 	 
H 	 30.531 	 -35.5652 	 -125.798 	 
H 	 31.6394 	 -35.046 	 -124.478 	 
H 	 32.2901 	 -35.427 	 -126.007 	 
H 	 34.6892 	 -29.9673 	 -130.475 	 
H 	 31.0914 	 -37.5058 	 -130.049 	 
*
