! wB97X-D3 SP def2-SVP
%pal
nprocs 24
end

* xyz 0 1
S 	 -138.246 	 12.5579 	 0.140045 	 
C 	 -136.508 	 12.8839 	 0.471245 	 
C 	 -135.677 	 12.3972 	 -0.564039 	 
C 	 -136.423 	 11.703 	 -1.59701 	 
C 	 -137.801 	 11.7713 	 -1.43536 	 
H 	 -136.068 	 11.3161 	 -2.58099 	 
C 	 -134.147 	 12.5322 	 -0.544299 	 
H 	 -133.673 	 11.8818 	 -1.33093 	 
H 	 -133.785 	 12.0609 	 0.369099 	 
C 	 -133.575 	 13.9979 	 -0.538444 	 
H 	 -133.688 	 14.5146 	 -1.47614 	 
H 	 -134.137 	 14.6705 	 0.0959523 	 
C 	 -132.087 	 14.1252 	 -0.284416 	 
H 	 -131.385 	 13.4342 	 -0.893486 	 
H 	 -131.685 	 15.1565 	 -0.243558 	 
H 	 -132.003 	 13.68 	 0.691721 	 
S 	 -139.99 	 12.219 	 -3.01459 	 
C 	 -140.617 	 10.8895 	 -3.93497 	 
C 	 -140.11 	 9.64202 	 -3.573 	 
C 	 -139.029 	 9.79664 	 -2.66449 	 
C 	 -138.832 	 11.0951 	 -2.22363 	 
H 	 -140.492 	 8.72904 	 -4.03188 	 
C 	 -138.143 	 8.6338 	 -2.16013 	 
H 	 -137.224 	 8.96642 	 -1.70958 	 
H 	 -137.744 	 8.0846 	 -3.08379 	 
C 	 -138.857 	 7.57252 	 -1.2578 	 
H 	 -139.907 	 7.52231 	 -1.59451 	 
H 	 -138.826 	 7.98367 	 -0.229307 	 
C 	 -137.983 	 6.30027 	 -1.08332 	 
H 	 -136.95 	 6.65341 	 -1.01499 	 
H 	 -138.255 	 5.6713 	 -1.95993 	 
H 	 -138.353 	 5.66939 	 -0.245091 	 
H 	 -136.114 	 13.2322 	 1.41489 	 
H 	 -141.441 	 11.0753 	 -4.55041 	 
*
