! wB97X-D3 SP def2-SVP
%pal
nprocs 24
end

* xyz 0 1
S 	 -4.64793 	 -26.412 	 -116.7 	 
C 	 -3.30594 	 -26.219 	 -117.793 	 
C 	 -2.23956 	 -25.6769 	 -117.166 	 
C 	 -2.58624 	 -25.1135 	 -115.805 	 
C 	 -3.86699 	 -25.4208 	 -115.486 	 
H 	 -1.99556 	 -24.6663 	 -114.995 	 
C 	 -0.90717 	 -25.4869 	 -117.851 	 
H 	 -0.87044 	 -26.1932 	 -118.686 	 
H 	 -0.189221 	 -25.7707 	 -117.1 	 
C 	 -0.490589 	 -24.0837 	 -118.284 	 
H 	 -0.0693724 	 -23.5086 	 -117.455 	 
H 	 0.267716 	 -24.1433 	 -119.044 	 
C 	 -1.57971 	 -23.3005 	 -119.081 	 
H 	 -1.20121 	 -22.2799 	 -119.3 	 
H 	 -1.94484 	 -23.7581 	 -120.045 	 
H 	 -2.4989 	 -23.1199 	 -118.579 	 
S 	 -5.41897 	 -26.3616 	 -113.473 	 
C 	 -5.84753 	 -25.3382 	 -112.108 	 
C 	 -5.28011 	 -24.0308 	 -112.273 	 
C 	 -4.55483 	 -23.8798 	 -113.512 	 
C 	 -4.5645 	 -25.0861 	 -114.269 	 
H 	 -5.36673 	 -23.3389 	 -111.474 	 
C 	 -3.74564 	 -22.5921 	 -113.824 	 
H 	 -4.44755 	 -21.7949 	 -113.541 	 
H 	 -3.51748 	 -22.5367 	 -114.918 	 
C 	 -2.47025 	 -22.3084 	 -113.002 	 
H 	 -2.10789 	 -23.3348 	 -112.811 	 
H 	 -2.71777 	 -21.7929 	 -112.024 	 
C 	 -1.30164 	 -21.5877 	 -113.57 	 
H 	 -0.782931 	 -22.035 	 -114.41 	 
H 	 -0.536224 	 -21.5844 	 -112.759 	 
H 	 -1.51119 	 -20.5571 	 -113.83 	 
H 	 -3.29065 	 -26.5834 	 -118.881 	 
H 	 -6.52336 	 -25.5537 	 -111.254 	 
*
