! wB97X-D3 SP def2-SVP
%pal
nprocs 24
end

* xyz 0 1
S 	 -145.075 	 6.9272 	 -5.40227 	 
C 	 -145.608 	 8.4431 	 -4.84515 	 
C 	 -144.916 	 8.88194 	 -3.74378 	 
C 	 -143.962 	 7.99008 	 -3.26083 	 
C 	 -143.849 	 6.88233 	 -4.05488 	 
H 	 -143.35 	 8.14537 	 -2.47834 	 
C 	 -145.099 	 10.2207 	 -3.21309 	 
H 	 -145.389 	 10.8657 	 -4.04649 	 
H 	 -144.046 	 10.4479 	 -2.88509 	 
C 	 -145.972 	 10.2729 	 -2.07739 	 
H 	 -146.978 	 9.90471 	 -2.40134 	 
H 	 -145.546 	 9.6322 	 -1.31165 	 
C 	 -146.026 	 11.6437 	 -1.40452 	 
H 	 -145.11 	 12.054 	 -1.08535 	 
H 	 -146.506 	 12.4232 	 -2.00837 	 
H 	 -146.7 	 11.5267 	 -0.539125 	 
S 	 -143.47 	 4.10958 	 -4.03693 	 
C 	 -141.881 	 3.50462 	 -3.57984 	 
C 	 -140.974 	 4.47421 	 -3.28942 	 
C 	 -141.554 	 5.78865 	 -3.40945 	 
C 	 -142.927 	 5.804 	 -3.79445 	 
H 	 -139.992 	 4.20946 	 -2.90291 	 
C 	 -140.563 	 7.0012 	 -3.27603 	 
H 	 -140.032 	 6.81976 	 -2.375 	 
H 	 -141.061 	 7.96246 	 -3.06363 	 
C 	 -139.666 	 7.1511 	 -4.45771 	 
H 	 -139.08 	 6.2226 	 -4.69815 	 
H 	 -138.8 	 7.80707 	 -4.14493 	 
C 	 -140.396 	 7.77227 	 -5.69157 	 
H 	 -140.665 	 6.98941 	 -6.39024 	 
H 	 -139.767 	 8.46061 	 -6.26658 	 
H 	 -141.307 	 8.3185 	 -5.57332 	 
H 	 -146.396 	 9.02359 	 -5.2815 	 
H 	 -141.771 	 2.47256 	 -3.41156 	 
*
