! wB97X-D3 SP def2-SVP
%pal
nprocs 24
end

* xyz 0 1
S 	 -66.1825 	 9.43813 	 -76.3519 	 
C 	 -65.7628 	 7.91833 	 -75.5828 	 
C 	 -66.8992 	 7.25594 	 -75.0472 	 
C 	 -67.9997 	 8.09888 	 -75.1122 	 
C 	 -67.8206 	 9.2858 	 -75.7844 	 
H 	 -69.0503 	 7.88991 	 -74.8387 	 
C 	 -66.9834 	 5.90981 	 -74.428 	 
H 	 -67.4319 	 5.97093 	 -73.3927 	 
H 	 -65.9098 	 5.53409 	 -74.2412 	 
C 	 -67.7098 	 4.8831 	 -75.3772 	 
H 	 -67.6705 	 3.95663 	 -74.8321 	 
H 	 -68.7124 	 5.17869 	 -75.633 	 
C 	 -67.0541 	 4.74524 	 -76.7465 	 
H 	 -67.6787 	 4.15799 	 -77.3646 	 
H 	 -66.7513 	 5.67273 	 -77.2568 	 
H 	 -66.0586 	 4.15567 	 -76.582 	 
S 	 -68.3173 	 11.7493 	 -76.8677 	 
C 	 -69.9972 	 12.2616 	 -77.2088 	 
C 	 -70.9002 	 11.3618 	 -76.7836 	 
C 	 -70.2993 	 10.2828 	 -76.0264 	 
C 	 -68.8821 	 10.2158 	 -76.2402 	 
H 	 -71.9154 	 11.5285 	 -76.9457 	 
C 	 -71.1561 	 9.29899 	 -75.3087 	 
H 	 -70.8234 	 8.31143 	 -75.5807 	 
H 	 -72.1881 	 9.27297 	 -75.7161 	 
C 	 -71.1743 	 9.32788 	 -73.7926 	 
H 	 -71.69 	 10.2479 	 -73.4745 	 
H 	 -70.1246 	 9.59837 	 -73.5939 	 
C 	 -71.5506 	 8.01907 	 -73.1393 	 
H 	 -70.7257 	 7.32285 	 -73.3803 	 
H 	 -72.4942 	 7.71802 	 -73.5756 	 
H 	 -71.716 	 8.14339 	 -72.0838 	 
H 	 -64.7662 	 7.48613 	 -75.4769 	 
H 	 -70.2524 	 13.133 	 -77.8329 	 
*
