! wB97X-D3 SP def2-SVP
%pal
nprocs 24
end

* xyz 0 1
S 	 -57.8458 	 13.2112 	 -101.022 	 
C 	 -59.0585 	 14.4649 	 -101.005 	 
C 	 -59.0226 	 15.2229 	 -99.8302 	 
C 	 -58.2408 	 14.4508 	 -98.8553 	 
C 	 -57.7185 	 13.2828 	 -99.3469 	 
H 	 -57.9529 	 14.8222 	 -97.8918 	 
C 	 -59.9409 	 16.4572 	 -99.6071 	 
H 	 -59.7941 	 16.7614 	 -98.6139 	 
H 	 -60.8954 	 15.9456 	 -99.633 	 
C 	 -59.9 	 17.619 	 -100.64 	 
H 	 -58.8749 	 17.7357 	 -100.703 	 
H 	 -60.2451 	 17.3852 	 -101.608 	 
C 	 -60.5628 	 18.9281 	 -100.119 	 
H 	 -60.56 	 19.5412 	 -101.027 	 
H 	 -61.6817 	 18.6461 	 -99.9792 	 
H 	 -60.1777 	 19.5136 	 -99.2553 	 
S 	 -58.3001 	 11.1404 	 -97.6726 	 
C 	 -56.9535 	 10.3156 	 -96.905 	 
C 	 -55.7301 	 10.7363 	 -97.4352 	 
C 	 -55.8106 	 11.8225 	 -98.3162 	 
C 	 -57.1015 	 12.2329 	 -98.5576 	 
H 	 -54.7884 	 10.177 	 -97.1482 	 
C 	 -54.6154 	 12.582 	 -98.8831 	 
H 	 -54.8704 	 13.6216 	 -98.7554 	 
H 	 -54.5073 	 12.2631 	 -99.9287 	 
C 	 -53.1692 	 12.1528 	 -98.4074 	 
H 	 -52.8403 	 11.0681 	 -98.5861 	 
H 	 -53.1662 	 12.4172 	 -97.3415 	 
C 	 -52.0642 	 13.0066 	 -99.0952 	 
H 	 -52.16 	 12.886 	 -100.187 	 
H 	 -51.0792 	 12.743 	 -98.7658 	 
H 	 -52.233 	 14.0633 	 -98.8542 	 
H 	 -59.6811 	 14.6799 	 -101.914 	 
H 	 -56.9915 	 9.37259 	 -96.4272 	 
*
