! wB97X-D3 SP def2-SVP
%pal
nprocs 24
end

* xyz 0 1
S 	 -100.931 	 15.3641 	 -118.721 	 
C 	 -100.417 	 15.6687 	 -117.103 	 
C 	 -99.8118 	 14.5633 	 -116.447 	 
C 	 -99.8256 	 13.4504 	 -117.356 	 
C 	 -100.433 	 13.6844 	 -118.595 	 
H 	 -99.5634 	 12.4209 	 -117.137 	 
C 	 -99.3367 	 14.5436 	 -114.978 	 
H 	 -99.5305 	 13.5896 	 -114.581 	 
H 	 -100.053 	 15.0789 	 -114.378 	 
C 	 -97.9665 	 15.0588 	 -114.645 	 
H 	 -97.9305 	 14.8678 	 -113.594 	 
H 	 -97.1347 	 14.5001 	 -114.99 	 
C 	 -97.687 	 16.5463 	 -114.839 	 
H 	 -96.6634 	 16.7269 	 -114.414 	 
H 	 -97.5867 	 16.7714 	 -115.912 	 
H 	 -98.3844 	 17.2693 	 -114.377 	 
S 	 -102.33 	 12.2813 	 -119.936 	 
C 	 -101.807 	 11.2383 	 -121.224 	 
C 	 -100.434 	 11.2038 	 -121.395 	 
C 	 -99.7396 	 11.9705 	 -120.391 	 
C 	 -100.665 	 12.648 	 -119.597 	 
H 	 -99.9863 	 10.6924 	 -122.299 	 
C 	 -98.2272 	 12.1261 	 -120.289 	 
H 	 -97.9504 	 11.8142 	 -119.223 	 
H 	 -97.941 	 13.18 	 -120.468 	 
C 	 -97.4338 	 11.1702 	 -121.263 	 
H 	 -97.6849 	 11.4455 	 -122.286 	 
H 	 -97.7957 	 10.1741 	 -121.18 	 
C 	 -95.9324 	 11.1069 	 -120.871 	 
H 	 -95.5268 	 12.112 	 -120.904 	 
H 	 -95.3543 	 10.4906 	 -121.529 	 
H 	 -95.7877 	 10.791 	 -119.818 	 
H 	 -100.734 	 16.4561 	 -116.45 	 
H 	 -102.512 	 10.648 	 -121.816 	 
*
