! wB97X-D3 SP def2-SVP
%pal
nprocs 24
end

* xyz 0 1
S 	 -107.344 	 21.5012 	 -110.28 	 
C 	 -106.198 	 20.8379 	 -109.057 	 
C 	 -105.396 	 19.8655 	 -109.595 	 
C 	 -105.717 	 19.6705 	 -110.971 	 
C 	 -106.728 	 20.4797 	 -111.472 	 
H 	 -105.384 	 18.8972 	 -111.702 	 
C 	 -104.431 	 19.0053 	 -108.814 	 
H 	 -104.162 	 18.0371 	 -109.199 	 
H 	 -104.971 	 18.705 	 -107.9 	 
C 	 -103.139 	 19.6915 	 -108.458 	 
H 	 -103.449 	 20.6521 	 -108.069 	 
H 	 -102.648 	 19.1163 	 -107.64 	 
C 	 -102.045 	 19.8523 	 -109.63 	 
H 	 -102.537 	 20.1074 	 -110.536 	 
H 	 -101.361 	 20.68 	 -109.581 	 
H 	 -101.483 	 18.9914 	 -109.911 	 
S 	 -108.845 	 20.4609 	 -113.211 	 
C 	 -108.641 	 20.0694 	 -114.934 	 
C 	 -107.303 	 20.1952 	 -115.224 	 
C 	 -106.437 	 20.2153 	 -114.099 	 
C 	 -107.141 	 20.487 	 -112.912 	 
H 	 -106.995 	 20.1118 	 -116.215 	 
C 	 -104.884 	 20.1025 	 -114.223 	 
H 	 -104.693 	 19.0577 	 -114.047 	 
H 	 -104.29 	 20.6541 	 -113.487 	 
C 	 -104.346 	 20.4115 	 -115.654 	 
H 	 -104.932 	 19.8268 	 -116.424 	 
H 	 -103.353 	 20.0438 	 -115.869 	 
C 	 -104.197 	 21.8867 	 -115.943 	 
H 	 -103.469 	 22.1289 	 -116.689 	 
H 	 -103.914 	 22.3875 	 -115.082 	 
H 	 -105.071 	 22.2381 	 -116.379 	 
H 	 -106.144 	 21.2602 	 -108.061 	 
H 	 -109.469 	 19.9757 	 -115.62 	 
*
