! wB97X-D3 SP def2-SVP
%pal
nprocs 24
end

* xyz 0 1
S 	 -46.3104 	 14.1502 	 -101.167 	 
C 	 -47.4981 	 15.4037 	 -100.656 	 
C 	 -47.1354 	 16.7473 	 -100.846 	 
C 	 -45.7514 	 16.7373 	 -101.22 	 
C 	 -45.1496 	 15.5222 	 -101.388 	 
H 	 -45.2056 	 17.606 	 -101.405 	 
C 	 -48.0537 	 17.9739 	 -100.719 	 
H 	 -49.0915 	 17.6589 	 -100.831 	 
H 	 -47.9306 	 18.5542 	 -101.629 	 
C 	 -47.9223 	 18.9758 	 -99.5032 	 
H 	 -47.0087 	 19.5673 	 -99.3551 	 
H 	 -48.6847 	 19.7918 	 -99.6276 	 
C 	 -48.1807 	 18.3091 	 -98.1244 	 
H 	 -49.1689 	 17.8918 	 -98.2069 	 
H 	 -47.3992 	 17.641 	 -97.803 	 
H 	 -48.4007 	 18.9941 	 -97.3276 	 
S 	 -42.4941 	 15.6665 	 -100.959 	 
C 	 -41.3667 	 15.1056 	 -102.162 	 
C 	 -41.9726 	 14.7008 	 -103.311 	 
C 	 -43.4176 	 14.7013 	 -103.184 	 
C 	 -43.837 	 15.2915 	 -102.013 	 
H 	 -41.4397 	 14.3178 	 -104.133 	 
C 	 -44.2796 	 14.1446 	 -104.287 	 
H 	 -45.2476 	 13.8598 	 -103.858 	 
H 	 -44.0366 	 13.1843 	 -104.676 	 
C 	 -44.4949 	 15.2147 	 -105.368 	 
H 	 -45.016 	 14.7539 	 -106.239 	 
H 	 -43.4352 	 15.5998 	 -105.529 	 
C 	 -45.2582 	 16.4525 	 -104.886 	 
H 	 -45.3962 	 17.1111 	 -105.798 	 
H 	 -44.6382 	 17.1433 	 -104.237 	 
H 	 -46.187 	 16.2052 	 -104.372 	 
H 	 -48.5071 	 15.1805 	 -100.556 	 
H 	 -40.3295 	 15.2402 	 -102.123 	 
*
