! wB97X-D3 SP def2-SVP
%pal
nprocs 24
end

* xyz 0 1
S 	 -105.655 	 50.9585 	 -71.4184 	 
C 	 -106.793 	 51.2436 	 -72.6394 	 
C 	 -107.713 	 52.23 	 -72.2683 	 
C 	 -107.533 	 52.5578 	 -70.8627 	 
C 	 -106.33 	 52.109 	 -70.3052 	 
H 	 -108.269 	 53.1169 	 -70.3108 	 
C 	 -108.838 	 52.7001 	 -73.1547 	 
H 	 -109.099 	 53.6708 	 -72.689 	 
H 	 -109.765 	 52.0822 	 -72.9877 	 
C 	 -108.464 	 52.8542 	 -74.6612 	 
H 	 -107.581 	 53.4121 	 -74.8294 	 
H 	 -108.228 	 51.8478 	 -74.9946 	 
C 	 -109.561 	 53.7218 	 -75.3644 	 
H 	 -109.874 	 54.5789 	 -74.7137 	 
H 	 -109.292 	 54.0942 	 -76.3948 	 
H 	 -110.491 	 53.1586 	 -75.4366 	 
S 	 -106.325 	 50.5978 	 -68.0404 	 
C 	 -106.225 	 51.4459 	 -66.5628 	 
C 	 -106.01 	 52.8299 	 -66.7228 	 
C 	 -105.9 	 53.2081 	 -68.051 	 
C 	 -106 	 52.1261 	 -68.9056 	 
H 	 -106.092 	 53.4297 	 -65.816 	 
C 	 -105.708 	 54.6814 	 -68.4071 	 
H 	 -106.727 	 55.1813 	 -68.2322 	 
H 	 -105.482 	 54.7425 	 -69.4734 	 
C 	 -104.72 	 55.4787 	 -67.595 	 
H 	 -103.711 	 55.0042 	 -67.8251 	 
H 	 -104.922 	 55.433 	 -66.5033 	 
C 	 -104.742 	 56.9068 	 -68.0249 	 
H 	 -104.615 	 57.01 	 -69.1404 	 
H 	 -104.029 	 57.5374 	 -67.4896 	 
H 	 -105.734 	 57.2304 	 -67.713 	 
H 	 -106.827 	 50.7556 	 -73.6591 	 
H 	 -106.516 	 51.086 	 -65.5837 	 
*
