! wB97X-D3 SP def2-SVP
%pal
nprocs 24
end

* xyz 0 1
S 	 -102.785 	 58.8333 	 -11.6512 	 
C 	 -103.72 	 60.3178 	 -11.2775 	 
C 	 -103.611 	 61.184 	 -12.331 	 
C 	 -103.082 	 60.5532 	 -13.5505 	 
C 	 -102.627 	 59.2961 	 -13.3495 	 
H 	 -103.101 	 60.9481 	 -14.5487 	 
C 	 -104.381 	 62.5142 	 -12.3562 	 
H 	 -104.439 	 62.9759 	 -11.3768 	 
H 	 -105.476 	 62.2285 	 -12.4983 	 
C 	 -104.062 	 63.4747 	 -13.4948 	 
H 	 -103.217 	 64.1015 	 -13.3076 	 
H 	 -103.908 	 62.9814 	 -14.384 	 
C 	 -105.24 	 64.4583 	 -13.6406 	 
H 	 -106.187 	 63.947 	 -13.7887 	 
H 	 -105.305 	 65.1583 	 -12.8047 	 
H 	 -105.076 	 65.1673 	 -14.4444 	 
S 	 -103.331 	 56.8527 	 -14.4404 	 
C 	 -102.263 	 56.0789 	 -15.5639 	 
C 	 -101.418 	 57.0085 	 -16.1308 	 
C 	 -101.305 	 58.1716 	 -15.285 	 
C 	 -102.275 	 58.2647 	 -14.3241 	 
H 	 -100.791 	 56.8682 	 -16.9438 	 
C 	 -100.25 	 59.2022 	 -15.5069 	 
H 	 -100.464 	 60.0891 	 -14.8659 	 
H 	 -100.311 	 59.4119 	 -16.6271 	 
C 	 -98.7915 	 58.8035 	 -15.1446 	 
H 	 -98.1483 	 59.6659 	 -15.3769 	 
H 	 -98.5461 	 57.9329 	 -15.73 	 
C 	 -98.6339 	 58.7132 	 -13.6076 	 
H 	 -99.3229 	 57.9902 	 -13.2263 	 
H 	 -98.8366 	 59.6434 	 -13.172 	 
H 	 -97.5708 	 58.4265 	 -13.3577 	 
H 	 -104.165 	 60.4101 	 -10.3005 	 
H 	 -102.467 	 55.1828 	 -16.0955 	 
*
