! wB97X-D3 SP def2-SVP
%pal
nprocs 24
end

* xyz 0 1
S 	 -36.7908 	 -31.9172 	 -98.9708 	 
C 	 -37.0912 	 -31.3001 	 -100.558 	 
C 	 -36.1755 	 -31.7356 	 -101.514 	 
C 	 -35.0542 	 -32.4148 	 -100.879 	 
C 	 -35.2439 	 -32.5808 	 -99.5355 	 
H 	 -34.1453 	 -32.7674 	 -101.34 	 
C 	 -36.2138 	 -31.3571 	 -102.942 	 
H 	 -35.1559 	 -31.2921 	 -103.279 	 
H 	 -36.7086 	 -30.4063 	 -102.993 	 
C 	 -36.995 	 -32.3492 	 -103.807 	 
H 	 -38.0551 	 -32.4019 	 -103.37 	 
H 	 -37.2093 	 -31.9887 	 -104.852 	 
C 	 -36.2639 	 -33.7269 	 -103.918 	 
H 	 -35.268 	 -33.6438 	 -104.403 	 
H 	 -36.0122 	 -34.1672 	 -102.939 	 
H 	 -36.8049 	 -34.4239 	 -104.662 	 
S 	 -35.3491 	 -34.3529 	 -97.5292 	 
C 	 -33.9167 	 -34.634 	 -96.5187 	 
C 	 -32.7703 	 -34.2611 	 -97.2818 	 
C 	 -33.0386 	 -33.4283 	 -98.4388 	 
C 	 -34.3886 	 -33.3282 	 -98.6399 	 
H 	 -31.7694 	 -34.5457 	 -96.9039 	 
C 	 -31.9622 	 -32.8307 	 -99.3335 	 
H 	 -31.2249 	 -32.5972 	 -98.6413 	 
H 	 -32.3154 	 -31.9179 	 -99.6322 	 
C 	 -31.2627 	 -33.7734 	 -100.346 	 
H 	 -32.1314 	 -34.1533 	 -100.93 	 
H 	 -30.8475 	 -34.672 	 -99.8476 	 
C 	 -30.1317 	 -33.1621 	 -101.213 	 
H 	 -29.382 	 -32.4774 	 -100.773 	 
H 	 -30.5949 	 -32.6543 	 -102.031 	 
H 	 -29.6559 	 -34.0143 	 -101.679 	 
H 	 -38.0247 	 -30.8509 	 -100.837 	 
H 	 -33.8073 	 -35.3343 	 -95.7558 	 
*
