! wB97X-D3 SP def2-SVP
%pal
nprocs 24
end

* xyz 0 1
S 	 -139.431 	 23.9801 	 -19.3221 	 
C 	 -140.702 	 23.2405 	 -18.3354 	 
C 	 -140.243 	 23.0082 	 -17.023 	 
C 	 -138.968 	 23.6089 	 -16.8115 	 
C 	 -138.349 	 24.0781 	 -17.9651 	 
H 	 -138.513 	 23.5931 	 -15.8075 	 
C 	 -140.931 	 22.295 	 -15.8975 	 
H 	 -140.127 	 21.925 	 -15.2909 	 
H 	 -141.397 	 21.4919 	 -16.4203 	 
C 	 -141.926 	 23.0651 	 -15.0586 	 
H 	 -142.245 	 22.4419 	 -14.197 	 
H 	 -141.438 	 23.9531 	 -14.6704 	 
C 	 -143.115 	 23.5046 	 -15.8969 	 
H 	 -143.909 	 22.7825 	 -15.859 	 
H 	 -143.493 	 24.454 	 -15.398 	 
H 	 -143.047 	 23.8767 	 -16.9056 	 
S 	 -136.336 	 25.7855 	 -17.2141 	 
C 	 -134.782 	 25.6527 	 -17.9557 	 
C 	 -134.687 	 24.5646 	 -18.8245 	 
C 	 -135.937 	 23.9115 	 -19.0373 	 
C 	 -136.937 	 24.3843 	 -18.1034 	 
H 	 -133.691 	 24.4486 	 -19.2238 	 
C 	 -136.165 	 22.9381 	 -20.1869 	 
H 	 -135.827 	 23.4576 	 -21.1513 	 
H 	 -137.261 	 22.7559 	 -20.2476 	 
C 	 -135.473 	 21.5646 	 -19.9406 	 
H 	 -135.932 	 21.0885 	 -19.0097 	 
H 	 -134.433 	 21.6852 	 -19.7706 	 
C 	 -135.627 	 20.5234 	 -21.1195 	 
H 	 -135.424 	 20.9497 	 -22.0608 	 
H 	 -136.65 	 20.1568 	 -21.285 	 
H 	 -134.987 	 19.6199 	 -20.9847 	 
H 	 -141.671 	 23.0378 	 -18.7653 	 
H 	 -133.925 	 26.2312 	 -17.6974 	 
*
