! wB97X-D3 SP def2-SVP
%pal
nprocs 24
end

* xyz 0 1
S 	 -84.8245 	 -38.0971 	 -73.1749 	 
C 	 -84.4339 	 -37.7354 	 -74.8579 	 
C 	 -83.7646 	 -38.8289 	 -75.4048 	 
C 	 -83.4802 	 -39.8755 	 -74.4375 	 
C 	 -83.7949 	 -39.5183 	 -73.125 	 
H 	 -83.144 	 -40.8555 	 -74.6569 	 
C 	 -83.3601 	 -38.88 	 -76.8471 	 
H 	 -84.1118 	 -38.3588 	 -77.3269 	 
H 	 -83.4216 	 -39.9505 	 -77.1931 	 
C 	 -81.9298 	 -38.3711 	 -77.1471 	 
H 	 -81.77 	 -38.4581 	 -78.2475 	 
H 	 -81.9289 	 -37.2917 	 -76.8016 	 
C 	 -80.7697 	 -39.126 	 -76.4624 	 
H 	 -80.8643 	 -39.0804 	 -75.3982 	 
H 	 -80.6951 	 -40.232 	 -76.7749 	 
H 	 -79.7486 	 -38.6399 	 -76.5866 	 
S 	 -82.6738 	 -39.6839 	 -70.5761 	 
C 	 -82.7152 	 -41.2941 	 -69.7974 	 
C 	 -83.5674 	 -42.1012 	 -70.5208 	 
C 	 -84.108 	 -41.5504 	 -71.6873 	 
C 	 -83.6234 	 -40.3157 	 -71.9671 	 
H 	 -83.8791 	 -43.0659 	 -70.1154 	 
C 	 -85.0629 	 -42.3303 	 -72.6209 	 
H 	 -85.341 	 -41.6322 	 -73.505 	 
H 	 -86.0053 	 -42.3705 	 -72.0427 	 
C 	 -84.7344 	 -43.8175 	 -73.1073 	 
H 	 -85.5622 	 -44.2661 	 -73.5887 	 
H 	 -84.5692 	 -44.4179 	 -72.2507 	 
C 	 -83.5554 	 -43.8039 	 -74.1767 	 
H 	 -83.426 	 -44.7629 	 -74.7935 	 
H 	 -82.5731 	 -43.6614 	 -73.6678 	 
H 	 -83.799 	 -42.9556 	 -74.8375 	 
H 	 -84.5011 	 -36.8034 	 -75.3522 	 
H 	 -82.2697 	 -41.4645 	 -68.8417 	 
*
