! wB97X-D3 SP def2-SVP
%pal
nprocs 24
end

* xyz 0 1
S 	 -138.659 	 7.68322 	 -3.78995 	 
C 	 -139.882 	 8.91254 	 -3.33653 	 
C 	 -141.147 	 8.42116 	 -3.35307 	 
C 	 -141.137 	 7.02402 	 -3.36465 	 
C 	 -139.898 	 6.43962 	 -3.58328 	 
H 	 -142.044 	 6.3915 	 -3.26162 	 
C 	 -142.382 	 9.28062 	 -3.18952 	 
H 	 -143.068 	 9.08168 	 -4.01287 	 
H 	 -142.072 	 10.2831 	 -3.34985 	 
C 	 -143.135 	 8.93337 	 -1.83365 	 
H 	 -143.765 	 8.06958 	 -1.87279 	 
H 	 -142.433 	 8.81461 	 -0.994404 	 
C 	 -143.995 	 10.1961 	 -1.50958 	 
H 	 -144.814 	 10.2864 	 -2.2297 	 
H 	 -144.472 	 10.0537 	 -0.500053 	 
H 	 -143.384 	 11.1723 	 -1.53078 	 
S 	 -138.698 	 4.65042 	 -5.13597 	 
C 	 -138.794 	 2.94063 	 -4.72334 	 
C 	 -139.513 	 2.66165 	 -3.61528 	 
C 	 -139.973 	 3.85599 	 -2.98981 	 
C 	 -139.485 	 5.02907 	 -3.64849 	 
H 	 -139.616 	 1.62107 	 -3.37082 	 
C 	 -140.836 	 3.82153 	 -1.7506 	 
H 	 -140.9 	 2.774 	 -1.30327 	 
H 	 -141.863 	 4.21091 	 -1.97343 	 
C 	 -140.305 	 4.73282 	 -0.57716 	 
H 	 -140.395 	 5.79723 	 -0.934349 	 
H 	 -139.266 	 4.67637 	 -0.360821 	 
C 	 -141.108 	 4.67962 	 0.757135 	 
H 	 -142.155 	 5.01251 	 0.708966 	 
H 	 -140.58 	 5.37247 	 1.40953 	 
H 	 -140.894 	 3.63763 	 1.10984 	 
H 	 -139.72 	 9.97939 	 -3.18686 	 
H 	 -138.317 	 2.14298 	 -5.3141 	 
*
