! wB97X-D3 SP def2-SVP
%pal
nprocs 24
end

* xyz 0 1
S 	 -103.632 	 -0.462393 	 -123.557 	 
C 	 -104.748 	 -0.101879 	 -122.128 	 
C 	 -103.961 	 0.41842 	 -121.043 	 
C 	 -102.588 	 0.439854 	 -121.331 	 
C 	 -102.21 	 -0.0682304 	 -122.555 	 
H 	 -101.77 	 0.767612 	 -120.699 	 
C 	 -104.638 	 1.02138 	 -119.771 	 
H 	 -104.122 	 0.658884 	 -118.919 	 
H 	 -105.656 	 0.729017 	 -119.762 	 
C 	 -104.625 	 2.50807 	 -119.778 	 
H 	 -103.647 	 2.94023 	 -119.619 	 
H 	 -104.95 	 2.93214 	 -120.699 	 
C 	 -105.53 	 3.22663 	 -118.738 	 
H 	 -105.059 	 3.11442 	 -117.778 	 
H 	 -105.681 	 4.29708 	 -118.909 	 
H 	 -106.564 	 2.79732 	 -118.704 	 
S 	 -100.522 	 -1.70193 	 -123.934 	 
C 	 -98.8171 	 -1.44137 	 -123.758 	 
C 	 -98.5056 	 -0.232947 	 -123.316 	 
C 	 -99.6841 	 0.461051 	 -122.812 	 
C 	 -100.858 	 -0.275572 	 -123.027 	 
H 	 -97.4954 	 0.105294 	 -123.251 	 
C 	 -99.4365 	 1.722 	 -122.055 	 
H 	 -98.4727 	 2.13012 	 -122.423 	 
H 	 -99.2855 	 1.47493 	 -120.992 	 
C 	 -100.466 	 2.89665 	 -122.209 	 
H 	 -99.9881 	 3.75245 	 -121.678 	 
H 	 -101.421 	 2.66042 	 -121.843 	 
C 	 -100.694 	 3.26618 	 -123.708 	 
H 	 -101.058 	 2.38493 	 -124.256 	 
H 	 -99.8028 	 3.55515 	 -124.362 	 
H 	 -101.531 	 3.98732 	 -123.816 	 
H 	 -105.767 	 -0.324389 	 -122.052 	 
H 	 -98.0538 	 -2.08888 	 -124.2 	 
*
