! wB97X-D3 SP def2-SVP
%pal
nprocs 24
end

* xyz 0 1
S 	 -49.1175 	 17.1046 	 18.222 	 
C 	 -50.5083 	 16.8577 	 19.1958 	 
C 	 -50.1102 	 16.4201 	 20.4443 	 
C 	 -48.7075 	 16.0261 	 20.4703 	 
C 	 -48.0073 	 16.2767 	 19.3106 	 
H 	 -48.2991 	 15.5477 	 21.2716 	 
C 	 -51.1363 	 16.082 	 21.5106 	 
H 	 -50.8703 	 15.0783 	 22.0074 	 
H 	 -52.1174 	 15.9538 	 21.0313 	 
C 	 -51.437 	 17.1583 	 22.5848 	 
H 	 -51.58 	 18.0375 	 21.9257 	 
H 	 -52.3235 	 17.0224 	 23.1462 	 
C 	 -50.298 	 17.5525 	 23.4865 	 
H 	 -50.2446 	 18.5619 	 24.0049 	 
H 	 -50.3085 	 16.8463 	 24.4111 	 
H 	 -49.3717 	 17.3766 	 22.9253 	 
S 	 -45.7866 	 15.0428 	 20.3516 	 
C 	 -44.277 	 14.9831 	 19.4974 	 
C 	 -44.4832 	 15.4164 	 18.2382 	 
C 	 -45.7714 	 15.9354 	 17.9351 	 
C 	 -46.6346 	 15.8213 	 19.0221 	 
H 	 -43.6557 	 15.3859 	 17.5614 	 
C 	 -46.0859 	 16.7324 	 16.6609 	 
H 	 -46.517 	 17.59 	 17.1067 	 
H 	 -46.8743 	 16.118 	 16.2445 	 
C 	 -45.0768 	 17.1395 	 15.5956 	 
H 	 -45.5957 	 17.5653 	 14.7048 	 
H 	 -44.5711 	 16.198 	 15.2527 	 
C 	 -44.1253 	 18.168 	 16.1579 	 
H 	 -43.4277 	 18.3462 	 15.3723 	 
H 	 -43.5515 	 17.7594 	 16.9785 	 
H 	 -44.6676 	 19.0718 	 16.4642 	 
H 	 -51.4907 	 17.221 	 19.016 	 
H 	 -43.2829 	 14.8752 	 19.7966 	 
*
