! wB97X-D3 SP def2-SVP
%pal
nprocs 24
end

* xyz 0 1
S 	 -86.0927 	 -44.8334 	 -83.3679 	 
C 	 -87.3551 	 -43.6554 	 -83.6198 	 
C 	 -88.331 	 -43.7975 	 -82.5753 	 
C 	 -88.0945 	 -44.874 	 -81.8061 	 
C 	 -86.8588 	 -45.4625 	 -81.9605 	 
H 	 -88.7387 	 -45.3417 	 -81.0912 	 
C 	 -89.5559 	 -42.9311 	 -82.5148 	 
H 	 -90.3609 	 -43.2788 	 -83.1086 	 
H 	 -89.2395 	 -41.9824 	 -82.9496 	 
C 	 -90.2474 	 -42.7112 	 -81.1032 	 
H 	 -90.3511 	 -43.7325 	 -80.7126 	 
H 	 -89.4889 	 -42.2459 	 -80.3825 	 
C 	 -91.6169 	 -41.9966 	 -81.1135 	 
H 	 -92.2634 	 -42.1721 	 -82.0041 	 
H 	 -92.1818 	 -42.2502 	 -80.1773 	 
H 	 -91.4968 	 -40.9027 	 -81.0213 	 
S 	 -86.0039 	 -48.0377 	 -82.0931 	 
C 	 -85.4049 	 -48.8008 	 -80.6313 	 
C 	 -85.4761 	 -47.9409 	 -79.5782 	 
C 	 -86.0113 	 -46.6499 	 -79.8727 	 
C 	 -86.2812 	 -46.5705 	 -81.2331 	 
H 	 -85.1307 	 -48.1958 	 -78.6257 	 
C 	 -86.1567 	 -45.5747 	 -78.8125 	 
H 	 -86.9066 	 -45.9479 	 -78.1126 	 
H 	 -86.5199 	 -44.6224 	 -79.1782 	 
C 	 -84.8707 	 -45.2454 	 -77.9774 	 
H 	 -84.6849 	 -46.0817 	 -77.3021 	 
H 	 -85.0743 	 -44.5233 	 -77.1668 	 
C 	 -83.6749 	 -44.7161 	 -78.7597 	 
H 	 -83.4176 	 -45.3286 	 -79.6204 	 
H 	 -82.8667 	 -44.716 	 -78.0593 	 
H 	 -83.7626 	 -43.7115 	 -79.1209 	 
H 	 -87.4033 	 -42.8635 	 -84.3957 	 
H 	 -84.9134 	 -49.7083 	 -80.5318 	 
*
