! wB97X-D3 SP def2-SVP
%pal
nprocs 24
end

* xyz 0 1
S 	 -86.9675 	 -33.2995 	 -72.8192 	 
C 	 -85.5309 	 -33.3922 	 -73.8228 	 
C 	 -85.6554 	 -32.6037 	 -74.9506 	 
C 	 -86.9862 	 -32.1839 	 -75.1351 	 
C 	 -87.8282 	 -32.6 	 -74.1855 	 
H 	 -87.504 	 -31.6136 	 -75.9111 	 
C 	 -84.5844 	 -32.3519 	 -76.0318 	 
H 	 -84.9555 	 -32.7579 	 -76.9179 	 
H 	 -83.7548 	 -32.9277 	 -75.7794 	 
C 	 -84.3301 	 -30.844 	 -76.2469 	 
H 	 -83.3918 	 -30.8429 	 -76.8082 	 
H 	 -85.1691 	 -30.5166 	 -76.7897 	 
C 	 -84.2494 	 -30.0561 	 -74.9507 	 
H 	 -85.2172 	 -30.0052 	 -74.468 	 
H 	 -83.4929 	 -30.2589 	 -74.2166 	 
H 	 -84.0604 	 -29.0247 	 -75.1758 	 
S 	 -89.9848 	 -32.2365 	 -72.4486 	 
C 	 -91.4604 	 -31.6478 	 -73.1582 	 
C 	 -91.449 	 -31.6983 	 -74.5099 	 
C 	 -90.2721 	 -32.1963 	 -75.0707 	 
C 	 -89.3195 	 -32.3567 	 -74.0917 	 
H 	 -92.3101 	 -31.3021 	 -75.0555 	 
C 	 -90.2094 	 -32.4168 	 -76.6312 	 
H 	 -89.3499 	 -31.9743 	 -77.0532 	 
H 	 -91.0629 	 -31.9616 	 -77.0934 	 
C 	 -90.1083 	 -33.8179 	 -77.0178 	 
H 	 -91.0469 	 -34.2189 	 -76.6039 	 
H 	 -89.4255 	 -34.3668 	 -76.3905 	 
C 	 -90.0523 	 -34.1857 	 -78.5226 	 
H 	 -90.3198 	 -35.1991 	 -78.785 	 
H 	 -89.0012 	 -34.1265 	 -78.7729 	 
H 	 -90.74 	 -33.5386 	 -79.1614 	 
H 	 -84.5093 	 -33.6616 	 -73.5792 	 
H 	 -92.228 	 -31.2262 	 -72.5581 	 
*
