! wB97X-D3 SP def2-SVP
%pal
nprocs 24
end

* xyz 0 1
S 	 -49.1866 	 14.2666 	 -98.0667 	 
C 	 -49.0383 	 12.5941 	 -97.4808 	 
C 	 -49.5505 	 11.7258 	 -98.4842 	 
C 	 -50.1183 	 12.4673 	 -99.6025 	 
C 	 -49.8615 	 13.8146 	 -99.5668 	 
H 	 -50.5836 	 11.9912 	 -100.473 	 
C 	 -49.5335 	 10.206 	 -98.3791 	 
H 	 -49.2074 	 9.91184 	 -97.3779 	 
H 	 -48.7921 	 9.96028 	 -99.1923 	 
C 	 -50.8521 	 9.51211 	 -98.6591 	 
H 	 -51.4126 	 9.8893 	 -99.5302 	 
H 	 -50.457 	 8.51169 	 -98.8581 	 
C 	 -51.8305 	 9.41204 	 -97.4602 	 
H 	 -51.4201 	 9.03316 	 -96.5647 	 
H 	 -52.0844 	 10.4309 	 -97.2109 	 
H 	 -52.6988 	 8.92503 	 -97.7327 	 
S 	 -51.2256 	 16.1117 	 -100.038 	 
C 	 -51.4239 	 16.6465 	 -101.66 	 
C 	 -50.7271 	 15.8825 	 -102.524 	 
C 	 -50.0029 	 14.8299 	 -101.906 	 
C 	 -50.1971 	 14.8343 	 -100.563 	 
H 	 -50.8829 	 16.1738 	 -103.541 	 
C 	 -49.1727 	 13.8405 	 -102.766 	 
H 	 -48.6942 	 13.1485 	 -102.033 	 
H 	 -48.3486 	 14.3955 	 -103.253 	 
C 	 -49.9867 	 13.0694 	 -103.778 	 
H 	 -50.233 	 13.7415 	 -104.582 	 
H 	 -50.9424 	 12.8102 	 -103.397 	 
C 	 -49.3567 	 11.7457 	 -104.256 	 
H 	 -49.9321 	 11.241 	 -105 	 
H 	 -49.2416 	 11.0254 	 -103.425 	 
H 	 -48.3446 	 12.0203 	 -104.681 	 
H 	 -48.6498 	 12.0892 	 -96.6779 	 
H 	 -51.9078 	 17.583 	 -101.933 	 
*
