! wB97X-D3 SP def2-SVP
%pal
nprocs 24
end

* xyz 0 1
S 	 -69.4438 	 14.272 	 -77.9171 	 
C 	 -67.856 	 14.2555 	 -78.6445 	 
C 	 -66.9078 	 14.3395 	 -77.6495 	 
C 	 -67.4834 	 14.6142 	 -76.3297 	 
C 	 -68.8521 	 14.4754 	 -76.3068 	 
H 	 -66.9309 	 14.9176 	 -75.4535 	 
C 	 -65.458 	 14.4006 	 -77.9441 	 
H 	 -65.2466 	 13.5485 	 -78.5528 	 
H 	 -64.9874 	 14.2402 	 -76.9372 	 
C 	 -65.0175 	 15.6646 	 -78.6218 	 
H 	 -63.9538 	 15.6248 	 -78.818 	 
H 	 -65.5182 	 15.7237 	 -79.6217 	 
C 	 -65.338 	 16.9925 	 -77.7679 	 
H 	 -66.3216 	 17.0174 	 -77.3855 	 
H 	 -64.6832 	 17.16 	 -76.9231 	 
H 	 -65.1928 	 17.8263 	 -78.43 	 
S 	 -71.2825 	 15.4879 	 -75.5276 	 
C 	 -71.8788 	 15.2201 	 -73.9093 	 
C 	 -70.9377 	 14.5132 	 -73.1791 	 
C 	 -69.7435 	 14.2173 	 -73.9114 	 
C 	 -69.8219 	 14.6474 	 -75.2105 	 
H 	 -71.1473 	 14.2664 	 -72.1024 	 
C 	 -68.5705 	 13.3877 	 -73.3789 	 
H 	 -67.6704 	 13.9912 	 -73.3966 	 
H 	 -68.4678 	 12.5813 	 -74.1322 	 
C 	 -68.8474 	 12.7162 	 -72.0662 	 
H 	 -69.9061 	 12.3171 	 -72.1263 	 
H 	 -68.9456 	 13.384 	 -71.2466 	 
C 	 -67.8472 	 11.649 	 -71.6618 	 
H 	 -68.1865 	 11.2595 	 -70.7087 	 
H 	 -66.7898 	 11.9807 	 -71.618 	 
H 	 -68.022 	 10.8383 	 -72.3562 	 
H 	 -67.6286 	 14.0363 	 -79.7052 	 
H 	 -72.857 	 15.5899 	 -73.5747 	 
*
