! wB97X-D3 SP def2-SVP
%pal
nprocs 24
end

* xyz 0 1
S 	 46.2792 	 -21.413 	 -114.085 	 
C 	 48.0552 	 -21.5803 	 -114.25 	 
C 	 48.7673 	 -20.7686 	 -113.375 	 
C 	 47.834 	 -20.0392 	 -112.55 	 
C 	 46.4887 	 -20.2694 	 -112.828 	 
H 	 47.9908 	 -19.3941 	 -111.727 	 
C 	 50.3048 	 -20.5519 	 -113.232 	 
H 	 50.6497 	 -19.8505 	 -112.398 	 
H 	 50.7317 	 -20.1151 	 -114.2 	 
C 	 50.9739 	 -21.9528 	 -112.899 	 
H 	 50.6585 	 -22.6658 	 -113.648 	 
H 	 52.0442 	 -21.9107 	 -113 	 
C 	 50.5655 	 -22.3836 	 -111.514 	 
H 	 50.7791 	 -21.7738 	 -110.604 	 
H 	 49.563 	 -22.6911 	 -111.388 	 
H 	 51.2183 	 -23.2484 	 -111.269 	 
S 	 44.0542 	 -18.9131 	 -113.166 	 
C 	 43.1811 	 -18.4768 	 -111.694 	 
C 	 43.8732 	 -18.8446 	 -110.561 	 
C 	 45.0552 	 -19.596 	 -110.857 	 
C 	 45.3437 	 -19.6895 	 -112.201 	 
H 	 43.4204 	 -18.5823 	 -109.609 	 
C 	 45.8989 	 -20.2562 	 -109.812 	 
H 	 46.6245 	 -19.5256 	 -109.402 	 
H 	 46.4143 	 -21.1243 	 -110.196 	 
C 	 45.2517 	 -20.7248 	 -108.549 	 
H 	 44.756 	 -19.8478 	 -108.125 	 
H 	 45.9263 	 -21.0223 	 -107.706 	 
C 	 44.2062 	 -21.7961 	 -108.849 	 
H 	 43.8896 	 -22.2369 	 -107.864 	 
H 	 44.6571 	 -22.5789 	 -109.455 	 
H 	 43.372 	 -21.3777 	 -109.431 	 
H 	 48.5254 	 -22.1363 	 -115.082 	 
H 	 42.2899 	 -17.9199 	 -111.657 	 
*
