! wB97X-D3 SP def2-SVP
%pal
nprocs 24
end

* xyz 0 1
S 	 -109.773 	 69.1791 	 -6.04288 	 
C 	 -109.066 	 69.9278 	 -7.4421 	 
C 	 -108.934 	 69.0032 	 -8.49424 	 
C 	 -109.466 	 67.6857 	 -8.12433 	 
C 	 -109.814 	 67.5618 	 -6.8084 	 
H 	 -109.346 	 66.8797 	 -8.81973 	 
C 	 -108.27 	 69.2161 	 -9.81781 	 
H 	 -108.249 	 70.3289 	 -9.88237 	 
H 	 -108.829 	 68.9869 	 -10.6645 	 
C 	 -106.927 	 68.5075 	 -9.94407 	 
H 	 -106.26 	 68.9481 	 -9.17946 	 
H 	 -107.111 	 67.4639 	 -9.66518 	 
C 	 -106.14 	 68.6706 	 -11.2461 	 
H 	 -105.82 	 69.6586 	 -11.4721 	 
H 	 -105.286 	 67.967 	 -11.2008 	 
H 	 -106.791 	 68.3576 	 -12.1579 	 
S 	 -109.091 	 65.9588 	 -4.64224 	 
C 	 -109.829 	 64.3659 	 -4.47451 	 
C 	 -110.739 	 64.1617 	 -5.5001 	 
C 	 -110.883 	 65.2233 	 -6.39461 	 
C 	 -110.111 	 66.3537 	 -6.04732 	 
H 	 -111.253 	 63.2197 	 -5.53903 	 
C 	 -111.87 	 65.1092 	 -7.57396 	 
H 	 -111.59 	 64.1206 	 -7.92177 	 
H 	 -111.548 	 65.8291 	 -8.2781 	 
C 	 -113.326 	 65.1498 	 -7.2131 	 
H 	 -113.679 	 64.3663 	 -6.55899 	 
H 	 -113.87 	 64.9636 	 -8.10514 	 
C 	 -113.833 	 66.4208 	 -6.576 	 
H 	 -113.4 	 66.382 	 -5.58626 	 
H 	 -114.942 	 66.3892 	 -6.46877 	 
H 	 -113.479 	 67.2999 	 -7.10097 	 
H 	 -108.595 	 70.8672 	 -7.54911 	 
H 	 -109.596 	 63.6353 	 -3.60359 	 
*
