! wB97X-D3 SP def2-SVP
%pal
nprocs 24
end

* xyz 0 1
S 	 -74.8296 	 -46.1511 	 -93.9298 	 
C 	 -73.4807 	 -45.0318 	 -94.2695 	 
C 	 -73.8743 	 -43.9585 	 -95.0379 	 
C 	 -75.2203 	 -44.1117 	 -95.5165 	 
C 	 -75.8735 	 -45.2237 	 -95.001 	 
H 	 -75.8405 	 -43.4755 	 -96.1417 	 
C 	 -73.0357 	 -42.8068 	 -95.5147 	 
H 	 -72.0599 	 -42.8866 	 -95.1216 	 
H 	 -73.4234 	 -41.7823 	 -95.0451 	 
C 	 -72.8705 	 -42.7833 	 -97.0271 	 
H 	 -72.3221 	 -43.5805 	 -97.3928 	 
H 	 -73.8178 	 -42.6858 	 -97.6051 	 
C 	 -71.8969 	 -41.5885 	 -97.4198 	 
H 	 -70.8653 	 -41.8126 	 -97.1269 	 
H 	 -71.8258 	 -41.2392 	 -98.4777 	 
H 	 -72.1405 	 -40.708 	 -96.8072 	 
S 	 -77.1778 	 -47.3864 	 -96.137 	 
C 	 -78.9329 	 -47.2798 	 -96.2204 	 
C 	 -79.3837 	 -46.0178 	 -96.1393 	 
C 	 -78.3521 	 -45.0709 	 -95.7028 	 
C 	 -77.1358 	 -45.7285 	 -95.5601 	 
H 	 -80.44 	 -45.7498 	 -96.2855 	 
C 	 -78.6068 	 -43.6651 	 -95.2223 	 
H 	 -79.3289 	 -43.2989 	 -95.9185 	 
H 	 -77.8099 	 -43.0031 	 -95.4247 	 
C 	 -79.0164 	 -43.5789 	 -93.7451 	 
H 	 -79.2284 	 -42.5441 	 -93.4895 	 
H 	 -78.138 	 -43.828 	 -93.1712 	 
C 	 -80.2082 	 -44.4312 	 -93.3649 	 
H 	 -80.4269 	 -44.3721 	 -92.223 	 
H 	 -80.025 	 -45.4929 	 -93.6104 	 
H 	 -81.105 	 -44.0884 	 -93.8428 	 
H 	 -72.4743 	 -45.2543 	 -93.7908 	 
H 	 -79.5733 	 -48.1278 	 -96.3613 	 
*
