! wB97X-D3 SP def2-SVP
%pal
nprocs 24
end

* xyz 0 1
S 	 38.3156 	 -4.97672 	 -116.991 	 
C 	 38.8516 	 -6.52342 	 -116.398 	 
C 	 37.7572 	 -7.36374 	 -116.156 	 
C 	 36.5269 	 -6.75015 	 -116.503 	 
C 	 36.6233 	 -5.47375 	 -116.878 	 
H 	 35.5592 	 -7.15946 	 -116.428 	 
C 	 37.786 	 -8.79062 	 -115.47 	 
H 	 38.4064 	 -8.54434 	 -114.615 	 
H 	 38.2618 	 -9.49518 	 -116.159 	 
C 	 36.503 	 -9.32551 	 -114.869 	 
H 	 36.0512 	 -8.4425 	 -114.408 	 
H 	 35.7648 	 -9.71317 	 -115.548 	 
C 	 36.6919 	 -10.3687 	 -113.721 	 
H 	 37.264 	 -9.91894 	 -112.83 	 
H 	 35.728 	 -10.7446 	 -113.364 	 
H 	 37.1998 	 -11.3396 	 -114.062 	 
S 	 35.54 	 -3.23014 	 -115.714 	 
C 	 34.2865 	 -2.38888 	 -116.578 	 
C 	 33.6567 	 -3.15719 	 -117.557 	 
C 	 34.3956 	 -4.39932 	 -117.699 	 
C 	 35.5622 	 -4.49573 	 -116.959 	 
H 	 32.8136 	 -2.82928 	 -118.105 	 
C 	 34.0718 	 -5.23437 	 -118.849 	 
H 	 34.869 	 -5.94531 	 -119.097 	 
H 	 33.9013 	 -4.55691 	 -119.719 	 
C 	 32.7503 	 -5.98042 	 -118.733 	 
H 	 32.4189 	 -6.30999 	 -119.699 	 
H 	 31.9438 	 -5.26777 	 -118.371 	 
C 	 32.8519 	 -7.2558 	 -117.821 	 
H 	 31.8145 	 -7.71113 	 -117.7 	 
H 	 33.2189 	 -6.94493 	 -116.903 	 
H 	 33.4167 	 -8.11295 	 -118.276 	 
H 	 39.8939 	 -6.75201 	 -116.156 	 
H 	 33.8055 	 -1.46826 	 -116.152 	 
*
