! wB97X-D3 SP def2-SVP
%pal
nprocs 24
end

* xyz 0 1
S 	 -63.343 	 12.2152 	 -92.3901 	 
C 	 -64.156 	 13.4242 	 -93.309 	 
C 	 -63.4681 	 14.648 	 -93.2294 	 
C 	 -62.3374 	 14.5309 	 -92.3955 	 
C 	 -62.0802 	 13.2757 	 -91.9103 	 
H 	 -61.636 	 15.3368 	 -92.2178 	 
C 	 -63.8309 	 15.9686 	 -93.9372 	 
H 	 -63.3873 	 16.8078 	 -93.4402 	 
H 	 -64.819 	 16.1557 	 -93.7028 	 
C 	 -63.4869 	 15.9588 	 -95.3863 	 
H 	 -63.987 	 15.0797 	 -95.8304 	 
H 	 -64.0407 	 16.8338 	 -95.7613 	 
C 	 -61.9287 	 16.0744 	 -95.6265 	 
H 	 -61.8106 	 16.2554 	 -96.7117 	 
H 	 -61.5593 	 16.9779 	 -95.1405 	 
H 	 -61.4097 	 15.1431 	 -95.258 	 
S 	 -61.5406 	 11.7431 	 -89.6585 	 
C 	 -60.1133 	 12.0478 	 -88.7238 	 
C 	 -59.2343 	 12.7493 	 -89.4926 	 
C 	 -59.7255 	 13.2524 	 -90.7274 	 
C 	 -61.0694 	 12.9581 	 -90.8642 	 
H 	 -58.2233 	 12.9172 	 -89.1897 	 
C 	 -59.0387 	 14.1798 	 -91.7478 	 
H 	 -59.6677 	 15.1022 	 -91.6908 	 
H 	 -59.1256 	 13.8134 	 -92.7791 	 
C 	 -57.5213 	 14.4705 	 -91.4541 	 
H 	 -56.9815 	 13.4963 	 -91.3838 	 
H 	 -57.4434 	 14.9546 	 -90.536 	 
C 	 -56.9272 	 15.3653 	 -92.5141 	 
H 	 -57.2232 	 16.389 	 -92.5801 	 
H 	 -57.1366 	 14.8823 	 -93.4778 	 
H 	 -55.8765 	 15.2719 	 -92.2395 	 
H 	 -64.9899 	 13.1853 	 -93.8253 	 
H 	 -59.9189 	 11.6034 	 -87.8477 	 
*
