! wB97X-D3 SP def2-SVP
%pal
nprocs 24
end

* xyz 0 1
S 	 -58.183 	 21.1885 	 -100.809 	 
C 	 -59.7926 	 21.9603 	 -100.886 	 
C 	 -60.7162 	 20.9871 	 -100.868 	 
C 	 -60.2301 	 19.681 	 -100.737 	 
C 	 -58.8819 	 19.5773 	 -100.637 	 
H 	 -60.8605 	 18.77 	 -100.597 	 
C 	 -62.1952 	 21.2743 	 -100.875 	 
H 	 -62.5962 	 20.5882 	 -101.585 	 
H 	 -62.3767 	 22.2177 	 -101.286 	 
C 	 -62.8322 	 21.0907 	 -99.4601 	 
H 	 -62.6697 	 20.0501 	 -99.0982 	 
H 	 -62.3496 	 21.7948 	 -98.7446 	 
C 	 -64.3638 	 21.2457 	 -99.4605 	 
H 	 -64.8834 	 20.6866 	 -100.221 	 
H 	 -64.7921 	 21.2027 	 -98.4698 	 
H 	 -64.5075 	 22.2848 	 -99.7934 	 
S 	 -56.8869 	 18.3408 	 -99.0527 	 
C 	 -56.3276 	 16.7961 	 -99.4583 	 
C 	 -57.0417 	 16.2511 	 -100.498 	 
C 	 -58.124 	 17.056 	 -100.884 	 
C 	 -58.1017 	 18.3359 	 -100.365 	 
H 	 -56.7923 	 15.3024 	 -100.929 	 
C 	 -59.1631 	 16.5124 	 -101.841 	 
H 	 -58.5883 	 16.1573 	 -102.769 	 
H 	 -59.753 	 17.354 	 -102.202 	 
C 	 -60.1404 	 15.5069 	 -101.193 	 
H 	 -60.7386 	 16.0386 	 -100.366 	 
H 	 -59.6359 	 14.6529 	 -100.787 	 
C 	 -61.2331 	 15.0195 	 -102.218 	 
H 	 -62.0581 	 14.5096 	 -101.647 	 
H 	 -60.7611 	 14.3392 	 -102.947 	 
H 	 -61.6008 	 15.8398 	 -102.782 	 
H 	 -60.1508 	 22.9738 	 -100.943 	 
H 	 -55.5075 	 16.2988 	 -99.0483 	 
*
