! wB97X-D3 SP def2-SVP
%pal
nprocs 24
end

* xyz 0 1
S 	 -44.2894 	 -48.2491 	 -69.1871 	 
C 	 -42.6634 	 -48.0194 	 -68.4666 	 
C 	 -41.76 	 -49.0589 	 -68.8668 	 
C 	 -42.4641 	 -50.0477 	 -69.6936 	 
C 	 -43.7746 	 -49.7529 	 -70.0399 	 
H 	 -41.9829 	 -50.9426 	 -70.1411 	 
C 	 -40.2562 	 -49.0809 	 -68.6344 	 
H 	 -39.8589 	 -50.077 	 -68.2131 	 
H 	 -40.047 	 -48.3785 	 -67.8487 	 
C 	 -39.4843 	 -48.6714 	 -69.8919 	 
H 	 -39.8688 	 -49.3261 	 -70.6777 	 
H 	 -39.779 	 -47.6543 	 -70.168 	 
C 	 -38.0051 	 -48.7849 	 -69.7431 	 
H 	 -37.5086 	 -48.1284 	 -69.0404 	 
H 	 -37.7148 	 -49.8173 	 -69.3735 	 
H 	 -37.5558 	 -48.5624 	 -70.6588 	 
S 	 -45.7014 	 -49.6818 	 -72.0798 	 
C 	 -46.4689 	 -51.1967 	 -72.5945 	 
C 	 -45.954 	 -52.2831 	 -71.874 	 
C 	 -44.9878 	 -51.8838 	 -70.9038 	 
C 	 -44.6821 	 -50.513 	 -70.8638 	 
H 	 -46.2198 	 -53.2671 	 -72.1401 	 
C 	 -44.2337 	 -52.9592 	 -70.1399 	 
H 	 -44.9588 	 -53.4593 	 -69.4799 	 
H 	 -43.6615 	 -52.4506 	 -69.422 	 
C 	 -43.2922 	 -53.9039 	 -70.9671 	 
H 	 -42.5247 	 -53.3936 	 -71.5593 	 
H 	 -43.9398 	 -54.3746 	 -71.6519 	 
C 	 -42.6227 	 -54.9427 	 -70.0237 	 
H 	 -43.4305 	 -55.4872 	 -69.5279 	 
H 	 -42.0823 	 -54.4844 	 -69.1764 	 
H 	 -42.0396 	 -55.6709 	 -70.5988 	 
H 	 -42.3309 	 -47.1752 	 -67.8429 	 
H 	 -47.0817 	 -51.4137 	 -73.509 	 
*
