! wB97X-D3 SP def2-SVP
%pal
nprocs 24
end

* xyz 0 1
S 	 48.2389 	 -33.957 	 -118.555 	 
C 	 48.3922 	 -32.8761 	 -119.957 	 
C 	 47.1661 	 -32.3557 	 -120.32 	 
C 	 46.1465 	 -32.6339 	 -119.301 	 
C 	 46.5105 	 -33.5723 	 -118.313 	 
H 	 45.2033 	 -32.1596 	 -119.203 	 
C 	 46.9206 	 -31.478 	 -121.503 	 
H 	 47.8579 	 -31.2505 	 -122.114 	 
H 	 46.4292 	 -30.5554 	 -121.213 	 
C 	 45.9957 	 -32.0549 	 -122.626 	 
H 	 46.0776 	 -33.158 	 -122.73 	 
H 	 44.9146 	 -32.0175 	 -122.426 	 
C 	 46.3293 	 -31.354 	 -123.987 	 
H 	 47.2642 	 -31.4583 	 -124.387 	 
H 	 45.6797 	 -31.7366 	 -124.811 	 
H 	 46.0254 	 -30.3295 	 -123.792 	 
S 	 46.1593 	 -34.906 	 -115.82 	 
C 	 44.525 	 -35.3327 	 -115.35 	 
C 	 43.6099 	 -34.8845 	 -116.269 	 
C 	 44.1682 	 -34.3161 	 -117.42 	 
C 	 45.5811 	 -34.225 	 -117.365 	 
H 	 42.5655 	 -35.0901 	 -116.227 	 
C 	 43.3476 	 -34.0627 	 -118.692 	 
H 	 42.5266 	 -34.791 	 -118.737 	 
H 	 43.9772 	 -34.2611 	 -119.557 	 
C 	 42.5 	 -32.7386 	 -118.725 	 
H 	 43.1491 	 -31.8355 	 -118.49 	 
H 	 41.765 	 -32.6495 	 -117.874 	 
C 	 41.7328 	 -32.4455 	 -120.003 	 
H 	 40.8748 	 -33.1189 	 -120.189 	 
H 	 42.4806 	 -32.5235 	 -120.785 	 
H 	 41.4014 	 -31.3675 	 -119.759 	 
H 	 49.2712 	 -32.8562 	 -120.551 	 
H 	 44.189 	 -35.9598 	 -114.482 	 
*
