! wB97X-D3 SP def2-SVP
%pal
nprocs 24
end

* xyz 0 1
S 	 -102.312 	 14.6738 	 -123.985 	 
C 	 -101.093 	 15.7863 	 -124.556 	 
C 	 -99.9287 	 15.1822 	 -124.988 	 
C 	 -100.039 	 13.7596 	 -124.789 	 
C 	 -101.203 	 13.3343 	 -124.266 	 
H 	 -99.2352 	 13.0412 	 -125.027 	 
C 	 -98.649 	 15.8122 	 -125.466 	 
H 	 -97.847 	 15.2038 	 -125.182 	 
H 	 -98.5617 	 16.8172 	 -125.057 	 
C 	 -98.4561 	 15.9272 	 -126.992 	 
H 	 -99.1988 	 16.6438 	 -127.367 	 
H 	 -97.4833 	 16.3644 	 -127.22 	 
C 	 -98.4628 	 14.5089 	 -127.657 	 
H 	 -99.5133 	 14.1685 	 -127.836 	 
H 	 -97.744 	 14.4729 	 -128.545 	 
H 	 -98.1331 	 13.7441 	 -126.928 	 
S 	 -103.065 	 11.3609 	 -124.881 	 
C 	 -102.923 	 9.76849 	 -124.121 	 
C 	 -101.895 	 9.79062 	 -123.197 	 
C 	 -101.123 	 11.0002 	 -123.15 	 
C 	 -101.629 	 11.9592 	 -123.995 	 
H 	 -101.777 	 8.94414 	 -122.555 	 
C 	 -99.9534 	 11.2457 	 -122.185 	 
H 	 -99.7032 	 12.3322 	 -122.41 	 
H 	 -99.0701 	 10.624 	 -122.425 	 
C 	 -100.278 	 11.1412 	 -120.688 	 
H 	 -99.6281 	 11.7577 	 -120.17 	 
H 	 -100.177 	 10.0853 	 -120.419 	 
C 	 -101.682 	 11.5257 	 -120.232 	 
H 	 -101.917 	 12.602 	 -120.246 	 
H 	 -101.882 	 11.1517 	 -119.198 	 
H 	 -102.432 	 11.1067 	 -120.866 	 
H 	 -101.218 	 16.8868 	 -124.496 	 
H 	 -103.603 	 8.87654 	 -124.203 	 
*
