! wB97X-D3 SP def2-SVP
%pal
nprocs 24
end

* xyz 0 1
S 	 -105.23 	 1.20607 	 -108.887 	 
C 	 -106.837 	 1.87044 	 -108.787 	 
C 	 -107.531 	 1.6153 	 -109.929 	 
C 	 -106.829 	 0.742231 	 -110.81 	 
C 	 -105.595 	 0.427664 	 -110.341 	 
H 	 -107.171 	 0.377881 	 -111.805 	 
C 	 -108.865 	 2.25751 	 -110.259 	 
H 	 -109.265 	 2.41461 	 -109.255 	 
H 	 -109.559 	 1.4768 	 -110.647 	 
C 	 -108.908 	 3.44806 	 -111.235 	 
H 	 -108.409 	 4.35298 	 -110.792 	 
H 	 -108.389 	 3.17207 	 -112.203 	 
C 	 -110.34 	 4.00509 	 -111.441 	 
H 	 -110.545 	 4.54217 	 -110.524 	 
H 	 -110.341 	 4.72422 	 -112.273 	 
H 	 -111.12 	 3.32922 	 -111.537 	 
S 	 -102.991 	 0.345247 	 -111.234 	 
C 	 -102.425 	 -1.11798 	 -112.007 	 
C 	 -103.465 	 -2.02045 	 -112.282 	 
C 	 -104.712 	 -1.65728 	 -111.66 	 
C 	 -104.581 	 -0.379262 	 -111 	 
H 	 -103.329 	 -2.93604 	 -112.821 	 
C 	 -105.822 	 -2.64039 	 -111.609 	 
H 	 -106.102 	 -2.81574 	 -112.655 	 
H 	 -106.712 	 -2.21426 	 -111.169 	 
C 	 -105.56 	 -3.88745 	 -110.706 	 
H 	 -104.621 	 -4.38893 	 -111.053 	 
H 	 -106.389 	 -4.61007 	 -110.859 	 
C 	 -105.363 	 -3.46414 	 -109.288 	 
H 	 -104.572 	 -2.6922 	 -109.224 	 
H 	 -105.233 	 -4.32427 	 -108.664 	 
H 	 -106.155 	 -2.83017 	 -108.961 	 
H 	 -107.147 	 2.54422 	 -107.978 	 
H 	 -101.423 	 -1.29341 	 -112.386 	 
*
