! wB97X-D3 SP def2-SVP
%pal
nprocs 24
end

* xyz 0 1
S 	 -36.0452 	 -50.095 	 -76.1659 	 
C 	 -35.1657 	 -50.3129 	 -77.5943 	 
C 	 -35.0554 	 -49.2276 	 -78.4352 	 
C 	 -35.736 	 -48.1284 	 -77.8299 	 
C 	 -36.3156 	 -48.4197 	 -76.6304 	 
H 	 -35.8005 	 -47.1768 	 -78.191 	 
C 	 -34.2647 	 -49.0412 	 -79.6299 	 
H 	 -34.8233 	 -48.4847 	 -80.3556 	 
H 	 -34.0011 	 -50.008 	 -80.1606 	 
C 	 -33.0075 	 -48.2393 	 -79.3735 	 
H 	 -32.5829 	 -48.1639 	 -80.3121 	 
H 	 -33.2521 	 -47.1526 	 -79.1056 	 
C 	 -32.0591 	 -48.8286 	 -78.3517 	 
H 	 -32.2397 	 -49.2523 	 -77.3239 	 
H 	 -31.6 	 -49.7008 	 -78.7767 	 
H 	 -31.2794 	 -48.09 	 -78.2711 	 
S 	 -38.7729 	 -48.3697 	 -75.2978 	 
C 	 -39.3234 	 -46.8403 	 -74.5772 	 
C 	 -38.5329 	 -45.7598 	 -75.0013 	 
C 	 -37.3969 	 -46.175 	 -75.8068 	 
C 	 -37.3656 	 -47.5927 	 -75.9561 	 
H 	 -38.74 	 -44.7554 	 -74.8153 	 
C 	 -36.4989 	 -45.1649 	 -76.5691 	 
H 	 -35.5282 	 -45.5638 	 -76.6897 	 
H 	 -36.4661 	 -44.3373 	 -75.772 	 
C 	 -37.2198 	 -44.5343 	 -77.8063 	 
H 	 -38.3362 	 -44.4923 	 -77.5581 	 
H 	 -37.1949 	 -45.2203 	 -78.6862 	 
C 	 -36.5637 	 -43.1771 	 -78.2122 	 
H 	 -35.8426 	 -43.2275 	 -79.0217 	 
H 	 -36.0912 	 -42.6374 	 -77.3946 	 
H 	 -37.266 	 -42.4703 	 -78.6505 	 
H 	 -34.6582 	 -51.244 	 -77.7325 	 
H 	 -40.1512 	 -46.8096 	 -73.9814 	 
*
