! wB97X-D3 SP def2-SVP
%pal
nprocs 24
end

* xyz 0 1
S 	 -133.461 	 69.5556 	 -65.8279 	 
C 	 -133.588 	 68.9438 	 -67.4972 	 
C 	 -134.73 	 68.1458 	 -67.5762 	 
C 	 -135.406 	 67.91 	 -66.3642 	 
C 	 -134.852 	 68.6263 	 -65.3042 	 
H 	 -136.221 	 67.2779 	 -66.1129 	 
C 	 -134.952 	 67.2847 	 -68.7943 	 
H 	 -134.514 	 67.7413 	 -69.6215 	 
H 	 -136.007 	 67.3534 	 -69.0232 	 
C 	 -134.693 	 65.8529 	 -68.6021 	 
H 	 -135.299 	 65.4758 	 -67.7541 	 
H 	 -134.944 	 65.4238 	 -69.5783 	 
C 	 -133.201 	 65.6268 	 -68.3306 	 
H 	 -133.048 	 64.5119 	 -68.4437 	 
H 	 -132.687 	 66.0438 	 -69.2252 	 
H 	 -132.747 	 66.0021 	 -67.4207 	 
S 	 -135.421 	 67.2771 	 -63.0293 	 
C 	 -136.003 	 68.1126 	 -61.6934 	 
C 	 -136.177 	 69.4263 	 -61.9301 	 
C 	 -135.861 	 69.8462 	 -63.2419 	 
C 	 -135.432 	 68.746 	 -63.9699 	 
H 	 -136.613 	 70.0868 	 -61.1912 	 
C 	 -135.949 	 71.3278 	 -63.724 	 
H 	 -135.074 	 71.3682 	 -64.3738 	 
H 	 -135.689 	 72.0466 	 -62.8609 	 
C 	 -137.165 	 71.7352 	 -64.5266 	 
H 	 -137.972 	 71.6527 	 -63.8522 	 
H 	 -137.514 	 70.8929 	 -65.2317 	 
C 	 -136.956 	 72.9608 	 -65.5196 	 
H 	 -136.238 	 72.639 	 -66.295 	 
H 	 -136.504 	 73.7781 	 -64.9053 	 
H 	 -137.855 	 73.2927 	 -65.9635 	 
H 	 -132.798 	 69.0239 	 -68.2126 	 
H 	 -136.418 	 67.4814 	 -60.8433 	 
*
