! wB97X-D3 SP def2-SVP
%pal
nprocs 24
end

* xyz 0 1
S 	 -87.053 	 -49.4692 	 -71.5128 	 
C 	 -85.7173 	 -50.6474 	 -71.5564 	 
C 	 -85.6019 	 -51.1576 	 -72.8163 	 
C 	 -86.5917 	 -50.6872 	 -73.7274 	 
C 	 -87.3245 	 -49.6503 	 -73.2136 	 
H 	 -86.7012 	 -50.958 	 -74.8209 	 
C 	 -84.5014 	 -52.2084 	 -73.216 	 
H 	 -85.0183 	 -52.9769 	 -73.8783 	 
H 	 -84.1973 	 -52.5931 	 -72.2286 	 
C 	 -83.3589 	 -51.6257 	 -73.9813 	 
H 	 -82.6212 	 -52.3953 	 -74.1906 	 
H 	 -83.6909 	 -51.2006 	 -74.9724 	 
C 	 -82.6247 	 -50.63 	 -73.1428 	 
H 	 -81.9724 	 -50.9633 	 -72.3288 	 
H 	 -82.0465 	 -50.0052 	 -73.8126 	 
H 	 -83.3534 	 -50.0434 	 -72.6896 	 
S 	 -88.6305 	 -47.281 	 -73.4034 	 
C 	 -89.9898 	 -47.0931 	 -74.447 	 
C 	 -90.2803 	 -48.3066 	 -75.1388 	 
C 	 -89.4054 	 -49.344 	 -74.7815 	 
C 	 -88.3951 	 -48.9599 	 -73.8705 	 
H 	 -91.0718 	 -48.403 	 -75.907 	 
C 	 -89.4613 	 -50.6462 	 -75.4889 	 
H 	 -90.5349 	 -50.8393 	 -75.7518 	 
H 	 -89.2173 	 -51.4029 	 -74.6977 	 
C 	 -88.5188 	 -50.8551 	 -76.6857 	 
H 	 -88.1867 	 -51.9502 	 -76.7325 	 
H 	 -87.5802 	 -50.2982 	 -76.6414 	 
C 	 -89.0651 	 -50.6383 	 -78.0864 	 
H 	 -89.3493 	 -49.5411 	 -78.2458 	 
H 	 -89.9528 	 -51.2456 	 -78.2229 	 
H 	 -88.3468 	 -50.8397 	 -78.8618 	 
H 	 -85.0832 	 -50.9068 	 -70.6946 	 
H 	 -90.5751 	 -46.2067 	 -74.3989 	 
*
