! wB97X-D3 SP def2-SVP
%pal
nprocs 24
end

* xyz 0 1
S 	 -121.913 	 62.7044 	 -37.1996 	 
C 	 -121.946 	 61.2152 	 -36.3519 	 
C 	 -120.765 	 60.9454 	 -35.6023 	 
C 	 -119.967 	 62.1605 	 -35.5846 	 
C 	 -120.491 	 63.2036 	 -36.2828 	 
H 	 -119.014 	 62.2302 	 -35.0017 	 
C 	 -120.282 	 59.6318 	 -34.982 	 
H 	 -119.573 	 59.186 	 -35.6436 	 
H 	 -121.206 	 59.0991 	 -34.9357 	 
C 	 -119.679 	 59.7343 	 -33.596 	 
H 	 -119.106 	 58.7855 	 -33.4305 	 
H 	 -118.866 	 60.5117 	 -33.5286 	 
C 	 -120.668 	 60.0944 	 -32.4319 	 
H 	 -121.378 	 60.9025 	 -32.6364 	 
H 	 -121.354 	 59.2872 	 -32.2403 	 
H 	 -120.105 	 60.392 	 -31.5848 	 
S 	 -119.633 	 65.1313 	 -38.0639 	 
C 	 -118.83 	 66.5515 	 -37.5824 	 
C 	 -118.707 	 66.5848 	 -36.1741 	 
C 	 -119.294 	 65.3799 	 -35.5231 	 
C 	 -119.852 	 64.5211 	 -36.4127 	 
H 	 -118.196 	 67.4445 	 -35.7748 	 
C 	 -119.361 	 65.2021 	 -34.0299 	 
H 	 -119.668 	 64.1581 	 -33.8717 	 
H 	 -120.106 	 65.9041 	 -33.6578 	 
C 	 -118.12 	 65.523 	 -33.2521 	 
H 	 -118.266 	 65.4884 	 -32.142 	 
H 	 -117.879 	 66.5593 	 -33.4567 	 
C 	 -117.053 	 64.4445 	 -33.4983 	 
H 	 -116.165 	 64.7173 	 -32.9614 	 
H 	 -116.81 	 64.3759 	 -34.5247 	 
H 	 -117.404 	 63.4769 	 -33.0746 	 
H 	 -122.657 	 60.5101 	 -36.4864 	 
H 	 -118.215 	 67.1759 	 -38.28 	 
*
