! wB97X-D3 SP def2-SVP
%pal
nprocs 24
end

* xyz 0 1
S 	 -53.812 	 -48.5409 	 -78.9175 	 
C 	 -54.3126 	 -46.8317 	 -79.077 	 
C 	 -54.333 	 -46.4467 	 -80.4062 	 
C 	 -53.7373 	 -47.4741 	 -81.2587 	 
C 	 -53.5156 	 -48.6814 	 -80.6428 	 
H 	 -53.5429 	 -47.3911 	 -82.318 	 
C 	 -54.6927 	 -45.082 	 -81.0172 	 
H 	 -54.1678 	 -45.0825 	 -81.97 	 
H 	 -54.2307 	 -44.3363 	 -80.3136 	 
C 	 -56.1613 	 -44.814 	 -81.1831 	 
H 	 -56.6476 	 -44.9722 	 -80.1617 	 
H 	 -56.2683 	 -43.8006 	 -81.4428 	 
C 	 -56.9756 	 -45.729 	 -82.1466 	 
H 	 -57.8985 	 -45.3025 	 -82.4156 	 
H 	 -56.4869 	 -46.0481 	 -83.0764 	 
H 	 -57.2104 	 -46.7164 	 -81.7563 	 
S 	 -54.2229 	 -51.2165 	 -80.9332 	 
C 	 -53.1345 	 -52.338 	 -81.7983 	 
C 	 -52.0551 	 -51.6956 	 -82.3499 	 
C 	 -52.0206 	 -50.3026 	 -82.0473 	 
C 	 -53.1585 	 -49.9404 	 -81.2789 	 
H 	 -51.3281 	 -52.2212 	 -83.0138 	 
C 	 -50.8818 	 -49.3935 	 -82.5012 	 
H 	 -49.9348 	 -49.9813 	 -82.4373 	 
H 	 -50.79 	 -48.4652 	 -81.9259 	 
C 	 -50.9328 	 -49.0705 	 -83.9607 	 
H 	 -50.3841 	 -48.2307 	 -84.284 	 
H 	 -51.9138 	 -48.7493 	 -84.2683 	 
C 	 -50.5606 	 -50.2462 	 -84.9056 	 
H 	 -49.5361 	 -50.5844 	 -84.8951 	 
H 	 -50.8224 	 -49.7787 	 -85.9032 	 
H 	 -51.2255 	 -51.1269 	 -84.895 	 
H 	 -54.7393 	 -46.3046 	 -78.2202 	 
H 	 -53.4132 	 -53.3104 	 -82.1888 	 
*
