! wB97X-D3 SP def2-SVP
%pal
nprocs 24
end

* xyz 0 1
S 	 -40.2936 	 -8.79922 	 16.2528 	 
C 	 -39.6281 	 -10.3473 	 16.0513 	 
C 	 -40.091 	 -11.2618 	 16.9763 	 
C 	 -40.9766 	 -10.6577 	 17.8884 	 
C 	 -41.1083 	 -9.29116 	 17.7541 	 
H 	 -41.6133 	 -11.1808 	 18.614 	 
C 	 -39.6457 	 -12.7641 	 17.0957 	 
H 	 -39.202 	 -12.9869 	 16.124 	 
H 	 -40.5866 	 -13.3508 	 17.1842 	 
C 	 -38.96 	 -13.1053 	 18.4555 	 
H 	 -37.9969 	 -12.6103 	 18.6477 	 
H 	 -39.6254 	 -12.7799 	 19.28 	 
C 	 -38.7394 	 -14.6113 	 18.5877 	 
H 	 -38.5916 	 -14.9917 	 19.6088 	 
H 	 -39.6077 	 -15.1644 	 18.31 	 
H 	 -37.8756 	 -14.9381 	 17.9764 	 
S 	 -41.0261 	 -7.49781 	 19.8518 	 
C 	 -42.5293 	 -7.0074 	 20.6067 	 
C 	 -43.6105 	 -7.41356 	 19.8433 	 
C 	 -43.2645 	 -8.23214 	 18.729 	 
C 	 -41.8906 	 -8.39379 	 18.6102 	 
H 	 -44.5883 	 -7.0606 	 20.0833 	 
C 	 -44.2635 	 -8.69618 	 17.6418 	 
H 	 -43.8292 	 -8.81097 	 16.65 	 
H 	 -44.8533 	 -7.83786 	 17.4682 	 
C 	 -45.3726 	 -9.70046 	 18.0585 	 
H 	 -45.6893 	 -9.61956 	 19.1307 	 
H 	 -45.0291 	 -10.7192 	 17.8019 	 
C 	 -46.7077 	 -9.47435 	 17.2003 	 
H 	 -46.4677 	 -9.57002 	 16.1876 	 
H 	 -47.0996 	 -8.46042 	 17.2 	 
H 	 -47.4243 	 -10.2773 	 17.3095 	 
H 	 -38.8336 	 -10.6263 	 15.3249 	 
H 	 -42.6304 	 -6.36008 	 21.4803 	 
*
