! wB97X-D3 SP def2-SVP
%pal
nprocs 24
end

* xyz 0 1
S 	 -48.3481 	 21.0105 	 28.7958 	 
C 	 -48.5545 	 21.1484 	 27.0201 	 
C 	 -48.4447 	 19.9093 	 26.4031 	 
C 	 -48.3244 	 18.8644 	 27.4011 	 
C 	 -48.2807 	 19.2909 	 28.7137 	 
H 	 -48.3405 	 17.815 	 27.0576 	 
C 	 -48.5493 	 19.6169 	 24.9374 	 
H 	 -47.9731 	 18.6982 	 24.7276 	 
H 	 -47.9781 	 20.4055 	 24.4867 	 
C 	 -49.8904 	 19.5983 	 24.2364 	 
H 	 -50.3726 	 20.4926 	 24.2101 	 
H 	 -49.7659 	 19.5337 	 23.1718 	 
C 	 -50.8301 	 18.465 	 24.6943 	 
H 	 -50.9706 	 18.5249 	 25.7781 	 
H 	 -51.767 	 18.6643 	 24.1769 	 
H 	 -50.3643 	 17.4768 	 24.3768 	 
S 	 -46.7028 	 19.2328 	 31.0057 	 
C 	 -47.0645 	 18.0966 	 32.286 	 
C 	 -47.9523 	 17.1341 	 31.8171 	 
C 	 -48.5307 	 17.4233 	 30.5166 	 
C 	 -47.9824 	 18.5449 	 29.981 	 
H 	 -48.203 	 16.3046 	 32.4376 	 
C 	 -49.5493 	 16.5877 	 29.7394 	 
H 	 -49.6088 	 15.6072 	 30.2155 	 
H 	 -49.1491 	 16.2985 	 28.7474 	 
C 	 -50.969 	 17.2606 	 29.6692 	 
H 	 -51.7561 	 16.5423 	 29.3507 	 
H 	 -50.9374 	 18.1132 	 29.0062 	 
C 	 -51.383 	 17.9433 	 30.9869 	 
H 	 -50.4902 	 18.5726 	 31.3779 	 
H 	 -51.4005 	 17.2267 	 31.8463 	 
H 	 -52.2798 	 18.5689 	 30.9033 	 
H 	 -48.6922 	 22.033 	 26.4779 	 
H 	 -46.5027 	 18.1386 	 33.1679 	 
*
