! wB97X-D3 SP def2-SVP
%pal
nprocs 24
end

* xyz 0 1
S 	 -107.001 	 37.1271 	 -17.3324 	 
C 	 -106.619 	 35.7355 	 -16.369 	 
C 	 -105.586 	 34.9573 	 -16.8698 	 
C 	 -105.254 	 35.4063 	 -18.2161 	 
C 	 -106.011 	 36.4978 	 -18.5951 	 
H 	 -104.577 	 35.0397 	 -18.979 	 
C 	 -104.941 	 33.6581 	 -16.3684 	 
H 	 -105.149 	 32.8678 	 -17.0512 	 
H 	 -105.439 	 33.3855 	 -15.4087 	 
C 	 -103.4 	 33.7944 	 -16.0669 	 
H 	 -102.883 	 33.933 	 -17.0269 	 
H 	 -103.255 	 34.6444 	 -15.4342 	 
C 	 -102.957 	 32.5848 	 -15.2695 	 
H 	 -101.988 	 32.7047 	 -14.8842 	 
H 	 -103.584 	 32.4307 	 -14.4418 	 
H 	 -103.098 	 31.6995 	 -15.9019 	 
S 	 -105.525 	 38.876 	 -20.0705 	 
C 	 -105.58 	 38.766 	 -21.7817 	 
C 	 -105.852 	 37.5029 	 -22.2038 	 
C 	 -106.005 	 36.5476 	 -21.1482 	 
C 	 -105.993 	 37.129 	 -19.9031 	 
H 	 -106.068 	 37.241 	 -23.2409 	 
C 	 -106.23 	 35.0592 	 -21.4143 	 
H 	 -106.974 	 34.8819 	 -22.1042 	 
H 	 -106.506 	 34.5904 	 -20.501 	 
C 	 -104.967 	 34.2961 	 -21.9325 	 
H 	 -104.189 	 34.5752 	 -21.2322 	 
H 	 -104.683 	 34.8746 	 -22.7875 	 
C 	 -105.091 	 32.7689 	 -22.197 	 
H 	 -104.159 	 32.4449 	 -22.7508 	 
H 	 -105.954 	 32.5665 	 -22.8817 	 
H 	 -105.25 	 32.1068 	 -21.3746 	 
H 	 -107.061 	 35.6638 	 -15.3656 	 
H 	 -105.553 	 39.7132 	 -22.3985 	 
*
