! wB97X-D3 SP def2-SVP
%pal
nprocs 24
end

* xyz 0 1
S 	 -120.388 	 25.8082 	 -15.6759 	 
C 	 -119.359 	 25.9153 	 -17.1423 	 
C 	 -118.389 	 26.8262 	 -16.8229 	 
C 	 -118.367 	 27.217 	 -15.4453 	 
C 	 -119.399 	 26.8234 	 -14.6562 	 
H 	 -117.625 	 27.7094 	 -14.9693 	 
C 	 -117.35 	 27.4327 	 -17.8127 	 
H 	 -117.478 	 26.7255 	 -18.6419 	 
H 	 -116.4 	 27.2464 	 -17.3313 	 
C 	 -117.524 	 28.9171 	 -18.3077 	 
H 	 -118.555 	 29.0803 	 -18.5515 	 
H 	 -117.215 	 29.6832 	 -17.5721 	 
C 	 -116.558 	 29.1407 	 -19.5085 	 
H 	 -115.576 	 28.8904 	 -19.0985 	 
H 	 -116.705 	 28.4046 	 -20.2439 	 
H 	 -116.605 	 30.0655 	 -20.0203 	 
S 	 -119.367 	 25.7419 	 -12.1257 	 
C 	 -119.614 	 26.8016 	 -10.7391 	 
C 	 -119.452 	 28.1409 	 -11.1407 	 
C 	 -119.52 	 28.2889 	 -12.5563 	 
C 	 -119.504 	 27.089 	 -13.2455 	 
H 	 -119.384 	 28.9848 	 -10.4577 	 
C 	 -119.412 	 29.6715 	 -13.2424 	 
H 	 -118.848 	 29.5285 	 -14.1198 	 
H 	 -118.868 	 30.1814 	 -12.5487 	 
C 	 -120.735 	 30.4108 	 -13.5947 	 
H 	 -121.321 	 29.8628 	 -14.2772 	 
H 	 -120.565 	 31.4146 	 -14.0814 	 
C 	 -121.738 	 30.5408 	 -12.4822 	 
H 	 -122.749 	 30.7838 	 -12.8466 	 
H 	 -121.411 	 31.1758 	 -11.6258 	 
H 	 -121.85 	 29.5957 	 -11.9862 	 
H 	 -119.61 	 25.5319 	 -18.1449 	 
H 	 -119.923 	 26.3671 	 -9.78636 	 
*
