! wB97X-D3 SP def2-SVP
%pal
nprocs 24
end

* xyz 0 1
S 	 26.1819 	 -6.63719 	 -119.327 	 
C 	 25.4774 	 -6.65393 	 -120.925 	 
C 	 26.1558 	 -7.29537 	 -121.96 	 
C 	 27.3042 	 -7.91754 	 -121.346 	 
C 	 27.2982 	 -7.79653 	 -119.984 	 
H 	 28.0558 	 -8.46027 	 -121.913 	 
C 	 25.8345 	 -7.24789 	 -123.416 	 
H 	 24.822 	 -7.05225 	 -123.467 	 
H 	 25.9167 	 -8.28441 	 -123.793 	 
C 	 26.5804 	 -6.18531 	 -124.215 	 
H 	 27.6065 	 -6.45433 	 -124.116 	 
H 	 26.3978 	 -6.23699 	 -125.309 	 
C 	 26.4143 	 -4.71816 	 -123.873 	 
H 	 26.7117 	 -4.49264 	 -122.848 	 
H 	 27.1726 	 -4.23269 	 -124.505 	 
H 	 25.3719 	 -4.38236 	 -124.003 	 
S 	 29.4451 	 -7.14469 	 -118.336 	 
C 	 30.3878 	 -8.46389 	 -117.523 	 
C 	 29.863 	 -9.66724 	 -117.974 	 
C 	 28.8372 	 -9.58268 	 -118.873 	 
C 	 28.3826 	 -8.32012 	 -119.103 	 
H 	 30.1917 	 -10.6499 	 -117.695 	 
C 	 28.3577 	 -10.8785 	 -119.576 	 
H 	 27.3209 	 -10.8355 	 -119.818 	 
H 	 28.4176 	 -11.5954 	 -118.722 	 
C 	 29.1793 	 -11.2403 	 -120.854 	 
H 	 30.2302 	 -11.377 	 -120.487 	 
H 	 29.2409 	 -10.3277 	 -121.463 	 
C 	 28.7202 	 -12.6165 	 -121.53 	 
H 	 29.6243 	 -12.9005 	 -122.212 	 
H 	 27.8277 	 -12.6331 	 -122.168 	 
H 	 28.7625 	 -13.4392 	 -120.859 	 
H 	 24.531 	 -6.1363 	 -121.13 	 
H 	 31.1383 	 -8.34945 	 -116.751 	 
*
