! wB97X-D3 SP def2-SVP
%pal
nprocs 24
end

* xyz 0 1
S 	 37.4422 	 -32.5075 	 -124.774 	 
C 	 38.1127 	 -33.9565 	 -123.885 	 
C 	 37.0783 	 -34.5443 	 -123.19 	 
C 	 35.8106 	 -34.0104 	 -123.462 	 
C 	 35.8098 	 -32.9782 	 -124.365 	 
H 	 34.8391 	 -34.3041 	 -123.09 	 
C 	 37.3597 	 -35.7562 	 -122.273 	 
H 	 38.3442 	 -36.0938 	 -122.57 	 
H 	 36.6084 	 -36.5004 	 -122.428 	 
C 	 37.4862 	 -35.3769 	 -120.756 	 
H 	 36.6063 	 -34.9208 	 -120.319 	 
H 	 37.7158 	 -36.2113 	 -120.045 	 
C 	 38.5726 	 -34.2942 	 -120.413 	 
H 	 38.4316 	 -33.3505 	 -120.907 	 
H 	 38.6349 	 -34.1111 	 -119.34 	 
H 	 39.5038 	 -34.7608 	 -120.725 	 
S 	 34.8288 	 -31.3562 	 -126.347 	 
C 	 33.2519 	 -30.5831 	 -126.218 	 
C 	 32.6811 	 -30.853 	 -125.004 	 
C 	 33.4732 	 -31.6683 	 -124.152 	 
C 	 34.6449 	 -32.1961 	 -124.799 	 
H 	 31.6503 	 -30.4443 	 -124.785 	 
C 	 32.9454 	 -32.0735 	 -122.832 	 
H 	 33.6539 	 -31.6637 	 -122.131 	 
H 	 33.0147 	 -33.1782 	 -122.815 	 
C 	 31.4275 	 -31.7034 	 -122.553 	 
H 	 30.8922 	 -32.0618 	 -123.397 	 
H 	 31.3676 	 -30.6519 	 -122.657 	 
C 	 30.817 	 -32.1403 	 -121.238 	 
H 	 29.9269 	 -31.6416 	 -121.064 	 
H 	 31.4069 	 -31.9313 	 -120.357 	 
H 	 30.781 	 -33.254 	 -121.147 	 
H 	 39.095 	 -34.2197 	 -123.875 	 
H 	 32.843 	 -30.1024 	 -127.113 	 
*
