! wB97X-D3 SP def2-SVP
%pal
nprocs 24
end

* xyz 0 1
S 	 -55.5824 	 15.2854 	 -94.332 	 
C 	 -53.8665 	 15.7423 	 -94.52 	 
C 	 -53.3096 	 15.0766 	 -95.5639 	 
C 	 -54.2831 	 14.3965 	 -96.3717 	 
C 	 -55.5506 	 14.5418 	 -95.8335 	 
H 	 -54.1534 	 13.8809 	 -97.3297 	 
C 	 -51.8189 	 14.9491 	 -95.8055 	 
H 	 -51.5918 	 14.6314 	 -96.8217 	 
H 	 -51.4727 	 14.1085 	 -95.1352 	 
C 	 -51.0038 	 16.2149 	 -95.5098 	 
H 	 -50.9261 	 16.3878 	 -94.4533 	 
H 	 -50.034 	 15.916 	 -95.8478 	 
C 	 -51.3989 	 17.4817 	 -96.2989 	 
H 	 -50.6959 	 18.2654 	 -96.1024 	 
H 	 -51.5115 	 17.3521 	 -97.4314 	 
H 	 -52.376 	 17.8476 	 -95.9736 	 
S 	 -57.9873 	 15.2146 	 -96.8715 	 
C 	 -59.0568 	 13.9862 	 -97.502 	 
C 	 -58.4229 	 12.7555 	 -97.5716 	 
C 	 -57.1356 	 12.7797 	 -96.9368 	 
C 	 -56.7496 	 14.0411 	 -96.5407 	 
H 	 -58.9727 	 11.8748 	 -97.8089 	 
C 	 -56.3617 	 11.5493 	 -96.5101 	 
H 	 -56.7947 	 11.239 	 -95.5486 	 
H 	 -55.291 	 11.832 	 -96.3626 	 
C 	 -56.4752 	 10.4357 	 -97.4321 	 
H 	 -56.0881 	 10.7975 	 -98.3557 	 
H 	 -57.5348 	 10.2965 	 -97.651 	 
C 	 -55.6921 	 9.21636 	 -96.9757 	 
H 	 -55.6949 	 8.34407 	 -97.6487 	 
H 	 -56.0168 	 8.90345 	 -95.9555 	 
H 	 -54.6273 	 9.32893 	 -96.9124 	 
H 	 -53.247 	 16.2034 	 -93.7159 	 
H 	 -60.0839 	 14.0225 	 -97.686 	 
*
