! wB97X-D3 SP def2-SVP
%pal
nprocs 24
end

* xyz 0 1
S 	 -125.822 	 63.2492 	 -49.0823 	 
C 	 -124.493 	 63.9173 	 -50.0359 	 
C 	 -124.68 	 65.2432 	 -50.3145 	 
C 	 -125.949 	 65.7106 	 -49.9037 	 
C 	 -126.656 	 64.8501 	 -49.0636 	 
H 	 -126.325 	 66.6684 	 -50.1322 	 
C 	 -123.764 	 65.9583 	 -51.3423 	 
H 	 -122.83 	 65.8489 	 -50.8359 	 
H 	 -123.885 	 67.0306 	 -51.1675 	 
C 	 -123.722 	 65.5155 	 -52.8052 	 
H 	 -123.094 	 66.1898 	 -53.4098 	 
H 	 -123.442 	 64.4572 	 -52.9451 	 
C 	 -125.059 	 65.6606 	 -53.4677 	 
H 	 -125.773 	 64.9476 	 -53.0384 	 
H 	 -125.558 	 66.5814 	 -53.5747 	 
H 	 -125.074 	 65.2238 	 -54.4081 	 
S 	 -129.242 	 63.9181 	 -49.238 	 
C 	 -130.517 	 64.866 	 -48.6586 	 
C 	 -130.059 	 65.837 	 -47.7661 	 
C 	 -128.639 	 66.0546 	 -47.9714 	 
C 	 -128.008 	 65.0314 	 -48.6719 	 
H 	 -130.795 	 66.3789 	 -47.217 	 
C 	 -127.822 	 67.171 	 -47.3928 	 
H 	 -127.398 	 67.7068 	 -48.2215 	 
H 	 -127.026 	 66.6542 	 -46.8674 	 
C 	 -128.582 	 68.0084 	 -46.3131 	 
H 	 -128.942 	 67.3452 	 -45.5515 	 
H 	 -129.428 	 68.541 	 -46.6971 	 
C 	 -127.647 	 68.971 	 -45.5075 	 
H 	 -127.518 	 69.9618 	 -45.9398 	 
H 	 -126.696 	 68.4942 	 -45.4359 	 
H 	 -127.992 	 68.9935 	 -44.431 	 
H 	 -123.708 	 63.3678 	 -50.5277 	 
H 	 -131.57 	 64.826 	 -48.8674 	 
*
