! wB97X-D3 SP def2-SVP
%pal
nprocs 24
end

* xyz 0 1
S 	 20.6389 	 -24.7605 	 -119.072 	 
C 	 21.0488 	 -26.2098 	 -119.94 	 
C 	 22.3058 	 -26.6275 	 -119.647 	 
C 	 22.7941 	 -25.8953 	 -118.468 	 
C 	 21.9998 	 -24.9364 	 -117.981 	 
H 	 23.6621 	 -26.0745 	 -117.849 	 
C 	 23.0899 	 -27.7915 	 -120.222 	 
H 	 24.1492 	 -27.519 	 -120.262 	 
H 	 22.8212 	 -27.872 	 -121.279 	 
C 	 22.7124 	 -29.0986 	 -119.473 	 
H 	 22.9079 	 -28.9575 	 -118.413 	 
H 	 21.5934 	 -29.1388 	 -119.602 	 
C 	 23.3034 	 -30.4201 	 -119.981 	 
H 	 22.8158 	 -30.6464 	 -120.985 	 
H 	 24.3984 	 -30.3721 	 -120.022 	 
H 	 22.9414 	 -31.2786 	 -119.394 	 
S 	 23.8131 	 -23.6898 	 -116.296 	 
C 	 23.2247 	 -22.7195 	 -115.003 	 
C 	 21.9066 	 -22.9151 	 -114.771 	 
C 	 21.3054 	 -23.7931 	 -115.743 	 
C 	 22.2223 	 -24.2275 	 -116.715 	 
H 	 21.4249 	 -22.3716 	 -114.05 	 
C 	 19.7987 	 -24.0967 	 -115.778 	 
H 	 19.4124 	 -23.6322 	 -116.732 	 
H 	 19.2167 	 -23.4887 	 -115.024 	 
C 	 19.5481 	 -25.5678 	 -115.671 	 
H 	 20.4011 	 -26.0241 	 -115.097 	 
H 	 19.5205 	 -26.0538 	 -116.634 	 
C 	 18.2491 	 -25.9361 	 -115.041 	 
H 	 18.2072 	 -27.0004 	 -114.68 	 
H 	 17.4738 	 -25.7232 	 -115.809 	 
H 	 18.0469 	 -25.4473 	 -114.067 	 
H 	 20.6209 	 -26.7151 	 -120.762 	 
H 	 23.7885 	 -21.8981 	 -114.513 	 
*
