! wB97X-D3 SP def2-SVP
%pal
nprocs 24
end

* xyz 0 1
S 	 37.5737 	 -21.9557 	 -114.398 	 
C 	 39.2842 	 -22.0672 	 -114.579 	 
C 	 39.8436 	 -22.7599 	 -113.498 	 
C 	 38.8561 	 -23.1411 	 -112.521 	 
C 	 37.5856 	 -22.998 	 -112.944 	 
H 	 39.0589 	 -23.7288 	 -111.608 	 
C 	 41.3748 	 -23.1013 	 -113.366 	 
H 	 41.5541 	 -23.098 	 -112.275 	 
H 	 41.924 	 -22.3388 	 -113.956 	 
C 	 41.7412 	 -24.5432 	 -113.911 	 
H 	 41.2131 	 -25.4034 	 -113.445 	 
H 	 41.3862 	 -24.6749 	 -114.947 	 
C 	 43.2909 	 -24.7771 	 -113.866 	 
H 	 43.5887 	 -25.7467 	 -114.188 	 
H 	 44.0314 	 -24.0961 	 -114.37 	 
H 	 43.7676 	 -24.8323 	 -112.907 	 
S 	 35.3521 	 -22.0052 	 -111.692 	 
C 	 34.3221 	 -23.1519 	 -110.811 	 
C 	 34.7985 	 -24.4295 	 -110.847 	 
C 	 36.0583 	 -24.5063 	 -111.523 	 
C 	 36.3829 	 -23.3168 	 -112.185 	 
H 	 34.2602 	 -25.2034 	 -110.297 	 
C 	 36.7554 	 -25.8535 	 -111.59 	 
H 	 36.7781 	 -26.3377 	 -110.607 	 
H 	 37.83 	 -25.645 	 -111.697 	 
C 	 36.3338 	 -26.8186 	 -112.703 	 
H 	 35.2173 	 -26.7746 	 -112.68 	 
H 	 36.6509 	 -27.8325 	 -112.372 	 
C 	 36.8766 	 -26.6243 	 -114.102 	 
H 	 37.9554 	 -26.6458 	 -114.101 	 
H 	 36.4802 	 -25.7687 	 -114.548 	 
H 	 36.6444 	 -27.4805 	 -114.785 	 
H 	 39.8059 	 -21.602 	 -115.425 	 
H 	 33.4447 	 -22.8778 	 -110.246 	 
*
