! wB97X-D3 SP def2-SVP
%pal
nprocs 24
end

* xyz 0 1
S 	 -44.6348 	 -51.4692 	 -73.7324 	 
C 	 -45.0642 	 -53.0443 	 -74.4231 	 
C 	 -44.4314 	 -54.012 	 -73.5893 	 
C 	 -43.5674 	 -53.5229 	 -72.5701 	 
C 	 -43.4513 	 -52.1195 	 -72.6656 	 
H 	 -42.9944 	 -54.0326 	 -71.8444 	 
C 	 -44.6765 	 -55.5488 	 -73.545 	 
H 	 -44.0724 	 -55.9421 	 -72.7489 	 
H 	 -44.4543 	 -55.9191 	 -74.566 	 
C 	 -46.1444 	 -55.996 	 -73.2152 	 
H 	 -46.665 	 -55.2378 	 -73.7634 	 
H 	 -46.3713 	 -57.0107 	 -73.7139 	 
C 	 -46.4942 	 -55.9571 	 -71.7788 	 
H 	 -47.5672 	 -55.9846 	 -71.7263 	 
H 	 -46.2084 	 -56.8552 	 -71.2342 	 
H 	 -46.2376 	 -55.1 	 -71.1799 	 
S 	 -43.7625 	 -49.9133 	 -71.0355 	 
C 	 -42.3919 	 -49.4497 	 -70.0686 	 
C 	 -41.2197 	 -50.1448 	 -70.3957 	 
C 	 -41.4022 	 -51.1575 	 -71.3818 	 
C 	 -42.7527 	 -51.231 	 -71.7976 	 
H 	 -40.2625 	 -49.9805 	 -69.8637 	 
C 	 -40.2867 	 -52.1922 	 -71.8112 	 
H 	 -40.3153 	 -52.659 	 -72.8321 	 
H 	 -40.2498 	 -53.0606 	 -71.255 	 
C 	 -38.8065 	 -51.6929 	 -71.5878 	 
H 	 -38.564 	 -51.7701 	 -70.5052 	 
H 	 -38.5729 	 -50.6691 	 -71.9404 	 
C 	 -37.7786 	 -52.6434 	 -72.2417 	 
H 	 -37.8606 	 -52.6819 	 -73.3365 	 
H 	 -37.8847 	 -53.6864 	 -71.9401 	 
H 	 -36.7715 	 -52.3181 	 -71.984 	 
H 	 -45.7754 	 -53.296 	 -75.2075 	 
H 	 -42.4434 	 -48.6046 	 -69.301 	 
*
