! wB97X-D3 SP def2-SVP
%pal
nprocs 24
end

* xyz 0 1
S 	 -87.0409 	 -34.1582 	 -64.6576 	 
C 	 -86.029 	 -35.5984 	 -64.9517 	 
C 	 -86.3873 	 -36.596 	 -64.0277 	 
C 	 -87.4735 	 -36.2435 	 -63.1678 	 
C 	 -87.8948 	 -34.9413 	 -63.3164 	 
H 	 -87.9869 	 -36.7434 	 -62.3347 	 
C 	 -85.7636 	 -37.9074 	 -63.9427 	 
H 	 -85.6171 	 -38.3381 	 -62.9469 	 
H 	 -84.7888 	 -37.6496 	 -64.2694 	 
C 	 -86.4523 	 -39.0233 	 -64.7592 	 
H 	 -86.5054 	 -38.7242 	 -65.8271 	 
H 	 -85.8146 	 -39.9044 	 -64.7609 	 
C 	 -87.8402 	 -39.4142 	 -64.2667 	 
H 	 -87.9115 	 -39.7176 	 -63.248 	 
H 	 -88.4589 	 -38.5532 	 -64.3495 	 
H 	 -88.1773 	 -40.2408 	 -64.9022 	 
S 	 -88.4832 	 -32.6358 	 -61.9187 	 
C 	 -90.0754 	 -32.5458 	 -61.1249 	 
C 	 -90.8063 	 -33.7388 	 -61.3325 	 
C 	 -90.068 	 -34.7305 	 -62.0365 	 
C 	 -88.9219 	 -34.2477 	 -62.6031 	 
H 	 -91.8238 	 -33.7563 	 -60.8539 	 
C 	 -90.6267 	 -36.0503 	 -62.2506 	 
H 	 -90.1724 	 -36.7847 	 -61.5973 	 
H 	 -90.3718 	 -36.3503 	 -63.2533 	 
C 	 -92.1742 	 -36.1725 	 -62.1783 	 
H 	 -92.4155 	 -36.1068 	 -61.1009 	 
H 	 -92.5444 	 -37.1723 	 -62.4603 	 
C 	 -93.1226 	 -35.2499 	 -62.9807 	 
H 	 -93.1173 	 -34.1819 	 -62.7338 	 
H 	 -94.2037 	 -35.5086 	 -63.0324 	 
H 	 -92.8558 	 -35.2178 	 -64.0642 	 
H 	 -85.1925 	 -35.6978 	 -65.6618 	 
H 	 -90.4832 	 -31.7198 	 -60.5296 	 
*
