! wB97X-D3 SP def2-SVP
%pal
nprocs 24
end

* xyz 0 1
S 	 -63.9698 	 7.64624 	 -82.7939 	 
C 	 -64.5192 	 6.49712 	 -84.0182 	 
C 	 -65.6246 	 5.77926 	 -83.5471 	 
C 	 -66.1415 	 6.3089 	 -82.331 	 
C 	 -65.3262 	 7.32263 	 -81.7857 	 
H 	 -66.9389 	 5.94331 	 -81.8627 	 
C 	 -66.3051 	 4.64447 	 -84.367 	 
H 	 -65.8839 	 3.76081 	 -83.9727 	 
H 	 -66.0372 	 4.5769 	 -85.4353 	 
C 	 -67.8456 	 4.54687 	 -84.1756 	 
H 	 -68.2397 	 3.61417 	 -84.6159 	 
H 	 -68.1615 	 4.3341 	 -83.1296 	 
C 	 -68.586 	 5.72413 	 -84.8212 	 
H 	 -68.4498 	 6.59661 	 -84.1197 	 
H 	 -68.1917 	 6.03213 	 -85.7719 	 
H 	 -69.638 	 5.37975 	 -85.004 	 
S 	 -65.9747 	 9.654 	 -80.4573 	 
C 	 -65.8792 	 9.55596 	 -78.7018 	 
C 	 -65.3742 	 8.38893 	 -78.2038 	 
C 	 -65.192 	 7.43519 	 -79.2166 	 
C 	 -65.5016 	 7.9597 	 -80.4989 	 
H 	 -65.262 	 8.20071 	 -77.1836 	 
C 	 -64.6037 	 6.0394 	 -78.8468 	 
H 	 -63.645 	 6.13311 	 -78.3946 	 
H 	 -64.392 	 5.48383 	 -79.8038 	 
C 	 -65.3354 	 5.1994 	 -77.8117 	 
H 	 -66.3124 	 4.87133 	 -77.9903 	 
H 	 -65.4688 	 5.72377 	 -76.8372 	 
C 	 -64.5859 	 3.80312 	 -77.5908 	 
H 	 -64.5923 	 3.24571 	 -78.5505 	 
H 	 -65.083 	 3.282 	 -76.8301 	 
H 	 -63.5366 	 3.94844 	 -77.1429 	 
H 	 -64.1036 	 6.39916 	 -84.9729 	 
H 	 -66.0349 	 10.3401 	 -78.0131 	 
*
