! wB97X-D3 SP def2-SVP
%pal
nprocs 24
end

* xyz 0 1
S 	 -42.5206 	 -9.94438 	 5.70237 	 
C 	 -42.3182 	 -11.2848 	 6.84063 	 
C 	 -41.9678 	 -10.7676 	 8.0578 	 
C 	 -41.6939 	 -9.30897 	 8.06457 	 
C 	 -41.9947 	 -8.65954 	 6.85456 	 
H 	 -41.3634 	 -8.68394 	 8.95418 	 
C 	 -41.8199 	 -11.5611 	 9.31704 	 
H 	 -42.1515 	 -12.5904 	 9.08194 	 
H 	 -42.564 	 -11.1385 	 9.99243 	 
C 	 -40.4233 	 -11.6311 	 10.082 	 
H 	 -40.5889 	 -12.1913 	 10.993 	 
H 	 -39.6643 	 -12.1926 	 9.49397 	 
C 	 -39.8887 	 -10.3098 	 10.5898 	 
H 	 -40.6797 	 -9.76836 	 11.1269 	 
H 	 -39.0369 	 -10.5434 	 11.2197 	 
H 	 -39.5373 	 -9.74035 	 9.65678 	 
S 	 -43.0421 	 -6.81317 	 5.17817 	 
C 	 -42.2776 	 -5.24239 	 5.03889 	 
C 	 -41.2777 	 -5.05945 	 5.99381 	 
C 	 -41.0948 	 -6.19286 	 6.834 	 
C 	 -41.9203 	 -7.25669 	 6.47553 	 
H 	 -40.7356 	 -4.13633 	 6.00983 	 
C 	 -40.1571 	 -6.29437 	 8.05241 	 
H 	 -39.3268 	 -5.51492 	 7.99141 	 
H 	 -39.642 	 -7.23766 	 8.04429 	 
C 	 -40.9154 	 -6.03928 	 9.40191 	 
H 	 -41.83 	 -6.65795 	 9.40538 	 
H 	 -41.3305 	 -5.00614 	 9.48409 	 
C 	 -40.0984 	 -6.36338 	 10.672 	 
H 	 -39.4599 	 -7.23797 	 10.5724 	 
H 	 -40.6687 	 -6.44958 	 11.5803 	 
H 	 -39.4881 	 -5.4872 	 10.8199 	 
H 	 -42.4389 	 -12.2652 	 6.612 	 
H 	 -42.557 	 -4.47084 	 4.23028 	 
*
