! wB97X-D3 SP def2-SVP
%pal
nprocs 24
end

* xyz 0 1
S 	 -116.622 	 17.2981 	 -109.575 	 
C 	 -116.873 	 18.9961 	 -109.088 	 
C 	 -118.2 	 19.2891 	 -109.083 	 
C 	 -119.036 	 18.1839 	 -109.477 	 
C 	 -118.287 	 17.0243 	 -109.784 	 
H 	 -120.063 	 18.2003 	 -109.658 	 
C 	 -118.787 	 20.5286 	 -108.514 	 
H 	 -118.877 	 21.4049 	 -109.171 	 
H 	 -118.017 	 20.8967 	 -107.754 	 
C 	 -120.031 	 20.4241 	 -107.694 	 
H 	 -120.775 	 19.9227 	 -108.205 	 
H 	 -119.823 	 19.8924 	 -106.815 	 
C 	 -120.512 	 21.7707 	 -107.085 	 
H 	 -121.544 	 21.6211 	 -106.625 	 
H 	 -119.853 	 22.2778 	 -106.354 	 
H 	 -120.694 	 22.4868 	 -107.857 	 
S 	 -119.496 	 14.6478 	 -109.091 	 
C 	 -120.189 	 13.6686 	 -110.348 	 
C 	 -119.821 	 14.0964 	 -111.628 	 
C 	 -119.066 	 15.3271 	 -111.629 	 
C 	 -118.778 	 15.7422 	 -110.308 	 
H 	 -120.278 	 13.5928 	 -112.45 	 
C 	 -118.59 	 16.0664 	 -112.858 	 
H 	 -118.641 	 17.1187 	 -112.636 	 
H 	 -119.306 	 15.9954 	 -113.715 	 
C 	 -117.122 	 15.7662 	 -113.309 	 
H 	 -117.06 	 14.6562 	 -113.349 	 
H 	 -116.421 	 16.0126 	 -112.511 	 
C 	 -116.62 	 16.2939 	 -114.672 	 
H 	 -117.252 	 16.4459 	 -115.577 	 
H 	 -115.788 	 15.6007 	 -115.041 	 
H 	 -116.07 	 17.2884 	 -114.569 	 
H 	 -116.174 	 19.6913 	 -108.656 	 
H 	 -121.053 	 13.0308 	 -110.205 	 
*
