! wB97X-D3 SP def2-SVP
%pal
nprocs 24
end

* xyz 0 1
S 	 -34.0633 	 -7.45715 	 12.4277 	 
C 	 -34.2732 	 -7.43717 	 14.1352 	 
C 	 -35.5084 	 -7.93511 	 14.5128 	 
C 	 -36.1945 	 -8.50695 	 13.3387 	 
C 	 -35.4885 	 -8.33451 	 12.1589 	 
H 	 -37.14 	 -9.05407 	 13.2674 	 
C 	 -36.0328 	 -8.19466 	 15.9348 	 
H 	 -35.1753 	 -7.89061 	 16.5385 	 
H 	 -36.1101 	 -9.28955 	 16.0343 	 
C 	 -37.2806 	 -7.35637 	 16.3121 	 
H 	 -37.2298 	 -7.30706 	 17.3985 	 
H 	 -37.1946 	 -6.30311 	 16.1233 	 
C 	 -38.6155 	 -8.04105 	 15.8508 	 
H 	 -39.4327 	 -7.4918 	 16.2495 	 
H 	 -38.6365 	 -8.13693 	 14.7611 	 
H 	 -38.6468 	 -8.98936 	 16.2775 	 
S 	 -34.6823 	 -9.76295 	 9.85427 	 
C 	 -35.8179 	 -9.97959 	 8.53701 	 
C 	 -37.0277 	 -9.44889 	 8.91445 	 
C 	 -37.0788 	 -8.81204 	 10.1852 	 
C 	 -35.8181 	 -8.80941 	 10.7677 	 
H 	 -37.8775 	 -9.57086 	 8.23096 	 
C 	 -38.2784 	 -8.01703 	 10.624 	 
H 	 -38.7584 	 -7.33913 	 9.92192 	 
H 	 -38.0276 	 -7.37653 	 11.3993 	 
C 	 -39.4637 	 -8.95192 	 11.0897 	 
H 	 -39.0925 	 -9.67913 	 11.8539 	 
H 	 -39.6886 	 -9.67303 	 10.2845 	 
C 	 -40.6238 	 -8.06037 	 11.669 	 
H 	 -41.4551 	 -8.65871 	 11.8719 	 
H 	 -40.9185 	 -7.37203 	 10.9408 	 
H 	 -40.4676 	 -7.50629 	 12.609 	 
H 	 -33.5474 	 -7.26496 	 14.826 	 
H 	 -35.5096 	 -10.2776 	 7.58208 	 
*
