! wB97X-D3 SP def2-SVP
%pal
nprocs 24
end

* xyz 0 1
S 	 -64.5719 	 16.4222 	 -74.8986 	 
C 	 -65.453 	 16.1759 	 -73.431 	 
C 	 -64.6395 	 15.9153 	 -72.3265 	 
C 	 -63.2622 	 16.041 	 -72.6705 	 
C 	 -63.0197 	 16.3964 	 -73.9934 	 
H 	 -62.3929 	 15.8272 	 -71.9082 	 
C 	 -65.1767 	 15.549 	 -70.9249 	 
H 	 -66.0826 	 16.0729 	 -70.7673 	 
H 	 -64.4137 	 15.9114 	 -70.2005 	 
C 	 -65.3672 	 14.0236 	 -70.6944 	 
H 	 -65.8732 	 13.8992 	 -69.6428 	 
H 	 -66.105 	 13.6285 	 -71.4163 	 
C 	 -64.1543 	 13.0885 	 -70.7806 	 
H 	 -64.5886 	 12.0779 	 -70.6888 	 
H 	 -63.7832 	 13.0785 	 -71.8137 	 
H 	 -63.4071 	 13.3064 	 -69.9302 	 
S 	 -61.5603 	 15.4496 	 -76.1423 	 
C 	 -60.0573 	 16.2674 	 -76.5451 	 
C 	 -59.632 	 17.2638 	 -75.6599 	 
C 	 -60.6495 	 17.4062 	 -74.6824 	 
C 	 -61.7405 	 16.5095 	 -74.7227 	 
H 	 -58.7197 	 17.8224 	 -75.7715 	 
C 	 -60.5635 	 18.5286 	 -73.671 	 
H 	 -59.6191 	 18.9683 	 -73.6621 	 
H 	 -60.7957 	 17.9746 	 -72.717 	 
C 	 -61.6347 	 19.6251 	 -73.8033 	 
H 	 -62.6012 	 19.2256 	 -73.4487 	 
H 	 -61.7951 	 19.9704 	 -74.8223 	 
C 	 -61.4828 	 20.9139 	 -73.0721 	 
H 	 -60.6537 	 21.5335 	 -73.3625 	 
H 	 -61.2088 	 20.5754 	 -72.1052 	 
H 	 -62.3599 	 21.4972 	 -73.0646 	 
H 	 -66.5088 	 16.335 	 -73.3494 	 
H 	 -59.4074 	 16.0013 	 -77.395 	 
*
