! wB97X-D3 SP def2-SVP
%pal
nprocs 24
end

* xyz 0 1
S 	 -47.2955 	 19.57 	 29.427 	 
C 	 -46.0052 	 19.9025 	 28.2813 	 
C 	 -45.1906 	 18.7603 	 28.0638 	 
C 	 -45.7062 	 17.6502 	 28.9263 	 
C 	 -46.8822 	 17.8829 	 29.6327 	 
H 	 -45.2467 	 16.7113 	 29.0827 	 
C 	 -43.9802 	 18.6921 	 27.1367 	 
H 	 -43.5138 	 17.7451 	 27.2824 	 
H 	 -43.2848 	 19.5181 	 27.4453 	 
C 	 -44.4395 	 18.7347 	 25.6186 	 
H 	 -44.8751 	 19.7286 	 25.5695 	 
H 	 -43.566 	 18.6452 	 24.9203 	 
C 	 -45.4327 	 17.6149 	 25.2651 	 
H 	 -46.0627 	 17.808 	 24.4162 	 
H 	 -44.9388 	 16.7017 	 25.0563 	 
H 	 -46.2269 	 17.353 	 25.9953 	 
S 	 -47.8543 	 17.525 	 32.1806 	 
C 	 -48.4579 	 15.9525 	 32.6541 	 
C 	 -48.6841 	 15.1698 	 31.5196 	 
C 	 -48.0633 	 15.7098 	 30.34 	 
C 	 -47.5627 	 17.0041 	 30.5183 	 
H 	 -49.2193 	 14.1731 	 31.6074 	 
C 	 -48.0136 	 14.8592 	 29.0768 	 
H 	 -47.7675 	 15.4028 	 28.2026 	 
H 	 -49.0227 	 14.501 	 28.8943 	 
C 	 -47.1434 	 13.6299 	 29.1811 	 
H 	 -47.4966 	 12.9251 	 28.3953 	 
H 	 -47.2147 	 13.2168 	 30.1275 	 
C 	 -45.6429 	 13.8237 	 29.143 	 
H 	 -45.2374 	 14.4263 	 28.2952 	 
H 	 -45.0665 	 12.8497 	 29.1237 	 
H 	 -45.2633 	 14.413 	 29.9415 	 
H 	 -45.8106 	 20.8595 	 27.8668 	 
H 	 -48.7131 	 15.682 	 33.7153 	 
*
