! wB97X-D3 SP def2-SVP
%pal
nprocs 24
end

* xyz 0 1
S 	 -112.17 	 26.8126 	 -113.475 	 
C 	 -110.679 	 26.3674 	 -112.554 	 
C 	 -110.07 	 25.2815 	 -113.095 	 
C 	 -110.786 	 24.9425 	 -114.308 	 
C 	 -111.81 	 25.7334 	 -114.68 	 
H 	 -110.536 	 24.1154 	 -114.909 	 
C 	 -108.816 	 24.4848 	 -112.738 	 
H 	 -107.988 	 25.2363 	 -112.772 	 
H 	 -108.498 	 23.7262 	 -113.471 	 
C 	 -108.9 	 23.831 	 -111.384 	 
H 	 -109.954 	 23.379 	 -111.223 	 
H 	 -108.263 	 22.9981 	 -111.286 	 
C 	 -108.53 	 24.8017 	 -110.27 	 
H 	 -107.547 	 25.2554 	 -110.436 	 
H 	 -109.255 	 25.5639 	 -110.089 	 
H 	 -108.295 	 24.1619 	 -109.407 	 
S 	 -114.456 	 25.5508 	 -115.624 	 
C 	 -114.745 	 25.7106 	 -117.351 	 
C 	 -113.515 	 25.8335 	 -118.022 	 
C 	 -112.39 	 25.8566 	 -117.196 	 
C 	 -112.683 	 25.6753 	 -115.822 	 
H 	 -113.618 	 25.9463 	 -119.126 	 
C 	 -110.956 	 25.9831 	 -117.817 	 
H 	 -110.748 	 25.0223 	 -118.246 	 
H 	 -110.278 	 26.2467 	 -117.016 	 
C 	 -110.696 	 27.1396 	 -118.853 	 
H 	 -111.084 	 26.8711 	 -119.873 	 
H 	 -109.647 	 27.3533 	 -118.962 	 
C 	 -111.32 	 28.4486 	 -118.386 	 
H 	 -110.874 	 28.7548 	 -117.458 	 
H 	 -112.388 	 28.4757 	 -118.225 	 
H 	 -110.968 	 29.2401 	 -118.996 	 
H 	 -110.345 	 26.8136 	 -111.675 	 
H 	 -115.774 	 25.7077 	 -117.791 	 
*
