! wB97X-D3 SP def2-SVP
%pal
nprocs 24
end

* xyz 0 1
S 	 -99.9635 	 9.13157 	 1.29719 	 
C 	 -100.649 	 8.73555 	 -0.277603 	 
C 	 -99.6859 	 8.60756 	 -1.24328 	 
C 	 -98.3903 	 8.51138 	 -0.598106 	 
C 	 -98.3697 	 8.66802 	 0.767852 	 
H 	 -97.4191 	 8.37331 	 -1.07687 	 
C 	 -99.8917 	 8.46381 	 -2.74755 	 
H 	 -100.952 	 8.4469 	 -3.05993 	 
H 	 -99.489 	 7.52609 	 -3.11872 	 
C 	 -99.447 	 9.6215 	 -3.60903 	 
H 	 -100.208 	 10.4413 	 -3.3814 	 
H 	 -98.5217 	 10.0169 	 -3.20176 	 
C 	 -99.356 	 9.41934 	 -5.10182 	 
H 	 -100.23 	 8.959 	 -5.52202 	 
H 	 -99.2068 	 10.38 	 -5.53856 	 
H 	 -98.4021 	 8.88429 	 -5.37648 	 
S 	 -97.0478 	 7.33126 	 2.75681 	 
C 	 -95.4756 	 7.91039 	 3.30009 	 
C 	 -95.112 	 9.05794 	 2.59503 	 
C 	 -96.1113 	 9.45145 	 1.60616 	 
C 	 -97.2256 	 8.60241 	 1.60681 	 
H 	 -94.076 	 9.4576 	 2.70887 	 
C 	 -95.9647 	 10.7139 	 0.826161 	 
H 	 -96.6718 	 10.7047 	 0.0185395 	 
H 	 -94.985 	 10.7403 	 0.468441 	 
C 	 -96.0668 	 12.0357 	 1.61472 	 
H 	 -96.3082 	 12.8252 	 0.880717 	 
H 	 -95.1329 	 12.2719 	 2.05328 	 
C 	 -97.1777 	 12.0171 	 2.61061 	 
H 	 -97.3621 	 12.9861 	 3.01394 	 
H 	 -97.0206 	 11.3472 	 3.42479 	 
H 	 -98.0607 	 11.708 	 2.11022 	 
H 	 -101.676 	 8.81204 	 -0.529963 	 
H 	 -94.8716 	 7.33962 	 4.03659 	 
*
