! wB97X-D3 SP def2-SVP
%pal
nprocs 24
end

* xyz 0 1
S 	 -140.862 	 6.89088 	 -7.04106 	 
C 	 -139.365 	 7.25591 	 -7.92596 	 
C 	 -138.78 	 8.42009 	 -7.47683 	 
C 	 -139.65 	 9.05271 	 -6.51224 	 
C 	 -140.865 	 8.4287 	 -6.27691 	 
H 	 -139.365 	 9.90837 	 -5.91695 	 
C 	 -137.383 	 8.94272 	 -7.80399 	 
H 	 -137.016 	 8.26739 	 -8.57556 	 
H 	 -136.684 	 8.75201 	 -7.05857 	 
C 	 -137.205 	 10.3503 	 -8.22313 	 
H 	 -137.601 	 10.5106 	 -9.1935 	 
H 	 -137.77 	 11.0341 	 -7.60183 	 
C 	 -135.619 	 10.6633 	 -8.2563 	 
H 	 -135.628 	 11.6905 	 -8.49589 	 
H 	 -135.136 	 10.4631 	 -7.38855 	 
H 	 -135.214 	 10.1632 	 -9.14415 	 
S 	 -142.517 	 7.62351 	 -4.10739 	 
C 	 -143.628 	 8.78256 	 -3.44835 	 
C 	 -143.533 	 10.0364 	 -4.09428 	 
C 	 -142.512 	 10.0229 	 -5.10729 	 
C 	 -141.992 	 8.77076 	 -5.38317 	 
H 	 -144.149 	 10.9065 	 -3.83486 	 
C 	 -142.28 	 11.2588 	 -5.88066 	 
H 	 -143.06 	 11.3882 	 -6.56769 	 
H 	 -141.435 	 11.037 	 -6.53131 	 
C 	 -142.076 	 12.5488 	 -5.18238 	 
H 	 -141.15 	 12.4154 	 -4.64558 	 
H 	 -142.869 	 12.8261 	 -4.44301 	 
C 	 -142.02 	 13.7936 	 -6.11662 	 
H 	 -141.858 	 14.7686 	 -5.57452 	 
H 	 -143.086 	 13.9325 	 -6.47734 	 
H 	 -141.286 	 13.6924 	 -6.88059 	 
H 	 -138.864 	 6.63621 	 -8.6171 	 
H 	 -144.09 	 8.77815 	 -2.48728 	 
*
