! wB97X-D3 SP def2-SVP
%pal
nprocs 24
end

* xyz 0 1
S 	 -106.324 	 54.5241 	 -11.4985 	 
C 	 -104.97 	 54.9048 	 -12.5079 	 
C 	 -104.737 	 54.0258 	 -13.4897 	 
C 	 -105.656 	 52.9003 	 -13.4232 	 
C 	 -106.409 	 52.8978 	 -12.269 	 
H 	 -105.629 	 52.032 	 -14.0837 	 
C 	 -103.719 	 54.2057 	 -14.5787 	 
H 	 -103.559 	 55.3432 	 -14.5758 	 
H 	 -104.181 	 53.9722 	 -15.5731 	 
C 	 -102.35 	 53.5274 	 -14.4646 	 
H 	 -101.669 	 54.1477 	 -13.9184 	 
H 	 -102.43 	 52.6361 	 -13.8227 	 
C 	 -101.847 	 53.0096 	 -15.8351 	 
H 	 -101.782 	 53.7919 	 -16.5924 	 
H 	 -100.835 	 52.5739 	 -15.8943 	 
H 	 -102.568 	 52.3186 	 -16.2372 	 
S 	 -108.983 	 52.3825 	 -11.3696 	 
C 	 -109.499 	 50.7083 	 -11.1497 	 
C 	 -108.486 	 49.8483 	 -11.5211 	 
C 	 -107.29 	 50.5214 	 -11.9023 	 
C 	 -107.407 	 51.8922 	 -11.8615 	 
H 	 -108.624 	 48.7493 	 -11.3575 	 
C 	 -106.077 	 49.7155 	 -12.2212 	 
H 	 -105.719 	 50.0725 	 -13.2137 	 
H 	 -106.381 	 48.7368 	 -12.5269 	 
C 	 -105.022 	 49.63 	 -11.1707 	 
H 	 -105.522 	 49.118 	 -10.3405 	 
H 	 -104.711 	 50.5754 	 -10.7935 	 
C 	 -103.785 	 48.8092 	 -11.5302 	 
H 	 -103.192 	 48.7497 	 -10.6067 	 
H 	 -103.196 	 49.3849 	 -12.2558 	 
H 	 -104.105 	 47.8375 	 -11.8906 	 
H 	 -104.484 	 55.909 	 -12.5199 	 
H 	 -110.464 	 50.2793 	 -10.7939 	 
*
