! wB97X-D3 SP def2-SVP
%pal
nprocs 24
end

* xyz 0 1
S 	 31.4185 	 -29.6313 	 -132.873 	 
C 	 31.7236 	 -27.8722 	 -133.084 	 
C 	 32.4592 	 -27.4152 	 -131.986 	 
C 	 32.7131 	 -28.4259 	 -130.988 	 
C 	 32.1937 	 -29.6431 	 -131.3 	 
H 	 33.319 	 -28.2869 	 -130.072 	 
C 	 33.1468 	 -26.0494 	 -131.896 	 
H 	 33.5035 	 -25.9603 	 -130.853 	 
H 	 32.4713 	 -25.2414 	 -132.17 	 
C 	 34.3681 	 -26.0078 	 -132.901 	 
H 	 34.9433 	 -26.8577 	 -132.665 	 
H 	 34.099 	 -26.1992 	 -133.941 	 
C 	 35.1644 	 -24.7311 	 -132.906 	 
H 	 34.5544 	 -23.7964 	 -133.018 	 
H 	 35.8045 	 -24.7001 	 -132.1 	 
H 	 35.8268 	 -24.7773 	 -133.789 	 
S 	 32.6399 	 -32.3351 	 -131.333 	 
C 	 32.6326 	 -33.2045 	 -129.835 	 
C 	 32.3937 	 -32.4204 	 -128.791 	 
C 	 32.3111 	 -31.0316 	 -129.095 	 
C 	 32.2615 	 -30.8188 	 -130.451 	 
H 	 32.2082 	 -32.8515 	 -127.772 	 
C 	 31.9721 	 -30.0971 	 -127.949 	 
H 	 32.9005 	 -29.4839 	 -127.758 	 
H 	 31.7243 	 -30.5791 	 -127.022 	 
C 	 30.7783 	 -29.0485 	 -128.143 	 
H 	 29.7765 	 -29.4454 	 -128.12 	 
H 	 30.947 	 -28.7028 	 -129.141 	 
C 	 30.5695 	 -28.0337 	 -127.039 	 
H 	 29.7064 	 -27.4073 	 -127.265 	 
H 	 31.4957 	 -27.4485 	 -126.885 	 
H 	 30.2448 	 -28.546 	 -126.132 	 
H 	 31.6168 	 -27.2413 	 -133.932 	 
H 	 32.7688 	 -34.2744 	 -129.727 	 
*
