! wB97X-D3 SP def2-SVP
%pal
nprocs 24
end

* xyz 0 1
S 	 -89.7261 	 -5.74593 	 -113.597 	 
C 	 -88.6658 	 -5.71989 	 -114.994 	 
C 	 -89.3709 	 -5.72893 	 -116.142 	 
C 	 -90.7681 	 -5.53961 	 -115.884 	 
C 	 -91.1799 	 -5.48152 	 -114.57 	 
H 	 -91.5528 	 -5.32644 	 -116.559 	 
C 	 -88.7678 	 -5.66225 	 -117.539 	 
H 	 -89.5611 	 -5.80912 	 -118.312 	 
H 	 -88.0196 	 -6.46223 	 -117.711 	 
C 	 -88.1362 	 -4.31051 	 -117.949 	 
H 	 -88.9947 	 -3.66009 	 -118.295 	 
H 	 -87.8711 	 -3.72141 	 -117.042 	 
C 	 -87.1545 	 -4.36211 	 -119.149 	 
H 	 -87.0648 	 -3.36897 	 -119.48 	 
H 	 -86.1236 	 -4.76175 	 -118.841 	 
H 	 -87.4372 	 -4.92449 	 -120.079 	 
S 	 -92.9903 	 -6.64662 	 -112.86 	 
C 	 -94.5069 	 -5.83931 	 -112.497 	 
C 	 -94.6194 	 -4.74742 	 -113.306 	 
C 	 -93.4359 	 -4.41832 	 -114.079 	 
C 	 -92.5391 	 -5.43821 	 -114.057 	 
H 	 -95.4905 	 -4.15505 	 -113.187 	 
C 	 -93.3734 	 -3.11662 	 -114.903 	 
H 	 -92.3324 	 -2.95361 	 -114.995 	 
H 	 -93.8551 	 -2.33682 	 -114.437 	 
C 	 -93.984 	 -3.18149 	 -116.324 	 
H 	 -93.4249 	 -3.90842 	 -116.894 	 
H 	 -93.7947 	 -2.21647 	 -116.768 	 
C 	 -95.5219 	 -3.37006 	 -116.358 	 
H 	 -95.9638 	 -2.64625 	 -115.691 	 
H 	 -95.7826 	 -4.38309 	 -115.993 	 
H 	 -96.0968 	 -3.08004 	 -117.256 	 
H 	 -87.61 	 -5.94588 	 -114.902 	 
H 	 -95.1986 	 -6.25282 	 -111.788 	 
*
