! wB97X-D3 SP def2-SVP
%pal
nprocs 24
end

* xyz 0 1
S 	 -38.2879 	 0.139961 	 12.8307 	 
C 	 -37.8231 	 0.246834 	 14.5308 	 
C 	 -38.9055 	 0.457024 	 15.3849 	 
C 	 -40.0611 	 0.80862 	 14.6114 	 
C 	 -39.8631 	 0.636048 	 13.2273 	 
H 	 -41.0455 	 1.13453 	 14.983 	 
C 	 -38.8413 	 0.568427 	 16.8871 	 
H 	 -37.9173 	 0.0507085 	 17.0517 	 
H 	 -39.5636 	 -0.0802315 	 17.4293 	 
C 	 -38.8471 	 2.00676 	 17.4077 	 
H 	 -38.4711 	 1.87716 	 18.424 	 
H 	 -38.0276 	 2.56034 	 16.869 	 
C 	 -40.1698 	 2.86187 	 17.539 	 
H 	 -40.0069 	 3.81328 	 18.0946 	 
H 	 -40.6942 	 2.96348 	 16.6075 	 
H 	 -40.8347 	 2.29824 	 18.1803 	 
S 	 -40.8213 	 0.139577 	 10.6665 	 
C 	 -42.0058 	 1.23561 	 9.95331 	 
C 	 -42.1882 	 2.34467 	 10.7572 	 
C 	 -41.5201 	 2.24156 	 12.0491 	 
C 	 -40.7383 	 1.101 	 12.1547 	 
H 	 -42.8496 	 3.10372 	 10.4703 	 
C 	 -41.8291 	 3.22071 	 13.1909 	 
H 	 -41.8621 	 4.20657 	 12.7209 	 
H 	 -41.0787 	 3.2374 	 14.0069 	 
C 	 -43.2129 	 2.94104 	 13.6156 	 
H 	 -43.3671 	 1.83895 	 13.7295 	 
H 	 -43.7811 	 3.33326 	 12.766 	 
C 	 -43.6229 	 3.60902 	 14.912 	 
H 	 -43.0939 	 3.3072 	 15.7851 	 
H 	 -44.7271 	 3.53812 	 15.1501 	 
H 	 -43.384 	 4.66845 	 14.8611 	 
H 	 -36.8008 	 0.294768 	 14.9382 	 
H 	 -42.3803 	 1.30642 	 8.9408 	 
*
