! wB97X-D3 SP def2-SVP
%pal
nprocs 24
end

* xyz 0 1
S 	 -42.6393 	 15.7179 	 28.1747 	 
C 	 -43.2678 	 17.0453 	 27.2028 	 
C 	 -43.8451 	 18.0263 	 27.9465 	 
C 	 -43.7868 	 17.6851 	 29.377 	 
C 	 -43.1575 	 16.4914 	 29.6771 	 
H 	 -44.2352 	 18.201 	 30.2558 	 
C 	 -44.5386 	 19.304 	 27.359 	 
H 	 -45.2041 	 19.7478 	 28.0791 	 
H 	 -45.1728 	 19.059 	 26.4737 	 
C 	 -43.6562 	 20.4632 	 27.0942 	 
H 	 -42.9521 	 20.1749 	 26.3119 	 
H 	 -44.1381 	 21.3097 	 26.6221 	 
C 	 -42.8291 	 20.9 	 28.3171 	 
H 	 -42.1427 	 20.173 	 28.7132 	 
H 	 -42.2293 	 21.7976 	 28.1714 	 
H 	 -43.5037 	 21.2279 	 29.1858 	 
S 	 -43.1437 	 14.0674 	 31.0473 	 
C 	 -43.2017 	 14.0772 	 32.8254 	 
C 	 -42.8671 	 15.382 	 33.3131 	 
C 	 -42.8543 	 16.322 	 32.226 	 
C 	 -43.0765 	 15.818 	 30.9733 	 
H 	 -42.6762 	 15.589 	 34.3432 	 
C 	 -42.5494 	 17.8047 	 32.5596 	 
H 	 -42.7038 	 18.3913 	 31.6701 	 
H 	 -41.4495 	 17.9064 	 32.6969 	 
C 	 -43.3558 	 18.589 	 33.6991 	 
H 	 -43.0267 	 18.2297 	 34.7576 	 
H 	 -44.3947 	 18.3108 	 33.6905 	 
C 	 -43.1292 	 20.1156 	 33.5988 	 
H 	 -42.1569 	 20.4859 	 33.7653 	 
H 	 -43.6614 	 20.6853 	 34.3381 	 
H 	 -43.3975 	 20.4322 	 32.5856 	 
H 	 -43.2159 	 16.8442 	 26.1592 	 
H 	 -43.3325 	 13.1969 	 33.4494 	 
*
