! wB97X-D3 SP def2-SVP
%pal
nprocs 24
end

* xyz 0 1
S 	 -123.409 	 33.3274 	 -113.257 	 
C 	 -123.679 	 31.571 	 -113.301 	 
C 	 -124.132 	 31.1334 	 -112.067 	 
C 	 -124.232 	 32.1641 	 -111.077 	 
C 	 -123.737 	 33.3749 	 -111.497 	 
H 	 -124.457 	 32.0639 	 -110.092 	 
C 	 -124.705 	 29.7338 	 -111.865 	 
H 	 -124.063 	 29.1121 	 -111.27 	 
H 	 -124.693 	 29.2214 	 -112.87 	 
C 	 -126.118 	 29.6502 	 -111.295 	 
H 	 -126.109 	 29.8409 	 -110.235 	 
H 	 -126.833 	 30.2659 	 -111.846 	 
C 	 -126.749 	 28.2189 	 -111.158 	 
H 	 -126.449 	 27.5241 	 -112.011 	 
H 	 -126.344 	 27.8314 	 -110.274 	 
H 	 -127.849 	 28.284 	 -111.082 	 
S 	 -122.268 	 35.7021 	 -111.164 	 
C 	 -122.779 	 36.7871 	 -109.937 	 
C 	 -123.969 	 36.5157 	 -109.304 	 
C 	 -124.46 	 35.2172 	 -109.705 	 
C 	 -123.663 	 34.6665 	 -110.764 	 
H 	 -124.436 	 37.0943 	 -108.547 	 
C 	 -125.759 	 34.7154 	 -109.116 	 
H 	 -126.047 	 35.2782 	 -108.23 	 
H 	 -125.679 	 33.729 	 -108.775 	 
C 	 -126.97 	 34.8768 	 -110.127 	 
H 	 -126.635 	 34.1779 	 -110.869 	 
H 	 -126.883 	 35.9172 	 -110.362 	 
C 	 -128.348 	 34.6426 	 -109.508 	 
H 	 -128.527 	 33.5782 	 -109.242 	 
H 	 -129.215 	 34.9912 	 -110.15 	 
H 	 -128.462 	 35.1567 	 -108.611 	 
H 	 -123.763 	 30.9242 	 -114.221 	 
H 	 -122.194 	 37.7018 	 -109.701 	 
*
