! wB97X-D3 SP def2-SVP
%pal
nprocs 24
end

* xyz 0 1
S 	 -41.4476 	 -47.5775 	 -72.1882 	 
C 	 -42.5412 	 -48.69 	 -72.9284 	 
C 	 -41.8894 	 -49.8396 	 -73.3097 	 
C 	 -40.492 	 -49.856 	 -73.0116 	 
C 	 -40.1358 	 -48.718 	 -72.3726 	 
H 	 -39.8112 	 -50.6949 	 -73.1628 	 
C 	 -42.5937 	 -51.038 	 -73.967 	 
H 	 -41.9942 	 -51.4218 	 -74.7259 	 
H 	 -43.3507 	 -50.64 	 -74.5693 	 
C 	 -43.3421 	 -52.1398 	 -73.1384 	 
H 	 -44.1827 	 -51.6477 	 -72.7577 	 
H 	 -43.8104 	 -52.8045 	 -73.8976 	 
C 	 -42.378 	 -52.8099 	 -72.1323 	 
H 	 -41.7684 	 -52.0882 	 -71.545 	 
H 	 -43.0123 	 -53.4177 	 -71.4435 	 
H 	 -41.6976 	 -53.4786 	 -72.555 	 
S 	 -38.7883 	 -48.2296 	 -70.0008 	 
C 	 -37.1058 	 -47.9037 	 -69.9712 	 
C 	 -36.5972 	 -48.1575 	 -71.2415 	 
C 	 -37.5684 	 -48.5454 	 -72.1842 	 
C 	 -38.8861 	 -48.5332 	 -71.7017 	 
H 	 -35.5011 	 -48.0112 	 -71.4639 	 
C 	 -37.2657 	 -48.6112 	 -73.6462 	 
H 	 -37.8709 	 -47.8489 	 -74.1779 	 
H 	 -37.6823 	 -49.5633 	 -73.9446 	 
C 	 -35.8542 	 -48.5494 	 -74.1952 	 
H 	 -35.5207 	 -49.4127 	 -73.6492 	 
H 	 -35.2519 	 -47.6688 	 -73.9139 	 
C 	 -35.7291 	 -48.633 	 -75.7488 	 
H 	 -34.7424 	 -49.1373 	 -76.0202 	 
H 	 -35.6795 	 -47.6568 	 -76.177 	 
H 	 -36.5499 	 -49.2285 	 -76.2691 	 
H 	 -43.6142 	 -48.4128 	 -73.0602 	 
H 	 -36.5015 	 -47.4332 	 -69.2475 	 
*
