! wB97X-D3 SP def2-SVP
%pal
nprocs 24
end

* xyz 0 1
S 	 -100.753 	 47.8302 	 -99.2965 	 
C 	 -100.732 	 49.5454 	 -99.661 	 
C 	 -99.5189 	 49.8847 	 -100.266 	 
C 	 -98.6275 	 48.7491 	 -100.35 	 
C 	 -99.0501 	 47.5824 	 -99.7602 	 
H 	 -97.6951 	 48.7648 	 -100.872 	 
C 	 -99.0946 	 51.2146 	 -100.767 	 
H 	 -98.0493 	 51.3939 	 -100.627 	 
H 	 -99.6145 	 51.9548 	 -100.241 	 
C 	 -99.3545 	 51.4777 	 -102.241 	 
H 	 -100.411 	 51.1688 	 -102.468 	 
H 	 -99.2376 	 52.5891 	 -102.354 	 
C 	 -98.469 	 50.7322 	 -103.197 	 
H 	 -97.5483 	 50.5468 	 -102.762 	 
H 	 -98.9068 	 49.7627 	 -103.336 	 
H 	 -98.283 	 51.182 	 -104.194 	 
S 	 -98.4531 	 45.5039 	 -98.1247 	 
C 	 -97.3886 	 44.2412 	 -98.6645 	 
C 	 -96.7951 	 44.5918 	 -99.8155 	 
C 	 -97.2715 	 45.8089 	 -100.488 	 
C 	 -98.2803 	 46.3671 	 -99.6336 	 
H 	 -95.9502 	 44.0046 	 -100.249 	 
C 	 -96.8015 	 46.2911 	 -101.842 	 
H 	 -96.0563 	 45.5617 	 -102.223 	 
H 	 -96.28 	 47.1806 	 -101.506 	 
C 	 -97.8199 	 46.6302 	 -102.971 	 
H 	 -97.1775 	 47.1276 	 -103.719 	 
H 	 -98.6628 	 47.2727 	 -102.65 	 
C 	 -98.5014 	 45.4464 	 -103.655 	 
H 	 -99.1315 	 45.7663 	 -104.523 	 
H 	 -99.1353 	 44.8559 	 -102.971 	 
H 	 -97.8262 	 44.7723 	 -104.16 	 
H 	 -101.586 	 50.2432 	 -99.4691 	 
H 	 -97.0598 	 43.3804 	 -98.1281 	 
*
