! wB97X-D3 SP def2-SVP
%pal
nprocs 24
end

* xyz 0 1
S 	 -130.63 	 65.9193 	 -48.8073 	 
C 	 -130.252 	 67.6232 	 -48.8662 	 
C 	 -130.522 	 68.2183 	 -50.1098 	 
C 	 -131.208 	 67.335 	 -50.9809 	 
C 	 -131.306 	 66.0462 	 -50.4979 	 
H 	 -131.552 	 67.6975 	 -51.9264 	 
C 	 -130.292 	 69.6581 	 -50.4304 	 
H 	 -131.17 	 70.0202 	 -50.8202 	 
H 	 -129.452 	 69.7609 	 -51.0969 	 
C 	 -130.305 	 70.6582 	 -49.297 	 
H 	 -131.16 	 70.6325 	 -48.6575 	 
H 	 -129.491 	 70.3091 	 -48.6492 	 
C 	 -130.167 	 72.1455 	 -49.6863 	 
H 	 -131.155 	 72.4614 	 -50.0483 	 
H 	 -129.887 	 72.7371 	 -48.8177 	 
H 	 -129.497 	 72.3361 	 -50.5261 	 
S 	 -131.002 	 64.1186 	 -52.5095 	 
C 	 -132.066 	 62.7179 	 -52.5387 	 
C 	 -133.101 	 62.8889 	 -51.6286 	 
C 	 -133.011 	 64.19 	 -50.9868 	 
C 	 -131.841 	 64.848 	 -51.1785 	 
H 	 -133.842 	 62.1335 	 -51.63 	 
C 	 -134.235 	 64.7155 	 -50.1873 	 
H 	 -134.1 	 65.8087 	 -50.147 	 
H 	 -134.295 	 64.2294 	 -49.138 	 
C 	 -135.562 	 64.6671 	 -50.9389 	 
H 	 -136.009 	 63.6757 	 -50.9459 	 
H 	 -135.263 	 64.872 	 -51.9505 	 
C 	 -136.679 	 65.683 	 -50.4435 	 
H 	 -137.015 	 65.4807 	 -49.4268 	 
H 	 -137.506 	 65.6244 	 -51.1504 	 
H 	 -136.271 	 66.7209 	 -50.4602 	 
H 	 -129.757 	 68.2926 	 -48.101 	 
H 	 -131.941 	 61.861 	 -53.2311 	 
*
