! wB97X-D3 SP def2-SVP
%pal
nprocs 24
end

* xyz 0 1
S 	 -28.6876 	 -32.7226 	 -93.375 	 
C 	 -28.5813 	 -31.0343 	 -93.7444 	 
C 	 -29.0478 	 -30.2923 	 -92.6417 	 
C 	 -29.6115 	 -31.1107 	 -91.6355 	 
C 	 -29.6279 	 -32.4737 	 -91.9398 	 
H 	 -29.9913 	 -30.7558 	 -90.6785 	 
C 	 -29.0872 	 -28.8157 	 -92.5168 	 
H 	 -30.0788 	 -28.5463 	 -92.2497 	 
H 	 -28.9779 	 -28.362 	 -93.5102 	 
C 	 -28.0841 	 -28.1551 	 -91.6056 	 
H 	 -28.2935 	 -27.0895 	 -91.5961 	 
H 	 -28.1858 	 -28.589 	 -90.5874 	 
C 	 -26.5946 	 -28.2111 	 -91.9335 	 
H 	 -26.4207 	 -27.8612 	 -92.9529 	 
H 	 -26.1141 	 -27.5745 	 -91.1818 	 
H 	 -26.1675 	 -29.237 	 -91.8305 	 
S 	 -28.7666 	 -34.4915 	 -90.5152 	 
C 	 -29.8009 	 -35.5179 	 -89.5849 	 
C 	 -31.1114 	 -35.1128 	 -89.8078 	 
C 	 -31.3245 	 -34.0408 	 -90.682 	 
C 	 -30.0801 	 -33.5995 	 -91.1276 	 
H 	 -31.8936 	 -35.597 	 -89.2308 	 
C 	 -32.7027 	 -33.5172 	 -91.0046 	 
H 	 -32.5998 	 -32.476 	 -91.0842 	 
H 	 -33.2309 	 -33.6657 	 -90.065 	 
C 	 -33.5095 	 -34.071 	 -92.1501 	 
H 	 -32.9222 	 -33.9478 	 -93.115 	 
H 	 -34.4674 	 -33.592 	 -92.2908 	 
C 	 -33.9039 	 -35.5061 	 -91.8476 	 
H 	 -34.363 	 -35.9837 	 -92.7315 	 
H 	 -34.6352 	 -35.6102 	 -91.088 	 
H 	 -33.1358 	 -36.2158 	 -91.5189 	 
H 	 -28.015 	 -30.509 	 -94.4728 	 
H 	 -29.5095 	 -36.3405 	 -88.9758 	 
*
