! wB97X-D3 SP def2-SVP
%pal
nprocs 24
end

* xyz 0 1
S 	 -50.7564 	 16.3077 	 -86.7849 	 
C 	 -49.7865 	 17.6746 	 -87.3026 	 
C 	 -49.6822 	 17.6836 	 -88.715 	 
C 	 -50.0914 	 16.4454 	 -89.2899 	 
C 	 -50.444 	 15.4795 	 -88.3638 	 
H 	 -49.9848 	 16.2256 	 -90.331 	 
C 	 -49.1507 	 18.7389 	 -89.571 	 
H 	 -49.2966 	 19.709 	 -89.1856 	 
H 	 -49.9387 	 18.656 	 -90.2584 	 
C 	 -47.8104 	 18.4484 	 -90.2219 	 
H 	 -47.8792 	 17.4748 	 -90.8704 	 
H 	 -47.4238 	 19.2076 	 -90.8704 	 
C 	 -46.7327 	 18.3062 	 -89.1028 	 
H 	 -46.7198 	 17.34 	 -88.6825 	 
H 	 -45.7482 	 18.4911 	 -89.5326 	 
H 	 -46.7424 	 18.9689 	 -88.2538 	 
S 	 -51.0447 	 13.0607 	 -87.1444 	 
C 	 -51.314 	 11.6859 	 -88.1255 	 
C 	 -50.8578 	 11.8554 	 -89.4098 	 
C 	 -50.466 	 13.1995 	 -89.6962 	 
C 	 -50.6447 	 14.0413 	 -88.6135 	 
H 	 -50.9177 	 10.9698 	 -90.017 	 
C 	 -49.9753 	 13.6242 	 -91.0685 	 
H 	 -50.3676 	 14.5872 	 -91.3625 	 
H 	 -50.4103 	 12.9755 	 -91.7701 	 
C 	 -48.4696 	 13.5766 	 -91.2346 	 
H 	 -47.9778 	 12.6597 	 -91.0282 	 
H 	 -47.9751 	 14.2327 	 -90.4893 	 
C 	 -48.044 	 13.8706 	 -92.6413 	 
H 	 -48.3909 	 13.0362 	 -93.1993 	 
H 	 -46.9897 	 13.9508 	 -92.8523 	 
H 	 -48.5495 	 14.7641 	 -93.0304 	 
H 	 -49.648 	 18.6281 	 -86.7764 	 
H 	 -51.6725 	 10.7047 	 -87.8351 	 
*
