! wB97X-D3 SP def2-SVP
%pal
nprocs 24
end

* xyz 0 1
S 	 24.467 	 -7.58376 	 -112.186 	 
C 	 24.9266 	 -7.13014 	 -110.565 	 
C 	 23.9126 	 -7.42472 	 -109.689 	 
C 	 22.7801 	 -7.95691 	 -110.373 	 
C 	 22.9257 	 -8.21717 	 -111.715 	 
H 	 21.8456 	 -8.10561 	 -109.79 	 
C 	 23.7727 	 -7.02654 	 -108.258 	 
H 	 22.7481 	 -6.77969 	 -108.078 	 
H 	 24.3556 	 -6.11681 	 -108.131 	 
C 	 24.1001 	 -8.10013 	 -107.155 	 
H 	 25.0685 	 -8.59813 	 -107.444 	 
H 	 24.1097 	 -7.62401 	 -106.148 	 
C 	 22.9302 	 -9.02194 	 -107.17 	 
H 	 23.0522 	 -9.73373 	 -107.968 	 
H 	 22.8685 	 -9.53836 	 -106.2 	 
H 	 21.9777 	 -8.4828 	 -107.283 	 
S 	 21.3232 	 -10.1704 	 -112.451 	 
C 	 20.0025 	 -9.90306 	 -113.507 	 
C 	 20.2263 	 -8.74917 	 -114.31 	 
C 	 21.3442 	 -7.99988 	 -113.795 	 
C 	 21.9577 	 -8.61328 	 -112.687 	 
H 	 19.551 	 -8.56743 	 -115.17 	 
C 	 21.7889 	 -6.70143 	 -114.444 	 
H 	 22.398 	 -6.91328 	 -115.338 	 
H 	 22.5583 	 -6.30671 	 -113.744 	 
C 	 20.5722 	 -5.77137 	 -114.76 	 
H 	 19.7528 	 -5.70934 	 -113.983 	 
H 	 20.1099 	 -6.2079 	 -115.708 	 
C 	 20.9722 	 -4.31661 	 -115.017 	 
H 	 20.0638 	 -3.88014 	 -115.413 	 
H 	 21.7827 	 -4.23899 	 -115.753 	 
H 	 21.2217 	 -3.77358 	 -114.055 	 
H 	 25.9713 	 -6.82007 	 -110.214 	 
H 	 19.2649 	 -10.6054 	 -113.686 	 
*
