! wB97X-D3 SP def2-SVP
%pal
nprocs 24
end

* xyz 0 1
S 	 -45.9033 	 -3.2487 	 -24.4604 	 
C 	 -47.0818 	 -4.30368 	 -25.1596 	 
C 	 -46.5741 	 -5.27671 	 -26.0006 	 
C 	 -45.1523 	 -4.93697 	 -26.2544 	 
C 	 -44.6965 	 -3.86288 	 -25.5243 	 
H 	 -44.506 	 -5.44574 	 -26.9803 	 
C 	 -47.4057 	 -6.37229 	 -26.762 	 
H 	 -47.7272 	 -7.18868 	 -26.0864 	 
H 	 -46.742 	 -6.79407 	 -27.4916 	 
C 	 -48.6812 	 -5.89643 	 -27.5301 	 
H 	 -49.2275 	 -6.82034 	 -27.8961 	 
H 	 -49.1984 	 -5.19304 	 -26.9091 	 
C 	 -48.113 	 -5.09375 	 -28.7287 	 
H 	 -47.5529 	 -4.23833 	 -28.635 	 
H 	 -47.5475 	 -5.77672 	 -29.3326 	 
H 	 -48.9752 	 -4.80092 	 -29.2609 	 
S 	 -43.5767 	 -1.3279 	 -25.8018 	 
C 	 -41.8386 	 -1.18742 	 -25.9886 	 
C 	 -41.2807 	 -2.43053 	 -26.064 	 
C 	 -42.1646 	 -3.5455 	 -25.7842 	 
C 	 -43.4864 	 -3.11606 	 -25.733 	 
H 	 -40.2052 	 -2.49374 	 -26.282 	 
C 	 -41.6349 	 -4.9653 	 -25.6178 	 
H 	 -40.7265 	 -5.13404 	 -26.2742 	 
H 	 -42.4773 	 -5.5757 	 -26.0346 	 
C 	 -41.6177 	 -5.33809 	 -24.1104 	 
H 	 -42.5638 	 -4.97939 	 -23.6804 	 
H 	 -40.6964 	 -4.84607 	 -23.7447 	 
C 	 -41.4996 	 -6.85551 	 -23.8823 	 
H 	 -42.3772 	 -7.45975 	 -24.1792 	 
H 	 -41.4216 	 -6.98397 	 -22.7908 	 
H 	 -40.6121 	 -7.24149 	 -24.4762 	 
H 	 -48.1014 	 -4.22163 	 -24.8339 	 
H 	 -41.3505 	 -0.297952 	 -26.2299 	 
*
