! wB97X-D3 SP def2-SVP
%pal
nprocs 24
end

* xyz 0 1
S 	 -99.4423 	 -0.174524 	 -106.002 	 
C 	 -100.746 	 -0.405374 	 -104.834 	 
C 	 -101.632 	 0.66121 	 -104.974 	 
C 	 -101.293 	 1.64898 	 -105.93 	 
C 	 -100.135 	 1.33446 	 -106.562 	 
H 	 -101.869 	 2.447 	 -106.187 	 
C 	 -102.896 	 0.872608 	 -104.137 	 
H 	 -102.607 	 1.71335 	 -103.461 	 
H 	 -102.94 	 0.102842 	 -103.356 	 
C 	 -104.17 	 1.07981 	 -104.966 	 
H 	 -104.098 	 1.76432 	 -105.764 	 
H 	 -104.27 	 0.231406 	 -105.605 	 
C 	 -105.43 	 1.39293 	 -104.158 	 
H 	 -105.397 	 2.47312 	 -103.945 	 
H 	 -106.368 	 1.25175 	 -104.822 	 
H 	 -105.468 	 0.807883 	 -103.168 	 
S 	 -99.2678 	 0.755153 	 -109.114 	 
C 	 -99.1235 	 2.02379 	 -110.266 	 
C 	 -99.1756 	 3.29233 	 -109.736 	 
C 	 -99.4831 	 3.30191 	 -108.363 	 
C 	 -99.6482 	 1.97373 	 -107.833 	 
H 	 -99.0505 	 4.16515 	 -110.35 	 
C 	 -99.8553 	 4.6014 	 -107.686 	 
H 	 -100.899 	 4.53293 	 -107.309 	 
H 	 -99.8285 	 5.42329 	 -108.438 	 
C 	 -98.8757 	 4.95478 	 -106.536 	 
H 	 -97.88 	 4.78448 	 -107.056 	 
H 	 -98.9634 	 4.20903 	 -105.784 	 
C 	 -99.0007 	 6.31934 	 -106.002 	 
H 	 -98.1676 	 6.45716 	 -105.333 	 
H 	 -99.9818 	 6.57041 	 -105.533 	 
H 	 -98.9152 	 7.048 	 -106.86 	 
H 	 -100.953 	 -1.24561 	 -104.167 	 
H 	 -98.8246 	 1.81697 	 -111.282 	 
*
