! wB97X-D3 SP def2-SVP
%pal
nprocs 24
end

* xyz 0 1
S 	 -110.212 	 41.061 	 -12.2336 	 
C 	 -109.878 	 42.4543 	 -13.3569 	 
C 	 -108.542 	 42.7441 	 -13.3401 	 
C 	 -107.811 	 41.7984 	 -12.6063 	 
C 	 -108.583 	 40.9331 	 -11.8175 	 
H 	 -106.764 	 41.7225 	 -12.4123 	 
C 	 -107.966 	 43.9544 	 -14.0493 	 
H 	 -108.477 	 44.8242 	 -13.6212 	 
H 	 -108.284 	 43.9292 	 -15.1252 	 
C 	 -106.418 	 44.2718 	 -13.8625 	 
H 	 -106.333 	 44.1522 	 -12.7983 	 
H 	 -105.783 	 43.5587 	 -14.2653 	 
C 	 -106.136 	 45.6739 	 -14.2519 	 
H 	 -105.195 	 45.9862 	 -14.0336 	 
H 	 -106.251 	 45.7812 	 -15.3491 	 
H 	 -106.859 	 46.3007 	 -13.8576 	 
S 	 -106.283 	 40.1366 	 -10.4153 	 
C 	 -106.113 	 38.5767 	 -9.63604 	 
C 	 -107.27 	 37.8203 	 -9.95845 	 
C 	 -108.28 	 38.5024 	 -10.7091 	 
C 	 -107.983 	 39.8883 	 -10.9406 	 
H 	 -107.165 	 36.7699 	 -9.6846 	 
C 	 -109.505 	 37.7204 	 -11.1917 	 
H 	 -109.563 	 37.6977 	 -12.2659 	 
H 	 -110.377 	 38.3581 	 -10.8104 	 
C 	 -109.689 	 36.2297 	 -10.8338 	 
H 	 -109.877 	 36.25 	 -9.73749 	 
H 	 -108.815 	 35.5856 	 -10.8944 	 
C 	 -110.841 	 35.6519 	 -11.6217 	 
H 	 -110.954 	 35.846 	 -12.7078 	 
H 	 -111.735 	 36.1155 	 -11.2712 	 
H 	 -111.043 	 34.5985 	 -11.3771 	 
H 	 -110.624 	 43.108 	 -13.7826 	 
H 	 -105.306 	 38.1126 	 -9.05473 	 
*
