! wB97X-D3 SP def2-SVP
%pal
nprocs 24
end

* xyz 0 1
S 	 -72.8159 	 8.98408 	 -110.16 	 
C 	 -74.1254 	 9.67435 	 -109.279 	 
C 	 -74.2375 	 9.09233 	 -108.017 	 
C 	 -73.1782 	 8.17589 	 -107.684 	 
C 	 -72.2711 	 8.04902 	 -108.755 	 
H 	 -72.8678 	 7.59423 	 -106.868 	 
C 	 -75.3692 	 9.4876 	 -107.122 	 
H 	 -75.7713 	 8.54217 	 -106.742 	 
H 	 -76.2573 	 10.0495 	 -107.566 	 
C 	 -74.939 	 10.4499 	 -106.039 	 
H 	 -74.0554 	 10.0431 	 -105.541 	 
H 	 -74.7843 	 11.5056 	 -106.452 	 
C 	 -75.9843 	 10.5864 	 -104.883 	 
H 	 -75.8239 	 9.65489 	 -104.306 	 
H 	 -75.6178 	 11.4856 	 -104.301 	 
H 	 -76.9911 	 10.6291 	 -105.208 	 
S 	 -71.2879 	 5.55981 	 -108.952 	 
C 	 -69.6036 	 5.24805 	 -109.288 	 
C 	 -68.8784 	 6.40444 	 -109.119 	 
C 	 -69.6806 	 7.56362 	 -108.822 	 
C 	 -71.0394 	 7.26194 	 -108.804 	 
H 	 -67.8135 	 6.36531 	 -109.271 	 
C 	 -69.156 	 8.97495 	 -108.706 	 
H 	 -69.2104 	 9.42225 	 -109.657 	 
H 	 -68.1124 	 8.69395 	 -108.612 	 
C 	 -69.7286 	 9.87083 	 -107.611 	 
H 	 -69.8152 	 9.31124 	 -106.671 	 
H 	 -70.7057 	 10.1262 	 -107.821 	 
C 	 -68.8818 	 11.1598 	 -107.398 	 
H 	 -69.1957 	 11.8587 	 -108.18 	 
H 	 -67.8012 	 11.0588 	 -107.488 	 
H 	 -69.0527 	 11.6219 	 -106.383 	 
H 	 -74.7721 	 10.406 	 -109.622 	 
H 	 -69.1538 	 4.28889 	 -109.487 	 
*
