! wB97X-D3 SP def2-SVP
%pal
nprocs 24
end

* xyz 0 1
S 	 -51.5773 	 -43.8788 	 -74.5605 	 
C 	 -52.4578 	 -42.9556 	 -73.3597 	 
C 	 -53.1338 	 -41.8494 	 -73.92 	 
C 	 -52.9612 	 -41.8594 	 -75.3459 	 
C 	 -52.0231 	 -42.7377 	 -75.8266 	 
H 	 -53.4018 	 -41.1421 	 -76.0863 	 
C 	 -54.0481 	 -40.8658 	 -73.2483 	 
H 	 -54.2027 	 -40.0905 	 -73.9509 	 
H 	 -53.5707 	 -40.5304 	 -72.3442 	 
C 	 -55.4551 	 -41.4124 	 -73.0085 	 
H 	 -55.8164 	 -41.8519 	 -73.9788 	 
H 	 -55.443 	 -42.2173 	 -72.3004 	 
C 	 -56.4167 	 -40.4066 	 -72.3637 	 
H 	 -56.6011 	 -39.4776 	 -72.9207 	 
H 	 -57.3656 	 -40.933 	 -72.1969 	 
H 	 -55.9505 	 -40.0557 	 -71.4352 	 
S 	 -51.449 	 -44.1624 	 -78.2296 	 
C 	 -50.6566 	 -43.2963 	 -79.5047 	 
C 	 -50.192 	 -42.0945 	 -79.0458 	 
C 	 -50.6294 	 -41.6845 	 -77.773 	 
C 	 -51.2603 	 -42.776 	 -77.0896 	 
H 	 -49.5685 	 -41.6218 	 -79.7601 	 
C 	 -50.3669 	 -40.2746 	 -77.1785 	 
H 	 -51.3724 	 -40.0034 	 -76.8538 	 
H 	 -50.0834 	 -39.6142 	 -78.0303 	 
C 	 -49.3408 	 -40.1597 	 -76.037 	 
H 	 -49.8431 	 -40.5757 	 -75.1455 	 
H 	 -49.1595 	 -39.1082 	 -75.8897 	 
C 	 -47.9958 	 -40.8255 	 -76.4073 	 
H 	 -47.4168 	 -40.9202 	 -75.499 	 
H 	 -47.3534 	 -40.2604 	 -77.1139 	 
H 	 -48.076 	 -41.9117 	 -76.807 	 
H 	 -52.5141 	 -43.0727 	 -72.3321 	 
H 	 -50.4945 	 -43.6558 	 -80.4758 	 
*
