! wB97X-D3 SP def2-SVP
%pal
nprocs 24
end

* xyz 0 1
S 	 42.0651 	 -17.994 	 -111.377 	 
C 	 40.6844 	 -17.3456 	 -112.143 	 
C 	 40.5417 	 -15.9834 	 -111.872 	 
C 	 41.5778 	 -15.4951 	 -110.995 	 
C 	 42.4899 	 -16.4761 	 -110.597 	 
H 	 41.7751 	 -14.4809 	 -110.546 	 
C 	 39.3315 	 -15.1566 	 -112.391 	 
H 	 39.548 	 -14.2611 	 -111.958 	 
H 	 38.3685 	 -15.4206 	 -111.961 	 
C 	 39.0753 	 -14.9774 	 -113.915 	 
H 	 40.0968 	 -14.6759 	 -114.296 	 
H 	 38.8917 	 -15.989 	 -114.347 	 
C 	 38.0476 	 -13.9894 	 -114.397 	 
H 	 38.2262 	 -13.6705 	 -115.406 	 
H 	 37.0519 	 -14.447 	 -114.197 	 
H 	 38.0269 	 -13.0209 	 -113.897 	 
S 	 45.238 	 -16.6065 	 -110.125 	 
C 	 45.7966 	 -16.5835 	 -108.466 	 
C 	 44.7467 	 -16.2562 	 -107.614 	 
C 	 43.5153 	 -16.0157 	 -108.278 	 
C 	 43.5806 	 -16.4093 	 -109.6 	 
H 	 44.9798 	 -16.244 	 -106.539 	 
C 	 42.2389 	 -15.8185 	 -107.445 	 
H 	 41.5527 	 -15.2449 	 -108.071 	 
H 	 42.5155 	 -15.106 	 -106.715 	 
C 	 41.4693 	 -17.0498 	 -107.135 	 
H 	 42.1761 	 -17.6798 	 -106.531 	 
H 	 41.1231 	 -17.5901 	 -108.016 	 
C 	 40.2958 	 -16.8025 	 -106.222 	 
H 	 39.7844 	 -17.7044 	 -106.037 	 
H 	 39.6705 	 -15.9794 	 -106.486 	 
H 	 40.765 	 -16.6642 	 -105.239 	 
H 	 39.8472 	 -17.8689 	 -112.649 	 
H 	 46.7167 	 -17.0747 	 -108.086 	 
*
