! wB97X-D3 SP def2-SVP
%pal
nprocs 24
end

* xyz 0 1
S 	 -53.2922 	 -3.87626 	 -28.7148 	 
C 	 -52.7345 	 -3.41993 	 -27.1327 	 
C 	 -53.7814 	 -3.45906 	 -26.2086 	 
C 	 -55.0273 	 -3.79376 	 -26.862 	 
C 	 -54.9455 	 -3.97119 	 -28.21 	 
H 	 -55.8781 	 -3.91639 	 -26.2308 	 
C 	 -53.6449 	 -3.40159 	 -24.691 	 
H 	 -54.6089 	 -3.03487 	 -24.3418 	 
H 	 -52.8187 	 -2.65863 	 -24.6 	 
C 	 -53.3837 	 -4.76077 	 -24.0224 	 
H 	 -54.1558 	 -5.4404 	 -24.2842 	 
H 	 -52.4092 	 -5.0907 	 -24.3306 	 
C 	 -53.4794 	 -4.67393 	 -22.4408 	 
H 	 -54.4646 	 -4.39698 	 -22.2034 	 
H 	 -53.248 	 -5.65044 	 -22.0749 	 
H 	 -52.712 	 -3.9106 	 -22.0134 	 
S 	 -55.5274 	 -5.65534 	 -30.3609 	 
C 	 -57.1498 	 -5.75104 	 -30.8514 	 
C 	 -58.036 	 -5.05325 	 -30.0469 	 
C 	 -57.3857 	 -4.44198 	 -28.9366 	 
C 	 -55.992 	 -4.60105 	 -29.0037 	 
H 	 -59.0948 	 -5.15795 	 -30.2944 	 
C 	 -58.2245 	 -3.68878 	 -27.9011 	 
H 	 -57.6292 	 -3.0268 	 -27.3353 	 
H 	 -58.6361 	 -4.24898 	 -27.1194 	 
C 	 -59.4328 	 -2.951 	 -28.4876 	 
H 	 -60.0524 	 -2.41538 	 -27.8173 	 
H 	 -60.1191 	 -3.65771 	 -28.9771 	 
C 	 -59.0985 	 -1.90877 	 -29.5047 	 
H 	 -58.3342 	 -1.27063 	 -29.0969 	 
H 	 -59.9224 	 -1.27783 	 -29.7065 	 
H 	 -58.5877 	 -2.42361 	 -30.3111 	 
H 	 -51.7582 	 -3.09598 	 -26.8334 	 
H 	 -57.4555 	 -6.01794 	 -31.9294 	 
*
