! wB97X-D3 SP def2-SVP
%pal
nprocs 24
end

* xyz 0 1
S 	 -61.9975 	 18.3446 	 21.0846 	 
C 	 -62.5793 	 17.8429 	 22.6736 	 
C 	 -62.1789 	 18.669 	 23.6425 	 
C 	 -61.2521 	 19.63 	 23.1881 	 
C 	 -61.1612 	 19.7636 	 21.7919 	 
H 	 -60.7143 	 20.2844 	 23.8589 	 
C 	 -62.642 	 18.5762 	 25.0856 	 
H 	 -63.6678 	 18.197 	 25.031 	 
H 	 -62.6028 	 19.5837 	 25.4944 	 
C 	 -61.9079 	 17.6023 	 25.9209 	 
H 	 -62.0206 	 16.6156 	 25.5225 	 
H 	 -60.9108 	 17.8941 	 25.9922 	 
C 	 -62.4445 	 17.6456 	 27.3411 	 
H 	 -61.8648 	 16.9705 	 27.9846 	 
H 	 -62.4826 	 18.6449 	 27.7878 	 
H 	 -63.4787 	 17.2454 	 27.4084 	 
S 	 -61.3291 	 21.2676 	 19.5345 	 
C 	 -59.9924 	 22.2808 	 19.0889 	 
C 	 -58.9645 	 22.2276 	 20.0061 	 
C 	 -59.2738 	 21.4036 	 21.0915 	 
C 	 -60.516 	 20.7121 	 20.9534 	 
H 	 -58.06 	 22.8405 	 19.9041 	 
C 	 -58.1764 	 21.2226 	 22.1547 	 
H 	 -58.5154 	 20.6899 	 23.0308 	 
H 	 -58.0608 	 22.2126 	 22.5303 	 
C 	 -56.7797 	 20.7985 	 21.4929 	 
H 	 -56.601 	 21.4531 	 20.6534 	 
H 	 -56.9184 	 19.8047 	 21.0748 	 
C 	 -55.6208 	 20.8484 	 22.4848 	 
H 	 -55.5098 	 21.8809 	 22.8596 	 
H 	 -54.667 	 20.5681 	 21.9752 	 
H 	 -55.663 	 20.2218 	 23.3604 	 
H 	 -63.199 	 16.9669 	 22.806 	 
H 	 -59.9184 	 22.9006 	 18.2345 	 
*
