! wB97X-D3 SP def2-SVP
%pal
nprocs 24
end

* xyz 0 1
S 	 -113.535 	 37.6058 	 -118.024 	 
C 	 -112.177 	 38.2202 	 -118.982 	 
C 	 -111.063 	 38.5634 	 -118.206 	 
C 	 -111.381 	 38.3563 	 -116.831 	 
C 	 -112.648 	 37.9281 	 -116.536 	 
H 	 -110.653 	 38.5292 	 -116.019 	 
C 	 -109.729 	 39.042 	 -118.775 	 
H 	 -109.531 	 40.0875 	 -118.474 	 
H 	 -109.716 	 38.9451 	 -119.934 	 
C 	 -108.494 	 38.2308 	 -118.287 	 
H 	 -108.332 	 38.1345 	 -117.213 	 
H 	 -108.69 	 37.1524 	 -118.509 	 
C 	 -107.258 	 38.7526 	 -119.096 	 
H 	 -107.361 	 38.6345 	 -120.218 	 
H 	 -107.078 	 39.7682 	 -118.89 	 
H 	 -106.303 	 38.2344 	 -118.85 	 
S 	 -112.799 	 38.7435 	 -113.892 	 
C 	 -113.684 	 37.8203 	 -112.704 	 
C 	 -114.346 	 36.7827 	 -113.324 	 
C 	 -114.147 	 36.7497 	 -114.722 	 
C 	 -113.205 	 37.6443 	 -115.164 	 
H 	 -114.989 	 36.1658 	 -112.751 	 
C 	 -114.934 	 35.7175 	 -115.541 	 
H 	 -114.87 	 34.7191 	 -115.003 	 
H 	 -114.434 	 35.6723 	 -116.511 	 
C 	 -116.358 	 36.0373 	 -115.72 	 
H 	 -116.378 	 36.9202 	 -116.327 	 
H 	 -116.9 	 36.3005 	 -114.741 	 
C 	 -117.117 	 34.9121 	 -116.469 	 
H 	 -116.685 	 34.7239 	 -117.499 	 
H 	 -118.252 	 35.1164 	 -116.503 	 
H 	 -116.98 	 34.0436 	 -115.906 	 
H 	 -112.046 	 38.2402 	 -120.037 	 
H 	 -113.878 	 38.0511 	 -111.625 	 
*
