! wB97X-D3 SP def2-SVP
%pal
nprocs 24
end

* xyz 0 1
S 	 -62.5463 	 4.2492 	 -74.3617 	 
C 	 -62.3798 	 3.87326 	 -72.6401 	 
C 	 -63.2686 	 4.66219 	 -71.867 	 
C 	 -64.0963 	 5.48791 	 -72.6371 	 
C 	 -63.9121 	 5.29022 	 -74.0055 	 
H 	 -64.7581 	 6.23634 	 -72.1863 	 
C 	 -63.2957 	 4.69422 	 -70.3162 	 
H 	 -62.8811 	 3.75918 	 -70.0323 	 
H 	 -64.2672 	 4.47431 	 -69.8711 	 
C 	 -62.5697 	 5.85046 	 -69.5937 	 
H 	 -62.5896 	 5.5399 	 -68.5121 	 
H 	 -61.5024 	 5.88657 	 -69.9429 	 
C 	 -63.1258 	 7.26439 	 -69.7415 	 
H 	 -62.5921 	 7.93213 	 -69.0665 	 
H 	 -63.0178 	 7.5712 	 -70.7707 	 
H 	 -64.2156 	 7.22556 	 -69.5047 	 
S 	 -63.8164 	 6.48015 	 -76.5754 	 
C 	 -65.2823 	 7.31958 	 -77.1432 	 
C 	 -66.3117 	 7.11864 	 -76.2608 	 
C 	 -65.9969 	 6.4027 	 -75.0696 	 
C 	 -64.6706 	 5.95634 	 -75.1005 	 
H 	 -67.2953 	 7.50403 	 -76.5089 	 
C 	 -67.1471 	 6.0458 	 -74.1498 	 
H 	 -67.7051 	 6.95019 	 -73.873 	 
H 	 -66.6726 	 5.68535 	 -73.1907 	 
C 	 -68.1799 	 4.96122 	 -74.569 	 
H 	 -67.7002 	 3.99617 	 -74.4714 	 
H 	 -68.4889 	 5.19889 	 -75.6106 	 
C 	 -69.4444 	 5.12199 	 -73.7338 	 
H 	 -69.1303 	 5.33216 	 -72.7086 	 
H 	 -70.0468 	 4.24291 	 -73.7826 	 
H 	 -70.0624 	 5.92052 	 -74.0056 	 
H 	 -61.7404 	 3.09177 	 -72.2058 	 
H 	 -65.4485 	 7.89344 	 -78.0175 	 
*
