! wB97X-D3 SP def2-SVP
%pal
nprocs 24
end

* xyz 0 1
S 	 -122.116 	 59.7613 	 -36.2844 	 
C 	 -121.505 	 58.1354 	 -36.1396 	 
C 	 -120.927 	 57.9225 	 -34.8526 	 
C 	 -121.283 	 58.9666 	 -33.9257 	 
C 	 -122.06 	 59.9663 	 -34.4866 	 
H 	 -120.948 	 58.9221 	 -32.8847 	 
C 	 -120.002 	 56.7387 	 -34.4781 	 
H 	 -119.204 	 56.9795 	 -35.1621 	 
H 	 -120.311 	 55.8384 	 -34.9988 	 
C 	 -119.611 	 56.4665 	 -33.0456 	 
H 	 -120.572 	 56.5896 	 -32.5162 	 
H 	 -119.255 	 55.4332 	 -33.0466 	 
C 	 -118.459 	 57.3163 	 -32.4697 	 
H 	 -117.545 	 57.1698 	 -33.0454 	 
H 	 -118.663 	 58.3448 	 -32.3732 	 
H 	 -118.264 	 56.9324 	 -31.4695 	 
S 	 -122.186 	 62.7035 	 -34.7105 	 
C 	 -122.762 	 63.6091 	 -33.3195 	 
C 	 -123.164 	 62.7947 	 -32.2764 	 
C 	 -123.102 	 61.4044 	 -32.5968 	 
C 	 -122.595 	 61.1542 	 -33.864 	 
H 	 -123.571 	 63.2289 	 -31.3148 	 
C 	 -123.667 	 60.3926 	 -31.6201 	 
H 	 -123.748 	 59.4442 	 -32.1856 	 
H 	 -124.703 	 60.5957 	 -31.4184 	 
C 	 -122.894 	 60.0926 	 -30.3023 	 
H 	 -123.37 	 60.7021 	 -29.5443 	 
H 	 -121.865 	 60.4806 	 -30.4134 	 
C 	 -122.865 	 58.5986 	 -30.0072 	 
H 	 -122.676 	 58.4086 	 -28.9002 	 
H 	 -122.072 	 58.0867 	 -30.5121 	 
H 	 -123.862 	 58.0834 	 -30.2691 	 
H 	 -121.639 	 57.4485 	 -36.9057 	 
H 	 -122.854 	 64.6439 	 -33.2291 	 
*
