! wB97X-D3 SP def2-SVP
%pal
nprocs 24
end

* xyz 0 1
S 	 -124.96 	 32.2029 	 -111.822 	 
C 	 -124.825 	 30.5136 	 -112.161 	 
C 	 -123.957 	 29.8999 	 -111.287 	 
C 	 -123.377 	 30.8162 	 -110.301 	 
C 	 -123.703 	 32.1223 	 -110.57 	 
H 	 -122.849 	 30.5317 	 -109.446 	 
C 	 -123.753 	 28.4164 	 -111.14 	 
H 	 -124.67 	 28.1724 	 -110.564 	 
H 	 -122.896 	 28.2511 	 -110.467 	 
C 	 -123.74 	 27.6708 	 -112.489 	 
H 	 -124.64 	 28.0218 	 -113.051 	 
H 	 -122.847 	 27.9438 	 -113.131 	 
C 	 -123.579 	 26.154 	 -112.39 	 
H 	 -122.665 	 25.8442 	 -111.78 	 
H 	 -124.429 	 25.5775 	 -112.164 	 
H 	 -123.213 	 25.7403 	 -113.385 	 
S 	 -121.658 	 33.9145 	 -110.257 	 
C 	 -121.988 	 35.2829 	 -109.21 	 
C 	 -123.099 	 35.2094 	 -108.415 	 
C 	 -123.795 	 34.0091 	 -108.723 	 
C 	 -123.218 	 33.2892 	 -109.795 	 
H 	 -123.392 	 35.9475 	 -107.695 	 
C 	 -125.016 	 33.5273 	 -108.035 	 
H 	 -125.008 	 33.8599 	 -106.963 	 
H 	 -124.885 	 32.4387 	 -108.071 	 
C 	 -126.401 	 33.7976 	 -108.674 	 
H 	 -126.521 	 33.7825 	 -109.723 	 
H 	 -126.569 	 34.9177 	 -108.54 	 
C 	 -127.604 	 33.0284 	 -108.138 	 
H 	 -127.394 	 31.9246 	 -108.309 	 
H 	 -128.502 	 33.1755 	 -108.734 	 
H 	 -127.849 	 33.188 	 -107.088 	 
H 	 -125.526 	 30.0206 	 -112.852 	 
H 	 -121.395 	 36.1443 	 -109.035 	 
*
