! wB97X-D3 SP def2-SVP
%pal
nprocs 24
end

* xyz 0 1
S 	 -61.1869 	 10.33 	 22.6486 	 
C 	 -59.6434 	 10.799 	 22.0646 	 
C 	 -58.6773 	 10.2273 	 22.8984 	 
C 	 -59.1551 	 9.42102 	 23.9881 	 
C 	 -60.5071 	 9.38983 	 23.9946 	 
H 	 -58.6323 	 8.95721 	 24.8475 	 
C 	 -57.2016 	 10.3305 	 22.6967 	 
H 	 -56.7485 	 9.44945 	 23.1079 	 
H 	 -56.8556 	 11.066 	 23.3813 	 
C 	 -56.7632 	 10.6008 	 21.2139 	 
H 	 -57.3408 	 9.89237 	 20.567 	 
H 	 -56.9746 	 11.6213 	 21.0304 	 
C 	 -55.2604 	 10.4014 	 21.0842 	 
H 	 -54.9183 	 10.4852 	 20.0519 	 
H 	 -54.8389 	 11.2105 	 21.5745 	 
H 	 -54.8639 	 9.42987 	 21.4833 	 
S 	 -62.1806 	 9.60988 	 26.0693 	 
C 	 -62.7851 	 8.22324 	 26.9191 	 
C 	 -62.1171 	 7.07974 	 26.5049 	 
C 	 -61.3131 	 7.29415 	 25.3309 	 
C 	 -61.3327 	 8.62193 	 24.9263 	 
H 	 -62.2099 	 6.11469 	 26.9457 	 
C 	 -60.3 	 6.24655 	 24.9028 	 
H 	 -59.9686 	 5.75763 	 25.7145 	 
H 	 -59.5045 	 6.80436 	 24.4404 	 
C 	 -60.9503 	 5.34977 	 23.9259 	 
H 	 -61.5483 	 5.97543 	 23.267 	 
H 	 -61.6132 	 4.67434 	 24.464 	 
C 	 -60.0241 	 4.49863 	 23.0496 	 
H 	 -59.2317 	 4.0464 	 23.6654 	 
H 	 -59.5783 	 4.99779 	 22.1916 	 
H 	 -60.696 	 3.80537 	 22.5694 	 
H 	 -59.5239 	 11.2851 	 21.1468 	 
H 	 -63.435 	 8.34461 	 27.8599 	 
*
