! wB97X-D3 SP def2-SVP
%pal
nprocs 24
end

* xyz 0 1
S 	 -144.577 	 14.2781 	 -7.1618 	 
C 	 -144.55 	 12.4946 	 -7.08737 	 
C 	 -145.401 	 11.9529 	 -7.95291 	 
C 	 -146.324 	 12.9485 	 -8.4509 	 
C 	 -146.164 	 14.2777 	 -7.91509 	 
H 	 -147.168 	 12.6226 	 -9.06744 	 
C 	 -145.631 	 10.4619 	 -8.1771 	 
H 	 -146.687 	 10.2965 	 -8.07754 	 
H 	 -145.284 	 9.93636 	 -7.29673 	 
C 	 -145.049 	 9.9237 	 -9.49431 	 
H 	 -145.154 	 8.8942 	 -9.50734 	 
H 	 -145.652 	 10.2918 	 -10.3733 	 
C 	 -143.582 	 10.2451 	 -9.78901 	 
H 	 -143.14 	 9.71346 	 -10.6326 	 
H 	 -143.4 	 11.3244 	 -10.0294 	 
H 	 -142.944 	 10.001 	 -8.93844 	 
S 	 -146.29 	 16.8793 	 -7.35501 	 
C 	 -147.807 	 17.7292 	 -7.53338 	 
C 	 -148.826 	 16.8557 	 -7.92271 	 
C 	 -148.404 	 15.5805 	 -8.25543 	 
C 	 -147.053 	 15.4482 	 -8.02927 	 
H 	 -149.898 	 17.0143 	 -7.89528 	 
C 	 -149.352 	 14.4535 	 -8.76006 	 
H 	 -148.902 	 13.8645 	 -9.65353 	 
H 	 -150.256 	 14.8678 	 -9.21824 	 
C 	 -149.766 	 13.3371 	 -7.74686 	 
H 	 -148.919 	 12.82 	 -7.28928 	 
H 	 -150.387 	 12.5879 	 -8.20358 	 
C 	 -150.754 	 13.8637 	 -6.72102 	 
H 	 -151.648 	 14.3397 	 -7.1111 	 
H 	 -150.358 	 14.6469 	 -6.06934 	 
H 	 -151.03 	 13.0284 	 -6.04331 	 
H 	 -143.765 	 12.0617 	 -6.5981 	 
H 	 -147.921 	 18.8044 	 -7.51956 	 
*
