! wB97X-D3 SP def2-SVP
%pal
nprocs 24
end

* xyz 0 1
S 	 -130.182 	 57.2289 	 -65.236 	 
C 	 -128.577 	 57.7329 	 -65.7182 	 
C 	 -127.935 	 58.2874 	 -64.6662 	 
C 	 -128.64 	 58.2234 	 -63.4454 	 
C 	 -129.821 	 57.5123 	 -63.5758 	 
H 	 -128.373 	 58.6355 	 -62.4466 	 
C 	 -126.526 	 58.7121 	 -64.6258 	 
H 	 -126.533 	 59.524 	 -63.9617 	 
H 	 -126.207 	 59.1488 	 -65.5987 	 
C 	 -125.441 	 57.512 	 -64.4138 	 
H 	 -125.586 	 56.8066 	 -65.2056 	 
H 	 -124.429 	 57.8252 	 -64.3951 	 
C 	 -125.605 	 56.9017 	 -62.9857 	 
H 	 -125.514 	 57.6548 	 -62.1795 	 
H 	 -126.559 	 56.3594 	 -62.8064 	 
H 	 -124.984 	 56.0436 	 -62.7857 	 
S 	 -132.391 	 58.0408 	 -62.7948 	 
C 	 -132.922 	 57.5533 	 -61.201 	 
C 	 -131.937 	 56.7962 	 -60.6059 	 
C 	 -130.73 	 56.7629 	 -61.3208 	 
C 	 -130.817 	 57.3601 	 -62.5164 	 
H 	 -132.137 	 56.3264 	 -59.6569 	 
C 	 -129.545 	 56.0455 	 -60.8203 	 
H 	 -129.799 	 55.894 	 -59.8198 	 
H 	 -128.674 	 56.7187 	 -60.6883 	 
C 	 -129.063 	 54.733 	 -61.5006 	 
H 	 -128.19 	 54.3761 	 -60.9477 	 
H 	 -128.757 	 54.8204 	 -62.585 	 
C 	 -130.165 	 53.6522 	 -61.3528 	 
H 	 -131.109 	 53.8612 	 -61.9516 	 
H 	 -130.366 	 53.6441 	 -60.2716 	 
H 	 -129.841 	 52.577 	 -61.4727 	 
H 	 -128.229 	 57.7103 	 -66.7388 	 
H 	 -133.883 	 57.6292 	 -60.7828 	 
*
