! wB97X-D3 SP def2-SVP
%pal
nprocs 24
end

* xyz 0 1
S 	 -87.9925 	 -47.6637 	 -80.6976 	 
C 	 -88.1289 	 -46.3542 	 -79.5767 	 
C 	 -88.1566 	 -46.8055 	 -78.2513 	 
C 	 -88.3759 	 -48.2316 	 -78.1736 	 
C 	 -88.163 	 -48.8689 	 -79.3834 	 
H 	 -88.551 	 -48.7783 	 -77.2353 	 
C 	 -88.3281 	 -45.9279 	 -77.0337 	 
H 	 -89.4317 	 -45.9207 	 -76.8517 	 
H 	 -88.0249 	 -44.9742 	 -77.3136 	 
C 	 -87.5005 	 -46.1469 	 -75.8421 	 
H 	 -87.5806 	 -45.242 	 -75.3713 	 
H 	 -87.9767 	 -46.921 	 -75.3341 	 
C 	 -85.9653 	 -46.2937 	 -76.086 	 
H 	 -85.7092 	 -47.191 	 -76.8138 	 
H 	 -85.5451 	 -45.3441 	 -76.5472 	 
H 	 -85.4275 	 -46.4587 	 -75.1559 	 
S 	 -89.3766 	 -50.7844 	 -81.0326 	 
C 	 -89.0237 	 -52.4419 	 -80.7143 	 
C 	 -88.3598 	 -52.6746 	 -79.5576 	 
C 	 -87.9976 	 -51.4469 	 -78.8948 	 
C 	 -88.3543 	 -50.2913 	 -79.6703 	 
H 	 -88.0408 	 -53.6751 	 -79.2906 	 
C 	 -87.1289 	 -51.4066 	 -77.6678 	 
H 	 -87.8664 	 -51.4522 	 -76.8679 	 
H 	 -86.6833 	 -50.4428 	 -77.5385 	 
C 	 -85.9673 	 -52.4069 	 -77.5213 	 
H 	 -86.2641 	 -53.4305 	 -77.3696 	 
H 	 -85.4322 	 -52.2311 	 -76.5598 	 
C 	 -84.8958 	 -52.2056 	 -78.6331 	 
H 	 -84.1306 	 -53.0641 	 -78.6342 	 
H 	 -84.3108 	 -51.275 	 -78.4731 	 
H 	 -85.359 	 -52.113 	 -79.6591 	 
H 	 -88.0886 	 -45.3416 	 -79.8888 	 
H 	 -89.348 	 -53.3252 	 -81.236 	 
*
