! wB97X-D3 SP def2-SVP
%pal
nprocs 24
end

* xyz 0 1
S 	 -68.5622 	 12.1171 	 -74.0479 	 
C 	 -67.42 	 12.7247 	 -75.1849 	 
C 	 -66.7397 	 13.8699 	 -74.6448 	 
C 	 -67.1497 	 14.1245 	 -73.313 	 
C 	 -68.145 	 13.2834 	 -72.8305 	 
H 	 -66.7614 	 14.9244 	 -72.6618 	 
C 	 -65.7229 	 14.688 	 -75.3442 	 
H 	 -65.0907 	 13.9471 	 -75.8468 	 
H 	 -65.0309 	 15.1802 	 -74.6375 	 
C 	 -66.3192 	 15.7312 	 -76.3335 	 
H 	 -66.7439 	 16.5945 	 -75.7663 	 
H 	 -65.5072 	 16.1181 	 -76.9678 	 
C 	 -67.2684 	 15.0467 	 -77.3468 	 
H 	 -67.289 	 15.6239 	 -78.337 	 
H 	 -66.9544 	 14.0057 	 -77.6206 	 
H 	 -68.2047 	 14.9682 	 -76.777 	 
S 	 -67.909 	 11.7372 	 -70.6721 	 
C 	 -68.3611 	 12.3711 	 -69.1803 	 
C 	 -69.1339 	 13.4853 	 -69.2435 	 
C 	 -69.2208 	 14.0603 	 -70.5441 	 
C 	 -68.5833 	 13.1719 	 -71.449 	 
H 	 -69.6276 	 13.9034 	 -68.4 	 
C 	 -69.9245 	 15.3788 	 -70.8813 	 
H 	 -70.9341 	 15.0771 	 -70.8704 	 
H 	 -69.5412 	 15.7376 	 -71.9241 	 
C 	 -69.6929 	 16.5758 	 -69.909 	 
H 	 -68.545 	 16.6244 	 -69.672 	 
H 	 -70.2942 	 16.3585 	 -69.0806 	 
C 	 -70.2695 	 17.9588 	 -70.4538 	 
H 	 -69.9485 	 18.049 	 -71.5609 	 
H 	 -69.9542 	 18.7736 	 -69.7821 	 
H 	 -71.4256 	 17.9977 	 -70.5707 	 
H 	 -67.3503 	 12.3959 	 -76.2219 	 
H 	 -68.2989 	 11.7819 	 -68.2634 	 
*
