! wB97X-D3 SP def2-SVP
%pal
nprocs 24
end

* xyz 0 1
S 	 -92.8695 	 6.50629 	 -2.74542 	 
C 	 -91.1702 	 6.34269 	 -3.12873 	 
C 	 -90.3532 	 6.55477 	 -2.04187 	 
C 	 -91.0617 	 6.83713 	 -0.858435 	 
C 	 -92.3958 	 6.69941 	 -1.03006 	 
H 	 -90.5911 	 6.97626 	 0.115329 	 
C 	 -88.8271 	 6.41491 	 -2.0688 	 
H 	 -88.275 	 7.18541 	 -1.51727 	 
H 	 -88.4762 	 6.71436 	 -3.08663 	 
C 	 -88.3327 	 4.99989 	 -1.57819 	 
H 	 -88.6556 	 4.8466 	 -0.559038 	 
H 	 -88.7483 	 4.28286 	 -2.20362 	 
C 	 -86.8008 	 4.83284 	 -1.50359 	 
H 	 -86.2892 	 5.16842 	 -2.36907 	 
H 	 -86.4786 	 5.4471 	 -0.658119 	 
H 	 -86.4976 	 3.78291 	 -1.36098 	 
S 	 -94.4539 	 8.44184 	 -0.248013 	 
C 	 -95.0372 	 8.48128 	 1.41105 	 
C 	 -94.3768 	 7.43868 	 2.11911 	 
C 	 -93.3812 	 6.78758 	 1.37274 	 
C 	 -93.3333 	 7.09447 	 -0.000238464 	 
H 	 -94.4035 	 7.26208 	 3.21601 	 
C 	 -92.5055 	 5.73874 	 2.0353 	 
H 	 -91.735 	 6.17184 	 2.68466 	 
H 	 -92.1023 	 5.15819 	 1.23042 	 
C 	 -93.3042 	 4.79385 	 2.90585 	 
H 	 -93.5754 	 5.44627 	 3.71973 	 
H 	 -92.6506 	 4.02835 	 3.38318 	 
C 	 -94.4445 	 4.01332 	 2.26448 	 
H 	 -95.1264 	 4.64295 	 1.68625 	 
H 	 -95.0547 	 3.50899 	 3.04172 	 
H 	 -94.029 	 3.325 	 1.46965 	 
H 	 -90.761 	 6.13751 	 -4.15508 	 
H 	 -95.6138 	 9.30653 	 1.79158 	 
*
