! wB97X-D3 SP def2-SVP
%pal
nprocs 24
end

* xyz 0 1
S 	 -88.4143 	 -30.2444 	 -58.4124 	 
C 	 -87.3127 	 -31.6341 	 -58.422 	 
C 	 -86.7324 	 -31.7422 	 -57.15 	 
C 	 -87.3325 	 -30.8213 	 -56.1704 	 
C 	 -88.342 	 -30.0241 	 -56.6841 	 
H 	 -86.8935 	 -30.6635 	 -55.1231 	 
C 	 -85.5183 	 -32.5508 	 -56.7589 	 
H 	 -84.835 	 -31.7957 	 -56.3416 	 
H 	 -85.102 	 -32.8494 	 -57.6448 	 
C 	 -85.7073 	 -33.7703 	 -55.8262 	 
H 	 -85.9773 	 -34.6606 	 -56.3653 	 
H 	 -84.6924 	 -33.9274 	 -55.5112 	 
C 	 -86.4833 	 -33.6219 	 -54.485 	 
H 	 -86.4889 	 -32.566 	 -54.0562 	 
H 	 -87.5361 	 -34.0142 	 -54.6425 	 
H 	 -85.8991 	 -34.3178 	 -53.8785 	 
S 	 -88.6749 	 -27.3196 	 -56.5421 	 
C 	 -89.6624 	 -26.6497 	 -55.2748 	 
C 	 -90.0503 	 -27.5824 	 -54.3401 	 
C 	 -89.6565 	 -28.9146 	 -54.6751 	 
C 	 -88.9691 	 -28.9485 	 -55.9237 	 
H 	 -90.5643 	 -27.2353 	 -53.5123 	 
C 	 -89.8503 	 -30.1012 	 -53.7565 	 
H 	 -89.2623 	 -30.9285 	 -54.13 	 
H 	 -90.8292 	 -30.3586 	 -53.8389 	 
C 	 -89.5209 	 -29.9065 	 -52.2594 	 
H 	 -90.0511 	 -28.9937 	 -52.0275 	 
H 	 -88.4635 	 -29.5911 	 -52.2862 	 
C 	 -89.7636 	 -31.2058 	 -51.3541 	 
H 	 -89.1946 	 -32.1045 	 -51.7498 	 
H 	 -90.8187 	 -31.3495 	 -51.3238 	 
H 	 -89.2367 	 -31.0269 	 -50.3798 	 
H 	 -87.0788 	 -32.176 	 -59.2846 	 
H 	 -90.0002 	 -25.6326 	 -55.1735 	 
*
