! wB97X-D3 SP def2-SVP
%pal
nprocs 24
end

* xyz 0 1
S 	 -68.9219 	 -45.586 	 -89.1357 	 
C 	 -68.5137 	 -45.1641 	 -90.7552 	 
C 	 -67.7529 	 -46.1429 	 -91.3772 	 
C 	 -67.6565 	 -47.3638 	 -90.545 	 
C 	 -68.1564 	 -47.1363 	 -89.2473 	 
H 	 -67.1832 	 -48.232 	 -90.8275 	 
C 	 -67.1475 	 -46.0691 	 -92.717 	 
H 	 -67.914 	 -46.4298 	 -93.4466 	 
H 	 -66.3311 	 -46.7636 	 -92.9253 	 
C 	 -66.6858 	 -44.6761 	 -93.1725 	 
H 	 -66.4379 	 -44.6942 	 -94.2161 	 
H 	 -67.457 	 -43.9039 	 -93.1726 	 
C 	 -65.5579 	 -44.0858 	 -92.2607 	 
H 	 -65.8891 	 -43.7137 	 -91.2897 	 
H 	 -64.7867 	 -44.7873 	 -92.0433 	 
H 	 -65.1923 	 -43.1928 	 -92.7112 	 
S 	 -68.252 	 -47.3449 	 -86.498 	 
C 	 -68.0767 	 -48.8977 	 -85.6879 	 
C 	 -67.9774 	 -49.9178 	 -86.5906 	 
C 	 -68.0245 	 -49.5 	 -87.9924 	 
C 	 -68.2869 	 -48.086 	 -88.113 	 
H 	 -67.6843 	 -50.8768 	 -86.2199 	 
C 	 -67.9161 	 -50.4552 	 -89.1592 	 
H 	 -67.403 	 -51.3405 	 -88.7164 	 
H 	 -67.2141 	 -50.0366 	 -89.8848 	 
C 	 -69.2798 	 -50.7659 	 -89.8664 	 
H 	 -69.0197 	 -51.3775 	 -90.681 	 
H 	 -69.7484 	 -49.8944 	 -90.2439 	 
C 	 -70.3318 	 -51.4493 	 -88.9545 	 
H 	 -69.8987 	 -52.2629 	 -88.346 	 
H 	 -71.1869 	 -51.9615 	 -89.4628 	 
H 	 -70.6711 	 -50.7624 	 -88.1158 	 
H 	 -68.67 	 -44.1574 	 -91.1175 	 
H 	 -67.7247 	 -49.0605 	 -84.6129 	 
*
