! wB97X-D3 SP def2-SVP
%pal
nprocs 24
end

* xyz 0 1
S 	 -133.088 	 65.0962 	 -58.9238 	 
C 	 -133.16 	 66.8542 	 -58.9155 	 
C 	 -132.905 	 67.3479 	 -60.175 	 
C 	 -132.815 	 66.3675 	 -61.1751 	 
C 	 -132.921 	 65.1014 	 -60.6446 	 
H 	 -132.774 	 66.5585 	 -62.2094 	 
C 	 -132.735 	 68.8058 	 -60.522 	 
H 	 -133.528 	 69.4231 	 -60.0483 	 
H 	 -133.082 	 68.9685 	 -61.5753 	 
C 	 -131.327 	 69.3072 	 -60.5729 	 
H 	 -130.791 	 68.4991 	 -61.1607 	 
H 	 -131.318 	 70.1283 	 -61.296 	 
C 	 -130.752 	 69.7637 	 -59.2933 	 
H 	 -129.755 	 70.0896 	 -59.4413 	 
H 	 -131.46 	 70.4705 	 -58.926 	 
H 	 -130.684 	 69.0353 	 -58.5666 	 
S 	 -134.171 	 62.733 	 -61.3518 	 
C 	 -133.284 	 61.6622 	 -62.4653 	 
C 	 -132.114 	 62.1719 	 -62.8778 	 
C 	 -131.792 	 63.4093 	 -62.2661 	 
C 	 -132.773 	 63.8455 	 -61.3661 	 
H 	 -131.591 	 61.714 	 -63.6672 	 
C 	 -130.457 	 64.1008 	 -62.5993 	 
H 	 -130.657 	 65.186 	 -62.4355 	 
H 	 -130.24 	 63.9229 	 -63.6629 	 
C 	 -129.211 	 63.7441 	 -61.7895 	 
H 	 -128.865 	 62.7727 	 -62.0433 	 
H 	 -129.466 	 63.6017 	 -60.7295 	 
C 	 -128.098 	 64.7577 	 -61.9882 	 
H 	 -127.816 	 65.0672 	 -63.0048 	 
H 	 -127.181 	 64.5132 	 -61.4293 	 
H 	 -128.519 	 65.6955 	 -61.6793 	 
H 	 -133.325 	 67.395 	 -58.0539 	 
H 	 -133.821 	 60.7402 	 -62.6719 	 
*
