! wB97X-D3 SP def2-SVP
%pal
nprocs 24
end

* xyz 0 1
S 	 31.4263 	 -30.6634 	 -109.142 	 
C 	 32.4929 	 -30.6938 	 -107.745 	 
C 	 33.465 	 -31.6966 	 -107.844 	 
C 	 33.2319 	 -32.4622 	 -109.011 	 
C 	 32.1921 	 -32.012 	 -109.758 	 
H 	 33.8406 	 -33.2297 	 -109.43 	 
C 	 34.7807 	 -31.7492 	 -107.114 	 
H 	 35.4222 	 -32.5259 	 -107.575 	 
H 	 34.507 	 -32.094 	 -106.106 	 
C 	 35.5302 	 -30.4028 	 -106.89 	 
H 	 34.9338 	 -29.6138 	 -106.486 	 
H 	 36.4829 	 -30.5468 	 -106.321 	 
C 	 36.1074 	 -30.1787 	 -108.248 	 
H 	 35.3692 	 -30.2853 	 -108.98 	 
H 	 36.5715 	 -29.1158 	 -108.26 	 
H 	 36.9463 	 -30.8636 	 -108.477 	 
S 	 32.249 	 -31.271 	 -112.407 	 
C 	 32.1071 	 -32.5333 	 -113.562 	 
C 	 31.9025 	 -33.7736 	 -113.006 	 
C 	 31.967 	 -33.7786 	 -111.578 	 
C 	 32.0551 	 -32.446 	 -111.122 	 
H 	 31.7813 	 -34.5511 	 -113.774 	 
C 	 31.7671 	 -35.1429 	 -110.853 	 
H 	 30.7767 	 -35.407 	 -111.052 	 
H 	 31.7878 	 -35.0843 	 -109.786 	 
C 	 32.7368 	 -36.2572 	 -111.398 	 
H 	 33.7211 	 -35.8354 	 -111.502 	 
H 	 32.3799 	 -36.4493 	 -112.404 	 
C 	 32.7929 	 -37.6095 	 -110.669 	 
H 	 33.0246 	 -37.6821 	 -109.574 	 
H 	 33.329 	 -38.3477 	 -111.289 	 
H 	 31.6752 	 -37.9759 	 -110.653 	 
H 	 32.4512 	 -29.8811 	 -107.003 	 
H 	 32.0893 	 -32.3369 	 -114.62 	 
*
