! wB97X-D3 SP def2-SVP
%pal
nprocs 24
end

* xyz 0 1
S 	 30.2475 	 2.20151 	 -114.744 	 
C 	 28.8092 	 3.20434 	 -114.706 	 
C 	 27.8385 	 2.57986 	 -113.951 	 
C 	 28.2455 	 1.21939 	 -113.561 	 
C 	 29.4141 	 0.795469 	 -114.019 	 
H 	 27.6683 	 0.554331 	 -112.875 	 
C 	 26.4032 	 3.04483 	 -113.727 	 
H 	 25.7452 	 2.45275 	 -114.355 	 
H 	 26.2017 	 4.02625 	 -114.071 	 
C 	 25.863 	 3.05267 	 -112.314 	 
H 	 26.2837 	 2.16084 	 -111.779 	 
H 	 26.3276 	 3.91388 	 -111.751 	 
C 	 24.3103 	 3.08364 	 -112.111 	 
H 	 23.9333 	 2.72842 	 -111.197 	 
H 	 24.0494 	 4.15075 	 -112.156 	 
H 	 23.8564 	 2.49184 	 -112.895 	 
S 	 30.303 	 -1.48463 	 -115.273 	 
C 	 30.8307 	 -2.81087 	 -114.395 	 
C 	 30.7244 	 -2.52339 	 -113.063 	 
C 	 30.1783 	 -1.2648 	 -112.765 	 
C 	 29.9443 	 -0.572285 	 -113.889 	 
H 	 30.9889 	 -3.22233 	 -112.271 	 
C 	 29.9433 	 -0.863537 	 -111.327 	 
H 	 30.4818 	 -1.6618 	 -110.784 	 
H 	 28.9089 	 -0.987403 	 -111.076 	 
C 	 30.6584 	 0.397887 	 -110.855 	 
H 	 30.1525 	 1.35954 	 -111.164 	 
H 	 31.7029 	 0.393927 	 -111.261 	 
C 	 30.7381 	 0.549925 	 -109.41 	 
H 	 29.8163 	 0.711482 	 -108.888 	 
H 	 31.5034 	 1.32737 	 -109.15 	 
H 	 31.2609 	 -0.339609 	 -108.934 	 
H 	 28.6219 	 4.25485 	 -115.106 	 
H 	 31.2866 	 -3.74333 	 -114.678 	 
*
