! wB97X-D3 SP def2-SVP
%pal
nprocs 24
end

* xyz 0 1
S 	 -39.4697 	 -8.08385 	 8.20459 	 
C 	 -40.5377 	 -9.34764 	 8.64595 	 
C 	 -40.2307 	 -10.5907 	 8.10578 	 
C 	 -39.1646 	 -10.4472 	 7.13442 	 
C 	 -38.6126 	 -9.12442 	 7.03985 	 
H 	 -38.6679 	 -11.219 	 6.49359 	 
C 	 -41.062 	 -11.8596 	 8.27386 	 
H 	 -41.2588 	 -12.0162 	 9.29413 	 
H 	 -40.4887 	 -12.7377 	 7.96654 	 
C 	 -42.3831 	 -11.8479 	 7.50105 	 
H 	 -42.8611 	 -10.8538 	 7.67671 	 
H 	 -42.201 	 -11.9153 	 6.4144 	 
C 	 -43.3241 	 -12.9888 	 7.92004 	 
H 	 -44.26 	 -12.6642 	 7.55559 	 
H 	 -43.0024 	 -13.9243 	 7.50256 	 
H 	 -43.5073 	 -13.098 	 8.96081 	 
S 	 -35.9182 	 -8.71267 	 7.2972 	 
C 	 -34.9516 	 -8.26206 	 5.94164 	 
C 	 -35.7018 	 -8.24907 	 4.78246 	 
C 	 -37.1015 	 -8.55578 	 5.02969 	 
C 	 -37.3725 	 -8.79408 	 6.36218 	 
H 	 -35.3286 	 -8.12589 	 3.79487 	 
C 	 -38.1193 	 -8.42447 	 3.87408 	 
H 	 -39.0448 	 -8.87078 	 4.27905 	 
H 	 -37.5933 	 -9.11597 	 3.15478 	 
C 	 -38.1745 	 -6.96692 	 3.42452 	 
H 	 -37.2922 	 -6.71905 	 2.9727 	 
H 	 -38.1626 	 -6.47083 	 4.43669 	 
C 	 -39.4476 	 -6.58375 	 2.68908 	 
H 	 -39.6841 	 -7.23282 	 1.81802 	 
H 	 -39.4784 	 -5.64575 	 2.29954 	 
H 	 -40.3575 	 -6.53191 	 3.29244 	 
H 	 -41.2885 	 -9.17449 	 9.41789 	 
H 	 -33.8866 	 -8.09246 	 5.95966 	 
*
