! wB97X-D3 SP def2-SVP
%pal
nprocs 24
end

* xyz 0 1
S 	 -102.084 	 45.6618 	 -83.6211 	 
C 	 -101.483 	 44.1334 	 -84.2065 	 
C 	 -101.818 	 43.9172 	 -85.5353 	 
C 	 -102.677 	 44.9703 	 -86.0334 	 
C 	 -103.035 	 45.9237 	 -85.0439 	 
H 	 -103.111 	 44.9892 	 -87.0096 	 
C 	 -101.442 	 42.6972 	 -86.3456 	 
H 	 -100.683 	 42.2874 	 -85.6053 	 
H 	 -101.047 	 42.9335 	 -87.3481 	 
C 	 -102.58 	 41.6498 	 -86.3956 	 
H 	 -101.992 	 40.7826 	 -86.6525 	 
H 	 -102.975 	 41.437 	 -85.3874 	 
C 	 -103.736 	 42.1058 	 -87.3198 	 
H 	 -103.379 	 42.7507 	 -88.1172 	 
H 	 -104.102 	 41.2031 	 -87.8492 	 
H 	 -104.556 	 42.6773 	 -86.7905 	 
S 	 -103.487 	 48.6678 	 -84.8296 	 
C 	 -104.937 	 49.3251 	 -85.4253 	 
C 	 -105.772 	 48.319 	 -85.9071 	 
C 	 -105.185 	 47.0716 	 -85.8468 	 
C 	 -103.952 	 47.0579 	 -85.2535 	 
H 	 -106.725 	 48.6224 	 -86.3987 	 
C 	 -105.894 	 45.9298 	 -86.418 	 
H 	 -105.187 	 45.2023 	 -86.8016 	 
H 	 -106.331 	 46.247 	 -87.385 	 
C 	 -106.886 	 45.2791 	 -85.4592 	 
H 	 -107.397 	 44.4826 	 -85.9763 	 
H 	 -107.617 	 46.0686 	 -85.3118 	 
C 	 -106.193 	 44.8099 	 -84.1737 	 
H 	 -105.424 	 44.1293 	 -84.2701 	 
H 	 -107.004 	 44.4072 	 -83.5159 	 
H 	 -105.637 	 45.5804 	 -83.6497 	 
H 	 -100.667 	 43.5245 	 -83.6311 	 
H 	 -105.239 	 50.3229 	 -85.2769 	 
*
