! wB97X-D3 SP def2-SVP
%pal
nprocs 24
end

* xyz 0 1
S 	 -113.867 	 38.0581 	 -119.274 	 
C 	 -113.257 	 36.4594 	 -119.89 	 
C 	 -114.24 	 35.4859 	 -119.78 	 
C 	 -115.509 	 36.0844 	 -119.358 	 
C 	 -115.516 	 37.4216 	 -119.133 	 
H 	 -116.415 	 35.4817 	 -119.13 	 
C 	 -113.964 	 34.0465 	 -120.093 	 
H 	 -113.16 	 33.7149 	 -119.528 	 
H 	 -113.649 	 33.9801 	 -121.165 	 
C 	 -115.175 	 33.0879 	 -119.948 	 
H 	 -115.61 	 33.2361 	 -119.008 	 
H 	 -115.94 	 33.4119 	 -120.672 	 
C 	 -114.896 	 31.5916 	 -120.074 	 
H 	 -114.109 	 31.2574 	 -120.727 	 
H 	 -114.467 	 31.319 	 -119.153 	 
H 	 -115.752 	 31.0044 	 -120.366 	 
S 	 -117.336 	 38.8993 	 -120.175 	 
C 	 -118.734 	 39.4648 	 -119.196 	 
C 	 -118.776 	 38.9277 	 -117.957 	 
C 	 -117.537 	 38.1873 	 -117.671 	 
C 	 -116.692 	 38.1914 	 -118.759 	 
H 	 -119.572 	 39.2239 	 -117.293 	 
C 	 -117.263 	 37.4741 	 -116.354 	 
H 	 -117.17 	 38.2142 	 -115.541 	 
H 	 -116.325 	 36.9161 	 -116.409 	 
C 	 -118.443 	 36.5911 	 -115.945 	 
H 	 -118.719 	 35.9549 	 -116.811 	 
H 	 -119.344 	 37.1419 	 -115.606 	 
C 	 -118.007 	 35.6429 	 -114.906 	 
H 	 -118.853 	 34.9909 	 -114.794 	 
H 	 -117.941 	 36.2075 	 -114.03 	 
H 	 -117.098 	 35.1004 	 -115.084 	 
H 	 -112.324 	 36.2061 	 -120.195 	 
H 	 -119.499 	 40.0772 	 -119.661 	 
*
