! wB97X-D3 SP def2-SVP
%pal
nprocs 24
end

* xyz 0 1
S 	 21.1575 	 -5.18464 	 -111.485 	 
C 	 21.5973 	 -6.18222 	 -110.141 	 
C 	 21.065 	 -7.49443 	 -110.317 	 
C 	 20.1998 	 -7.55653 	 -111.422 	 
C 	 20.2367 	 -6.47374 	 -112.218 	 
H 	 19.6064 	 -8.37114 	 -111.644 	 
C 	 21.393 	 -8.66814 	 -109.532 	 
H 	 20.4927 	 -9.16749 	 -109.309 	 
H 	 21.7144 	 -8.1501 	 -108.63 	 
C 	 22.4056 	 -9.67286 	 -109.986 	 
H 	 23.3388 	 -9.18074 	 -110.127 	 
H 	 22.6229 	 -10.35 	 -109.198 	 
C 	 21.9994 	 -10.3288 	 -111.335 	 
H 	 22.2338 	 -9.73874 	 -112.2 	 
H 	 22.4867 	 -11.2242 	 -111.471 	 
H 	 20.9739 	 -10.6254 	 -111.394 	 
S 	 20.7 	 -5.86336 	 -114.846 	 
C 	 19.4025 	 -5.84306 	 -115.962 	 
C 	 18.2193 	 -6.32675 	 -115.388 	 
C 	 18.3602 	 -6.63927 	 -114.006 	 
C 	 19.6405 	 -6.31785 	 -113.53 	 
H 	 17.2738 	 -6.34631 	 -115.922 	 
C 	 17.2069 	 -7.15475 	 -113.19 	 
H 	 17.4975 	 -7.07267 	 -112.149 	 
H 	 17.0347 	 -8.25226 	 -113.303 	 
C 	 15.873 	 -6.34976 	 -113.137 	 
H 	 15.3709 	 -6.32304 	 -114.066 	 
H 	 16.1398 	 -5.34851 	 -112.812 	 
C 	 14.8117 	 -7.06381 	 -112.21 	 
H 	 15.1413 	 -6.97147 	 -111.162 	 
H 	 14.5474 	 -8.14128 	 -112.47 	 
H 	 13.8103 	 -6.64921 	 -112.322 	 
H 	 22.2682 	 -6.05243 	 -109.268 	 
H 	 19.5663 	 -5.5015 	 -116.998 	 
*
