! wB97X-D3 SP def2-SVP
%pal
nprocs 24
end

* xyz 0 1
S 	 40.5394 	 -15.486 	 -122.098 	 
C 	 40.486 	 -14.1466 	 -120.86 	 
C 	 41.7215 	 -14.0114 	 -120.367 	 
C 	 42.7258 	 -14.972 	 -120.841 	 
C 	 42.249 	 -15.7718 	 -121.813 	 
H 	 43.7841 	 -15.0375 	 -120.382 	 
C 	 42.1826 	 -12.9674 	 -119.364 	 
H 	 42.6428 	 -13.3792 	 -118.442 	 
H 	 41.2746 	 -12.5722 	 -119.013 	 
C 	 43.1234 	 -11.8751 	 -119.958 	 
H 	 42.6948 	 -11.4164 	 -120.895 	 
H 	 43.0951 	 -10.9796 	 -119.288 	 
C 	 44.5848 	 -12.3537 	 -120.159 	 
H 	 44.7663 	 -12.9631 	 -121.076 	 
H 	 45.1044 	 -11.475 	 -120.35 	 
H 	 44.9549 	 -12.8943 	 -119.238 	 
S 	 42.1577 	 -18.3429 	 -122.716 	 
C 	 43.5937 	 -19.1626 	 -123.084 	 
C 	 44.5695 	 -18.3073 	 -123.36 	 
C 	 44.3078 	 -16.9329 	 -122.961 	 
C 	 42.9588 	 -16.8064 	 -122.574 	 
H 	 45.5858 	 -18.7206 	 -123.548 	 
C 	 45.326 	 -15.8106 	 -123.154 	 
H 	 46.2159 	 -16.257 	 -123.639 	 
H 	 45.8061 	 -15.4219 	 -122.227 	 
C 	 44.931 	 -14.6715 	 -124.062 	 
H 	 43.9593 	 -14.2666 	 -123.752 	 
H 	 44.6731 	 -15.1341 	 -125.002 	 
C 	 46.0621 	 -13.6827 	 -124.162 	 
H 	 45.7983 	 -12.8446 	 -124.864 	 
H 	 46.8928 	 -14.1659 	 -124.639 	 
H 	 46.3385 	 -13.2408 	 -123.22 	 
H 	 39.6879 	 -13.5308 	 -120.432 	 
H 	 43.6463 	 -20.2407 	 -123.097 	 
*
