! wB97X-D3 SP def2-SVP
%pal
nprocs 24
end

* xyz 0 1
S 	 -76.2858 	 5.15742 	 -103.765 	 
C 	 -77.5471 	 6.3462 	 -103.853 	 
C 	 -77.5641 	 6.99285 	 -105.071 	 
C 	 -76.4267 	 6.57111 	 -105.926 	 
C 	 -75.6681 	 5.54773 	 -105.427 	 
H 	 -76.2268 	 7.03903 	 -106.846 	 
C 	 -78.5528 	 8.02342 	 -105.527 	 
H 	 -78.9255 	 8.56503 	 -104.588 	 
H 	 -79.3769 	 7.43564 	 -105.965 	 
C 	 -78.0757 	 8.96558 	 -106.629 	 
H 	 -77.7324 	 8.48118 	 -107.535 	 
H 	 -78.8236 	 9.60923 	 -107 	 
C 	 -77.023 	 9.9282 	 -106.041 	 
H 	 -76.1176 	 9.3459 	 -105.672 	 
H 	 -76.612 	 10.4655 	 -106.928 	 
H 	 -77.2579 	 10.5315 	 -105.165 	 
S 	 -73.2572 	 4.4382 	 -104.546 	 
C 	 -71.8437 	 4.32663 	 -105.509 	 
C 	 -72.1086 	 4.94006 	 -106.697 	 
C 	 -73.477 	 5.38855 	 -106.905 	 
C 	 -74.2858 	 5.15289 	 -105.805 	 
H 	 -71.2611 	 4.94372 	 -107.405 	 
C 	 -73.9197 	 6.20353 	 -108.129 	 
H 	 -72.9895 	 6.37865 	 -108.728 	 
H 	 -74.29 	 7.09617 	 -107.71 	 
C 	 -74.7829 	 5.37153 	 -109.059 	 
H 	 -75.7763 	 5.41641 	 -108.539 	 
H 	 -74.5021 	 4.29321 	 -109.033 	 
C 	 -74.917 	 5.8016 	 -110.572 	 
H 	 -74.7826 	 6.93658 	 -110.687 	 
H 	 -75.97 	 5.62086 	 -110.963 	 
H 	 -74.2174 	 5.32063 	 -111.23 	 
H 	 -78.2634 	 6.64314 	 -103.137 	 
H 	 -70.8926 	 3.7162 	 -105.346 	 
*
