! wB97X-D3 SP def2-SVP
%pal
nprocs 24
end

* xyz 0 1
S 	 -38.9173 	 8.93197 	 31.1768 	 
C 	 -39.5895 	 9.2621 	 32.7773 	 
C 	 -39.5084 	 8.14081 	 33.5909 	 
C 	 -39.2543 	 6.95014 	 32.7712 	 
C 	 -39.0677 	 7.24056 	 31.4652 	 
H 	 -39.2373 	 5.97992 	 33.2443 	 
C 	 -39.9493 	 8.14645 	 35.0691 	 
H 	 -39.6259 	 9.10061 	 35.5702 	 
H 	 -39.2342 	 7.43169 	 35.474 	 
C 	 -41.4277 	 7.8482 	 35.3309 	 
H 	 -42.0396 	 8.57875 	 34.7745 	 
H 	 -41.6352 	 6.81546 	 35.0153 	 
C 	 -41.8082 	 8.02164 	 36.7014 	 
H 	 -41.4861 	 9.02822 	 36.9689 	 
H 	 -42.9122 	 7.80875 	 36.7194 	 
H 	 -41.182 	 7.44468 	 37.453 	 
S 	 -37.2459 	 6.29934 	 29.6336 	 
C 	 -37.5852 	 4.85174 	 28.7509 	 
C 	 -38.707 	 4.22657 	 29.2225 	 
C 	 -39.3638 	 4.91306 	 30.2778 	 
C 	 -38.7542 	 6.15696 	 30.5035 	 
H 	 -39.1434 	 3.38692 	 28.7091 	 
C 	 -40.697 	 4.38131 	 30.8598 	 
H 	 -41.5706 	 4.58681 	 30.1454 	 
H 	 -40.8739 	 5.04246 	 31.7102 	 
C 	 -40.7447 	 2.91561 	 31.4108 	 
H 	 -40.6985 	 2.2387 	 30.5275 	 
H 	 -41.6795 	 2.68106 	 31.9575 	 
C 	 -39.5883 	 2.56267 	 32.4183 	 
H 	 -39.9738 	 2.23692 	 33.3903 	 
H 	 -38.9607 	 3.39927 	 32.7524 	 
H 	 -38.9578 	 1.74691 	 31.9554 	 
H 	 -39.829 	 10.2453 	 33.1866 	 
H 	 -36.8617 	 4.51373 	 28.0222 	 
*
