! wB97X-D3 SP def2-SVP
%pal
nprocs 24
end

* xyz 0 1
S 	 -106.335 	 60.4629 	 -17.5002 	 
C 	 -107.15 	 61.8814 	 -16.9204 	 
C 	 -108.548 	 61.7375 	 -16.8475 	 
C 	 -108.931 	 60.3567 	 -17.0754 	 
C 	 -107.853 	 59.5662 	 -17.4317 	 
H 	 -109.841 	 59.8061 	 -16.887 	 
C 	 -109.625 	 62.7169 	 -16.4111 	 
H 	 -110.596 	 62.5752 	 -16.8278 	 
H 	 -109.219 	 63.6901 	 -16.6963 	 
C 	 -109.694 	 62.849 	 -14.9446 	 
H 	 -109.945 	 61.8369 	 -14.6619 	 
H 	 -108.69 	 63.0042 	 -14.4358 	 
C 	 -110.594 	 63.9406 	 -14.3023 	 
H 	 -111.585 	 63.6366 	 -14.5966 	 
H 	 -110.673 	 63.9784 	 -13.2341 	 
H 	 -110.478 	 64.9502 	 -14.6033 	 
S 	 -108.761 	 57.3256 	 -18.5181 	 
C 	 -108.184 	 55.7285 	 -17.8666 	 
C 	 -107.51 	 55.9059 	 -16.7043 	 
C 	 -107.271 	 57.2945 	 -16.363 	 
C 	 -107.853 	 58.1418 	 -17.31 	 
H 	 -107.12 	 55.1061 	 -16.0767 	 
C 	 -106.489 	 57.6733 	 -15.0669 	 
H 	 -106.78 	 57.1977 	 -14.1544 	 
H 	 -106.723 	 58.7567 	 -14.938 	 
C 	 -105.005 	 57.5672 	 -15.2117 	 
H 	 -104.707 	 58.0402 	 -16.183 	 
H 	 -104.722 	 56.4557 	 -15.2795 	 
C 	 -104.227 	 58.0944 	 -14.0088 	 
H 	 -104.485 	 59.0879 	 -13.7648 	 
H 	 -103.185 	 58.1679 	 -14.2908 	 
H 	 -104.315 	 57.5614 	 -13.1027 	 
H 	 -106.664 	 62.8421 	 -16.6716 	 
H 	 -108.312 	 54.7676 	 -18.383 	 
*
