! wB97X-D3 SP def2-SVP
%pal
nprocs 24
end

* xyz 0 1
S 	 -103.009 	 13.743 	 -121.303 	 
C 	 -101.698 	 14.8965 	 -121.297 	 
C 	 -100.611 	 14.4155 	 -122.011 	 
C 	 -100.825 	 13.0608 	 -122.491 	 
C 	 -102.051 	 12.4564 	 -122.109 	 
H 	 -100.133 	 12.4335 	 -123.023 	 
C 	 -99.3699 	 15.1406 	 -122.388 	 
H 	 -98.6718 	 14.4347 	 -122.636 	 
H 	 -99.0161 	 15.5568 	 -121.463 	 
C 	 -99.4861 	 16.2346 	 -123.487 	 
H 	 -100.302 	 15.91 	 -124.114 	 
H 	 -99.8411 	 17.0517 	 -122.836 	 
C 	 -98.1461 	 16.6568 	 -124.183 	 
H 	 -97.9973 	 15.9595 	 -124.991 	 
H 	 -98.276 	 17.7108 	 -124.406 	 
H 	 -97.2154 	 16.55 	 -123.589 	 
S 	 -103.678 	 10.8523 	 -123.559 	 
C 	 -103.424 	 9.1254 	 -123.583 	 
C 	 -102.482 	 8.8143 	 -122.607 	 
C 	 -101.907 	 9.87959 	 -121.941 	 
C 	 -102.418 	 11.0707 	 -122.391 	 
H 	 -102.143 	 7.78175 	 -122.485 	 
C 	 -100.699 	 9.70268 	 -121.018 	 
H 	 -100.625 	 10.5082 	 -120.317 	 
H 	 -99.8275 	 9.77115 	 -121.611 	 
C 	 -100.55 	 8.41773 	 -120.219 	 
H 	 -99.5224 	 8.47143 	 -119.729 	 
H 	 -100.442 	 7.5166 	 -120.862 	 
C 	 -101.452 	 8.17887 	 -119.05 	 
H 	 -102.499 	 7.98177 	 -119.291 	 
H 	 -101.287 	 8.91118 	 -118.324 	 
H 	 -101.142 	 7.26525 	 -118.522 	 
H 	 -101.807 	 15.9192 	 -120.944 	 
H 	 -103.909 	 8.34414 	 -124.222 	 
*
