! wB97X-D3 SP def2-SVP
%pal
nprocs 24
end

* xyz 0 1
S 	 -133.823 	 65.4208 	 -60.9454 	 
C 	 -133.605 	 67.0967 	 -61.1688 	 
C 	 -134.254 	 67.6511 	 -62.2491 	 
C 	 -135.145 	 66.6974 	 -62.7126 	 
C 	 -135.058 	 65.4384 	 -62.1578 	 
H 	 -135.829 	 66.7591 	 -63.5916 	 
C 	 -134.229 	 69.1363 	 -62.6895 	 
H 	 -133.254 	 69.5266 	 -62.4941 	 
H 	 -134.949 	 69.6309 	 -62.0841 	 
C 	 -134.466 	 69.4998 	 -64.0966 	 
H 	 -135.375 	 69.1035 	 -64.5072 	 
H 	 -134.492 	 70.5605 	 -64.1339 	 
C 	 -133.337 	 69.0486 	 -64.9445 	 
H 	 -132.449 	 69.6868 	 -64.8791 	 
H 	 -133.071 	 68.0503 	 -64.7765 	 
H 	 -133.594 	 68.9389 	 -65.9944 	 
S 	 -135.934 	 63.9655 	 -64.1681 	 
C 	 -136.732 	 62.4755 	 -63.8411 	 
C 	 -136.89 	 62.2565 	 -62.4668 	 
C 	 -136.294 	 63.2371 	 -61.6361 	 
C 	 -135.786 	 64.247 	 -62.4569 	 
H 	 -137.486 	 61.3666 	 -62.1512 	 
C 	 -136.647 	 63.3584 	 -60.1234 	 
H 	 -137.68 	 63.3801 	 -60.0858 	 
H 	 -136.314 	 64.2305 	 -59.69 	 
C 	 -136.336 	 62.2131 	 -59.2308 	 
H 	 -136.953 	 61.3631 	 -59.4389 	 
H 	 -136.544 	 62.4776 	 -58.2406 	 
C 	 -134.827 	 61.7728 	 -59.2197 	 
H 	 -134.178 	 62.506 	 -58.7206 	 
H 	 -134.549 	 61.579 	 -60.2591 	 
H 	 -134.573 	 60.9177 	 -58.6349 	 
H 	 -132.917 	 67.6641 	 -60.5432 	 
H 	 -137.254 	 61.776 	 -64.496 	 
*
