! wB97X-D3 SP def2-SVP
%pal
nprocs 24
end

* xyz 0 1
S 	 -48.4017 	 16.4365 	 26.7677 	 
C 	 -48.5817 	 15.9598 	 25.0855 	 
C 	 -48.0928 	 16.9125 	 24.1988 	 
C 	 -47.3018 	 17.8775 	 24.9138 	 
C 	 -47.2982 	 17.7389 	 26.3097 	 
H 	 -46.7515 	 18.6459 	 24.3371 	 
C 	 -48.1256 	 16.8631 	 22.6993 	 
H 	 -48.2265 	 15.7296 	 22.6328 	 
H 	 -47.2086 	 17.2824 	 22.3227 	 
C 	 -49.1879 	 17.6085 	 21.9268 	 
H 	 -49.0519 	 18.6892 	 21.9928 	 
H 	 -48.9716 	 17.4127 	 20.9091 	 
C 	 -50.5811 	 17.1838 	 22.2458 	 
H 	 -50.8334 	 17.3403 	 23.2512 	 
H 	 -51.411 	 17.7552 	 21.797 	 
H 	 -50.8213 	 16.1566 	 22.0283 	 
S 	 -47.3908 	 20.0647 	 27.7742 	 
C 	 -46.0428 	 20.4948 	 28.7217 	 
C 	 -45.0453 	 19.5965 	 28.6571 	 
C 	 -45.3444 	 18.4961 	 27.8608 	 
C 	 -46.5524 	 18.6268 	 27.1777 	 
H 	 -44.1573 	 19.69 	 29.3027 	 
C 	 -44.5172 	 17.2274 	 27.9039 	 
H 	 -43.4622 	 17.3433 	 27.743 	 
H 	 -44.8545 	 16.5043 	 27.1205 	 
C 	 -44.8063 	 16.3215 	 29.1005 	 
H 	 -44.652 	 16.7979 	 30.0699 	 
H 	 -44.0302 	 15.5519 	 29.1949 	 
C 	 -46.1736 	 15.6893 	 29.2228 	 
H 	 -46.972 	 16.4545 	 29.1684 	 
H 	 -46.3374 	 15.0926 	 30.1597 	 
H 	 -46.4532 	 14.9364 	 28.5092 	 
H 	 -49.1755 	 15.1432 	 24.8186 	 
H 	 -45.9001 	 21.462 	 29.1148 	 
*
