! wB97X-D3 SP def2-SVP
%pal
nprocs 24
end

* xyz 0 1
S 	 -31.9516 	 -36.2573 	 -91.8483 	 
C 	 -31.5029 	 -34.5877 	 -91.9807 	 
C 	 -32.0889 	 -33.7714 	 -91.0022 	 
C 	 -32.8646 	 -34.5756 	 -90.1412 	 
C 	 -32.9432 	 -35.943 	 -90.4111 	 
H 	 -33.3202 	 -34.3171 	 -89.227 	 
C 	 -31.6539 	 -32.343 	 -90.7589 	 
H 	 -32.4867 	 -31.7994 	 -90.428 	 
H 	 -31.2235 	 -32.0354 	 -91.7037 	 
C 	 -30.5395 	 -32.0607 	 -89.6719 	 
H 	 -30.4565 	 -30.9061 	 -89.7883 	 
H 	 -30.9885 	 -32.1219 	 -88.635 	 
C 	 -29.1459 	 -32.7635 	 -89.8895 	 
H 	 -29.2784 	 -33.7926 	 -89.9242 	 
H 	 -28.5004 	 -32.5678 	 -90.7843 	 
H 	 -28.4496 	 -32.5524 	 -89.0447 	 
S 	 -32.7114 	 -38.6304 	 -89.6929 	 
C 	 -33.8839 	 -39.2964 	 -88.643 	 
C 	 -34.8777 	 -38.4213 	 -88.2694 	 
C 	 -34.6406 	 -37.0841 	 -88.8196 	 
C 	 -33.5113 	 -37.0414 	 -89.5996 	 
H 	 -35.6665 	 -38.8084 	 -87.7015 	 
C 	 -35.6262 	 -35.9487 	 -88.5326 	 
H 	 -35.0776 	 -35.1243 	 -88.0331 	 
H 	 -36.3379 	 -36.3139 	 -87.7383 	 
C 	 -36.4742 	 -35.3611 	 -89.6894 	 
H 	 -35.9349 	 -35.1212 	 -90.5116 	 
H 	 -37.0735 	 -34.5271 	 -89.2458 	 
C 	 -37.4902 	 -36.3295 	 -90.1415 	 
H 	 -36.9892 	 -37.0158 	 -90.806 	 
H 	 -38.2409 	 -35.9006 	 -90.7433 	 
H 	 -38.0705 	 -36.8581 	 -89.2755 	 
H 	 -30.9542 	 -34.2463 	 -92.7697 	 
H 	 -33.7996 	 -40.3049 	 -88.1781 	 
*
