! wB97X-D3 SP def2-SVP
%pal
nprocs 24
end

* xyz 0 1
S 	 -106.909 	 46.9032 	 -8.28295 	 
C 	 -107.892 	 47.0715 	 -6.90329 	 
C 	 -109.018 	 46.3216 	 -7.03959 	 
C 	 -109.212 	 45.8683 	 -8.36605 	 
C 	 -108.036 	 45.8673 	 -9.12041 	 
H 	 -110.155 	 45.4807 	 -8.84785 	 
C 	 -110.019 	 46.1391 	 -5.94955 	 
H 	 -109.455 	 45.9479 	 -5.02604 	 
H 	 -110.507 	 45.1887 	 -6.1471 	 
C 	 -110.96 	 47.346 	 -5.94683 	 
H 	 -111.513 	 47.2008 	 -5.00509 	 
H 	 -110.415 	 48.2883 	 -5.8844 	 
C 	 -111.904 	 47.4964 	 -7.1521 	 
H 	 -112.717 	 48.1189 	 -6.93338 	 
H 	 -111.347 	 47.7375 	 -8.09108 	 
H 	 -112.355 	 46.428 	 -7.33617 	 
S 	 -108.036 	 43.9469 	 -11.1706 	 
C 	 -107.439 	 44.3602 	 -12.7747 	 
C 	 -107.477 	 45.7421 	 -12.947 	 
C 	 -107.742 	 46.4402 	 -11.7141 	 
C 	 -107.921 	 45.5899 	 -10.5783 	 
H 	 -107.201 	 46.099 	 -13.9494 	 
C 	 -107.554 	 47.941 	 -11.6224 	 
H 	 -106.698 	 48.146 	 -12.2746 	 
H 	 -107.214 	 48.2313 	 -10.6654 	 
C 	 -108.767 	 48.7579 	 -12.0569 	 
H 	 -108.602 	 49.7807 	 -12.2194 	 
H 	 -109.58 	 48.6748 	 -11.2574 	 
C 	 -109.453 	 48.2309 	 -13.3764 	 
H 	 -110.325 	 48.8459 	 -13.5151 	 
H 	 -109.865 	 47.2741 	 -13.2078 	 
H 	 -108.784 	 48.1921 	 -14.2613 	 
H 	 -107.58 	 47.5402 	 -5.94966 	 
H 	 -107.257 	 43.6186 	 -13.5694 	 
*
