! wB97X-D3 SP def2-SVP
%pal
nprocs 24
end

* xyz 0 1
S 	 -36.6513 	 -7.48288 	 11.5096 	 
C 	 -35.7254 	 -6.89939 	 12.8766 	 
C 	 -36.4043 	 -5.87183 	 13.5253 	 
C 	 -37.7301 	 -5.61809 	 13.0545 	 
C 	 -38.0879 	 -6.44877 	 12.0204 	 
H 	 -38.5113 	 -5.02041 	 13.4115 	 
C 	 -35.82 	 -5.02116 	 14.662 	 
H 	 -35.3848 	 -5.63115 	 15.431 	 
H 	 -36.7804 	 -4.58099 	 15.0646 	 
C 	 -34.891 	 -3.83683 	 14.2597 	 
H 	 -34.5426 	 -3.29869 	 15.1563 	 
H 	 -33.9881 	 -4.27253 	 13.8639 	 
C 	 -35.3821 	 -2.88035 	 13.2448 	 
H 	 -35.7054 	 -3.36667 	 12.3422 	 
H 	 -36.2867 	 -2.3314 	 13.6235 	 
H 	 -34.5918 	 -2.10697 	 13.1234 	 
S 	 -40.4812 	 -7.92656 	 11.9129 	 
C 	 -41.8996 	 -7.19464 	 11.2952 	 
C 	 -41.6432 	 -5.95234 	 10.7395 	 
C 	 -40.266 	 -5.6166 	 11.0047 	 
C 	 -39.4629 	 -6.55907 	 11.558 	 
H 	 -42.4542 	 -5.4999 	 10.1683 	 
C 	 -39.7848 	 -4.24618 	 10.5636 	 
H 	 -38.8213 	 -4.1292 	 10.9402 	 
H 	 -40.3955 	 -3.40728 	 10.9727 	 
C 	 -39.6562 	 -3.98166 	 9.11971 	 
H 	 -40.585 	 -4.06334 	 8.53824 	 
H 	 -38.9319 	 -4.65556 	 8.70302 	 
C 	 -39.1691 	 -2.5879 	 8.7248 	 
H 	 -38.9521 	 -2.52665 	 7.66119 	 
H 	 -38.1829 	 -2.47735 	 9.27517 	 
H 	 -39.8293 	 -1.66669 	 8.90401 	 
H 	 -34.7046 	 -7.22714 	 13.1412 	 
H 	 -42.8938 	 -7.62123 	 11.4065 	 
*
