! wB97X-D3 SP def2-SVP
%pal
nprocs 24
end

* xyz 0 1
S 	 17.7948 	 -15.3 	 -127.035 	 
C 	 16.4853 	 -15.3343 	 -125.914 	 
C 	 16.7725 	 -14.6876 	 -124.737 	 
C 	 18.1735 	 -14.325 	 -124.697 	 
C 	 18.8349 	 -14.6777 	 -125.841 	 
H 	 18.6889 	 -13.9705 	 -123.851 	 
C 	 15.7593 	 -14.5066 	 -123.627 	 
H 	 14.9969 	 -15.2776 	 -123.745 	 
H 	 15.1315 	 -13.5908 	 -123.725 	 
C 	 16.3681 	 -14.6284 	 -122.171 	 
H 	 17.0922 	 -15.4788 	 -122.056 	 
H 	 17.0198 	 -13.7366 	 -122.049 	 
C 	 15.2736 	 -14.6122 	 -121.144 	 
H 	 14.5697 	 -13.7388 	 -121.259 	 
H 	 14.619 	 -15.5154 	 -121.171 	 
H 	 15.6689 	 -14.6708 	 -120.099 	 
S 	 21.2637 	 -15.7683 	 -126.118 	 
C 	 22.6821 	 -14.8426 	 -126.172 	 
C 	 22.4462 	 -13.5011 	 -125.95 	 
C 	 21.0372 	 -13.2366 	 -125.834 	 
C 	 20.26 	 -14.3343 	 -126.043 	 
H 	 23.2942 	 -12.8875 	 -125.829 	 
C 	 20.5973 	 -11.8125 	 -125.382 	 
H 	 21.5053 	 -11.3587 	 -124.855 	 
H 	 19.815 	 -12.0446 	 -124.711 	 
C 	 20.172 	 -10.9357 	 -126.501 	 
H 	 21.0073 	 -10.8728 	 -127.146 	 
H 	 20.1095 	 -9.86487 	 -126.228 	 
C 	 18.856 	 -11.3844 	 -127.193 	 
H 	 18.3705 	 -10.6601 	 -127.886 	 
H 	 18.1658 	 -11.4246 	 -126.302 	 
H 	 18.7876 	 -12.3721 	 -127.62 	 
H 	 15.4721 	 -15.7072 	 -126.148 	 
H 	 23.6169 	 -15.2882 	 -126.226 	 
*
