! wB97X-D3 SP def2-SVP
%pal
nprocs 24
end

* xyz 0 1
S 	 -128.042 	 75.6641 	 -43.8326 	 
C 	 -129.399 	 76.8554 	 -43.8868 	 
C 	 -129.483 	 77.5085 	 -45.0233 	 
C 	 -128.334 	 77.2116 	 -45.9095 	 
C 	 -127.467 	 76.2421 	 -45.335 	 
H 	 -128.173 	 77.6367 	 -46.8376 	 
C 	 -130.615 	 78.4576 	 -45.3959 	 
H 	 -130.215 	 79.4216 	 -45.6939 	 
H 	 -130.989 	 78.8399 	 -44.3935 	 
C 	 -131.776 	 77.897 	 -46.1774 	 
H 	 -132.357 	 77.3571 	 -45.4797 	 
H 	 -132.355 	 78.8029 	 -46.4466 	 
C 	 -131.333 	 77.1709 	 -47.4344 	 
H 	 -130.8 	 77.775 	 -48.1382 	 
H 	 -130.891 	 76.1704 	 -47.2825 	 
H 	 -132.297 	 76.8855 	 -48.01 	 
S 	 -124.834 	 75.8114 	 -45.0152 	 
C 	 -123.879 	 75.108 	 -46.3107 	 
C 	 -124.502 	 75.0792 	 -47.5268 	 
C 	 -125.863 	 75.4583 	 -47.3219 	 
C 	 -126.257 	 75.7834 	 -45.9845 	 
H 	 -124.06 	 74.6951 	 -48.4149 	 
C 	 -126.695 	 75.4013 	 -48.5853 	 
H 	 -127.75 	 75.4604 	 -48.1809 	 
H 	 -126.575 	 74.475 	 -49.1641 	 
C 	 -126.447 	 76.612 	 -49.566 	 
H 	 -125.417 	 76.649 	 -50.0017 	 
H 	 -126.51 	 77.5859 	 -49.0297 	 
C 	 -127.48 	 76.7365 	 -50.6899 	 
H 	 -127.221 	 77.527 	 -51.3525 	 
H 	 -128.465 	 76.7847 	 -50.3273 	 
H 	 -127.613 	 75.91 	 -51.3844 	 
H 	 -130.279 	 76.8698 	 -43.2508 	 
H 	 -122.841 	 74.9561 	 -46.4201 	 
*
