! wB97X-D3 SP def2-SVP
%pal
nprocs 24
end

* xyz 0 1
S 	 -147.222 	 31.5582 	 -14.6832 	 
C 	 -146.813 	 30.6141 	 -16.2013 	 
C 	 -146.518 	 29.2892 	 -15.9546 	 
C 	 -146.679 	 29.0502 	 -14.5086 	 
C 	 -146.968 	 30.1695 	 -13.7192 	 
H 	 -146.51 	 28.0958 	 -14.0974 	 
C 	 -146.233 	 28.2429 	 -16.9404 	 
H 	 -145.219 	 28.4872 	 -17.5166 	 
H 	 -147.077 	 28.2398 	 -17.6248 	 
C 	 -146.064 	 26.8202 	 -16.3136 	 
H 	 -145.329 	 26.7798 	 -15.4556 	 
H 	 -146.98 	 26.5389 	 -15.8902 	 
C 	 -145.456 	 25.8702 	 -17.3427 	 
H 	 -145.075 	 25.0178 	 -16.7798 	 
H 	 -146.107 	 25.402 	 -18.0763 	 
H 	 -144.531 	 26.2687 	 -17.7706 	 
S 	 -148.872 	 30.6143 	 -11.7468 	 
C 	 -148.536 	 30.1182 	 -10.13 	 
C 	 -147.29 	 29.584 	 -9.98462 	 
C 	 -146.541 	 29.5565 	 -11.2215 	 
C 	 -147.297 	 30.097 	 -12.2745 	 
H 	 -146.986 	 29.0477 	 -9.07023 	 
C 	 -145.214 	 28.9025 	 -11.2941 	 
H 	 -144.621 	 29.2795 	 -12.1235 	 
H 	 -145.37 	 27.887 	 -11.6119 	 
C 	 -144.366 	 29.1398 	 -10.0374 	 
H 	 -143.434 	 28.5856 	 -10.1171 	 
H 	 -144.881 	 28.6946 	 -9.09291 	 
C 	 -144.052 	 30.6023 	 -9.77192 	 
H 	 -143.53 	 31.0104 	 -10.6062 	 
H 	 -143.387 	 30.6982 	 -8.93161 	 
H 	 -144.928 	 31.2308 	 -9.67499 	 
H 	 -146.79 	 30.8789 	 -17.2191 	 
H 	 -149.257 	 30.163 	 -9.33766 	 
*
