! wB97X-D3 SP def2-SVP
%pal
nprocs 24
end

* xyz 0 1
S 	 -101.243 	 6.62376 	 -122.774 	 
C 	 -101.429 	 5.72355 	 -124.243 	 
C 	 -102.727 	 5.24876 	 -124.356 	 
C 	 -103.53 	 5.46123 	 -123.224 	 
C 	 -102.88 	 6.22889 	 -122.214 	 
H 	 -104.563 	 5.10075 	 -122.976 	 
C 	 -103.169 	 4.44551 	 -125.507 	 
H 	 -102.896 	 5.05275 	 -126.332 	 
H 	 -104.263 	 4.45014 	 -125.552 	 
C 	 -102.593 	 3.00637 	 -125.64 	 
H 	 -101.487 	 3.08441 	 -125.593 	 
H 	 -102.843 	 2.33379 	 -124.748 	 
C 	 -103.034 	 2.49878 	 -127.021 	 
H 	 -102.611 	 3.12822 	 -127.75 	 
H 	 -102.716 	 1.50902 	 -127.169 	 
H 	 -104.06 	 2.54909 	 -127.177 	 
S 	 -105.162 	 6.89371 	 -120.95 	 
C 	 -105.096 	 7.26737 	 -119.292 	 
C 	 -103.821 	 7.24165 	 -118.736 	 
C 	 -102.883 	 6.68144 	 -119.643 	 
C 	 -103.444 	 6.56944 	 -120.909 	 
H 	 -103.699 	 7.53862 	 -117.694 	 
C 	 -101.445 	 6.3606 	 -119.204 	 
H 	 -101.233 	 5.49917 	 -119.874 	 
H 	 -101.262 	 6.14408 	 -118.152 	 
C 	 -100.617 	 7.58193 	 -119.408 	 
H 	 -101.014 	 8.50608 	 -118.94 	 
H 	 -100.546 	 8.0102 	 -120.42 	 
C 	 -99.1669 	 7.3745 	 -118.834 	 
H 	 -98.5613 	 8.19856 	 -118.976 	 
H 	 -98.6908 	 6.50913 	 -119.275 	 
H 	 -99.1485 	 7.11218 	 -117.766 	 
H 	 -100.616 	 5.45434 	 -124.879 	 
H 	 -105.878 	 7.84531 	 -118.873 	 
*
