! wB97X-D3 SP def2-SVP
%pal
nprocs 24
end

* xyz 0 1
S 	 -82.8091 	 -36.3168 	 -77.7145 	 
C 	 -82.2356 	 -36.4147 	 -79.4232 	 
C 	 -82.7083 	 -35.3304 	 -80.1295 	 
C 	 -83.4828 	 -34.4255 	 -79.3548 	 
C 	 -83.6787 	 -34.8471 	 -78.0426 	 
H 	 -83.8791 	 -33.4784 	 -79.5765 	 
C 	 -82.5057 	 -35.1549 	 -81.6264 	 
H 	 -83.4963 	 -35.033 	 -82.1183 	 
H 	 -82.1645 	 -36.0571 	 -82.0324 	 
C 	 -81.6291 	 -33.9888 	 -82.1121 	 
H 	 -81.9011 	 -33.9054 	 -83.1773 	 
H 	 -81.895 	 -33.0249 	 -81.5975 	 
C 	 -80.1386 	 -34.2767 	 -82.0045 	 
H 	 -79.4999 	 -33.3885 	 -81.9472 	 
H 	 -80.0377 	 -34.8407 	 -81.0933 	 
H 	 -79.8147 	 -34.8606 	 -82.8006 	 
S 	 -85.8012 	 -35.3491 	 -76.3556 	 
C 	 -86.5669 	 -34.1028 	 -75.4403 	 
C 	 -85.8686 	 -32.896 	 -75.6819 	 
C 	 -84.7689 	 -33.0036 	 -76.6521 	 
C 	 -84.6177 	 -34.2817 	 -77.0658 	 
H 	 -86.2033 	 -32.0694 	 -75.0854 	 
C 	 -83.9421 	 -31.8059 	 -77.084 	 
H 	 -84.5117 	 -30.9621 	 -76.7336 	 
H 	 -83.9003 	 -31.7319 	 -78.1061 	 
C 	 -82.4519 	 -31.7653 	 -76.6644 	 
H 	 -81.8908 	 -32.2692 	 -77.4686 	 
H 	 -82.2042 	 -32.4511 	 -75.7837 	 
C 	 -81.8437 	 -30.3455 	 -76.5111 	 
H 	 -81.9466 	 -29.7172 	 -77.4357 	 
H 	 -80.7821 	 -30.3831 	 -76.3732 	 
H 	 -82.3113 	 -29.6827 	 -75.7064 	 
H 	 -81.7436 	 -37.261 	 -79.8319 	 
H 	 -87.387 	 -34.3063 	 -74.6954 	 
*
