! wB97X-D3 SP def2-SVP
%pal
nprocs 24
end

* xyz 0 1
S 	 17.6097 	 -17.3154 	 -117.831 	 
C 	 16.6759 	 -15.9149 	 -118.377 	 
C 	 16.2015 	 -16.0538 	 -119.676 	 
C 	 16.6501 	 -17.2407 	 -120.304 	 
C 	 17.4085 	 -18.0768 	 -119.457 	 
H 	 16.4204 	 -17.4946 	 -121.316 	 
C 	 15.3823 	 -14.9643 	 -120.373 	 
H 	 15.278 	 -14.1234 	 -119.565 	 
H 	 14.3369 	 -15.181 	 -120.572 	 
C 	 16.1838 	 -14.2465 	 -121.512 	 
H 	 17.1581 	 -13.8566 	 -121.103 	 
H 	 16.4263 	 -15.0083 	 -122.342 	 
C 	 15.4884 	 -13.0919 	 -122.116 	 
H 	 16.2229 	 -12.659 	 -122.794 	 
H 	 14.7159 	 -13.3902 	 -122.785 	 
H 	 15.0587 	 -12.3807 	 -121.446 	 
S 	 18.2808 	 -19.8419 	 -121.273 	 
C 	 18.3923 	 -21.5106 	 -120.859 	 
C 	 17.8316 	 -21.8133 	 -119.618 	 
C 	 17.5372 	 -20.5899 	 -118.884 	 
C 	 17.768 	 -19.4612 	 -119.697 	 
H 	 17.8248 	 -22.7954 	 -119.129 	 
C 	 16.9116 	 -20.6145 	 -117.498 	 
H 	 15.8669 	 -20.342 	 -117.597 	 
H 	 17.2424 	 -19.7828 	 -116.877 	 
C 	 17.0505 	 -21.9502 	 -116.707 	 
H 	 18.0697 	 -22.2158 	 -116.882 	 
H 	 16.4189 	 -22.7531 	 -117.152 	 
C 	 16.6746 	 -21.986 	 -115.206 	 
H 	 16.6147 	 -23.0476 	 -114.891 	 
H 	 15.6704 	 -21.722 	 -115.081 	 
H 	 17.2883 	 -21.3419 	 -114.538 	 
H 	 16.5119 	 -15.0188 	 -117.717 	 
H 	 18.7858 	 -22.2265 	 -121.432 	 
*
