! wB97X-D3 SP def2-SVP
%pal
nprocs 24
end

* xyz 0 1
S 	 -56.0449 	 5.19915 	 -22.4278 	 
C 	 -57.2888 	 5.30481 	 -21.2555 	 
C 	 -58.2994 	 4.28745 	 -21.4839 	 
C 	 -57.8434 	 3.44505 	 -22.5591 	 
C 	 -56.6936 	 3.78342 	 -23.1575 	 
H 	 -58.3494 	 2.58669 	 -22.8988 	 
C 	 -59.6536 	 3.97864 	 -20.8062 	 
H 	 -59.4405 	 3.46129 	 -19.8243 	 
H 	 -60.0897 	 3.17386 	 -21.3527 	 
C 	 -60.7 	 5.07783 	 -20.719 	 
H 	 -60.2119 	 5.99003 	 -20.1994 	 
H 	 -60.8426 	 5.37078 	 -21.7502 	 
C 	 -61.9392 	 4.61217 	 -19.9761 	 
H 	 -62.708 	 5.11168 	 -20.4597 	 
H 	 -62.2642 	 3.5969 	 -20.114 	 
H 	 -61.8922 	 4.84559 	 -18.9348 	 
S 	 -55.9141 	 1.45837 	 -24.2323 	 
C 	 -54.9612 	 1.35884 	 -25.6706 	 
C 	 -54.8454 	 2.57244 	 -26.2466 	 
C 	 -55.4829 	 3.64263 	 -25.5139 	 
C 	 -56.0748 	 3.19535 	 -24.3233 	 
H 	 -54.2471 	 2.72082 	 -27.1617 	 
C 	 -55.4879 	 5.08006 	 -25.9768 	 
H 	 -54.7504 	 5.24992 	 -26.7553 	 
H 	 -55.0447 	 5.53931 	 -25.1625 	 
C 	 -56.9119 	 5.70353 	 -26.3008 	 
H 	 -56.7019 	 6.78876 	 -26.4062 	 
H 	 -57.6599 	 5.53424 	 -25.528 	 
C 	 -57.5624 	 5.04734 	 -27.5292 	 
H 	 -57.5929 	 3.95264 	 -27.3129 	 
H 	 -57.0212 	 5.30011 	 -28.4174 	 
H 	 -58.5297 	 5.42585 	 -27.5941 	 
H 	 -57.5165 	 6.08586 	 -20.506 	 
H 	 -54.6534 	 0.431699 	 -26.0758 	 
*
