! wB97X-D3 SP def2-SVP
%pal
nprocs 24
end

* xyz 0 1
S 	 -119.53 	 62.9929 	 -62.7693 	 
C 	 -120.165 	 61.8725 	 -63.9892 	 
C 	 -121.386 	 61.3173 	 -63.6457 	 
C 	 -121.655 	 61.5912 	 -62.2319 	 
C 	 -120.639 	 62.2552 	 -61.5436 	 
H 	 -122.465 	 61.2753 	 -61.6185 	 
C 	 -122.358 	 60.5984 	 -64.565 	 
H 	 -122.216 	 59.579 	 -64.1783 	 
H 	 -122.022 	 60.6888 	 -65.5782 	 
C 	 -123.826 	 60.9307 	 -64.5297 	 
H 	 -124.177 	 60.6982 	 -63.4387 	 
H 	 -123.882 	 62.0098 	 -64.8434 	 
C 	 -124.68 	 60.0265 	 -65.4708 	 
H 	 -124.519 	 58.986 	 -65.2011 	 
H 	 -125.704 	 60.2637 	 -65.4153 	 
H 	 -124.465 	 60.2253 	 -66.5246 	 
S 	 -121.327 	 64.3166 	 -59.8118 	 
C 	 -120.981 	 64.1852 	 -58.088 	 
C 	 -120.465 	 62.961 	 -57.874 	 
C 	 -120.407 	 62.0554 	 -59.0177 	 
C 	 -120.671 	 62.7056 	 -60.1748 	 
H 	 -120.237 	 62.7986 	 -56.8525 	 
C 	 -119.989 	 60.6145 	 -58.8021 	 
H 	 -120.716 	 60.0615 	 -59.3151 	 
H 	 -120.191 	 60.1965 	 -57.8252 	 
C 	 -118.606 	 60.1576 	 -59.2461 	 
H 	 -118.461 	 60.4887 	 -60.3639 	 
H 	 -118.507 	 59.1206 	 -59.199 	 
C 	 -117.501 	 60.8079 	 -58.3546 	 
H 	 -117.329 	 61.8606 	 -58.4226 	 
H 	 -116.594 	 60.2381 	 -58.699 	 
H 	 -117.694 	 60.5863 	 -57.2669 	 
H 	 -119.811 	 61.6667 	 -64.983 	 
H 	 -121.2 	 64.871 	 -57.2815 	 
*
