! wB97X-D3 SP def2-SVP
%pal
nprocs 24
end

* xyz 0 1
S 	 -54.0555 	 19.8521 	 28.2548 	 
C 	 -52.9815 	 19.7442 	 26.8664 	 
C 	 -51.7444 	 19.0507 	 27.185 	 
C 	 -51.8446 	 18.5986 	 28.5433 	 
C 	 -53.0702 	 18.6942 	 29.141 	 
H 	 -51.0732 	 17.9675 	 29.0489 	 
C 	 -50.6088 	 19.0349 	 26.2095 	 
H 	 -49.7425 	 19.1303 	 26.7976 	 
H 	 -50.6891 	 19.8363 	 25.5317 	 
C 	 -50.4945 	 17.7134 	 25.3399 	 
H 	 -51.4674 	 17.6797 	 24.8719 	 
H 	 -49.7844 	 17.7478 	 24.5029 	 
C 	 -50.1865 	 16.3451 	 26.0523 	 
H 	 -50.9739 	 15.8461 	 26.6278 	 
H 	 -49.8397 	 15.6185 	 25.3512 	 
H 	 -49.4206 	 16.5175 	 26.823 	 
S 	 -53.3791 	 19.3255 	 31.8075 	 
C 	 -53.7824 	 18.1098 	 32.9752 	 
C 	 -54.0989 	 16.9114 	 32.3095 	 
C 	 -53.8356 	 16.9007 	 30.903 	 
C 	 -53.4122 	 18.1778 	 30.4365 	 
H 	 -54.6944 	 16.1513 	 32.7945 	 
C 	 -54.226 	 15.7577 	 29.9587 	 
H 	 -55.106 	 16.104 	 29.4542 	 
H 	 -54.6346 	 14.9609 	 30.6222 	 
C 	 -53.1561 	 15.2317 	 28.9917 	 
H 	 -52.4094 	 14.5672 	 29.3849 	 
H 	 -52.7623 	 16.1169 	 28.5194 	 
C 	 -53.7487 	 14.3934 	 27.8989 	 
H 	 -54.7693 	 14.6758 	 27.7373 	 
H 	 -53.844 	 13.3174 	 28.0914 	 
H 	 -53.2388 	 14.4737 	 26.867 	 
H 	 -53.2175 	 20.1533 	 25.959 	 
H 	 -53.7724 	 18.2598 	 34.0141 	 
*
