! wB97X-D3 SP def2-SVP
%pal
nprocs 24
end

* xyz 0 1
S 	 -100.639 	 43.8946 	 -91.5315 	 
C 	 -100.84 	 42.2333 	 -92.0473 	 
C 	 -101.671 	 41.5564 	 -91.0925 	 
C 	 -102.291 	 42.4591 	 -90.2061 	 
C 	 -101.846 	 43.8012 	 -90.2899 	 
H 	 -103.101 	 42.1828 	 -89.5829 	 
C 	 -101.798 	 40.0525 	 -91.0092 	 
H 	 -101.831 	 39.5469 	 -91.9607 	 
H 	 -102.779 	 39.8517 	 -90.6145 	 
C 	 -100.656 	 39.401 	 -90.1495 	 
H 	 -100.696 	 38.2886 	 -90.1405 	 
H 	 -99.7561 	 39.6201 	 -90.6617 	 
C 	 -100.628 	 39.8973 	 -88.7009 	 
H 	 -100.198 	 40.902 	 -88.7687 	 
H 	 -101.628 	 40.0519 	 -88.2546 	 
H 	 -99.8607 	 39.3036 	 -88.1654 	 
S 	 -102.657 	 46.4821 	 -90.5694 	 
C 	 -103.458 	 47.3815 	 -89.269 	 
C 	 -103.571 	 46.5563 	 -88.2196 	 
C 	 -102.944 	 45.2792 	 -88.3998 	 
C 	 -102.339 	 45.0543 	 -89.618 	 
H 	 -104.132 	 46.8968 	 -87.2417 	 
C 	 -102.898 	 44.2633 	 -87.2183 	 
H 	 -103.222 	 43.2223 	 -87.3768 	 
H 	 -103.488 	 44.5666 	 -86.4122 	 
C 	 -101.431 	 43.9749 	 -86.6285 	 
H 	 -100.849 	 44.8184 	 -86.3573 	 
H 	 -100.89 	 43.4045 	 -87.3031 	 
C 	 -101.495 	 42.9724 	 -85.5043 	 
H 	 -102.199 	 43.3313 	 -84.6467 	 
H 	 -100.522 	 42.6754 	 -85.0202 	 
H 	 -101.935 	 42.0624 	 -85.829 	 
H 	 -100.186 	 41.6743 	 -92.6453 	 
H 	 -104.143 	 48.2355 	 -89.3166 	 
*
