! wB97X-D3 SP def2-SVP
%pal
nprocs 24
end

* xyz 0 1
S 	 -120.03 	 50.6545 	 -27.5972 	 
C 	 -119.433 	 49.4772 	 -28.625 	 
C 	 -120.249 	 48.3537 	 -28.6723 	 
C 	 -121.396 	 48.4903 	 -27.8808 	 
C 	 -121.429 	 49.7262 	 -27.2281 	 
H 	 -122.268 	 47.7948 	 -27.7127 	 
C 	 -119.985 	 47.1556 	 -29.54 	 
H 	 -119.946 	 46.2466 	 -28.9127 	 
H 	 -119.019 	 47.3214 	 -29.9784 	 
C 	 -120.921 	 47.0737 	 -30.7583 	 
H 	 -121.978 	 46.7515 	 -30.4382 	 
H 	 -120.999 	 48.1109 	 -31.098 	 
C 	 -120.326 	 46.1158 	 -31.7983 	 
H 	 -120.819 	 46.2635 	 -32.8061 	 
H 	 -119.295 	 46.2757 	 -32.1671 	 
H 	 -120.493 	 45.059 	 -31.4862 	 
S 	 -122.959 	 52.0035 	 -26.7599 	 
C 	 -124.354 	 51.8694 	 -25.7293 	 
C 	 -124.646 	 50.5889 	 -25.3182 	 
C 	 -123.661 	 49.651 	 -25.7751 	 
C 	 -122.612 	 50.2802 	 -26.5151 	 
H 	 -125.512 	 50.4001 	 -24.7277 	 
C 	 -123.894 	 48.2008 	 -25.4266 	 
H 	 -123.986 	 48.1017 	 -24.3796 	 
H 	 -123.002 	 47.6835 	 -25.6063 	 
C 	 -125.119 	 47.4953 	 -26.1323 	 
H 	 -125.977 	 48.1041 	 -25.7179 	 
H 	 -125.175 	 46.4515 	 -25.7839 	 
C 	 -125.044 	 47.5128 	 -27.7535 	 
H 	 -124.729 	 48.5278 	 -28.1313 	 
H 	 -126.06 	 47.2967 	 -28.059 	 
H 	 -124.408 	 46.8422 	 -28.3202 	 
H 	 -118.623 	 49.4973 	 -29.297 	 
H 	 -125.001 	 52.721 	 -25.4439 	 
*
