! wB97X-D3 SP def2-SVP
%pal
nprocs 24
end

* xyz 0 1
S 	 -45.439 	 11.0486 	 29.3788 	 
C 	 -46.5885 	 10.514 	 28.2094 	 
C 	 -47.2808 	 11.607 	 27.6114 	 
C 	 -46.8023 	 12.8828 	 28.1223 	 
C 	 -46.0438 	 12.7214 	 29.2668 	 
H 	 -47.0317 	 13.8731 	 27.9097 	 
C 	 -48.3404 	 11.4797 	 26.5809 	 
H 	 -48.2282 	 10.7446 	 25.6531 	 
H 	 -48.2928 	 12.3997 	 25.959 	 
C 	 -49.688 	 11.1236 	 27.2169 	 
H 	 -50.4355 	 10.9845 	 26.4273 	 
H 	 -49.45 	 10.2128 	 27.7716 	 
C 	 -50.2291 	 12.2046 	 28.1313 	 
H 	 -49.4845 	 12.6549 	 28.77 	 
H 	 -50.6547 	 12.9989 	 27.4577 	 
H 	 -51.1299 	 11.933 	 28.7246 	 
S 	 -43.6592 	 13.662 	 30.0586 	 
C 	 -43.6331 	 15.2893 	 30.623 	 
C 	 -44.7956 	 15.725 	 31.1895 	 
C 	 -45.8314 	 14.8409 	 30.8723 	 
C 	 -45.3989 	 13.7765 	 30.0527 	 
H 	 -44.8628 	 16.6681 	 31.7183 	 
C 	 -47.2918 	 15.1874 	 31.0453 	 
H 	 -47.575 	 15.1702 	 32.1072 	 
H 	 -47.9146 	 14.383 	 30.633 	 
C 	 -47.8554 	 16.4925 	 30.3913 	 
H 	 -47.3669 	 17.3316 	 31.0086 	 
H 	 -48.9287 	 16.495 	 30.4274 	 
C 	 -47.5588 	 16.8114 	 28.9175 	 
H 	 -46.5001 	 16.8331 	 28.8108 	 
H 	 -47.9314 	 17.8189 	 28.6565 	 
H 	 -48.1417 	 16.1828 	 28.2647 	 
H 	 -46.8432 	 9.48244 	 28.0682 	 
H 	 -42.644 	 15.7932 	 30.7959 	 
*
