! wB97X-D3 SP def2-SVP
%pal
nprocs 24
end

* xyz 0 1
S 	 -117.827 	 52.1892 	 -36.4834 	 
C 	 -116.995 	 51.2956 	 -37.6382 	 
C 	 -117.018 	 51.848 	 -38.9381 	 
C 	 -117.899 	 52.9845 	 -38.9108 	 
C 	 -118.369 	 53.3436 	 -37.6176 	 
H 	 -118.108 	 53.5976 	 -39.7609 	 
C 	 -116.479 	 51.2361 	 -40.2198 	 
H 	 -117.331 	 51.0628 	 -40.9261 	 
H 	 -116.234 	 50.1628 	 -39.9762 	 
C 	 -115.339 	 51.9574 	 -40.8225 	 
H 	 -115.096 	 51.4213 	 -41.7161 	 
H 	 -115.616 	 53.0054 	 -41.14 	 
C 	 -114.078 	 52.1766 	 -40.0167 	 
H 	 -114.314 	 52.299 	 -38.9831 	 
H 	 -113.441 	 51.3093 	 -40.1853 	 
H 	 -113.44 	 53.0295 	 -40.3386 	 
S 	 -120.188 	 54.3112 	 -35.7967 	 
C 	 -120.726 	 55.9758 	 -35.8489 	 
C 	 -120.207 	 56.5874 	 -36.9578 	 
C 	 -119.271 	 55.7887 	 -37.7198 	 
C 	 -119.15 	 54.4848 	 -37.1965 	 
H 	 -120.442 	 57.5997 	 -37.2456 	 
C 	 -118.612 	 56.3672 	 -38.9235 	 
H 	 -118.991 	 57.3303 	 -39.1852 	 
H 	 -118.721 	 55.6713 	 -39.732 	 
C 	 -117.113 	 56.4499 	 -38.6602 	 
H 	 -116.728 	 55.4771 	 -38.3891 	 
H 	 -116.958 	 57.1242 	 -37.7946 	 
C 	 -116.327 	 56.8293 	 -39.8701 	 
H 	 -115.227 	 56.8092 	 -39.7852 	 
H 	 -116.622 	 57.8824 	 -40.118 	 
H 	 -116.477 	 56.2504 	 -40.856 	 
H 	 -116.521 	 50.3648 	 -37.3947 	 
H 	 -121.265 	 56.5136 	 -35.0909 	 
*
