! wB97X-D3 SP def2-SVP
%pal
nprocs 24
end

* xyz 0 1
S 	 -129.19 	 61.5368 	 -56.7761 	 
C 	 -130.569 	 62.4788 	 -57.1882 	 
C 	 -130.291 	 63.5121 	 -58.0594 	 
C 	 -128.881 	 63.6317 	 -58.2645 	 
C 	 -128.12 	 62.7402 	 -57.4483 	 
H 	 -128.548 	 64.4286 	 -58.9318 	 
C 	 -131.373 	 64.4729 	 -58.6551 	 
H 	 -131.092 	 65.5082 	 -58.4141 	 
H 	 -132.313 	 64.5557 	 -58.0257 	 
C 	 -131.674 	 64.1557 	 -60.1151 	 
H 	 -130.806 	 64.1814 	 -60.7383 	 
H 	 -132.077 	 63.1272 	 -60.209 	 
C 	 -132.693 	 65.0231 	 -60.8044 	 
H 	 -132.204 	 65.9462 	 -61.0717 	 
H 	 -132.972 	 64.5142 	 -61.7675 	 
H 	 -133.613 	 65.1086 	 -60.2328 	 
S 	 -125.952 	 62.7769 	 -55.8276 	 
C 	 -124.306 	 62.7152 	 -56.4807 	 
C 	 -124.363 	 62.8441 	 -57.8369 	 
C 	 -125.666 	 62.8883 	 -58.3793 	 
C 	 -126.671 	 62.6624 	 -57.3963 	 
H 	 -123.43 	 62.811 	 -58.4101 	 
C 	 -125.898 	 63.1571 	 -59.8699 	 
H 	 -124.98 	 63.4222 	 -60.4013 	 
H 	 -126.543 	 63.9718 	 -60.0053 	 
C 	 -126.567 	 61.9955 	 -60.5407 	 
H 	 -127.599 	 61.9421 	 -60.1745 	 
H 	 -126.056 	 61.0293 	 -60.327 	 
C 	 -126.652 	 62.2254 	 -62.1054 	 
H 	 -125.707 	 62.5811 	 -62.4766 	 
H 	 -127.296 	 63.0713 	 -62.2951 	 
H 	 -126.869 	 61.2719 	 -62.6545 	 
H 	 -131.589 	 62.3395 	 -56.9224 	 
H 	 -123.542 	 62.4492 	 -55.7776 	 
*
