! wB97X-D3 SP def2-SVP
%pal
nprocs 24
end

* xyz 0 1
S 	 -144.663 	 14.2002 	 -8.7938 	 
C 	 -144.369 	 12.4604 	 -8.77825 	 
C 	 -145.518 	 11.7546 	 -9.1249 	 
C 	 -146.644 	 12.5957 	 -9.34707 	 
C 	 -146.333 	 13.917 	 -9.27486 	 
H 	 -147.645 	 12.3217 	 -9.6382 	 
C 	 -145.634 	 10.2894 	 -9.21074 	 
H 	 -146.614 	 9.92401 	 -8.90307 	 
H 	 -145.026 	 9.85105 	 -8.43125 	 
C 	 -145.312 	 9.78851 	 -10.604 	 
H 	 -145.58 	 8.74337 	 -10.8293 	 
H 	 -145.867 	 10.4904 	 -11.1702 	 
C 	 -143.83 	 9.91503 	 -10.962 	 
H 	 -143.741 	 9.79375 	 -12.0129 	 
H 	 -143.314 	 10.8199 	 -10.7342 	 
H 	 -143.295 	 9.07362 	 -10.6342 	 
S 	 -146.433 	 16.5919 	 -9.07585 	 
C 	 -147.796 	 17.5161 	 -9.57967 	 
C 	 -148.799 	 16.6752 	 -9.98576 	 
C 	 -148.474 	 15.2743 	 -9.98649 	 
C 	 -147.179 	 15.0546 	 -9.52724 	 
H 	 -149.777 	 17.0428 	 -10.3271 	 
C 	 -149.498 	 14.1633 	 -10.3981 	 
H 	 -149.184 	 13.3203 	 -11.0526 	 
H 	 -150.226 	 14.6583 	 -10.9645 	 
C 	 -150.383 	 13.6869 	 -9.21743 	 
H 	 -149.932 	 12.961 	 -8.5312 	 
H 	 -151.285 	 13.2875 	 -9.62318 	 
C 	 -151 	 14.8942 	 -8.47836 	 
H 	 -151.576 	 15.5755 	 -9.12239 	 
H 	 -150.263 	 15.5122 	 -7.99022 	 
H 	 -151.569 	 14.616 	 -7.56799 	 
H 	 -143.354 	 12.1153 	 -8.57368 	 
H 	 -147.818 	 18.6042 	 -9.5872 	 
*
