! wB97X-D3 SP def2-SVP
%pal
nprocs 24
end

* xyz 0 1
S 	 -82.3957 	 -31.5386 	 -56.2008 	 
C 	 -80.7643 	 -31.5124 	 -56.6686 	 
C 	 -80.0908 	 -30.4073 	 -56.2061 	 
C 	 -80.9171 	 -29.5642 	 -55.4205 	 
C 	 -82.2389 	 -30.0008 	 -55.3256 	 
H 	 -80.5977 	 -28.6465 	 -55.0213 	 
C 	 -78.614 	 -30.1214 	 -56.4243 	 
H 	 -78.119 	 -31.0401 	 -56.7346 	 
H 	 -78.3002 	 -29.8553 	 -55.4081 	 
C 	 -78.1426 	 -29.0114 	 -57.426 	 
H 	 -77.0633 	 -28.791 	 -57.4637 	 
H 	 -78.3976 	 -29.3692 	 -58.4395 	 
C 	 -78.7078 	 -27.584 	 -57.2036 	 
H 	 -78.458 	 -27.3943 	 -56.1869 	 
H 	 -78.3211 	 -26.7942 	 -57.8547 	 
H 	 -79.7241 	 -27.5948 	 -57.2058 	 
S 	 -84.8856 	 -29.3551 	 -55.402 	 
C 	 -85.5704 	 -28.2384 	 -54.2149 	 
C 	 -84.707 	 -28.0896 	 -53.1266 	 
C 	 -83.4329 	 -28.6826 	 -53.3366 	 
C 	 -83.3882 	 -29.4816 	 -54.5004 	 
H 	 -85.017 	 -27.4923 	 -52.2165 	 
C 	 -82.2304 	 -28.5159 	 -52.3955 	 
H 	 -81.4727 	 -27.8021 	 -52.7421 	 
H 	 -81.7671 	 -29.5431 	 -52.306 	 
C 	 -82.5081 	 -28.0901 	 -51.0258 	 
H 	 -83.3559 	 -28.678 	 -50.5711 	 
H 	 -82.8018 	 -27.0686 	 -51.1144 	 
C 	 -81.2982 	 -28.3335 	 -50.0674 	 
H 	 -80.4308 	 -27.6795 	 -50.2376 	 
H 	 -81.0117 	 -29.3868 	 -50.132 	 
H 	 -81.5473 	 -28.0642 	 -49.0273 	 
H 	 -80.1611 	 -32.173 	 -57.3254 	 
H 	 -86.6187 	 -28.0806 	 -54.1417 	 
*
