! wB97X-D3 SP def2-SVP
%pal
nprocs 24
end

* xyz 0 1
S 	 -35.9353 	 -5.82923 	 5.07152 	 
C 	 -35.5042 	 -4.90353 	 6.49671 	 
C 	 -36.2871 	 -5.23193 	 7.53996 	 
C 	 -37.4047 	 -6.09027 	 7.20338 	 
C 	 -37.402 	 -6.36129 	 5.83384 	 
H 	 -38.1126 	 -6.44461 	 7.83759 	 
C 	 -35.9857 	 -4.68049 	 8.9563 	 
H 	 -36.8665 	 -4.90733 	 9.57553 	 
H 	 -35.7401 	 -3.58431 	 8.98813 	 
C 	 -34.8911 	 -5.54923 	 9.64434 	 
H 	 -35.0828 	 -6.57576 	 9.35214 	 
H 	 -33.8807 	 -5.37252 	 9.20584 	 
C 	 -34.7464 	 -5.41861 	 11.1296 	 
H 	 -34.7219 	 -4.4031 	 11.4604 	 
H 	 -35.6157 	 -5.73941 	 11.633 	 
H 	 -33.9568 	 -5.96754 	 11.619 	 
S 	 -37.5629 	 -8.07243 	 3.77036 	 
C 	 -39.1131 	 -8.59175 	 3.12083 	 
C 	 -40.1869 	 -8.07406 	 3.81187 	 
C 	 -39.7269 	 -7.35585 	 4.93421 	 
C 	 -38.3414 	 -7.18293 	 5.03481 	 
H 	 -41.1744 	 -8.28058 	 3.4956 	 
C 	 -40.732 	 -6.6037 	 5.85833 	 
H 	 -40.3172 	 -6.36347 	 6.8243 	 
H 	 -41.5171 	 -7.3191 	 6.01719 	 
C 	 -41.3246 	 -5.27051 	 5.33273 	 
H 	 -41.6916 	 -5.55304 	 4.31707 	 
H 	 -40.5756 	 -4.44166 	 5.27081 	 
C 	 -42.434 	 -4.80166 	 6.27174 	 
H 	 -42.1246 	 -4.43613 	 7.19401 	 
H 	 -43.1696 	 -5.63399 	 6.43795 	 
H 	 -43.103 	 -4.00636 	 5.80629 	 
H 	 -34.66 	 -4.25943 	 6.53751 	 
H 	 -39.1955 	 -8.95915 	 2.10933 	 
*
