! wB97X-D3 SP def2-SVP
%pal
nprocs 24
end

* xyz 0 1
S 	 -125.081 	 27.013 	 -18.3867 	 
C 	 -124.49 	 28.2295 	 -19.4437 	 
C 	 -125.434 	 28.5499 	 -20.4494 	 
C 	 -126.568 	 27.7039 	 -20.355 	 
C 	 -126.586 	 26.8973 	 -19.2378 	 
H 	 -127.345 	 27.6208 	 -21.1265 	 
C 	 -125.339 	 29.5702 	 -21.5221 	 
H 	 -125.369 	 28.9673 	 -22.43 	 
H 	 -124.417 	 30.1678 	 -21.4291 	 
C 	 -126.508 	 30.5402 	 -21.5813 	 
H 	 -126.308 	 31.2252 	 -22.4355 	 
H 	 -127.318 	 29.8838 	 -21.8562 	 
C 	 -126.807 	 31.3477 	 -20.3275 	 
H 	 -127.759 	 31.807 	 -20.4682 	 
H 	 -126.858 	 30.673 	 -19.4102 	 
H 	 -126.147 	 32.1441 	 -20.2919 	 
S 	 -127.351 	 24.7351 	 -17.7502 	 
C 	 -129.043 	 24.4228 	 -17.3154 	 
C 	 -129.878 	 25.2395 	 -18.0792 	 
C 	 -129.142 	 26.235 	 -18.8316 	 
C 	 -127.773 	 26.1562 	 -18.7251 	 
H 	 -130.92 	 24.9776 	 -18.0847 	 
C 	 -129.914 	 27.3497 	 -19.5459 	 
H 	 -129.203 	 28.1785 	 -19.7434 	 
H 	 -130.669 	 27.7511 	 -18.8232 	 
C 	 -130.619 	 26.9636 	 -20.8384 	 
H 	 -131.443 	 26.2509 	 -20.5568 	 
H 	 -129.847 	 26.4597 	 -21.4682 	 
C 	 -131.275 	 28.0859 	 -21.6173 	 
H 	 -130.529 	 28.8348 	 -21.997 	 
H 	 -132.039 	 28.611 	 -21.079 	 
H 	 -131.759 	 27.615 	 -22.521 	 
H 	 -123.497 	 28.7397 	 -19.3973 	 
H 	 -129.329 	 23.4992 	 -16.8141 	 
*
