! wB97X-D3 SP def2-SVP
%pal
nprocs 24
end

* xyz 0 1
S 	 -132.202 	 26.2983 	 -16.8152 	 
C 	 -132.504 	 24.7283 	 -17.59 	 
C 	 -133.652 	 24.0786 	 -17.163 	 
C 	 -134.382 	 24.9584 	 -16.346 	 
C 	 -133.787 	 26.1588 	 -16.0498 	 
H 	 -135.249 	 24.8825 	 -15.7692 	 
C 	 -134.144 	 22.6838 	 -17.4225 	 
H 	 -133.769 	 22.1455 	 -18.3454 	 
H 	 -135.203 	 22.7425 	 -17.6691 	 
C 	 -133.835 	 21.7345 	 -16.1951 	 
H 	 -134.262 	 21.9814 	 -15.2847 	 
H 	 -134.031 	 20.7158 	 -16.4897 	 
C 	 -132.35 	 21.6916 	 -15.9834 	 
H 	 -131.783 	 21.8414 	 -16.9603 	 
H 	 -132.072 	 22.5415 	 -15.3487 	 
H 	 -131.99 	 20.8553 	 -15.3748 	 
S 	 -133.259 	 27.6264 	 -13.8379 	 
C 	 -134.426 	 28.7707 	 -13.1566 	 
C 	 -135.515 	 28.8173 	 -14.0247 	 
C 	 -135.413 	 27.9461 	 -15.1642 	 
C 	 -134.234 	 27.2497 	 -15.2057 	 
H 	 -136.345 	 29.4275 	 -13.7537 	 
C 	 -136.497 	 27.8434 	 -16.2137 	 
H 	 -135.981 	 27.5624 	 -17.1201 	 
H 	 -136.983 	 28.8209 	 -16.3527 	 
C 	 -137.639 	 26.8415 	 -15.9003 	 
H 	 -138.383 	 27.3221 	 -15.2255 	 
H 	 -137.201 	 25.9756 	 -15.411 	 
C 	 -138.38 	 26.3497 	 -17.1918 	 
H 	 -139.015 	 25.4768 	 -16.8938 	 
H 	 -137.662 	 25.8553 	 -17.893 	 
H 	 -138.981 	 27.0804 	 -17.7209 	 
H 	 -131.917 	 24.1884 	 -18.3278 	 
H 	 -134.367 	 29.5013 	 -12.3657 	 
*
