! wB97X-D3 SP def2-SVP
%pal
nprocs 24
end

* xyz 0 1
S 	 -102.101 	 48.0058 	 -102.585 	 
C 	 -102.722 	 49.5598 	 -102.082 	 
C 	 -102.173 	 49.93 	 -100.847 	 
C 	 -101.287 	 48.9869 	 -100.348 	 
C 	 -101.173 	 47.8402 	 -101.097 	 
H 	 -100.667 	 49.294 	 -99.4976 	 
C 	 -102.448 	 51.2025 	 -100.073 	 
H 	 -101.659 	 51.9008 	 -100.314 	 
H 	 -102.422 	 50.9969 	 -98.9135 	 
C 	 -103.807 	 51.8887 	 -100.434 	 
H 	 -104.642 	 51.2189 	 -100.582 	 
H 	 -104.056 	 52.5071 	 -99.5788 	 
C 	 -103.81 	 52.9126 	 -101.543 	 
H 	 -103.201 	 52.5333 	 -102.326 	 
H 	 -104.804 	 53.1641 	 -101.829 	 
H 	 -103.378 	 53.7812 	 -101.198 	 
S 	 -100.772 	 46.1717 	 -98.9871 	 
C 	 -99.7565 	 44.7244 	 -99.2334 	 
C 	 -99.6588 	 44.4271 	 -100.566 	 
C 	 -100.204 	 45.45 	 -101.447 	 
C 	 -100.663 	 46.5447 	 -100.701 	 
H 	 -99.299 	 43.4914 	 -100.832 	 
C 	 -100.154 	 45.2424 	 -102.966 	 
H 	 -100.05 	 46.2097 	 -103.399 	 
H 	 -101.145 	 44.857 	 -103.124 	 
C 	 -98.9677 	 44.4148 	 -103.546 	 
H 	 -99.0394 	 44.3639 	 -104.646 	 
H 	 -99.0381 	 43.3751 	 -103.185 	 
C 	 -97.5343 	 44.9035 	 -103.238 	 
H 	 -96.7732 	 44.2091 	 -103.498 	 
H 	 -97.3809 	 44.8536 	 -102.196 	 
H 	 -97.3368 	 45.8542 	 -103.665 	 
H 	 -103.579 	 50.064 	 -102.625 	 
H 	 -99.5694 	 43.9413 	 -98.4858 	 
*
