! wB97X-D3 SP def2-SVP
%pal
nprocs 24
end

* xyz 0 1
S 	 -70.082 	 9.53228 	 -73.5664 	 
C 	 -70.0869 	 10.252 	 -75.1326 	 
C 	 -68.8152 	 10.3636 	 -75.6023 	 
C 	 -67.8447 	 9.87046 	 -74.6425 	 
C 	 -68.3705 	 9.29751 	 -73.4812 	 
H 	 -66.7464 	 9.87696 	 -74.691 	 
C 	 -68.3984 	 10.7314 	 -77.0428 	 
H 	 -69.1987 	 10.8047 	 -77.7883 	 
H 	 -67.8172 	 9.84341 	 -77.4344 	 
C 	 -67.4505 	 11.9093 	 -77.138 	 
H 	 -66.5799 	 11.7062 	 -76.5084 	 
H 	 -67.0324 	 11.9892 	 -78.1366 	 
C 	 -68.0352 	 13.2274 	 -76.6054 	 
H 	 -68.9129 	 13.4414 	 -77.1779 	 
H 	 -68.4334 	 13.0823 	 -75.6155 	 
H 	 -67.2606 	 14.0851 	 -76.6627 	 
S 	 -66.9434 	 9.58023 	 -71.1243 	 
C 	 -66.6817 	 8.23197 	 -70.1568 	 
C 	 -67.2356 	 7.12064 	 -70.6415 	 
C 	 -67.9486 	 7.34712 	 -71.8863 	 
C 	 -67.7291 	 8.64393 	 -72.3565 	 
H 	 -67.0467 	 6.13948 	 -70.1405 	 
C 	 -68.5525 	 6.19354 	 -72.6594 	 
H 	 -67.9162 	 5.3653 	 -72.6302 	 
H 	 -68.4731 	 6.46397 	 -73.6933 	 
C 	 -69.8979 	 5.67962 	 -72.2149 	 
H 	 -70.196 	 4.80891 	 -72.7857 	 
H 	 -70.6936 	 6.4234 	 -72.3352 	 
C 	 -70.0588 	 5.41 	 -70.6881 	 
H 	 -69.842 	 6.30527 	 -70.1471 	 
H 	 -69.4222 	 4.59218 	 -70.4039 	 
H 	 -71.0549 	 5.12163 	 -70.3824 	 
H 	 -70.9504 	 10.4015 	 -75.7361 	 
H 	 -66.0436 	 8.15607 	 -69.3786 	 
*
