! wB97X-D3 SP def2-SVP
%pal
nprocs 24
end

* xyz 0 1
S 	 -106.546 	 2.64779 	 -113.228 	 
C 	 -108.054 	 2.56401 	 -112.385 	 
C 	 -108.601 	 1.36303 	 -112.687 	 
C 	 -107.751 	 0.423713 	 -113.309 	 
C 	 -106.444 	 0.925877 	 -113.534 	 
H 	 -107.925 	 -0.571424 	 -113.534 	 
C 	 -109.967 	 0.908104 	 -112.293 	 
H 	 -109.893 	 0.131385 	 -111.627 	 
H 	 -110.301 	 0.359114 	 -113.202 	 
C 	 -111.11 	 1.85146 	 -112.059 	 
H 	 -111.993 	 1.26587 	 -111.737 	 
H 	 -110.839 	 2.48083 	 -111.2 	 
C 	 -111.614 	 2.79294 	 -113.174 	 
H 	 -110.792 	 3.38553 	 -113.599 	 
H 	 -112.063 	 2.19589 	 -113.982 	 
H 	 -112.375 	 3.49871 	 -112.803 	 
S 	 -105.152 	 0.441696 	 -115.874 	 
C 	 -103.59 	 -0.32286 	 -115.735 	 
C 	 -103.515 	 -1.10988 	 -114.606 	 
C 	 -104.365 	 -0.557771 	 -113.582 	 
C 	 -105.29 	 0.285959 	 -114.139 	 
H 	 -102.708 	 -1.81512 	 -114.458 	 
C 	 -104.334 	 -1.02309 	 -112.111 	 
H 	 -104.354 	 -0.196685 	 -111.405 	 
H 	 -103.405 	 -1.46088 	 -111.906 	 
C 	 -105.502 	 -1.99793 	 -111.63 	 
H 	 -106.45 	 -1.43467 	 -111.674 	 
H 	 -105.42 	 -2.27816 	 -110.539 	 
C 	 -105.606 	 -3.2361 	 -112.544 	 
H 	 -105.813 	 -4.1072 	 -111.895 	 
H 	 -104.664 	 -3.55159 	 -113.037 	 
H 	 -106.35 	 -3.10154 	 -113.364 	 
H 	 -108.517 	 3.49994 	 -112.086 	 
H 	 -103.096 	 -0.482622 	 -116.674 	 
*
