! wB97X-D3 SP def2-SVP
%pal
nprocs 24
end

* xyz 0 1
S 	 -46.2706 	 15.6302 	 26.9051 	 
C 	 -46.2156 	 15.3777 	 25.1094 	 
C 	 -47.4709 	 14.8982 	 24.6716 	 
C 	 -48.3202 	 14.5587 	 25.7547 	 
C 	 -47.7906 	 14.7794 	 27.0143 	 
H 	 -49.2163 	 13.9769 	 25.6741 	 
C 	 -47.9636 	 14.7042 	 23.2975 	 
H 	 -49.0201 	 14.8927 	 23.1902 	 
H 	 -47.9347 	 13.634 	 23.1031 	 
C 	 -47.2213 	 15.4271 	 22.1379 	 
H 	 -46.1776 	 15.158 	 22.1006 	 
H 	 -47.6135 	 15.1309 	 21.1915 	 
C 	 -47.302 	 16.9511 	 22.2002 	 
H 	 -46.513 	 17.4521 	 22.7149 	 
H 	 -47.0554 	 17.3264 	 21.1986 	 
H 	 -48.2108 	 17.4252 	 22.5642 	 
S 	 -47.4763 	 12.9207 	 29.0912 	 
C 	 -48.8084 	 12.6894 	 30.2093 	 
C 	 -49.7683 	 13.6344 	 30.0303 	 
C 	 -49.5703 	 14.3545 	 28.7774 	 
C 	 -48.2947 	 14.1726 	 28.2191 	 
H 	 -50.6306 	 13.7326 	 30.6716 	 
C 	 -50.5153 	 15.3957 	 28.4204 	 
H 	 -51.5178 	 15.2165 	 28.8876 	 
H 	 -50.5538 	 15.4106 	 27.3415 	 
C 	 -50.063 	 16.8691 	 28.942 	 
H 	 -50.4807 	 17.7299 	 28.3666 	 
H 	 -48.9659 	 17.0349 	 28.7927 	 
C 	 -50.4076 	 17.0462 	 30.3285 	 
H 	 -50.0492 	 18.0035 	 30.7967 	 
H 	 -50.111 	 16.2089 	 30.9562 	 
H 	 -51.4823 	 17.1236 	 30.4315 	 
H 	 -45.4814 	 15.7387 	 24.374 	 
H 	 -48.7435 	 12.1162 	 31.0346 	 
*
