! wB97X-D3 SP def2-SVP
%pal
nprocs 24
end

* xyz 0 1
S 	 -51.0486 	 -49.1022 	 -75.6202 	 
C 	 -50.8671 	 -47.5106 	 -74.8589 	 
C 	 -50.4871 	 -46.4954 	 -75.7383 	 
C 	 -50.1422 	 -47.0683 	 -77.0281 	 
C 	 -50.2963 	 -48.4042 	 -77.0028 	 
H 	 -49.7697 	 -46.5733 	 -77.8775 	 
C 	 -50.4943 	 -44.9873 	 -75.4894 	 
H 	 -49.7659 	 -44.7571 	 -74.7946 	 
H 	 -51.4758 	 -44.8453 	 -75.0327 	 
C 	 -50.3223 	 -43.9577 	 -76.6417 	 
H 	 -50.0688 	 -42.9734 	 -76.1978 	 
H 	 -49.5008 	 -44.2002 	 -77.3787 	 
C 	 -51.5305 	 -43.7332 	 -77.495 	 
H 	 -52.5586 	 -43.7953 	 -77.0365 	 
H 	 -51.3604 	 -42.7966 	 -77.9822 	 
H 	 -51.5725 	 -44.4949 	 -78.2813 	 
S 	 -48.3009 	 -50.2712 	 -77.6213 	 
C 	 -48.0926 	 -50.8248 	 -79.2453 	 
C 	 -49.0465 	 -50.3059 	 -80.1057 	 
C 	 -49.9611 	 -49.4149 	 -79.4538 	 
C 	 -49.7433 	 -49.2779 	 -78.0824 	 
H 	 -49.1243 	 -50.6097 	 -81.1703 	 
C 	 -50.9084 	 -48.6284 	 -80.332 	 
H 	 -50.4589 	 -48.3252 	 -81.2552 	 
H 	 -51.0709 	 -47.7436 	 -79.7234 	 
C 	 -52.2248 	 -49.3809 	 -80.7479 	 
H 	 -52.8621 	 -49.2712 	 -79.8659 	 
H 	 -52.0568 	 -50.4561 	 -80.8486 	 
C 	 -52.9179 	 -48.8622 	 -82.0143 	 
H 	 -52.3067 	 -48.9549 	 -82.9034 	 
H 	 -52.921 	 -47.8268 	 -81.8667 	 
H 	 -53.856 	 -49.1792 	 -82.364 	 
H 	 -51.0808 	 -47.2884 	 -73.805 	 
H 	 -47.2509 	 -51.4063 	 -79.5488 	 
*
