! wB97X-D3 SP def2-SVP
%pal
nprocs 24
end

* xyz 0 1
S 	 -64.0274 	 -3.56491 	 -28.0416 	 
C 	 -64.5968 	 -2.9114 	 -29.5873 	 
C 	 -65.0972 	 -1.63903 	 -29.4098 	 
C 	 -65.2504 	 -1.29443 	 -28.0573 	 
C 	 -64.7784 	 -2.22024 	 -27.1971 	 
H 	 -65.6298 	 -0.297465 	 -27.6849 	 
C 	 -65.3459 	 -0.545068 	 -30.4663 	 
H 	 -66.2638 	 -0.0089029 	 -30.1873 	 
H 	 -65.6501 	 -0.997082 	 -31.4075 	 
C 	 -64.1979 	 0.442359 	 -30.7167 	 
H 	 -63.9819 	 1.08836 	 -29.8217 	 
H 	 -63.2903 	 -0.113965 	 -30.8299 	 
C 	 -64.5907 	 1.15372 	 -31.9744 	 
H 	 -64.6104 	 0.394383 	 -32.7934 	 
H 	 -65.6073 	 1.68381 	 -31.8591 	 
H 	 -63.8351 	 1.87943 	 -32.1925 	 
S 	 -66.0182 	 -3.34922 	 -24.9881 	 
C 	 -65.3436 	 -3.02359 	 -23.4314 	 
C 	 -64.3043 	 -2.1066 	 -23.4783 	 
C 	 -63.9864 	 -1.61522 	 -24.8145 	 
C 	 -64.8103 	 -2.24112 	 -25.7172 	 
H 	 -63.8898 	 -1.88754 	 -22.5028 	 
C 	 -62.8086 	 -0.713332 	 -25.1372 	 
H 	 -62.2787 	 -1.07609 	 -26.0005 	 
H 	 -62.0008 	 -0.966342 	 -24.4143 	 
C 	 -63.1792 	 0.761354 	 -25.1415 	 
H 	 -64.0099 	 0.917716 	 -24.5072 	 
H 	 -63.4434 	 0.969173 	 -26.2232 	 
C 	 -62.0208 	 1.69085 	 -24.6851 	 
H 	 -61.6738 	 1.4421 	 -23.6019 	 
H 	 -62.2486 	 2.78918 	 -24.8244 	 
H 	 -61.2505 	 1.47119 	 -25.4174 	 
H 	 -64.2591 	 -3.29889 	 -30.4948 	 
H 	 -65.7723 	 -3.33213 	 -22.4457 	 
*
