! wB97X-D3 SP def2-SVP
%pal
nprocs 24
end

* xyz 0 1
S 	 -64.648 	 15.1472 	 -89.6789 	 
C 	 -65.3726 	 16.6351 	 -89.2208 	 
C 	 -65.6034 	 16.7566 	 -87.8701 	 
C 	 -65.1244 	 15.5904 	 -87.1642 	 
C 	 -64.7093 	 14.5867 	 -88.0166 	 
H 	 -65.1194 	 15.5572 	 -86.1019 	 
C 	 -66.2779 	 17.8662 	 -87.1013 	 
H 	 -65.9693 	 18.8029 	 -87.5725 	 
H 	 -65.9091 	 17.893 	 -86.0443 	 
C 	 -67.7876 	 17.8709 	 -87.0567 	 
H 	 -68.1097 	 16.8974 	 -86.6878 	 
H 	 -68.1191 	 18.7067 	 -86.412 	 
C 	 -68.4018 	 18.099 	 -88.3746 	 
H 	 -69.4647 	 18.1125 	 -88.3247 	 
H 	 -67.9507 	 19.0123 	 -88.9348 	 
H 	 -68.1867 	 17.2217 	 -89.0173 	 
S 	 -65.0583 	 11.9068 	 -88.6169 	 
C 	 -64.4159 	 10.7493 	 -87.4282 	 
C 	 -63.6256 	 11.3334 	 -86.4412 	 
C 	 -63.6062 	 12.7858 	 -86.5086 	 
C 	 -64.3109 	 13.2418 	 -87.654 	 
H 	 -63.1552 	 10.7443 	 -85.6152 	 
C 	 -62.7173 	 13.5921 	 -85.6092 	 
H 	 -62.6334 	 12.9944 	 -84.674 	 
H 	 -63.168 	 14.5728 	 -85.4046 	 
C 	 -61.321 	 13.9195 	 -86.0785 	 
H 	 -61.3408 	 14.3967 	 -87.0329 	 
H 	 -60.7206 	 13.0017 	 -86.2397 	 
C 	 -60.6431 	 14.8307 	 -85.0241 	 
H 	 -60.3394 	 14.2469 	 -84.153 	 
H 	 -61.2201 	 15.6689 	 -84.6152 	 
H 	 -59.6633 	 15.0955 	 -85.4548 	 
H 	 -65.8584 	 17.3805 	 -89.9217 	 
H 	 -64.473 	 9.71199 	 -87.6291 	 
*
