! wB97X-D3 SP def2-SVP
%pal
nprocs 24
end

* xyz 0 1
S 	 -106.227 	 63.0016 	 -96.0273 	 
C 	 -107.704 	 62.6162 	 -96.9067 	 
C 	 -107.426 	 62.2748 	 -98.2448 	 
C 	 -106.048 	 62.3836 	 -98.4925 	 
C 	 -105.218 	 62.7606 	 -97.4591 	 
H 	 -105.639 	 62.1912 	 -99.4177 	 
C 	 -108.425 	 61.6311 	 -99.1926 	 
H 	 -109.202 	 61.2977 	 -98.5648 	 
H 	 -108.035 	 60.7965 	 -99.7478 	 
C 	 -109.159 	 62.6474 	 -100.154 	 
H 	 -109.888 	 62.0344 	 -100.732 	 
H 	 -109.756 	 63.2781 	 -99.5002 	 
C 	 -108.295 	 63.4249 	 -101.17 	 
H 	 -107.516 	 63.947 	 -100.687 	 
H 	 -107.802 	 62.8372 	 -101.941 	 
H 	 -108.929 	 64.1755 	 -101.64 	 
S 	 -102.983 	 64.2632 	 -98.2148 	 
C 	 -101.458 	 63.8611 	 -97.4692 	 
C 	 -101.517 	 62.5431 	 -96.9066 	 
C 	 -102.835 	 61.9487 	 -96.9175 	 
C 	 -103.779 	 62.8146 	 -97.4871 	 
H 	 -100.581 	 62.1562 	 -96.5151 	 
C 	 -103.201 	 60.6445 	 -96.271 	 
H 	 -104.309 	 60.4442 	 -96.3385 	 
H 	 -102.904 	 60.8087 	 -95.1759 	 
C 	 -102.562 	 59.3841 	 -96.8516 	 
H 	 -101.477 	 59.6123 	 -96.9815 	 
H 	 -103.044 	 59.1446 	 -97.8231 	 
C 	 -102.669 	 58.0963 	 -96.002 	 
H 	 -102.184 	 57.2755 	 -96.4095 	 
H 	 -103.743 	 57.8251 	 -95.8611 	 
H 	 -102.234 	 58.1812 	 -95.0226 	 
H 	 -108.64 	 62.6224 	 -96.3519 	 
H 	 -100.503 	 64.3715 	 -97.5903 	 
*
