! wB97X-D3 SP def2-SVP
%pal
nprocs 24
end

* xyz 0 1
S 	 -69.0633 	 -43.6606 	 -92.5492 	 
C 	 -68.3851 	 -42.2879 	 -93.3049 	 
C 	 -68.9973 	 -41.9536 	 -94.5729 	 
C 	 -70.0286 	 -42.929 	 -94.8591 	 
C 	 -70.192 	 -43.9266 	 -93.9098 	 
H 	 -70.7688 	 -43.0067 	 -95.6189 	 
C 	 -68.6712 	 -40.7363 	 -95.4647 	 
H 	 -69.2658 	 -39.8997 	 -95.0889 	 
H 	 -69.1563 	 -40.886 	 -96.4327 	 
C 	 -67.2222 	 -40.2531 	 -95.6599 	 
H 	 -67.1731 	 -39.2608 	 -96.0481 	 
H 	 -66.7483 	 -40.2949 	 -94.6929 	 
C 	 -66.3287 	 -41.0864 	 -96.6799 	 
H 	 -66.6536 	 -40.9174 	 -97.6888 	 
H 	 -65.2496 	 -40.7687 	 -96.541 	 
H 	 -66.4171 	 -42.1917 	 -96.4343 	 
S 	 -70.6975 	 -46.3918 	 -92.9346 	 
C 	 -72.1361 	 -47.2857 	 -93.4237 	 
C 	 -72.9023 	 -46.6631 	 -94.3461 	 
C 	 -72.367 	 -45.3837 	 -94.709 	 
C 	 -71.2017 	 -45.0311 	 -93.9173 	 
H 	 -73.8724 	 -47.1719 	 -94.7107 	 
C 	 -73.1207 	 -44.367 	 -95.5698 	 
H 	 -72.7323 	 -43.3326 	 -95.512 	 
H 	 -74.1542 	 -44.3406 	 -95.309 	 
C 	 -72.9074 	 -44.7172 	 -96.9988 	 
H 	 -73.3485 	 -45.6583 	 -97.2123 	 
H 	 -71.8136 	 -44.7905 	 -97.2307 	 
C 	 -73.5428 	 -43.6248 	 -97.8482 	 
H 	 -72.8269 	 -42.8607 	 -98.0494 	 
H 	 -74.3735 	 -43.0636 	 -97.1968 	 
H 	 -73.8299 	 -43.9916 	 -98.8858 	 
H 	 -67.5957 	 -41.6899 	 -92.8667 	 
H 	 -72.3296 	 -48.3087 	 -93.0607 	 
*
