! wB97X-D3 SP def2-SVP
%pal
nprocs 24
end

* xyz 0 1
S 	 -119.856 	 23.3294 	 -19.7988 	 
C 	 -118.28 	 23.2006 	 -20.6029 	 
C 	 -117.341 	 24.1745 	 -20.1323 	 
C 	 -118.029 	 25.1384 	 -19.3064 	 
C 	 -119.359 	 24.8153 	 -19.0034 	 
H 	 -117.451 	 25.9173 	 -18.8528 	 
C 	 -115.955 	 24.2683 	 -20.6416 	 
H 	 -115.668 	 25.1784 	 -20.2436 	 
H 	 -115.941 	 24.229 	 -21.6876 	 
C 	 -114.89 	 23.2676 	 -20.0698 	 
H 	 -115.032 	 23.1878 	 -18.9903 	 
H 	 -115.126 	 22.3114 	 -20.5972 	 
C 	 -113.384 	 23.5561 	 -20.3108 	 
H 	 -112.788 	 22.6661 	 -20.2893 	 
H 	 -113.259 	 24.0653 	 -21.3154 	 
H 	 -112.968 	 24.2461 	 -19.6057 	 
S 	 -121.324 	 24.8896 	 -16.9659 	 
C 	 -121.795 	 26.4363 	 -16.2519 	 
C 	 -121.168 	 27.4587 	 -16.95 	 
C 	 -120.302 	 26.983 	 -17.9668 	 
C 	 -120.225 	 25.6114 	 -18.1126 	 
H 	 -121.376 	 28.5019 	 -16.7503 	 
C 	 -119.582 	 28.0561 	 -18.8029 	 
H 	 -119.216 	 27.5059 	 -19.6387 	 
H 	 -118.853 	 28.555 	 -18.1498 	 
C 	 -120.337 	 29.1606 	 -19.4853 	 
H 	 -120.91 	 29.7679 	 -18.6914 	 
H 	 -121.109 	 28.706 	 -20.0886 	 
C 	 -119.425 	 30.1039 	 -20.285 	 
H 	 -118.776 	 29.4837 	 -20.9186 	 
H 	 -118.837 	 30.513 	 -19.412 	 
H 	 -120.03 	 30.8703 	 -20.8011 	 
H 	 -118.121 	 22.4012 	 -21.2684 	 
H 	 -122.389 	 26.6591 	 -15.4363 	 
*
