! wB97X-D3 SP def2-SVP
%pal
nprocs 24
end

* xyz 0 1
S 	 -115.112 	 62.8153 	 -78.6061 	 
C 	 -116.422 	 63.9935 	 -78.474 	 
C 	 -116.888 	 64.2371 	 -77.1746 	 
C 	 -116.25 	 63.3453 	 -76.2543 	 
C 	 -115.237 	 62.5646 	 -76.8364 	 
H 	 -116.495 	 63.2465 	 -75.2439 	 
C 	 -118.058 	 65.1957 	 -76.7463 	 
H 	 -117.968 	 65.9601 	 -77.5037 	 
H 	 -117.815 	 65.682 	 -75.7801 	 
C 	 -119.452 	 64.5972 	 -76.8078 	 
H 	 -120.291 	 65.3216 	 -76.824 	 
H 	 -119.557 	 64.1456 	 -77.7796 	 
C 	 -119.677 	 63.5428 	 -75.6947 	 
H 	 -118.809 	 62.8619 	 -75.6695 	 
H 	 -119.67 	 63.885 	 -74.6255 	 
H 	 -120.642 	 63.0136 	 -75.7898 	 
S 	 -112.577 	 61.8195 	 -76.3687 	 
C 	 -112.328 	 60.5858 	 -75.1318 	 
C 	 -113.522 	 60.1008 	 -74.6716 	 
C 	 -114.697 	 60.708 	 -75.1981 	 
C 	 -114.369 	 61.7091 	 -76.0839 	 
H 	 -113.566 	 59.2816 	 -74.0143 	 
C 	 -116.05 	 60.2857 	 -74.6617 	 
H 	 -116.521 	 61.0958 	 -74.1422 	 
H 	 -115.781 	 59.6779 	 -73.7943 	 
C 	 -116.965 	 59.6474 	 -75.7711 	 
H 	 -116.353 	 58.8844 	 -76.2259 	 
H 	 -117.103 	 60.2823 	 -76.6355 	 
C 	 -118.19 	 59.1183 	 -75.0897 	 
H 	 -118.813 	 58.4519 	 -75.6906 	 
H 	 -118.804 	 59.8286 	 -74.6418 	 
H 	 -117.89 	 58.4894 	 -74.3284 	 
H 	 -116.924 	 64.5939 	 -79.2086 	 
H 	 -111.369 	 60.2227 	 -74.7683 	 
*
