! wB97X-D3 SP def2-SVP
%pal
nprocs 24
end

* xyz 0 1
S 	 -84.5138 	 0.841309 	 -115.037 	 
C 	 -84.356 	 0.748379 	 -116.787 	 
C 	 -85.5939 	 0.498172 	 -117.452 	 
C 	 -86.6749 	 0.460364 	 -116.511 	 
C 	 -86.3122 	 0.615862 	 -115.186 	 
H 	 -87.7068 	 0.321041 	 -116.691 	 
C 	 -85.8013 	 0.342584 	 -118.889 	 
H 	 -86.2188 	 -0.643369 	 -119.208 	 
H 	 -84.8284 	 0.393689 	 -119.367 	 
C 	 -86.7778 	 1.33124 	 -119.523 	 
H 	 -87.0007 	 1.03034 	 -120.573 	 
H 	 -87.667 	 1.13695 	 -118.991 	 
C 	 -86.2935 	 2.76849 	 -119.494 	 
H 	 -86.2806 	 3.22685 	 -118.55 	 
H 	 -85.3054 	 2.92649 	 -119.961 	 
H 	 -87.0391 	 3.43348 	 -120.063 	 
S 	 -88.2297 	 -0.572875 	 -113.588 	 
C 	 -88.8565 	 0.255775 	 -112.168 	 
C 	 -88.3566 	 1.53721 	 -112.159 	 
C 	 -87.4549 	 1.91859 	 -113.191 	 
C 	 -87.2026 	 0.803038 	 -114.007 	 
H 	 -88.6457 	 2.22018 	 -111.373 	 
C 	 -86.6695 	 3.23236 	 -113.18 	 
H 	 -85.5631 	 3.10844 	 -113.307 	 
H 	 -86.6983 	 3.59978 	 -112.183 	 
C 	 -87.0338 	 4.21015 	 -114.34 	 
H 	 -87.0967 	 3.53057 	 -115.152 	 
H 	 -86.3528 	 4.97548 	 -114.573 	 
C 	 -88.4011 	 4.87946 	 -114.312 	 
H 	 -89.2839 	 4.20303 	 -114.244 	 
H 	 -88.5111 	 5.59586 	 -115.129 	 
H 	 -88.5312 	 5.50782 	 -113.383 	 
H 	 -83.4524 	 0.622133 	 -117.404 	 
H 	 -89.6866 	 -0.0699637 	 -111.649 	 
*
