! wB97X-D3 SP def2-SVP
%pal
nprocs 24
end

* xyz 0 1
S 	 -50.1227 	 10.3899 	 -16.5928 	 
C 	 -50.7431 	 9.97832 	 -15.0727 	 
C 	 -49.8358 	 10.2687 	 -14.034 	 
C 	 -48.7508 	 11.143 	 -14.5005 	 
C 	 -48.714 	 11.3093 	 -15.8841 	 
H 	 -47.9365 	 11.6146 	 -13.9761 	 
C 	 -50.0023 	 9.91163 	 -12.5783 	 
H 	 -50.9528 	 9.41047 	 -12.531 	 
H 	 -50.1344 	 10.7414 	 -11.9126 	 
C 	 -48.9987 	 8.87295 	 -12.1342 	 
H 	 -49.0365 	 7.84931 	 -12.6158 	 
H 	 -47.9907 	 9.29775 	 -12.3634 	 
C 	 -48.9819 	 8.7363 	 -10.6043 	 
H 	 -48.1793 	 8.11216 	 -10.1386 	 
H 	 -48.9801 	 9.65654 	 -9.97625 	 
H 	 -49.8852 	 8.27138 	 -10.3895 	 
S 	 -46.9257 	 10.8217 	 -17.9009 	 
C 	 -46.0971 	 12.2655 	 -18.6129 	 
C 	 -46.4634 	 13.41 	 -18.0253 	 
C 	 -47.2421 	 13.2121 	 -16.8347 	 
C 	 -47.7304 	 11.9368 	 -16.7349 	 
H 	 -46.0937 	 14.3576 	 -18.4784 	 
C 	 -47.7433 	 14.4574 	 -16.0682 	 
H 	 -48.7276 	 14.2153 	 -15.6899 	 
H 	 -47.7501 	 15.1936 	 -16.8669 	 
C 	 -46.8227 	 14.9407 	 -14.9577 	 
H 	 -45.9281 	 15.3358 	 -15.3836 	 
H 	 -46.5889 	 14.1417 	 -14.25 	 
C 	 -47.5791 	 16.0855 	 -14.1336 	 
H 	 -48.1861 	 16.8172 	 -14.688 	 
H 	 -46.8049 	 16.7177 	 -13.6419 	 
H 	 -48.2035 	 15.5864 	 -13.4016 	 
H 	 -51.6475 	 9.29487 	 -14.9571 	 
H 	 -45.3845 	 12.2145 	 -19.4202 	 
*
