! wB97X-D3 SP def2-SVP
%pal
nprocs 24
end

* xyz 0 1
S 	 -108.562 	 15.3366 	 -122.741 	 
C 	 -110.057 	 14.3684 	 -122.77 	 
C 	 -111.138 	 15.176 	 -122.51 	 
C 	 -110.793 	 16.5603 	 -122.37 	 
C 	 -109.46 	 16.8162 	 -122.59 	 
H 	 -111.365 	 17.4278 	 -122.083 	 
C 	 -112.512 	 14.5703 	 -122.32 	 
H 	 -113.183 	 15.3083 	 -121.834 	 
H 	 -112.365 	 13.7125 	 -121.614 	 
C 	 -113.086 	 13.9808 	 -123.625 	 
H 	 -112.433 	 13.3372 	 -124.219 	 
H 	 -113.955 	 13.3817 	 -123.5 	 
C 	 -113.591 	 15.0541 	 -124.564 	 
H 	 -114.17 	 15.8453 	 -124.047 	 
H 	 -112.741 	 15.5613 	 -125.075 	 
H 	 -114.31 	 14.6285 	 -125.311 	 
S 	 -108.689 	 18.5866 	 -120.581 	 
C 	 -108.044 	 20.1654 	 -121.106 	 
C 	 -108.271 	 20.4559 	 -122.448 	 
C 	 -108.708 	 19.2819 	 -123.123 	 
C 	 -108.93 	 18.1929 	 -122.294 	 
H 	 -108.058 	 21.432 	 -122.872 	 
C 	 -108.924 	 19.1614 	 -124.597 	 
H 	 -108.949 	 18.1017 	 -124.943 	 
H 	 -107.922 	 19.2924 	 -124.958 	 
C 	 -110.053 	 20.0885 	 -125.112 	 
H 	 -109.749 	 21.1172 	 -124.833 	 
H 	 -110.941 	 19.9134 	 -124.522 	 
C 	 -110.331 	 19.9862 	 -126.602 	 
H 	 -110.475 	 18.9016 	 -126.719 	 
H 	 -109.647 	 20.4811 	 -127.352 	 
H 	 -111.301 	 20.4165 	 -126.792 	 
H 	 -110.152 	 13.3064 	 -122.806 	 
H 	 -107.642 	 20.8785 	 -120.354 	 
*
