! wB97X-D3 SP def2-SVP
%pal
nprocs 24
end

* xyz 0 1
S 	 -98.2669 	 6.13685 	 0.573794 	 
C 	 -99.7298 	 6.03728 	 -0.370642 	 
C 	 -100.806 	 5.9565 	 0.481994 	 
C 	 -100.42 	 6.04833 	 1.87366 	 
C 	 -99.0998 	 6.25788 	 2.08206 	 
H 	 -101.114 	 5.98925 	 2.74112 	 
C 	 -102.261 	 5.89278 	 -0.0419997 	 
H 	 -102.916 	 6.25789 	 0.752554 	 
H 	 -102.544 	 4.82779 	 -0.198411 	 
C 	 -102.558 	 6.6338 	 -1.30506 	 
H 	 -102.112 	 7.66862 	 -1.24685 	 
H 	 -102.041 	 6.11821 	 -2.13224 	 
C 	 -104.043 	 6.53413 	 -1.56508 	 
H 	 -104.636 	 7.14978 	 -0.882947 	 
H 	 -104.235 	 6.89866 	 -2.57557 	 
H 	 -104.42 	 5.49701 	 -1.4878 	 
S 	 -98.5971 	 7.76147 	 4.36344 	 
C 	 -97.3822 	 7.22702 	 5.49265 	 
C 	 -96.8575 	 6.03105 	 5.10338 	 
C 	 -97.3379 	 5.57342 	 3.83801 	 
C 	 -98.3413 	 6.3815 	 3.31629 	 
H 	 -96.1361 	 5.44185 	 5.61129 	 
C 	 -96.861 	 4.22285 	 3.28208 	 
H 	 -96.0564 	 3.76172 	 3.82031 	 
H 	 -96.2843 	 4.64979 	 2.43672 	 
C 	 -97.8184 	 3.2053 	 2.88638 	 
H 	 -97.4204 	 2.56118 	 2.11698 	 
H 	 -98.6066 	 3.60909 	 2.30659 	 
C 	 -98.4408 	 2.48393 	 4.11286 	 
H 	 -97.6109 	 1.97284 	 4.60752 	 
H 	 -99.163 	 1.70506 	 3.84687 	 
H 	 -98.9387 	 3.17144 	 4.87651 	 
H 	 -99.723 	 6.00516 	 -1.47811 	 
H 	 -97.1658 	 7.67111 	 6.42346 	 
*
