! wB97X-D3 SP def2-SVP
%pal
nprocs 24
end

* xyz 0 1
S 	 -111.691 	 60.4701 	 -72.1479 	 
C 	 -110.017 	 60.2174 	 -72.1826 	 
C 	 -109.38 	 61.1668 	 -72.919 	 
C 	 -110.267 	 61.9797 	 -73.683 	 
C 	 -111.591 	 61.6288 	 -73.4339 	 
H 	 -109.942 	 62.8037 	 -74.2146 	 
C 	 -107.935 	 61.2675 	 -73.0928 	 
H 	 -107.728 	 61.1249 	 -74.1203 	 
H 	 -107.553 	 60.4229 	 -72.4907 	 
C 	 -107.332 	 62.6066 	 -72.5966 	 
H 	 -106.238 	 62.666 	 -72.7213 	 
H 	 -107.854 	 63.3062 	 -73.2635 	 
C 	 -107.707 	 62.9954 	 -71.1535 	 
H 	 -108.783 	 62.9001 	 -71.0079 	 
H 	 -107.289 	 62.4542 	 -70.3593 	 
H 	 -107.457 	 63.9823 	 -70.9042 	 
S 	 -113.603 	 63.2265 	 -72.5598 	 
C 	 -114.601 	 64.049 	 -73.7463 	 
C 	 -114.125 	 63.8529 	 -75.0014 	 
C 	 -113.086 	 62.886 	 -75.0739 	 
C 	 -112.753 	 62.3561 	 -73.8295 	 
H 	 -114.535 	 64.3932 	 -75.8247 	 
C 	 -112.432 	 62.6437 	 -76.4211 	 
H 	 -111.503 	 62.097 	 -76.4181 	 
H 	 -112.102 	 63.6139 	 -76.7922 	 
C 	 -113.195 	 61.8383 	 -77.4623 	 
H 	 -113.635 	 61.0157 	 -76.9236 	 
H 	 -112.514 	 61.386 	 -78.1712 	 
C 	 -114.272 	 62.6963 	 -78.2639 	 
H 	 -114.947 	 63.257 	 -77.6002 	 
H 	 -114.865 	 62.0545 	 -78.8169 	 
H 	 -113.768 	 63.3518 	 -78.9404 	 
H 	 -109.578 	 59.3632 	 -71.6327 	 
H 	 -115.415 	 64.6754 	 -73.3582 	 
*
