! wB97X-D3 SP def2-SVP
%pal
nprocs 24
end

* xyz 0 1
S 	 -114.988 	 22.9892 	 -115.493 	 
C 	 -116.449 	 22.7536 	 -116.444 	 
C 	 -117.44 	 23.631 	 -116.041 	 
C 	 -117.014 	 24.5291 	 -114.935 	 
C 	 -115.669 	 24.333 	 -114.56 	 
H 	 -117.456 	 25.4102 	 -114.581 	 
C 	 -118.777 	 23.7681 	 -116.734 	 
H 	 -118.667 	 23.076 	 -117.572 	 
H 	 -118.793 	 24.7198 	 -117.227 	 
C 	 -120.055 	 23.7374 	 -115.812 	 
H 	 -119.998 	 22.8494 	 -115.217 	 
H 	 -120.099 	 24.4942 	 -114.972 	 
C 	 -121.435 	 23.801 	 -116.616 	 
H 	 -121.568 	 24.6937 	 -117.329 	 
H 	 -121.55 	 22.9007 	 -117.198 	 
H 	 -122.251 	 23.7463 	 -115.853 	 
S 	 -113.281 	 25.5745 	 -114.283 	 
C 	 -112.948 	 26.6254 	 -113.004 	 
C 	 -113.781 	 26.297 	 -111.937 	 
C 	 -114.869 	 25.4537 	 -112.332 	 
C 	 -114.841 	 25.1268 	 -113.666 	 
H 	 -113.657 	 26.6426 	 -110.868 	 
C 	 -115.945 	 24.8622 	 -111.47 	 
H 	 -116.612 	 24.1789 	 -111.958 	 
H 	 -116.648 	 25.6829 	 -111.133 	 
C 	 -115.332 	 24.21 	 -110.255 	 
H 	 -116.128 	 23.8367 	 -109.63 	 
H 	 -114.834 	 24.9298 	 -109.626 	 
C 	 -114.421 	 22.9918 	 -110.603 	 
H 	 -113.583 	 23.2725 	 -111.34 	 
H 	 -115.04 	 22.3342 	 -111.139 	 
H 	 -114.117 	 22.5768 	 -109.768 	 
H 	 -116.678 	 22.0606 	 -117.2 	 
H 	 -112.032 	 27.3035 	 -112.896 	 
*
