! wB97X-D3 SP def2-SVP
%pal
nprocs 24
end

* xyz 0 1
S 	 -42.5124 	 18.7573 	 -101.125 	 
C 	 -43.2556 	 19.58 	 -99.8006 	 
C 	 -44.6402 	 19.5516 	 -99.855 	 
C 	 -45.0704 	 18.7516 	 -100.951 	 
C 	 -44.0036 	 18.1801 	 -101.675 	 
H 	 -46.0701 	 18.4857 	 -101.196 	 
C 	 -45.5601 	 20.2479 	 -98.9246 	 
H 	 -46.4716 	 20.6004 	 -99.5179 	 
H 	 -45.0854 	 21.1686 	 -98.6407 	 
C 	 -46.0176 	 19.443 	 -97.6648 	 
H 	 -45.4027 	 18.5658 	 -97.4695 	 
H 	 -46.0267 	 19.988 	 -96.7375 	 
C 	 -47.4378 	 18.8646 	 -97.888 	 
H 	 -48.2095 	 19.5241 	 -97.5673 	 
H 	 -47.506 	 18.4497 	 -98.9237 	 
H 	 -47.4461 	 18.0109 	 -97.2325 	 
S 	 -43.6248 	 17.8438 	 -104.371 	 
C 	 -43.8203 	 16.3181 	 -105.155 	 
C 	 -44.3587 	 15.4338 	 -104.242 	 
C 	 -44.6026 	 16.0184 	 -102.92 	 
C 	 -44.1793 	 17.305 	 -102.808 	 
H 	 -44.3638 	 14.3674 	 -104.48 	 
C 	 -44.9818 	 15.0866 	 -101.738 	 
H 	 -45.9372 	 14.6609 	 -102.004 	 
H 	 -45.3168 	 15.6166 	 -100.832 	 
C 	 -44.1525 	 13.8697 	 -101.497 	 
H 	 -44.0936 	 13.2648 	 -102.396 	 
H 	 -44.7591 	 13.2036 	 -100.777 	 
C 	 -42.7063 	 14.2355 	 -101.09 	 
H 	 -42.6259 	 14.2275 	 -100.044 	 
H 	 -42.3459 	 15.2245 	 -101.451 	 
H 	 -41.9637 	 13.6222 	 -101.53 	 
H 	 -42.7504 	 20.2176 	 -99.1062 	 
H 	 -43.5193 	 16.0815 	 -106.168 	 
*
