! wB97X-D3 SP def2-SVP
%pal
nprocs 24
end

* xyz 0 1
S 	 -118.914 	 27.3694 	 -13.6046 	 
C 	 -118.918 	 26.2673 	 -14.9564 	 
C 	 -117.65 	 26.3311 	 -15.5845 	 
C 	 -116.707 	 27.1137 	 -14.8399 	 
C 	 -117.188 	 27.8464 	 -13.7774 	 
H 	 -115.644 	 27.1848 	 -15.1014 	 
C 	 -117.164 	 25.3752 	 -16.6901 	 
H 	 -117.958 	 24.681 	 -17.0281 	 
H 	 -116.389 	 24.6695 	 -16.3401 	 
C 	 -116.793 	 26.0299 	 -18.0599 	 
H 	 -117.572 	 26.5878 	 -18.5369 	 
H 	 -115.935 	 26.6736 	 -18.089 	 
C 	 -116.581 	 24.9194 	 -19.0954 	 
H 	 -116.08 	 25.2186 	 -20.0292 	 
H 	 -115.923 	 24.2246 	 -18.6989 	 
H 	 -117.412 	 24.2951 	 -19.3783 	 
S 	 -116.869 	 28.5508 	 -11.2271 	 
C 	 -115.725 	 29.8024 	 -10.8075 	 
C 	 -115.19 	 30.3968 	 -11.8835 	 
C 	 -115.616 	 29.8515 	 -13.1355 	 
C 	 -116.472 	 28.7441 	 -12.9241 	 
H 	 -114.619 	 31.2769 	 -11.7569 	 
C 	 -115.128 	 30.3631 	 -14.489 	 
H 	 -115.961 	 30.0186 	 -15.1901 	 
H 	 -114.269 	 29.7379 	 -14.7219 	 
C 	 -114.815 	 31.8841 	 -14.6148 	 
H 	 -114.264 	 32.0095 	 -15.5731 	 
H 	 -114.053 	 32.1503 	 -13.9004 	 
C 	 -116.015 	 32.7927 	 -14.5893 	 
H 	 -116.678 	 32.756 	 -15.4195 	 
H 	 -115.71 	 33.8282 	 -14.5333 	 
H 	 -116.647 	 32.5154 	 -13.748 	 
H 	 -119.785 	 25.7029 	 -15.3115 	 
H 	 -115.572 	 30.1607 	 -9.82142 	 
*
