! wB97X-D3 SP def2-SVP
%pal
nprocs 24
end

* xyz 0 1
S 	 23.2096 	 -23.2547 	 -122.854 	 
C 	 22.9314 	 -24.6182 	 -123.941 	 
C 	 22.9136 	 -25.828 	 -123.295 	 
C 	 23.2035 	 -25.6779 	 -121.912 	 
C 	 23.4935 	 -24.3973 	 -121.547 	 
H 	 23.2353 	 -26.4626 	 -121.192 	 
C 	 22.5773 	 -27.1794 	 -123.937 	 
H 	 23.0613 	 -27.9569 	 -123.299 	 
H 	 23.1502 	 -27.2786 	 -124.921 	 
C 	 21.1057 	 -27.5047 	 -124.044 	 
H 	 20.5916 	 -27.4 	 -123.082 	 
H 	 20.7011 	 -26.811 	 -124.793 	 
C 	 20.7628 	 -28.8785 	 -124.577 	 
H 	 21.125 	 -29.5489 	 -123.802 	 
H 	 19.6791 	 -29.0066 	 -124.74 	 
H 	 21.2582 	 -29.04 	 -125.527 	 
S 	 25.2132 	 -23.1307 	 -119.995 	 
C 	 25.1292 	 -23.2137 	 -118.228 	 
C 	 24.165 	 -24.1337 	 -117.819 	 
C 	 23.2995 	 -24.5628 	 -118.89 	 
C 	 23.7892 	 -24.0883 	 -120.139 	 
H 	 24.0805 	 -24.3385 	 -116.811 	 
C 	 22.1428 	 -25.4864 	 -118.795 	 
H 	 22.3982 	 -26.4492 	 -119.18 	 
H 	 21.3434 	 -25.1669 	 -119.494 	 
C 	 21.5013 	 -25.6397 	 -117.42 	 
H 	 21.066 	 -24.7143 	 -117.126 	 
H 	 22.2898 	 -25.8771 	 -116.667 	 
C 	 20.4634 	 -26.8091 	 -117.51 	 
H 	 20.0198 	 -26.9672 	 -116.491 	 
H 	 20.8354 	 -27.8209 	 -117.748 	 
H 	 19.7382 	 -26.6015 	 -118.255 	 
H 	 22.6946 	 -24.5121 	 -125.005 	 
H 	 25.8284 	 -22.776 	 -117.518 	 
*
