! wB97X-D3 SP def2-SVP
%pal
nprocs 24
end

* xyz 0 1
S 	 -70.1427 	 9.45142 	 -101.597 	 
C 	 -68.7473 	 9.26644 	 -102.686 	 
C 	 -69.1556 	 9.20699 	 -104.01 	 
C 	 -70.5635 	 9.38946 	 -104.16 	 
C 	 -71.1938 	 9.56313 	 -102.947 	 
H 	 -71.0584 	 9.35753 	 -105.148 	 
C 	 -68.2378 	 8.96984 	 -105.194 	 
H 	 -67.2441 	 8.62926 	 -104.829 	 
H 	 -67.9979 	 9.82157 	 -105.785 	 
C 	 -68.8495 	 7.94567 	 -106.196 	 
H 	 -69.7564 	 8.20885 	 -106.728 	 
H 	 -68.1441 	 7.78511 	 -107.057 	 
C 	 -69.1824 	 6.61934 	 -105.477 	 
H 	 -69.2544 	 5.84175 	 -106.246 	 
H 	 -68.4421 	 6.23905 	 -104.786 	 
H 	 -70.1826 	 6.7332 	 -104.987 	 
S 	 -72.9952 	 11.1676 	 -101.728 	 
C 	 -74.744 	 10.9477 	 -101.883 	 
C 	 -74.9978 	 9.8352 	 -102.629 	 
C 	 -73.7628 	 9.13882 	 -103.11 	 
C 	 -72.5962 	 9.79658 	 -102.748 	 
H 	 -76.0953 	 9.69933 	 -102.832 	 
C 	 -73.9147 	 7.78578 	 -103.821 	 
H 	 -73.1595 	 7.85422 	 -104.657 	 
H 	 -74.8719 	 7.84231 	 -104.27 	 
C 	 -73.6666 	 6.52887 	 -103.031 	 
H 	 -74.1941 	 6.54991 	 -102.086 	 
H 	 -72.5271 	 6.59196 	 -102.896 	 
C 	 -73.6859 	 5.1541 	 -103.795 	 
H 	 -74.6863 	 4.9189 	 -104.057 	 
H 	 -73.3323 	 4.51681 	 -103.015 	 
H 	 -73.0397 	 5.28622 	 -104.699 	 
H 	 -67.8016 	 9.05598 	 -102.328 	 
H 	 -75.4853 	 11.6235 	 -101.57 	 
*
