! wB97X-D3 SP def2-SVP
%pal
nprocs 24
end

* xyz 0 1
S 	 -106.663 	 58.4344 	 -7.48714 	 
C 	 -105.612 	 59.7926 	 -6.93745 	 
C 	 -106.382 	 60.8402 	 -6.63245 	 
C 	 -107.773 	 60.4265 	 -6.53826 	 
C 	 -108.056 	 59.1101 	 -6.85661 	 
H 	 -108.676 	 61.1089 	 -6.28753 	 
C 	 -105.845 	 62.2204 	 -6.32563 	 
H 	 -105.051 	 62.5251 	 -6.99586 	 
H 	 -105.319 	 62.2017 	 -5.38008 	 
C 	 -106.826 	 63.3932 	 -6.25876 	 
H 	 -107.369 	 63.4288 	 -7.2258 	 
H 	 -107.551 	 63.1163 	 -5.48256 	 
C 	 -106.153 	 64.6986 	 -5.86213 	 
H 	 -106.723 	 65.5585 	 -6.21869 	 
H 	 -106.185 	 64.7884 	 -4.72904 	 
H 	 -105.124 	 64.6832 	 -6.20005 	 
S 	 -109.808 	 57.8343 	 -8.49677 	 
C 	 -111.392 	 57.3685 	 -7.90915 	 
C 	 -111.696 	 57.96 	 -6.67188 	 
C 	 -110.57 	 58.7065 	 -6.15468 	 
C 	 -109.435 	 58.5942 	 -6.98095 	 
H 	 -112.656 	 57.8846 	 -6.19 	 
C 	 -110.892 	 59.6628 	 -5.00852 	 
H 	 -109.962 	 59.971 	 -4.34937 	 
H 	 -111.469 	 59.0721 	 -4.2737 	 
C 	 -111.706 	 60.7641 	 -5.50382 	 
H 	 -112.556 	 60.4261 	 -5.96833 	 
H 	 -111.062 	 61.2283 	 -6.27805 	 
C 	 -112.134 	 61.8791 	 -4.49424 	 
H 	 -111.317 	 62.5177 	 -4.12394 	 
H 	 -112.58 	 61.5128 	 -3.5032 	 
H 	 -112.921 	 62.4746 	 -4.87221 	 
H 	 -104.551 	 59.8102 	 -6.98711 	 
H 	 -112.073 	 56.6856 	 -8.42683 	 
*
