! wB97X-D3 SP def2-SVP
%pal
nprocs 24
end

* xyz 0 1
S 	 -74.7704 	 -3.23605 	 -66.1572 	 
C 	 -74.242 	 -2.21624 	 -64.8499 	 
C 	 -73.8024 	 -0.994375 	 -65.4003 	 
C 	 -74.0583 	 -0.822881 	 -66.8061 	 
C 	 -74.5823 	 -2.03238 	 -67.39 	 
H 	 -73.7872 	 0.0501628 	 -67.3377 	 
C 	 -72.9884 	 0.0342603 	 -64.6225 	 
H 	 -72.6089 	 0.777483 	 -65.308 	 
H 	 -72.0667 	 -0.416973 	 -64.1237 	 
C 	 -73.7348 	 0.765848 	 -63.4746 	 
H 	 -74.7034 	 1.15696 	 -63.7793 	 
H 	 -73.9249 	 0.0170044 	 -62.6452 	 
C 	 -72.8014 	 1.8196 	 -62.8054 	 
H 	 -71.7676 	 1.6446 	 -62.7571 	 
H 	 -72.7831 	 2.71069 	 -63.4494 	 
H 	 -73.1526 	 2.19496 	 -61.7937 	 
S 	 -74.6325 	 -3.73312 	 -69.5716 	 
C 	 -75.5185 	 -3.26947 	 -71.0381 	 
C 	 -75.9377 	 -1.96906 	 -70.9104 	 
C 	 -75.6999 	 -1.41905 	 -69.6566 	 
C 	 -75.0472 	 -2.25251 	 -68.781 	 
H 	 -76.2473 	 -1.31957 	 -71.749 	 
C 	 -76.1011 	 0.0692538 	 -69.3693 	 
H 	 -76.4028 	 0.154047 	 -68.3773 	 
H 	 -76.9665 	 0.411281 	 -70.0044 	 
C 	 -74.9935 	 1.10265 	 -69.8114 	 
H 	 -74.9208 	 1.14851 	 -70.8994 	 
H 	 -74.0606 	 0.696537 	 -69.5223 	 
C 	 -75.3108 	 2.53644 	 -69.3996 	 
H 	 -76.3191 	 2.9155 	 -69.7369 	 
H 	 -74.6074 	 3.25874 	 -69.8726 	 
H 	 -75.3504 	 2.82255 	 -68.3504 	 
H 	 -73.9454 	 -2.52042 	 -63.8275 	 
H 	 -75.3263 	 -3.6736 	 -71.9846 	 
*
