! wB97X-D3 SP def2-SVP
%pal
nprocs 24
end

* xyz 0 1
S 	 -54.1258 	 17.5541 	 -87.8625 	 
C 	 -55.3532 	 18.2034 	 -88.8831 	 
C 	 -55.8121 	 19.3644 	 -88.3904 	 
C 	 -55.1266 	 19.8407 	 -87.2238 	 
C 	 -54.1322 	 19.0128 	 -86.8935 	 
H 	 -55.3267 	 20.772 	 -86.5999 	 
C 	 -56.9399 	 20.2013 	 -89.0072 	 
H 	 -57.4651 	 20.7396 	 -88.2398 	 
H 	 -57.7375 	 19.5099 	 -89.3514 	 
C 	 -56.3487 	 21.0676 	 -90.0939 	 
H 	 -55.6486 	 21.7324 	 -89.5768 	 
H 	 -55.8337 	 20.5537 	 -90.9055 	 
C 	 -57.4209 	 21.8696 	 -90.9495 	 
H 	 -57.9202 	 22.662 	 -90.4295 	 
H 	 -56.8303 	 22.2517 	 -91.7725 	 
H 	 -58.0812 	 21.2072 	 -91.4485 	 
S 	 -53.5304 	 17.9021 	 -84.3012 	 
C 	 -52.6068 	 18.8853 	 -83.1716 	 
C 	 -52.0775 	 19.9684 	 -83.8014 	 
C 	 -52.5931 	 20.1543 	 -85.1506 	 
C 	 -53.403 	 19.0764 	 -85.6079 	 
H 	 -51.4754 	 20.6816 	 -83.2447 	 
C 	 -52.2637 	 21.4058 	 -85.9588 	 
H 	 -52.6009 	 21.2362 	 -86.9618 	 
H 	 -51.1398 	 21.3797 	 -85.9059 	 
C 	 -52.7503 	 22.758 	 -85.3643 	 
H 	 -52.4731 	 23.0611 	 -84.4341 	 
H 	 -53.8355 	 22.8411 	 -85.3896 	 
C 	 -52.3436 	 23.8326 	 -86.3858 	 
H 	 -51.4259 	 24.3995 	 -86.2354 	 
H 	 -53.0749 	 24.5705 	 -86.1717 	 
H 	 -52.4649 	 23.4147 	 -87.4653 	 
H 	 -55.7586 	 17.7337 	 -89.7391 	 
H 	 -52.4068 	 18.6285 	 -82.1577 	 
*
