! wB97X-D3 SP def2-SVP
%pal
nprocs 24
end

* xyz 0 1
S 	 -136.683 	 7.95184 	 -12.8715 	 
C 	 -136.71 	 8.34149 	 -11.1482 	 
C 	 -136.313 	 9.60848 	 -10.9034 	 
C 	 -135.804 	 10.2073 	 -12.1067 	 
C 	 -135.987 	 9.47202 	 -13.2312 	 
H 	 -135.269 	 11.1245 	 -12.2812 	 
C 	 -136.189 	 10.3011 	 -9.52039 	 
H 	 -135.15 	 10.2644 	 -9.11815 	 
H 	 -136.681 	 9.62045 	 -8.86904 	 
C 	 -136.778 	 11.7289 	 -9.418 	 
H 	 -136.627 	 12.1467 	 -8.37849 	 
H 	 -136.19 	 12.1998 	 -10.1747 	 
C 	 -138.316 	 11.9122 	 -9.74051 	 
H 	 -138.577 	 11.6839 	 -10.7478 	 
H 	 -138.868 	 11.2169 	 -9.07475 	 
H 	 -138.671 	 12.8421 	 -9.54978 	 
S 	 -135.212 	 11.4648 	 -14.9927 	 
C 	 -134.514 	 10.9556 	 -16.509 	 
C 	 -134.645 	 9.58158 	 -16.7799 	 
C 	 -135.061 	 8.87234 	 -15.6463 	 
C 	 -135.375 	 9.70035 	 -14.5368 	 
H 	 -134.349 	 9.11563 	 -17.6982 	 
C 	 -135.158 	 7.31468 	 -15.5931 	 
H 	 -136.156 	 6.88461 	 -15.5449 	 
H 	 -134.738 	 6.95327 	 -14.6368 	 
C 	 -134.469 	 6.55843 	 -16.7698 	 
H 	 -133.568 	 7.19715 	 -16.8756 	 
H 	 -135.142 	 6.68959 	 -17.6038 	 
C 	 -134.038 	 5.09837 	 -16.561 	 
H 	 -133.275 	 5.03701 	 -15.8469 	 
H 	 -133.558 	 4.70259 	 -17.4612 	 
H 	 -134.96 	 4.49978 	 -16.3172 	 
H 	 -136.975 	 7.61002 	 -10.3575 	 
H 	 -134.036 	 11.5455 	 -17.219 	 
*
