! wB97X-D3 SP def2-SVP
%pal
nprocs 24
end

* xyz 0 1
S 	 -58.155 	 4.89159 	 -19.0176 	 
C 	 -56.5341 	 5.44628 	 -19.5181 	 
C 	 -56.0317 	 4.49469 	 -20.4228 	 
C 	 -56.8614 	 3.37314 	 -20.5499 	 
C 	 -58.0673 	 3.37712 	 -19.8509 	 
H 	 -56.6467 	 2.56316 	 -21.1768 	 
C 	 -54.7186 	 4.52588 	 -21.1265 	 
H 	 -54.9525 	 3.99725 	 -22.0341 	 
H 	 -54.0267 	 3.91306 	 -20.6193 	 
C 	 -54.2837 	 5.9236 	 -21.3267 	 
H 	 -55.1174 	 6.61502 	 -21.3952 	 
H 	 -53.8207 	 6.31608 	 -20.3911 	 
C 	 -53.2671 	 6.28627 	 -22.4423 	 
H 	 -52.319 	 5.7755 	 -22.3081 	 
H 	 -53.6462 	 6.23702 	 -23.4737 	 
H 	 -53.0895 	 7.40515 	 -22.3109 	 
S 	 -60.8222 	 3.14147 	 -20.0256 	 
C 	 -61.5033 	 1.53018 	 -20.4211 	 
C 	 -60.5885 	 0.50109 	 -20.2339 	 
C 	 -59.3123 	 1.0714 	 -20.0371 	 
C 	 -59.2302 	 2.4402 	 -19.9553 	 
H 	 -60.9048 	 -0.492131 	 -20.4973 	 
C 	 -58.0677 	 0.218758 	 -19.9344 	 
H 	 -58.2927 	 -0.532275 	 -19.2009 	 
H 	 -57.219 	 0.706452 	 -19.4906 	 
C 	 -57.6859 	 -0.471642 	 -21.2665 	 
H 	 -57.6427 	 0.367551 	 -21.971 	 
H 	 -58.5471 	 -1.07662 	 -21.5403 	 
C 	 -56.4542 	 -1.29165 	 -21.2522 	 
H 	 -56.7233 	 -2.14084 	 -20.6148 	 
H 	 -55.5076 	 -0.896885 	 -20.9563 	 
H 	 -56.2382 	 -1.70702 	 -22.2169 	 
H 	 -56.0115 	 6.34178 	 -19.2521 	 
H 	 -62.5325 	 1.27517 	 -20.6348 	 
*
