! wB97X-D3 SP def2-SVP
%pal
nprocs 24
end

* xyz 0 1
S 	 -135.624 	 27.6868 	 -21.236 	 
C 	 -136.429 	 26.4316 	 -20.3405 	 
C 	 -135.465 	 25.6294 	 -19.7579 	 
C 	 -134.154 	 25.9659 	 -20.0518 	 
C 	 -134.073 	 27.0737 	 -20.8224 	 
H 	 -133.242 	 25.4259 	 -19.7511 	 
C 	 -135.81 	 24.4046 	 -18.8964 	 
H 	 -135.165 	 23.6353 	 -19.3463 	 
H 	 -136.832 	 24.2241 	 -19.0152 	 
C 	 -135.477 	 24.5441 	 -17.382 	 
H 	 -135.726 	 23.6194 	 -16.8366 	 
H 	 -134.405 	 24.8932 	 -17.2533 	 
C 	 -136.373 	 25.6751 	 -16.7859 	 
H 	 -137.436 	 25.3692 	 -16.9611 	 
H 	 -136.219 	 25.737 	 -15.7251 	 
H 	 -136.244 	 26.5921 	 -17.32 	 
S 	 -132.951 	 28.2053 	 -23.041 	 
C 	 -131.352 	 28.8138 	 -22.9322 	 
C 	 -130.753 	 28.5577 	 -21.7089 	 
C 	 -131.593 	 27.8398 	 -20.815 	 
C 	 -132.888 	 27.6739 	 -21.3057 	 
H 	 -129.712 	 28.9238 	 -21.4556 	 
C 	 -131.191 	 27.6278 	 -19.3921 	 
H 	 -132.083 	 27.4315 	 -18.8144 	 
H 	 -130.793 	 28.5594 	 -18.9587 	 
C 	 -130.074 	 26.5194 	 -19.1963 	 
H 	 -129.928 	 26.4685 	 -18.1528 	 
H 	 -129.111 	 26.8533 	 -19.5759 	 
C 	 -130.418 	 25.0959 	 -19.7496 	 
H 	 -131.441 	 24.9303 	 -19.4368 	 
H 	 -129.771 	 24.3274 	 -19.4097 	 
H 	 -130.298 	 25.1519 	 -20.8656 	 
H 	 -137.446 	 26.1462 	 -20.4312 	 
H 	 -130.824 	 29.469 	 -23.5732 	 
*
