! wB97X-D3 SP def2-SVP
%pal
nprocs 24
end

* xyz 0 1
S 	 -104.58 	 -4.44219 	 -120.599 	 
C 	 -106.203 	 -3.96451 	 -121.015 	 
C 	 -106.525 	 -2.82085 	 -120.247 	 
C 	 -105.522 	 -2.36986 	 -119.36 	 
C 	 -104.363 	 -3.21835 	 -119.405 	 
H 	 -105.535 	 -1.53709 	 -118.643 	 
C 	 -107.731 	 -1.96489 	 -120.343 	 
H 	 -108.399 	 -2.24108 	 -119.536 	 
H 	 -108.149 	 -2.30674 	 -121.34 	 
C 	 -107.617 	 -0.437024 	 -120.445 	 
H 	 -107.37 	 -0.0597075 	 -119.458 	 
H 	 -106.882 	 -0.1449 	 -121.162 	 
C 	 -108.999 	 0.193036 	 -120.858 	 
H 	 -108.856 	 1.27879 	 -121.034 	 
H 	 -109.201 	 -0.262447 	 -121.805 	 
H 	 -109.885 	 0.0766683 	 -120.178 	 
S 	 -101.695 	 -2.62473 	 -119.401 	 
C 	 -100.821 	 -2.52182 	 -117.895 	 
C 	 -101.516 	 -3.06607 	 -116.906 	 
C 	 -102.877 	 -3.41109 	 -117.219 	 
C 	 -103.172 	 -3.12533 	 -118.589 	 
H 	 -101.004 	 -3.24825 	 -116.001 	 
C 	 -103.904 	 -3.92732 	 -116.205 	 
H 	 -103.386 	 -4.58579 	 -115.533 	 
H 	 -104.765 	 -4.5121 	 -116.723 	 
C 	 -104.576 	 -2.79097 	 -115.392 	 
H 	 -105.08 	 -2.11466 	 -116.024 	 
H 	 -103.721 	 -2.20478 	 -115.005 	 
C 	 -105.49 	 -3.16754 	 -114.198 	 
H 	 -105.858 	 -2.19654 	 -113.766 	 
H 	 -105.03 	 -3.61709 	 -113.272 	 
H 	 -106.373 	 -3.57162 	 -114.594 	 
H 	 -106.803 	 -4.41663 	 -121.704 	 
H 	 -99.8922 	 -2.1123 	 -117.81 	 
*
