! wB97X-D3 SP def2-SVP
%pal
nprocs 24
end

* xyz 0 1
S 	 -112.621 	 48.378 	 -120.066 	 
C 	 -112.554 	 46.6772 	 -120.334 	 
C 	 -111.916 	 46.0505 	 -119.281 	 
C 	 -111.391 	 46.9646 	 -118.307 	 
C 	 -111.759 	 48.2802 	 -118.519 	 
H 	 -110.812 	 46.6927 	 -117.453 	 
C 	 -111.476 	 44.5832 	 -119.318 	 
H 	 -111.761 	 44.0961 	 -120.274 	 
H 	 -112.026 	 43.925 	 -118.638 	 
C 	 -109.988 	 44.3398 	 -119.22 	 
H 	 -109.447 	 44.5834 	 -118.23 	 
H 	 -109.951 	 43.2559 	 -119.309 	 
C 	 -109.207 	 44.989 	 -120.295 	 
H 	 -109.362 	 46.0683 	 -120.259 	 
H 	 -108.143 	 44.8604 	 -120.113 	 
H 	 -109.465 	 44.6501 	 -121.292 	 
S 	 -111.238 	 51.0114 	 -118.383 	 
C 	 -110.929 	 51.7144 	 -116.799 	 
C 	 -110.953 	 50.8131 	 -115.791 	 
C 	 -111.165 	 49.4685 	 -116.229 	 
C 	 -111.482 	 49.3791 	 -117.61 	 
H 	 -110.853 	 51.2181 	 -114.751 	 
C 	 -111.125 	 48.3502 	 -115.21 	 
H 	 -110.628 	 48.675 	 -114.292 	 
H 	 -110.536 	 47.5313 	 -115.562 	 
C 	 -112.552 	 47.7299 	 -114.928 	 
H 	 -112.406 	 46.8103 	 -114.39 	 
H 	 -113.048 	 47.3786 	 -115.808 	 
C 	 -113.391 	 48.768 	 -114.222 	 
H 	 -113.769 	 49.5339 	 -114.947 	 
H 	 -112.855 	 49.2478 	 -113.394 	 
H 	 -114.196 	 48.2686 	 -113.808 	 
H 	 -112.953 	 46.2754 	 -121.267 	 
H 	 -110.736 	 52.7596 	 -116.622 	 
*
