! wB97X-D3 SP def2-SVP
%pal
nprocs 24
end

* xyz 0 1
S 	 -127.04 	 61.3771 	 -56.3336 	 
C 	 -127.625 	 59.7742 	 -56.8102 	 
C 	 -128.826 	 59.6075 	 -56.1895 	 
C 	 -129.326 	 60.7162 	 -55.4617 	 
C 	 -128.451 	 61.763 	 -55.3594 	 
H 	 -130.305 	 60.7993 	 -54.9847 	 
C 	 -129.705 	 58.436 	 -56.4877 	 
H 	 -130.411 	 58.383 	 -55.5723 	 
H 	 -129.137 	 57.5169 	 -56.473 	 
C 	 -130.645 	 58.6414 	 -57.6785 	 
H 	 -131.176 	 59.6008 	 -57.4476 	 
H 	 -130.035 	 58.7645 	 -58.6007 	 
C 	 -131.668 	 57.4768 	 -57.9362 	 
H 	 -131.901 	 57.2087 	 -56.9655 	 
H 	 -132.516 	 57.6559 	 -58.6086 	 
H 	 -131.266 	 56.6673 	 -58.4499 	 
S 	 -128.731 	 64.5141 	 -55.432 	 
C 	 -128.245 	 65.4359 	 -54.0028 	 
C 	 -128.036 	 64.5554 	 -52.9752 	 
C 	 -128.181 	 63.202 	 -53.2682 	 
C 	 -128.436 	 63.001 	 -54.5728 	 
H 	 -127.808 	 65.031 	 -52.0338 	 
C 	 -127.789 	 62.1205 	 -52.222 	 
H 	 -126.748 	 62.3317 	 -51.9109 	 
H 	 -127.683 	 61.158 	 -52.6709 	 
C 	 -128.766 	 62.1534 	 -50.9722 	 
H 	 -129.683 	 61.5677 	 -51.2009 	 
H 	 -129.198 	 63.189 	 -50.7537 	 
C 	 -128.268 	 61.7513 	 -49.5408 	 
H 	 -128.968 	 61.6681 	 -48.7141 	 
H 	 -127.586 	 62.5281 	 -49.1353 	 
H 	 -127.731 	 60.729 	 -49.56 	 
H 	 -127.143 	 59.0361 	 -57.4501 	 
H 	 -128.338 	 66.4991 	 -53.888 	 
*
