! wB97X-D3 SP def2-SVP
%pal
nprocs 24
end

* xyz 0 1
S 	 -138.36 	 7.15752 	 1.34822 	 
C 	 -139.401 	 7.63221 	 0.107074 	 
C 	 -138.681 	 8.25844 	 -0.92924 	 
C 	 -137.302 	 8.36909 	 -0.715786 	 
C 	 -136.949 	 7.78244 	 0.456154 	 
H 	 -136.472 	 8.79371 	 -1.26075 	 
C 	 -139.302 	 8.91304 	 -2.12265 	 
H 	 -140.016 	 8.26301 	 -2.59768 	 
H 	 -138.556 	 9.04449 	 -2.86864 	 
C 	 -139.764 	 10.3119 	 -1.80542 	 
H 	 -140.548 	 10.2593 	 -1.03762 	 
H 	 -139.029 	 11.0056 	 -1.42358 	 
C 	 -140.28 	 11.0377 	 -3.09978 	 
H 	 -141.228 	 10.6045 	 -3.39433 	 
H 	 -140.367 	 12.112 	 -2.92663 	 
H 	 -139.538 	 10.929 	 -3.90566 	 
S 	 -135.102 	 9.12059 	 1.96497 	 
C 	 -133.428 	 8.53575 	 2.03049 	 
C 	 -133.325 	 7.18758 	 1.71334 	 
C 	 -134.489 	 6.87404 	 0.959619 	 
C 	 -135.595 	 7.72456 	 1.08785 	 
H 	 -132.434 	 6.55534 	 1.86835 	 
C 	 -134.494 	 5.48284 	 0.290511 	 
H 	 -133.56 	 5.39695 	 -0.174279 	 
H 	 -135.114 	 5.45502 	 -0.614773 	 
C 	 -134.818 	 4.26931 	 1.14161 	 
H 	 -134.26 	 4.24785 	 1.99661 	 
H 	 -134.505 	 3.35927 	 0.603918 	 
C 	 -136.351 	 4.16982 	 1.32109 	 
H 	 -136.798 	 4.54467 	 0.422044 	 
H 	 -136.696 	 4.69312 	 2.20998 	 
H 	 -136.57 	 3.09877 	 1.35545 	 
H 	 -140.417 	 7.53912 	 0.0435846 	 
H 	 -132.604 	 9.08282 	 2.49579 	 
*
