! wB97X-D3 SP def2-SVP
%pal
nprocs 24
end

* xyz 0 1
S 	 -119.968 	 51.8504 	 -31.7924 	 
C 	 -120.453 	 50.2735 	 -32.3703 	 
C 	 -121.713 	 49.9173 	 -31.9379 	 
C 	 -122.388 	 51.0525 	 -31.371 	 
C 	 -121.592 	 52.134 	 -31.1873 	 
H 	 -123.38 	 51.186 	 -30.9774 	 
C 	 -122.404 	 48.5711 	 -32.1975 	 
H 	 -123.042 	 48.2199 	 -31.345 	 
H 	 -121.631 	 47.7663 	 -32.2616 	 
C 	 -123.22 	 48.4745 	 -33.5238 	 
H 	 -123.962 	 47.6962 	 -33.2533 	 
H 	 -123.793 	 49.292 	 -33.6522 	 
C 	 -122.512 	 48.0513 	 -34.8266 	 
H 	 -122.076 	 48.9024 	 -35.3029 	 
H 	 -121.845 	 47.2343 	 -34.7228 	 
H 	 -123.12 	 47.8336 	 -35.6091 	 
S 	 -120.763 	 54.1969 	 -29.5626 	 
C 	 -121.866 	 55.5139 	 -29.1497 	 
C 	 -122.951 	 55.3481 	 -29.9253 	 
C 	 -123.116 	 54.1527 	 -30.6384 	 
C 	 -121.997 	 53.3728 	 -30.5276 	 
H 	 -123.593 	 56.1614 	 -30.0511 	 
C 	 -124.286 	 53.9073 	 -31.6313 	 
H 	 -124.071 	 53.0461 	 -32.2414 	 
H 	 -124.182 	 54.7497 	 -32.3385 	 
C 	 -125.691 	 53.8374 	 -31.0445 	 
H 	 -126 	 54.8011 	 -30.6532 	 
H 	 -125.756 	 53.0187 	 -30.2712 	 
C 	 -126.687 	 53.512 	 -32.1694 	 
H 	 -127.645 	 53.6252 	 -31.7871 	 
H 	 -126.576 	 52.5078 	 -32.6133 	 
H 	 -126.774 	 54.3353 	 -32.9403 	 
H 	 -119.768 	 49.6885 	 -32.9814 	 
H 	 -121.579 	 56.4939 	 -28.7693 	 
*
