! wB97X-D3 SP def2-SVP
%pal
nprocs 24
end

* xyz 0 1
S 	 -45.3982 	 9.44797 	 29.1038 	 
C 	 -45.5892 	 8.17358 	 27.8965 	 
C 	 -45.6862 	 8.75908 	 26.6317 	 
C 	 -45.6968 	 10.1954 	 26.7177 	 
C 	 -45.6167 	 10.7501 	 27.9668 	 
H 	 -45.7572 	 10.7907 	 25.8725 	 
C 	 -45.6292 	 7.91582 	 25.2955 	 
H 	 -44.9884 	 7.01107 	 25.54 	 
H 	 -45.148 	 8.4559 	 24.4494 	 
C 	 -47.0841 	 7.53569 	 24.8012 	 
H 	 -47.1277 	 6.82472 	 24.0406 	 
H 	 -47.5691 	 7.10872 	 25.664 	 
C 	 -47.8372 	 8.80346 	 24.4215 	 
H 	 -48.8586 	 8.53726 	 24.1448 	 
H 	 -47.963 	 9.55569 	 25.1926 	 
H 	 -47.3233 	 9.25082 	 23.5506 	 
S 	 -44.5828 	 12.4239 	 29.691 	 
C 	 -44.9124 	 14.1226 	 29.4685 	 
C 	 -45.7633 	 14.4479 	 28.4591 	 
C 	 -46.1013 	 13.2976 	 27.6921 	 
C 	 -45.5644 	 12.1283 	 28.3058 	 
H 	 -46.01 	 15.4864 	 28.2488 	 
C 	 -47.1995 	 13.2934 	 26.6277 	 
H 	 -48.0861 	 13.7475 	 27.0742 	 
H 	 -47.3803 	 12.3008 	 26.1797 	 
C 	 -46.7786 	 14.237 	 25.4136 	 
H 	 -46.7459 	 15.2214 	 25.9031 	 
H 	 -47.6261 	 14.2806 	 24.7171 	 
C 	 -45.3717 	 13.7834 	 24.716 	 
H 	 -44.542 	 13.7258 	 25.5476 	 
H 	 -44.8817 	 14.5223 	 24.0001 	 
H 	 -45.5151 	 12.8426 	 24.2752 	 
H 	 -45.4811 	 7.08329 	 28.075 	 
H 	 -44.6733 	 14.7755 	 30.3272 	 
*
