! wB97X-D3 SP def2-SVP
%pal
nprocs 24
end

* xyz 0 1
S 	 -134.876 	 30.5311 	 -17.6353 	 
C 	 -135.326 	 29.5292 	 -18.99 	 
C 	 -136.497 	 28.9591 	 -18.8231 	 
C 	 -137.054 	 29.1175 	 -17.5382 	 
C 	 -136.273 	 29.9843 	 -16.7577 	 
H 	 -137.906 	 28.666 	 -17.1542 	 
C 	 -137.162 	 28.1358 	 -19.8496 	 
H 	 -136.472 	 27.9989 	 -20.6899 	 
H 	 -138.094 	 28.5404 	 -20.2537 	 
C 	 -137.573 	 26.7204 	 -19.3634 	 
H 	 -136.723 	 26.2488 	 -18.9326 	 
H 	 -138.303 	 26.9262 	 -18.5314 	 
C 	 -138.189 	 25.7459 	 -20.3701 	 
H 	 -138.394 	 24.8096 	 -19.7899 	 
H 	 -139.092 	 26.2021 	 -20.8077 	 
H 	 -137.401 	 25.5408 	 -21.0961 	 
S 	 -136.886 	 28.831 	 -14.2782 	 
C 	 -136.997 	 29.8307 	 -12.8925 	 
C 	 -136.669 	 31.1028 	 -13.2453 	 
C 	 -136.446 	 31.3729 	 -14.63 	 
C 	 -136.435 	 30.1979 	 -15.3482 	 
H 	 -136.594 	 31.8489 	 -12.4468 	 
C 	 -136.08 	 32.7567 	 -15.2616 	 
H 	 -135.194 	 32.6969 	 -15.847 	 
H 	 -135.801 	 33.4398 	 -14.4678 	 
C 	 -137.121 	 33.4467 	 -16.0707 	 
H 	 -138.166 	 33.4933 	 -15.6195 	 
H 	 -137.412 	 32.8108 	 -16.9624 	 
C 	 -136.694 	 34.793 	 -16.6261 	 
H 	 -135.79 	 34.6655 	 -17.2314 	 
H 	 -136.68 	 35.6192 	 -15.906 	 
H 	 -137.477 	 35.1396 	 -17.3065 	 
H 	 -134.633 	 29.3685 	 -19.7773 	 
H 	 -136.981 	 29.5077 	 -11.8779 	 
*
