! wB97X-D3 SP def2-SVP
%pal
nprocs 24
end

* xyz 0 1
S 	 -55.5405 	 4.44511 	 -100.438 	 
C 	 -57.2551 	 4.54186 	 -100.619 	 
C 	 -57.7763 	 5.68013 	 -99.9543 	 
C 	 -56.7649 	 6.42977 	 -99.2884 	 
C 	 -55.4945 	 5.84466 	 -99.3808 	 
H 	 -56.9679 	 7.30551 	 -98.6799 	 
C 	 -59.2412 	 5.95817 	 -99.9397 	 
H 	 -59.4321 	 6.65044 	 -99.0267 	 
H 	 -59.8386 	 4.99011 	 -99.6516 	 
C 	 -59.744 	 6.55786 	 -101.312 	 
H 	 -59.1253 	 7.4153 	 -101.563 	 
H 	 -59.6627 	 5.87452 	 -102.155 	 
C 	 -61.1358 	 7.07713 	 -101.346 	 
H 	 -61.1948 	 7.88546 	 -102.093 	 
H 	 -61.754 	 6.23022 	 -101.674 	 
H 	 -61.4446 	 7.36957 	 -100.362 	 
S 	 -53.4925 	 5.2111 	 -97.5292 	 
C 	 -52.339 	 6.41226 	 -97.0343 	 
C 	 -52.7768 	 7.66094 	 -97.4765 	 
C 	 -53.8528 	 7.64407 	 -98.4033 	 
C 	 -54.3064 	 6.34001 	 -98.644 	 
H 	 -52.3444 	 8.5631 	 -97.1093 	 
C 	 -54.3557 	 8.97388 	 -99.0499 	 
H 	 -54.4135 	 9.84776 	 -98.3767 	 
H 	 -55.3814 	 8.79018 	 -99.3778 	 
C 	 -53.5158 	 9.29126 	 -100.243 	 
H 	 -53.2911 	 8.35111 	 -100.822 	 
H 	 -52.4748 	 9.60765 	 -99.8893 	 
C 	 -54.2494 	 10.3438 	 -101.14 	 
H 	 -54.7006 	 11.2666 	 -100.627 	 
H 	 -54.9621 	 9.76497 	 -101.714 	 
H 	 -53.4346 	 10.6636 	 -101.795 	 
H 	 -57.7955 	 3.82987 	 -101.142 	 
H 	 -51.6304 	 6.25339 	 -96.231 	 
*
