! wB97X-D3 SP def2-SVP
%pal
nprocs 24
end

* xyz 0 1
S 	 -96.9738 	 0.637326 	 -105.792 	 
C 	 -96.4689 	 2.13745 	 -106.563 	 
C 	 -97.0785 	 3.26269 	 -106.108 	 
C 	 -97.7831 	 2.93464 	 -104.925 	 
C 	 -97.8152 	 1.58428 	 -104.587 	 
H 	 -98.4555 	 3.56167 	 -104.404 	 
C 	 -97.0288 	 4.60124 	 -106.781 	 
H 	 -98.0916 	 4.89045 	 -106.792 	 
H 	 -96.5965 	 4.39218 	 -107.786 	 
C 	 -96.2416 	 5.69682 	 -105.886 	 
H 	 -96.6883 	 5.72127 	 -104.905 	 
H 	 -95.1908 	 5.43569 	 -105.734 	 
C 	 -96.3393 	 7.0587 	 -106.484 	 
H 	 -96.1212 	 7.04403 	 -107.557 	 
H 	 -97.403 	 7.44655 	 -106.289 	 
H 	 -95.5929 	 7.6973 	 -105.991 	 
S 	 -99.6076 	 -0.371394 	 -103.722 	 
C 	 -100.233 	 -0.247794 	 -102.113 	 
C 	 -99.3857 	 0.525299 	 -101.358 	 
C 	 -98.4483 	 1.30327 	 -102.089 	 
C 	 -98.4816 	 0.904883 	 -103.448 	 
H 	 -99.5964 	 0.64892 	 -100.313 	 
C 	 -97.7553 	 2.50553 	 -101.499 	 
H 	 -98.4269 	 2.92981 	 -100.726 	 
H 	 -97.7221 	 3.26764 	 -102.348 	 
C 	 -96.306 	 2.31329 	 -100.825 	 
H 	 -95.6341 	 1.88389 	 -101.609 	 
H 	 -96.3444 	 1.59515 	 -100.045 	 
C 	 -95.7569 	 3.56465 	 -100.203 	 
H 	 -95.544 	 4.26242 	 -100.958 	 
H 	 -94.7591 	 3.32596 	 -99.7462 	 
H 	 -96.3542 	 4.06641 	 -99.4742 	 
H 	 -95.9726 	 2.14508 	 -107.554 	 
H 	 -100.981 	 -0.900505 	 -101.709 	 
*
