! wB97X-D3 SP def2-SVP
%pal
nprocs 24
end

* xyz 0 1
S 	 -38.7871 	 15.6492 	 12.6939 	 
C 	 -38.4839 	 14.3486 	 13.8318 	 
C 	 -38.8012 	 14.6912 	 15.1354 	 
C 	 -39.3088 	 16.0638 	 15.1699 	 
C 	 -39.4206 	 16.7056 	 13.9186 	 
H 	 -39.6507 	 16.7014 	 15.9741 	 
C 	 -38.6389 	 13.703 	 16.359 	 
H 	 -38.3417 	 14.2376 	 17.2211 	 
H 	 -37.8297 	 13.0973 	 15.9895 	 
C 	 -39.9962 	 13.0237 	 16.5774 	 
H 	 -40.7314 	 13.7992 	 16.7662 	 
H 	 -40.3311 	 12.4599 	 15.6493 	 
C 	 -39.9826 	 12.0214 	 17.7312 	 
H 	 -39.5362 	 11.0841 	 17.3267 	 
H 	 -39.264 	 12.4389 	 18.4124 	 
H 	 -40.9453 	 11.9137 	 18.1887 	 
S 	 -41.4153 	 18.4562 	 14.2271 	 
C 	 -41.1944 	 20.101 	 13.7102 	 
C 	 -39.9111 	 20.3061 	 13.2555 	 
C 	 -39.0781 	 19.1291 	 13.3887 	 
C 	 -39.7913 	 18.0475 	 13.7341 	 
H 	 -39.5173 	 21.1994 	 12.8504 	 
C 	 -37.6188 	 19.1118 	 12.9801 	 
H 	 -37.6968 	 19.3732 	 11.883 	 
H 	 -37.2909 	 18.0211 	 13.0331 	 
C 	 -36.555 	 19.9192 	 13.6996 	 
H 	 -36.952 	 20.9877 	 13.64 	 
H 	 -35.6676 	 20.0394 	 13.0532 	 
C 	 -36.2011 	 19.4783 	 15.1474 	 
H 	 -37.0352 	 19.5251 	 15.758 	 
H 	 -35.4671 	 20.1257 	 15.5642 	 
H 	 -35.92 	 18.5082 	 15.2226 	 
H 	 -38.1145 	 13.3433 	 13.6224 	 
H 	 -41.979 	 20.8773 	 13.8455 	 
*
