! wB97X-D3 SP def2-SVP
%pal
nprocs 24
end

* xyz 0 1
S 	 -50.2094 	 4.6118 	 -17.901 	 
C 	 -50.6883 	 2.95438 	 -18.2321 	 
C 	 -50.4279 	 2.13759 	 -17.1057 	 
C 	 -49.8325 	 2.87469 	 -16.044 	 
C 	 -49.5666 	 4.21905 	 -16.3151 	 
H 	 -49.5457 	 2.54099 	 -15.0995 	 
C 	 -50.6584 	 0.676574 	 -17.0545 	 
H 	 -51.5032 	 0.485599 	 -17.7277 	 
H 	 -50.9941 	 0.457813 	 -16.057 	 
C 	 -49.6067 	 -0.216488 	 -17.5583 	 
H 	 -49.9511 	 -1.24573 	 -17.3333 	 
H 	 -49.5748 	 -0.0501939 	 -18.6404 	 
C 	 -48.2195 	 -0.0550152 	 -17.0141 	 
H 	 -47.651 	 -0.922386 	 -17.1401 	 
H 	 -47.8611 	 0.867193 	 -17.4892 	 
H 	 -48.2571 	 0.0111459 	 -15.9776 	 
S 	 -50.0118 	 6.69523 	 -15.3321 	 
C 	 -49.1866 	 7.23929 	 -13.9198 	 
C 	 -48.1939 	 6.36217 	 -13.5712 	 
C 	 -48.1393 	 5.16882 	 -14.3868 	 
C 	 -49.1551 	 5.18378 	 -15.3269 	 
H 	 -47.4374 	 6.63056 	 -12.8209 	 
C 	 -47.0046 	 4.16593 	 -14.221 	 
H 	 -47.3276 	 3.23962 	 -13.829 	 
H 	 -46.362 	 4.58556 	 -13.4743 	 
C 	 -46.1045 	 3.85926 	 -15.3822 	 
H 	 -46.6338 	 3.43261 	 -16.2327 	 
H 	 -45.3948 	 3.10153 	 -15.044 	 
C 	 -45.2907 	 5.15184 	 -15.8144 	 
H 	 -45.9101 	 5.95048 	 -16.3705 	 
H 	 -44.5024 	 4.8803 	 -16.5009 	 
H 	 -44.7144 	 5.59797 	 -15.0131 	 
H 	 -51.0443 	 2.58697 	 -19.1758 	 
H 	 -49.184 	 8.24285 	 -13.4728 	 
*
