! wB97X-D3 SP def2-SVP
%pal
nprocs 24
end

* xyz 0 1
S 	 -46.5341 	 11.8584 	 -17.9542 	 
C 	 -45.0568 	 11.5241 	 -17.0142 	 
C 	 -44.0512 	 12.4318 	 -17.2007 	 
C 	 -44.5252 	 13.538 	 -17.9921 	 
C 	 -45.8545 	 13.3546 	 -18.4536 	 
H 	 -43.882 	 14.3247 	 -18.3629 	 
C 	 -42.6906 	 12.4353 	 -16.5596 	 
H 	 -42.5489 	 11.4889 	 -16.0664 	 
H 	 -42.7375 	 13.1941 	 -15.739 	 
C 	 -41.5647 	 12.7991 	 -17.4922 	 
H 	 -41.1829 	 11.9705 	 -18.1737 	 
H 	 -41.8177 	 13.7124 	 -18.0177 	 
C 	 -40.3569 	 13.0442 	 -16.6041 	 
H 	 -39.9592 	 12.1081 	 -16.2154 	 
H 	 -39.5857 	 13.6094 	 -17.0999 	 
H 	 -40.701 	 13.6742 	 -15.7874 	 
S 	 -47.6452 	 13.4659 	 -20.5334 	 
C 	 -48.493 	 14.9769 	 -20.9259 	 
C 	 -48.0367 	 15.9747 	 -20.0912 	 
C 	 -46.9707 	 15.571 	 -19.2772 	 
C 	 -46.6282 	 14.2361 	 -19.3209 	 
H 	 -48.5536 	 16.9355 	 -20.0582 	 
C 	 -46.4914 	 16.4983 	 -18.2015 	 
H 	 -45.5894 	 16.0749 	 -17.7917 	 
H 	 -47.2709 	 16.5841 	 -17.4622 	 
C 	 -46.0939 	 17.8709 	 -18.6543 	 
H 	 -46.9854 	 18.4135 	 -18.9394 	 
H 	 -45.4178 	 17.7087 	 -19.5521 	 
C 	 -45.4119 	 18.6759 	 -17.5707 	 
H 	 -46.1408 	 19.0729 	 -16.8506 	 
H 	 -45.0117 	 19.6299 	 -18.0576 	 
H 	 -44.5846 	 18.1514 	 -17.0413 	 
H 	 -44.926 	 10.6571 	 -16.3454 	 
H 	 -49.2877 	 15.1099 	 -21.6228 	 
*
