! wB97X-D3 SP def2-SVP
%pal
nprocs 24
end

* xyz 0 1
S 	 -108.485 	 54.9835 	 -97.4061 	 
C 	 -108.151 	 53.6733 	 -96.2794 	 
C 	 -107.499 	 52.6183 	 -96.8948 	 
C 	 -107.338 	 52.8366 	 -98.2716 	 
C 	 -107.754 	 54.075 	 -98.7332 	 
H 	 -106.998 	 52.038 	 -98.9728 	 
C 	 -107.002 	 51.3777 	 -96.202 	 
H 	 -107.35 	 50.6661 	 -96.8828 	 
H 	 -107.439 	 51.291 	 -95.1998 	 
C 	 -105.461 	 51.3145 	 -96.1424 	 
H 	 -105.15 	 50.2847 	 -96.0829 	 
H 	 -104.903 	 51.663 	 -97.0461 	 
C 	 -104.823 	 52.1946 	 -95.0778 	 
H 	 -105.114 	 52.0031 	 -94.0769 	 
H 	 -103.727 	 52.0893 	 -95.116 	 
H 	 -104.961 	 53.2481 	 -95.2975 	 
S 	 -106.721 	 56.0468 	 -100.174 	 
C 	 -107.207 	 56.3379 	 -101.825 	 
C 	 -108.053 	 55.3545 	 -102.304 	 
C 	 -108.491 	 54.4662 	 -101.275 	 
C 	 -107.817 	 54.694 	 -100.058 	 
H 	 -108.312 	 55.423 	 -103.368 	 
C 	 -109.482 	 53.3364 	 -101.494 	 
H 	 -109.048 	 52.4553 	 -100.955 	 
H 	 -109.482 	 53.1852 	 -102.533 	 
C 	 -110.912 	 53.6198 	 -101.074 	 
H 	 -111.394 	 54.4761 	 -101.631 	 
H 	 -110.833 	 54.0069 	 -100.057 	 
C 	 -111.82 	 52.4128 	 -101.267 	 
H 	 -111.373 	 51.6801 	 -100.647 	 
H 	 -111.984 	 52.1153 	 -102.34 	 
H 	 -112.861 	 52.638 	 -100.939 	 
H 	 -108.336 	 53.6823 	 -95.2197 	 
H 	 -106.818 	 57.1603 	 -102.432 	 
*
