! wB97X-D3 SP def2-SVP
%pal
nprocs 24
end

* xyz 0 1
S 	 15.1845 	 -12.7922 	 -122.624 	 
C 	 14.602 	 -11.7453 	 -123.922 	 
C 	 14.7169 	 -10.4173 	 -123.598 	 
C 	 15.3473 	 -10.2518 	 -122.3 	 
C 	 15.7331 	 -11.3782 	 -121.729 	 
H 	 15.6668 	 -9.27198 	 -121.92 	 
C 	 14.4037 	 -9.38101 	 -124.614 	 
H 	 13.9362 	 -9.8226 	 -125.546 	 
H 	 15.4216 	 -9.09408 	 -124.94 	 
C 	 13.4698 	 -8.27801 	 -124.17 	 
H 	 12.4227 	 -8.56501 	 -124.367 	 
H 	 13.6879 	 -8.08842 	 -123.101 	 
C 	 13.7072 	 -6.95204 	 -124.922 	 
H 	 12.9545 	 -6.23611 	 -124.538 	 
H 	 14.6406 	 -6.52224 	 -124.569 	 
H 	 13.6038 	 -7.04857 	 -125.993 	 
S 	 16.1438 	 -10.5886 	 -119.12 	 
C 	 17.3033 	 -11.3549 	 -118.16 	 
C 	 18.2032 	 -12.0604 	 -118.956 	 
C 	 17.7642 	 -12.2139 	 -120.321 	 
C 	 16.537 	 -11.5313 	 -120.524 	 
H 	 19.0138 	 -12.6078 	 -118.442 	 
C 	 18.5615 	 -12.95 	 -121.396 	 
H 	 19.6542 	 -12.7912 	 -121.244 	 
H 	 18.3547 	 -12.4497 	 -122.356 	 
C 	 18.2124 	 -14.4944 	 -121.5 	 
H 	 17.1476 	 -14.5455 	 -121.7 	 
H 	 18.3611 	 -15.0118 	 -120.487 	 
C 	 19.0023 	 -15.0699 	 -122.644 	 
H 	 18.8454 	 -14.423 	 -123.526 	 
H 	 18.7167 	 -16.1923 	 -122.863 	 
H 	 20.0156 	 -14.953 	 -122.331 	 
H 	 14.3479 	 -12.0663 	 -124.906 	 
H 	 17.5045 	 -11.3091 	 -117.034 	 
*
