! wB97X-D3 SP def2-SVP
%pal
nprocs 24
end

* xyz 0 1
S 	 -117.301 	 61.317 	 -67.1694 	 
C 	 -117.143 	 60.4838 	 -65.655 	 
C 	 -116.558 	 61.3547 	 -64.6617 	 
C 	 -116.332 	 62.6588 	 -65.1857 	 
C 	 -116.712 	 62.8349 	 -66.4887 	 
H 	 -116.066 	 63.509 	 -64.6297 	 
C 	 -116.437 	 60.9754 	 -63.2159 	 
H 	 -115.426 	 61.3014 	 -62.9185 	 
H 	 -116.339 	 59.9058 	 -63.2106 	 
C 	 -117.483 	 61.5323 	 -62.2735 	 
H 	 -117.635 	 62.5939 	 -62.4155 	 
H 	 -118.508 	 61.1604 	 -62.4001 	 
C 	 -117.241 	 61.1562 	 -60.8366 	 
H 	 -117.562 	 60.1207 	 -60.7882 	 
H 	 -116.222 	 61.3124 	 -60.3812 	 
H 	 -117.858 	 61.6877 	 -60.0983 	 
S 	 -115.768 	 63.6322 	 -68.9 	 
C 	 -115.93 	 65.2584 	 -69.3613 	 
C 	 -116.495 	 66.0163 	 -68.3384 	 
C 	 -116.841 	 65.3254 	 -67.1366 	 
C 	 -116.54 	 64.0066 	 -67.3583 	 
H 	 -116.701 	 67.0338 	 -68.5316 	 
C 	 -117.348 	 66.0064 	 -65.8731 	 
H 	 -116.548 	 66.6862 	 -65.4698 	 
H 	 -117.596 	 65.2118 	 -65.1389 	 
C 	 -118.601 	 67.0022 	 -65.9647 	 
H 	 -118.382 	 67.7812 	 -66.7259 	 
H 	 -118.806 	 67.4492 	 -64.9635 	 
C 	 -119.965 	 66.3044 	 -66.415 	 
H 	 -120.356 	 65.5921 	 -65.6442 	 
H 	 -119.717 	 65.7724 	 -67.3099 	 
H 	 -120.665 	 67.1212 	 -66.6909 	 
H 	 -117.521 	 59.5201 	 -65.4488 	 
H 	 -115.825 	 65.6122 	 -70.3266 	 
*
