! wB97X-D3 SP def2-SVP
%pal
nprocs 24
end

* xyz 0 1
S 	 -108.253 	 69.6435 	 -6.80345 	 
C 	 -108.133 	 70.2535 	 -8.42923 	 
C 	 -108.407 	 69.2394 	 -9.34873 	 
C 	 -108.857 	 68.0432 	 -8.71083 	 
C 	 -109.13 	 68.1739 	 -7.36024 	 
H 	 -109.065 	 67.0572 	 -9.19631 	 
C 	 -108.224 	 69.4417 	 -10.879 	 
H 	 -108.094 	 70.5031 	 -10.9996 	 
H 	 -109.287 	 69.2662 	 -11.2084 	 
C 	 -107.162 	 68.5666 	 -11.5514 	 
H 	 -106.227 	 68.6046 	 -10.9213 	 
H 	 -107.462 	 67.5282 	 -11.6353 	 
C 	 -106.802 	 69.1353 	 -12.9534 	 
H 	 -106.107 	 68.4677 	 -13.44 	 
H 	 -107.648 	 69.3215 	 -13.6356 	 
H 	 -106.334 	 70.1308 	 -12.8476 	 
S 	 -108.991 	 67.1808 	 -4.76551 	 
C 	 -110.141 	 66.0229 	 -4.24548 	 
C 	 -110.972 	 65.6677 	 -5.23204 	 
C 	 -110.835 	 66.464 	 -6.4704 	 
C 	 -109.674 	 67.2022 	 -6.38771 	 
H 	 -111.773 	 64.9749 	 -4.94413 	 
C 	 -111.715 	 66.1565 	 -7.66529 	 
H 	 -112.336 	 65.2765 	 -7.41088 	 
H 	 -111.148 	 65.902 	 -8.5744 	 
C 	 -112.78 	 67.2665 	 -7.85242 	 
H 	 -113.281 	 67.5288 	 -6.87484 	 
H 	 -113.505 	 66.8907 	 -8.47658 	 
C 	 -112.206 	 68.5872 	 -8.50231 	 
H 	 -111.556 	 69.0834 	 -7.85721 	 
H 	 -113.077 	 69.2395 	 -8.74157 	 
H 	 -111.739 	 68.4079 	 -9.51625 	 
H 	 -107.784 	 71.09 	 -8.91678 	 
H 	 -110.266 	 65.7169 	 -3.23221 	 
*
