! wB97X-D3 SP def2-SVP
%pal
nprocs 24
end

* xyz 0 1
S 	 -69.7329 	 -46.6744 	 -91.2388 	 
C 	 -69.0816 	 -45.6636 	 -92.5798 	 
C 	 -67.7153 	 -45.9298 	 -92.7059 	 
C 	 -67.2898 	 -46.9718 	 -91.802 	 
C 	 -68.2747 	 -47.5205 	 -90.9727 	 
H 	 -66.2276 	 -47.2998 	 -91.7085 	 
C 	 -66.7762 	 -45.2113 	 -93.7232 	 
H 	 -67.3687 	 -45.2213 	 -94.5562 	 
H 	 -65.9134 	 -45.9004 	 -93.9106 	 
C 	 -66.2568 	 -43.7925 	 -93.4301 	 
H 	 -66.5714 	 -43.1159 	 -94.1968 	 
H 	 -66.6266 	 -43.341 	 -92.4967 	 
C 	 -64.6715 	 -43.7558 	 -93.2939 	 
H 	 -64.2593 	 -44.362 	 -92.5211 	 
H 	 -64.1682 	 -44.0381 	 -94.2598 	 
H 	 -64.3797 	 -42.7227 	 -93.1111 	 
S 	 -68.3034 	 -47.975 	 -88.2483 	 
C 	 -68.0199 	 -49.6059 	 -87.7102 	 
C 	 -67.5572 	 -50.4118 	 -88.7297 	 
C 	 -67.5965 	 -49.77 	 -90.0022 	 
C 	 -68.0989 	 -48.4812 	 -89.9191 	 
H 	 -67.3823 	 -51.4699 	 -88.6047 	 
C 	 -67.1165 	 -50.3784 	 -91.2404 	 
H 	 -66.6162 	 -51.3027 	 -90.8841 	 
H 	 -66.3072 	 -49.8741 	 -91.6601 	 
C 	 -68.1695 	 -50.8585 	 -92.2384 	 
H 	 -67.6664 	 -51.3041 	 -93.1166 	 
H 	 -68.7214 	 -49.9408 	 -92.6305 	 
C 	 -69.1966 	 -51.8559 	 -91.7065 	 
H 	 -68.7052 	 -52.8072 	 -91.4702 	 
H 	 -70.0451 	 -51.9556 	 -92.393 	 
H 	 -69.5711 	 -51.3929 	 -90.7841 	 
H 	 -69.73 	 -44.9777 	 -93.1899 	 
H 	 -68.3043 	 -49.9967 	 -86.7476 	 
*
