! wB97X-D3 SP def2-SVP
%pal
nprocs 24
end

* xyz 0 1
S 	 -39.0356 	 -9.07555 	 16.4858 	 
C 	 -38.8904 	 -10.794 	 16.8518 	 
C 	 -40.03 	 -11.4494 	 16.5609 	 
C 	 -41.1219 	 -10.6018 	 16.2251 	 
C 	 -40.7623 	 -9.27492 	 16.1523 	 
H 	 -42.131 	 -10.931 	 16.027 	 
C 	 -40.2508 	 -12.972 	 16.517 	 
H 	 -41.1882 	 -13.1954 	 17.0395 	 
H 	 -39.5192 	 -13.5589 	 17.183 	 
C 	 -40.3637 	 -13.5651 	 15.1042 	 
H 	 -40.7677 	 -14.546 	 15.1236 	 
H 	 -41.0408 	 -12.9434 	 14.4893 	 
C 	 -38.9687 	 -13.5991 	 14.5089 	 
H 	 -38.2991 	 -14.3001 	 15.0474 	 
H 	 -38.9895 	 -14.0003 	 13.5618 	 
H 	 -38.4768 	 -12.5676 	 14.4072 	 
S 	 -42.4092 	 -7.31697 	 17.2767 	 
C 	 -43.3634 	 -6.23787 	 16.1899 	 
C 	 -42.9828 	 -6.46954 	 14.8977 	 
C 	 -42.0703 	 -7.56696 	 14.6938 	 
C 	 -41.5898 	 -8.08301 	 15.9023 	 
H 	 -43.542 	 -5.90825 	 14.1946 	 
C 	 -41.6413 	 -8.0643 	 13.3377 	 
H 	 -42.4872 	 -8.09689 	 12.6102 	 
H 	 -41.2593 	 -9.12596 	 13.4521 	 
C 	 -40.5574 	 -7.1324 	 12.6524 	 
H 	 -40.8435 	 -6.09782 	 12.6718 	 
H 	 -40.4429 	 -7.28848 	 11.5694 	 
C 	 -39.2192 	 -7.33981 	 13.3236 	 
H 	 -38.9538 	 -8.38631 	 13.4208 	 
H 	 -39.2877 	 -6.93653 	 14.328 	 
H 	 -38.4072 	 -6.85731 	 12.8534 	 
H 	 -38.0243 	 -11.3088 	 17.0959 	 
H 	 -43.8822 	 -5.31676 	 16.5094 	 
*
