! wB97X-D3 SP def2-SVP
%pal
nprocs 24
end

* xyz 0 1
S 	 -105.103 	 36.0948 	 -21.2982 	 
C 	 -104.294 	 34.5619 	 -21.2464 	 
C 	 -104.685 	 33.7188 	 -22.2174 	 
C 	 -105.773 	 34.2524 	 -22.9934 	 
C 	 -106.023 	 35.5659 	 -22.6785 	 
H 	 -106.327 	 33.8745 	 -23.821 	 
C 	 -104.006 	 32.4184 	 -22.5189 	 
H 	 -102.939 	 32.6308 	 -22.3044 	 
H 	 -104.061 	 32.055 	 -23.5525 	 
C 	 -104.408 	 31.3036 	 -21.5607 	 
H 	 -103.739 	 30.4746 	 -21.7299 	 
H 	 -104.276 	 31.6455 	 -20.5552 	 
C 	 -105.826 	 30.905 	 -21.959 	 
H 	 -106.646 	 31.5417 	 -21.5433 	 
H 	 -105.941 	 31.1065 	 -23.0273 	 
H 	 -106.158 	 29.8678 	 -21.634 	 
S 	 -108.23 	 37.0494 	 -22.0505 	 
C 	 -109.115 	 37.8885 	 -23.3633 	 
C 	 -108.296 	 37.9689 	 -24.4956 	 
C 	 -107.123 	 37.153 	 -24.3946 	 
C 	 -107.031 	 36.4703 	 -23.1568 	 
H 	 -108.71 	 38.5418 	 -25.2879 	 
C 	 -106.147 	 37.083 	 -25.5098 	 
H 	 -105.141 	 36.8203 	 -25.1248 	 
H 	 -105.963 	 37.9931 	 -26.1014 	 
C 	 -106.451 	 36.0484 	 -26.6367 	 
H 	 -107.475 	 36.1368 	 -27.1448 	 
H 	 -106.6 	 35.0587 	 -26.1365 	 
C 	 -105.417 	 35.9161 	 -27.7559 	 
H 	 -105.065 	 36.8651 	 -28.2121 	 
H 	 -105.726 	 35.3417 	 -28.6131 	 
H 	 -104.475 	 35.445 	 -27.5488 	 
H 	 -103.446 	 34.3825 	 -20.5515 	 
H 	 -109.981 	 38.5421 	 -23.2945 	 
*
