! wB97X-D3 SP def2-SVP
%pal
nprocs 24
end

* xyz 0 1
S 	 -101.3 	 48.3834 	 -98.6021 	 
C 	 -101.097 	 50.1617 	 -98.6739 	 
C 	 -100.08 	 50.5475 	 -99.4959 	 
C 	 -99.3335 	 49.3686 	 -99.9045 	 
C 	 -99.8136 	 48.1357 	 -99.5405 	 
H 	 -98.3786 	 49.4486 	 -100.431 	 
C 	 -99.5946 	 51.9979 	 -99.8023 	 
H 	 -98.5996 	 51.9298 	 -100.253 	 
H 	 -99.5531 	 52.5432 	 -98.875 	 
C 	 -100.507 	 52.6776 	 -100.879 	 
H 	 -101.507 	 52.4041 	 -100.576 	 
H 	 -100.363 	 53.723 	 -100.824 	 
C 	 -100.245 	 52.2464 	 -102.341 	 
H 	 -99.2455 	 52.5239 	 -102.699 	 
H 	 -100.344 	 51.2383 	 -102.42 	 
H 	 -100.938 	 52.7918 	 -103.011 	 
S 	 -98.9604 	 45.8843 	 -98.2459 	 
C 	 -97.9736 	 44.6774 	 -99.0345 	 
C 	 -97.8048 	 45.0515 	 -100.345 	 
C 	 -98.397 	 46.2741 	 -100.695 	 
C 	 -99.1927 	 46.818 	 -99.6993 	 
H 	 -97.2234 	 44.4991 	 -101.074 	 
C 	 -97.9069 	 46.9334 	 -101.998 	 
H 	 -96.9475 	 46.531 	 -102.195 	 
H 	 -97.6903 	 48.015 	 -101.895 	 
C 	 -98.8501 	 46.7606 	 -103.256 	 
H 	 -98.534 	 47.4744 	 -104.051 	 
H 	 -99.9003 	 47.0301 	 -103.051 	 
C 	 -98.793 	 45.3405 	 -103.784 	 
H 	 -99.4482 	 45.1315 	 -104.633 	 
H 	 -99.074 	 44.6919 	 -102.899 	 
H 	 -97.8138 	 45.0641 	 -103.955 	 
H 	 -101.586 	 50.8732 	 -98.0754 	 
H 	 -97.726 	 43.6385 	 -98.6721 	 
*
