! wB97X-D3 SP def2-SVP
%pal
nprocs 24
end

* xyz 0 1
S 	 -101.746 	 45.8249 	 -84.5432 	 
C 	 -100.807 	 45.619 	 -86.0211 	 
C 	 -101.363 	 46.3539 	 -87.1034 	 
C 	 -102.54 	 46.9864 	 -86.6896 	 
C 	 -102.942 	 46.7884 	 -85.3933 	 
H 	 -103.169 	 47.5676 	 -87.3471 	 
C 	 -100.814 	 46.1253 	 -88.4837 	 
H 	 -100.302 	 45.1402 	 -88.3702 	 
H 	 -100.142 	 46.9431 	 -88.7702 	 
C 	 -101.946 	 45.9555 	 -89.4296 	 
H 	 -102.567 	 45.2099 	 -88.9916 	 
H 	 -102.63 	 46.7998 	 -89.389 	 
C 	 -101.553 	 45.7646 	 -90.8794 	 
H 	 -100.954 	 44.8817 	 -90.9275 	 
H 	 -102.337 	 45.6649 	 -91.6049 	 
H 	 -100.928 	 46.6169 	 -91.2611 	 
S 	 -103.963 	 47.9634 	 -83.1981 	 
C 	 -105.617 	 48.2825 	 -82.9497 	 
C 	 -106.323 	 48.0174 	 -84.1286 	 
C 	 -105.434 	 47.5715 	 -85.2163 	 
C 	 -104.141 	 47.2438 	 -84.7691 	 
H 	 -107.423 	 48.1521 	 -84.1481 	 
C 	 -106.023 	 47.4378 	 -86.5934 	 
H 	 -105.174 	 47.4574 	 -87.3565 	 
H 	 -106.334 	 48.4456 	 -86.803 	 
C 	 -107.063 	 46.349 	 -86.7881 	 
H 	 -107.777 	 46.7396 	 -87.5386 	 
H 	 -107.526 	 46.0072 	 -85.8139 	 
C 	 -106.4 	 45.1737 	 -87.4471 	 
H 	 -105.563 	 45.3818 	 -88.0438 	 
H 	 -107.158 	 44.5284 	 -87.9367 	 
H 	 -106.012 	 44.594 	 -86.6511 	 
H 	 -99.873 	 45.1014 	 -86.141 	 
H 	 -106.154 	 48.6157 	 -82.0304 	 
*
