! wB97X-D3 SP def2-SVP
%pal
nprocs 24
end

* xyz 0 1
S 	 -105.927 	 50.1599 	 -71.5399 	 
C 	 -106.481 	 50.2364 	 -73.2281 	 
C 	 -107.248 	 51.32 	 -73.4979 	 
C 	 -107.537 	 52.0629 	 -72.3075 	 
C 	 -106.918 	 51.5693 	 -71.207 	 
H 	 -108.155 	 52.912 	 -72.0489 	 
C 	 -108.128 	 51.4828 	 -74.7596 	 
H 	 -108.892 	 50.6756 	 -74.6526 	 
H 	 -107.387 	 51.1105 	 -75.5552 	 
C 	 -108.826 	 52.8804 	 -74.9222 	 
H 	 -109.393 	 53.2065 	 -74.0025 	 
H 	 -108.027 	 53.6092 	 -75.0732 	 
C 	 -109.826 	 52.9385 	 -76.117 	 
H 	 -110.555 	 52.1299 	 -76.0485 	 
H 	 -110.442 	 53.8441 	 -75.9832 	 
H 	 -109.401 	 52.9506 	 -77.1095 	 
S 	 -106.956 	 51.3222 	 -68.413 	 
C 	 -106.685 	 52.8116 	 -67.5074 	 
C 	 -106.533 	 53.9388 	 -68.2951 	 
C 	 -106.549 	 53.6283 	 -69.6807 	 
C 	 -106.796 	 52.2756 	 -69.9564 	 
H 	 -106.485 	 54.9645 	 -67.8149 	 
C 	 -106.242 	 54.6558 	 -70.7191 	 
H 	 -106.225 	 54.0657 	 -71.6406 	 
H 	 -105.169 	 54.9638 	 -70.6242 	 
C 	 -107.283 	 55.7674 	 -70.9253 	 
H 	 -107.292 	 56.4437 	 -70.0221 	 
H 	 -108.286 	 55.3451 	 -71.0715 	 
C 	 -106.905 	 56.7096 	 -72.0682 	 
H 	 -106.044 	 57.3378 	 -71.8682 	 
H 	 -107.71 	 57.4781 	 -72.2612 	 
H 	 -106.79 	 56.1766 	 -73.0275 	 
H 	 -106.311 	 49.4906 	 -73.9851 	 
H 	 -106.808 	 52.9316 	 -66.463 	 
*
