! wB97X-D3 SP def2-SVP
%pal
nprocs 24
end

* xyz 0 1
S 	 -120.923 	 52.0688 	 -30.6271 	 
C 	 -121.935 	 50.6267 	 -31.0237 	 
C 	 -123.224 	 51.0071 	 -31.2954 	 
C 	 -123.397 	 52.4713 	 -31.3057 	 
C 	 -122.302 	 53.1782 	 -30.8207 	 
H 	 -124.249 	 53.0067 	 -31.6948 	 
C 	 -124.343 	 50.0101 	 -31.7028 	 
H 	 -124.674 	 49.4947 	 -30.8053 	 
H 	 -123.845 	 49.2658 	 -32.3121 	 
C 	 -125.625 	 50.5 	 -32.4034 	 
H 	 -125.308 	 51.1065 	 -33.2661 	 
H 	 -126.21 	 49.6325 	 -32.7307 	 
C 	 -126.548 	 51.4059 	 -31.5425 	 
H 	 -126.285 	 51.4292 	 -30.4707 	 
H 	 -126.291 	 52.4603 	 -31.7178 	 
H 	 -127.617 	 51.4477 	 -31.7136 	 
S 	 -120.862 	 55.2671 	 -31.934 	 
C 	 -120.96 	 56.9175 	 -31.344 	 
C 	 -122.051 	 56.963 	 -30.4945 	 
C 	 -122.672 	 55.7505 	 -30.2492 	 
C 	 -122.044 	 54.6231 	 -30.8273 	 
H 	 -122.233 	 57.8493 	 -29.92 	 
C 	 -123.853 	 55.6964 	 -29.291 	 
H 	 -124.626 	 55.0719 	 -29.7184 	 
H 	 -124.268 	 56.7347 	 -29.2724 	 
C 	 -123.549 	 54.9811 	 -27.9514 	 
H 	 -123.377 	 53.925 	 -28.0367 	 
H 	 -124.511 	 55.0778 	 -27.4649 	 
C 	 -122.459 	 55.6918 	 -27.1116 	 
H 	 -122.577 	 55.5428 	 -26.0442 	 
H 	 -122.56 	 56.8198 	 -27.0542 	 
H 	 -121.397 	 55.3595 	 -27.3495 	 
H 	 -121.59 	 49.5704 	 -31.0337 	 
H 	 -120.323 	 57.7538 	 -31.5634 	 
*
