! wB97X-D3 SP def2-SVP
%pal
nprocs 24
end

* xyz 0 1
S 	 -128.266 	 58.7189 	 -52.5431 	 
C 	 -129.168 	 59.3742 	 -53.8633 	 
C 	 -128.513 	 60.4928 	 -54.3951 	 
C 	 -127.248 	 60.8033 	 -53.6957 	 
C 	 -126.869 	 59.8516 	 -52.7303 	 
H 	 -126.563 	 61.5565 	 -54.0177 	 
C 	 -128.93 	 61.3305 	 -55.564 	 
H 	 -128.094 	 61.406 	 -56.2863 	 
H 	 -129.208 	 62.3775 	 -55.2555 	 
C 	 -130.294 	 60.9721 	 -56.2349 	 
H 	 -130.164 	 59.9483 	 -56.6182 	 
H 	 -131.079 	 60.9741 	 -55.5056 	 
C 	 -130.665 	 62.0253 	 -57.2712 	 
H 	 -131.585 	 61.8269 	 -57.7901 	 
H 	 -130.828 	 63.0986 	 -56.9689 	 
H 	 -129.975 	 62.0276 	 -58.1001 	 
S 	 -125.883 	 59.7019 	 -50.1894 	 
C 	 -124.184 	 59.8867 	 -49.9602 	 
C 	 -123.523 	 60.3688 	 -51.0493 	 
C 	 -124.384 	 60.309 	 -52.2086 	 
C 	 -125.706 	 59.9618 	 -51.9481 	 
H 	 -122.424 	 60.4212 	 -51.0632 	 
C 	 -123.905 	 60.4518 	 -53.6082 	 
H 	 -123.39 	 61.4358 	 -53.6979 	 
H 	 -124.731 	 60.565 	 -54.3329 	 
C 	 -122.863 	 59.4164 	 -54.1102 	 
H 	 -122.046 	 59.4172 	 -53.4367 	 
H 	 -122.484 	 59.697 	 -55.0643 	 
C 	 -123.335 	 57.9023 	 -54.2153 	 
H 	 -124.289 	 57.7331 	 -54.7813 	 
H 	 -123.488 	 57.5762 	 -53.2035 	 
H 	 -122.705 	 57.1855 	 -54.5965 	 
H 	 -130.064 	 58.9907 	 -54.2943 	 
H 	 -123.659 	 59.6442 	 -49.0662 	 
*
