! wB97X-D3 SP def2-SVP
%pal
nprocs 24
end

* xyz 0 1
S 	 -59.8806 	 8.78158 	 24.8013 	 
C 	 -59.2256 	 10.4309 	 24.5626 	 
C 	 -59.3665 	 10.8581 	 23.2434 	 
C 	 -60.0995 	 9.88168 	 22.5058 	 
C 	 -60.5012 	 8.72494 	 23.1603 	 
H 	 -60.4147 	 10.025 	 21.514 	 
C 	 -59.1163 	 12.248 	 22.6861 	 
H 	 -59.6919 	 12.9143 	 23.3092 	 
H 	 -59.6782 	 12.2484 	 21.6855 	 
C 	 -57.6358 	 12.6796 	 22.6465 	 
H 	 -57.4752 	 13.6682 	 22.2671 	 
H 	 -57.2065 	 12.5519 	 23.6254 	 
C 	 -56.9362 	 11.6865 	 21.6413 	 
H 	 -57.0786 	 10.5838 	 21.8112 	 
H 	 -57.08 	 11.898 	 20.5931 	 
H 	 -55.896 	 11.8596 	 21.7992 	 
S 	 -60.7099 	 5.9292 	 23.0469 	 
C 	 -61.7508 	 5.21833 	 21.9104 	 
C 	 -62.5967 	 6.1624 	 21.3541 	 
C 	 -62.2849 	 7.47413 	 21.7258 	 
C 	 -61.1998 	 7.51168 	 22.616 	 
H 	 -63.3585 	 5.79092 	 20.6854 	 
C 	 -63.1358 	 8.60014 	 21.2152 	 
H 	 -62.6478 	 8.91789 	 20.2989 	 
H 	 -62.9453 	 9.4571 	 21.878 	 
C 	 -64.7075 	 8.42286 	 21.0878 	 
H 	 -64.8727 	 7.87619 	 20.1736 	 
H 	 -65.1468 	 9.41937 	 20.866 	 
C 	 -65.502 	 7.93313 	 22.3086 	 
H 	 -65.3303 	 8.69672 	 23.0884 	 
H 	 -65.1208 	 6.95763 	 22.643 	 
H 	 -66.5867 	 7.78267 	 22.1578 	 
H 	 -58.7471 	 11.0625 	 25.349 	 
H 	 -61.6734 	 4.25997 	 21.4633 	 
*
