! wB97X-D3 SP def2-SVP
%pal
nprocs 24
end

* xyz 0 1
S 	 -42.2746 	 -51.647 	 -71.7264 	 
C 	 -40.718 	 -51.1145 	 -72.1934 	 
C 	 -39.9803 	 -52.1453 	 -72.7225 	 
C 	 -40.6828 	 -53.393 	 -72.6694 	 
C 	 -41.9697 	 -53.319 	 -72.0935 	 
H 	 -40.1776 	 -54.3566 	 -72.9337 	 
C 	 -38.6072 	 -52.0273 	 -73.3474 	 
H 	 -38.1077 	 -53.0403 	 -73.3509 	 
H 	 -38.0926 	 -51.3944 	 -72.5743 	 
C 	 -38.506 	 -51.3931 	 -74.7322 	 
H 	 -38.8041 	 -50.3651 	 -74.7332 	 
H 	 -37.4236 	 -51.1496 	 -74.8658 	 
C 	 -39.0051 	 -52.2481 	 -75.8775 	 
H 	 -38.6366 	 -51.816 	 -76.8908 	 
H 	 -38.8324 	 -53.3246 	 -75.6558 	 
H 	 -40.1421 	 -52.149 	 -75.9609 	 
S 	 -44.5728 	 -54.0887 	 -72.3938 	 
C 	 -44.9968 	 -55.7199 	 -71.8946 	 
C 	 -43.9396 	 -56.3685 	 -71.3427 	 
C 	 -42.7358 	 -55.6221 	 -71.3947 	 
C 	 -42.9059 	 -54.3851 	 -71.8681 	 
H 	 -44.0466 	 -57.341 	 -70.8787 	 
C 	 -41.3923 	 -56.1839 	 -71.0228 	 
H 	 -41.644 	 -56.7855 	 -70.1829 	 
H 	 -40.6866 	 -55.4008 	 -70.8412 	 
C 	 -40.7644 	 -57.1093 	 -71.9941 	 
H 	 -40.5256 	 -56.5826 	 -72.9247 	 
H 	 -41.4148 	 -58.0056 	 -72.3502 	 
C 	 -39.4359 	 -57.789 	 -71.4435 	 
H 	 -39.5301 	 -58.5681 	 -70.695 	 
H 	 -38.7666 	 -57.1315 	 -70.9611 	 
H 	 -38.9788 	 -58.1361 	 -72.3297 	 
H 	 -40.5604 	 -50.0902 	 -72.2814 	 
H 	 -46.0839 	 -56.0208 	 -71.8954 	 
*
