! wB97X-D3 SP def2-SVP
%pal
nprocs 24
end

* xyz 0 1
S 	 46.6911 	 -24.6316 	 -117.752 	 
C 	 45.3013 	 -24.6467 	 -116.637 	 
C 	 44.8154 	 -23.4211 	 -116.353 	 
C 	 45.571 	 -22.4239 	 -117.039 	 
C 	 46.6896 	 -22.8879 	 -117.698 	 
H 	 45.4093 	 -21.3775 	 -116.833 	 
C 	 43.6761 	 -23.1437 	 -115.409 	 
H 	 43.2216 	 -23.9837 	 -115.084 	 
H 	 42.8988 	 -22.5979 	 -115.869 	 
C 	 43.9798 	 -22.4762 	 -114.103 	 
H 	 44.3968 	 -21.4933 	 -114.302 	 
H 	 43.0452 	 -22.3925 	 -113.602 	 
C 	 45.0322 	 -23.1815 	 -113.216 	 
H 	 45.8984 	 -23.32 	 -113.925 	 
H 	 45.3275 	 -22.5303 	 -112.454 	 
H 	 44.667 	 -24.1696 	 -112.862 	 
S 	 48.5402 	 -22.6664 	 -119.598 	 
C 	 49.696 	 -21.3304 	 -119.644 	 
C 	 49.5129 	 -20.5038 	 -118.511 	 
C 	 48.4189 	 -21.0158 	 -117.651 	 
C 	 47.7678 	 -22.0806 	 -118.217 	 
H 	 50.1634 	 -19.629 	 -118.292 	 
C 	 48.1169 	 -20.3858 	 -116.28 	 
H 	 47.0054 	 -20.3509 	 -116.207 	 
H 	 48.4972 	 -19.3494 	 -116.111 	 
C 	 48.7168 	 -21.1711 	 -115.05 	 
H 	 49.7928 	 -21.2512 	 -115.19 	 
H 	 48.1621 	 -22.1576 	 -114.981 	 
C 	 48.462 	 -20.518 	 -113.742 	 
H 	 47.4857 	 -20.1728 	 -113.696 	 
H 	 49.065 	 -19.6987 	 -113.486 	 
H 	 48.6497 	 -21.2475 	 -112.926 	 
H 	 45.067 	 -25.5574 	 -116.158 	 
H 	 50.5355 	 -21.2302 	 -120.284 	 
*
