! wB97X-D3 SP def2-SVP
%pal
nprocs 24
end

* xyz 0 1
S 	 -106.955 	 45.4931 	 -6.27814 	 
C 	 -107.85 	 45.9339 	 -4.86825 	 
C 	 -109.12 	 46.4413 	 -5.20979 	 
C 	 -109.377 	 46.3801 	 -6.62556 	 
C 	 -108.298 	 45.9736 	 -7.36378 	 
H 	 -110.285 	 46.6945 	 -7.13214 	 
C 	 -110.122 	 47.0941 	 -4.23396 	 
H 	 -110.872 	 46.3494 	 -4.02218 	 
H 	 -110.623 	 47.9069 	 -4.77753 	 
C 	 -109.614 	 47.6843 	 -2.87297 	 
H 	 -110.431 	 48.1146 	 -2.36264 	 
H 	 -109.075 	 46.941 	 -2.34449 	 
C 	 -108.514 	 48.7228 	 -3.07119 	 
H 	 -109.121 	 49.53 	 -3.45325 	 
H 	 -108.167 	 49.2991 	 -2.19914 	 
H 	 -107.666 	 48.4787 	 -3.77362 	 
S 	 -109.377 	 44.6864 	 -9.39246 	 
C 	 -108.624 	 44.6182 	 -11.0055 	 
C 	 -107.449 	 45.3139 	 -10.9954 	 
C 	 -107.177 	 45.9504 	 -9.72354 	 
C 	 -108.14 	 45.717 	 -8.78572 	 
H 	 -106.837 	 45.2929 	 -11.8403 	 
C 	 -105.88 	 46.7557 	 -9.48422 	 
H 	 -105.185 	 46.5913 	 -10.3338 	 
H 	 -105.309 	 46.3126 	 -8.6347 	 
C 	 -106.019 	 48.2639 	 -9.03775 	 
H 	 -104.997 	 48.5901 	 -8.83165 	 
H 	 -106.505 	 48.3846 	 -8.10786 	 
C 	 -106.564 	 49.24 	 -10.1421 	 
H 	 -106.494 	 50.3058 	 -9.87452 	 
H 	 -107.596 	 49.0987 	 -10.2498 	 
H 	 -106.168 	 49.1941 	 -11.1144 	 
H 	 -107.436 	 45.943 	 -3.94065 	 
H 	 -109.019 	 44.085 	 -11.8667 	 
*
