! wB97X-D3 SP def2-SVP
%pal
nprocs 24
end

* xyz 0 1
S 	 -126.154 	 57.267 	 -58.1935 	 
C 	 -125.905 	 56.7625 	 -59.838 	 
C 	 -126.482 	 55.5926 	 -60.0906 	 
C 	 -127.443 	 55.1956 	 -59.0717 	 
C 	 -127.383 	 56.065 	 -57.9877 	 
H 	 -128.083 	 54.3437 	 -59.1466 	 
C 	 -126.281 	 54.8745 	 -61.4001 	 
H 	 -125.297 	 54.5197 	 -61.4818 	 
H 	 -126.421 	 55.7024 	 -62.1615 	 
C 	 -127.224 	 53.7662 	 -61.7532 	 
H 	 -128.268 	 54.0281 	 -61.6074 	 
H 	 -127.197 	 53.7333 	 -62.8631 	 
C 	 -126.856 	 52.4446 	 -61.0582 	 
H 	 -127.458 	 51.6037 	 -61.3226 	 
H 	 -125.814 	 52.1771 	 -61.2119 	 
H 	 -127.01 	 52.4977 	 -59.9696 	 
S 	 -127.453 	 55.422 	 -55.3092 	 
C 	 -129.037 	 55.5817 	 -54.4204 	 
C 	 -130.013 	 55.9918 	 -55.2481 	 
C 	 -129.488 	 56.2906 	 -56.5526 	 
C 	 -128.156 	 56.0584 	 -56.7647 	 
H 	 -131.046 	 56.0132 	 -54.8909 	 
C 	 -130.463 	 56.8284 	 -57.6625 	 
H 	 -131.521 	 56.7732 	 -57.2573 	 
H 	 -130.455 	 56.0693 	 -58.4522 	 
C 	 -130.152 	 58.1603 	 -58.4388 	 
H 	 -129.16 	 58.1998 	 -58.784 	 
H 	 -130.271 	 58.8959 	 -57.6815 	 
C 	 -131.132 	 58.5251 	 -59.5446 	 
H 	 -131.992 	 59.0623 	 -59.1007 	 
H 	 -131.386 	 57.6472 	 -60.079 	 
H 	 -130.624 	 59.081 	 -60.3178 	 
H 	 -125.301 	 57.1989 	 -60.5816 	 
H 	 -129.167 	 55.2563 	 -53.3439 	 
*
