! wB97X-D3 SP def2-SVP
%pal
nprocs 24
end

* xyz 0 1
S 	 -63.2859 	 9.20162 	 -77.8144 	 
C 	 -62.8101 	 7.55106 	 -77.5261 	 
C 	 -63.786 	 6.86853 	 -76.8802 	 
C 	 -64.9926 	 7.62609 	 -76.7792 	 
C 	 -64.8362 	 9.00364 	 -77.0355 	 
H 	 -65.8958 	 7.23184 	 -76.3532 	 
C 	 -63.6694 	 5.47837 	 -76.3843 	 
H 	 -64.4572 	 5.14844 	 -75.7797 	 
H 	 -62.8176 	 5.42368 	 -75.6604 	 
C 	 -63.5456 	 4.41978 	 -77.4994 	 
H 	 -64.3971 	 4.53872 	 -78.2243 	 
H 	 -62.5976 	 4.61839 	 -78.0794 	 
C 	 -63.4484 	 2.95093 	 -76.9949 	 
H 	 -63.2645 	 2.12309 	 -77.6718 	 
H 	 -62.5195 	 2.86246 	 -76.3128 	 
H 	 -64.2643 	 2.66241 	 -76.3589 	 
S 	 -66.3638 	 10.7082 	 -78.4284 	 
C 	 -67.5596 	 11.6275 	 -77.5939 	 
C 	 -67.5353 	 11.3107 	 -76.2485 	 
C 	 -66.6124 	 10.2977 	 -75.8533 	 
C 	 -65.8615 	 9.94503 	 -76.8988 	 
H 	 -68.2516 	 11.8431 	 -75.6286 	 
C 	 -66.4639 	 9.87345 	 -74.3839 	 
H 	 -66.0999 	 8.84358 	 -74.32 	 
H 	 -67.4321 	 9.82107 	 -73.8704 	 
C 	 -65.5724 	 10.7348 	 -73.5355 	 
H 	 -65.8519 	 11.7874 	 -73.6946 	 
H 	 -64.5757 	 10.5083 	 -73.8608 	 
C 	 -65.4869 	 10.5741 	 -72.0332 	 
H 	 -66.4721 	 10.8493 	 -71.5317 	 
H 	 -64.6162 	 11.1382 	 -71.6714 	 
H 	 -65.4976 	 9.54115 	 -71.7256 	 
H 	 -61.8985 	 7.18074 	 -77.9236 	 
H 	 -68.3802 	 12.0692 	 -78.1003 	 
*
