! wB97X-D3 SP def2-SVP
%pal
nprocs 24
end

* xyz 0 1
S 	 -116.609 	 42.4398 	 -112.389 	 
C 	 -117.207 	 41.6354 	 -113.778 	 
C 	 -116.186 	 40.8344 	 -114.355 	 
C 	 -115.17 	 40.5279 	 -113.384 	 
C 	 -115.184 	 41.3748 	 -112.309 	 
H 	 -114.306 	 39.9109 	 -113.631 	 
C 	 -116.423 	 39.9175 	 -115.616 	 
H 	 -115.836 	 40.2032 	 -116.473 	 
H 	 -117.423 	 40.1164 	 -115.993 	 
C 	 -116.382 	 38.3958 	 -115.405 	 
H 	 -115.344 	 38.1005 	 -115.098 	 
H 	 -117.198 	 38.1418 	 -114.706 	 
C 	 -116.553 	 37.5316 	 -116.63 	 
H 	 -115.594 	 37.7807 	 -117.218 	 
H 	 -116.461 	 36.4581 	 -116.319 	 
H 	 -117.411 	 37.701 	 -117.256 	 
S 	 -113.793 	 43.3017 	 -110.784 	 
C 	 -112.737 	 42.7162 	 -109.55 	 
C 	 -112.464 	 41.4089 	 -109.666 	 
C 	 -113.236 	 40.738 	 -110.648 	 
C 	 -114.18 	 41.562 	 -111.262 	 
H 	 -111.746 	 41.0292 	 -108.922 	 
C 	 -113.206 	 39.2052 	 -110.817 	 
H 	 -112.19 	 38.8786 	 -110.719 	 
H 	 -113.438 	 38.9982 	 -111.875 	 
C 	 -114.291 	 38.4456 	 -110.063 	 
H 	 -115.298 	 38.7621 	 -110.188 	 
H 	 -113.967 	 38.3433 	 -109.025 	 
C 	 -114.279 	 36.9985 	 -110.673 	 
H 	 -115.021 	 36.3633 	 -110.202 	 
H 	 -113.299 	 36.5548 	 -110.432 	 
H 	 -114.437 	 37.0613 	 -111.742 	 
H 	 -118.142 	 41.821 	 -114.299 	 
H 	 -112.173 	 43.3569 	 -108.885 	 
*
