! wB97X-D3 SP def2-SVP
%pal
nprocs 24
end

* xyz 0 1
S 	 2.2428 	 -22.7363 	 -116.097 	 
C 	 1.11859 	 -23.9832 	 -116.456 	 
C 	 -0.101683 	 -23.7323 	 -115.857 	 
C 	 -0.143085 	 -22.5351 	 -115.097 	 
C 	 1.14295 	 -21.9799 	 -115.002 	 
H 	 -0.990695 	 -22.1086 	 -114.521 	 
C 	 -1.29764 	 -24.5838 	 -116.001 	 
H 	 -1.47462 	 -24.5193 	 -117.033 	 
H 	 -2.21193 	 -24.0266 	 -115.662 	 
C 	 -1.41848 	 -25.9395 	 -115.345 	 
H 	 -0.609157 	 -26.5999 	 -115.725 	 
H 	 -1.35507 	 -25.957 	 -114.228 	 
C 	 -2.71912 	 -26.6534 	 -115.79 	 
H 	 -2.77073 	 -26.7624 	 -116.875 	 
H 	 -2.82437 	 -27.6263 	 -115.303 	 
H 	 -3.60954 	 -26.0653 	 -115.553 	 
S 	 0.886169 	 -19.2694 	 -114.564 	 
C 	 1.60987 	 -18.525 	 -113.101 	 
C 	 2.33673 	 -19.5047 	 -112.409 	 
C 	 2.35989 	 -20.815 	 -113.027 	 
C 	 1.56998 	 -20.8462 	 -114.193 	 
H 	 2.87687 	 -19.2063 	 -111.499 	 
C 	 2.99941 	 -22.044 	 -112.389 	 
H 	 4.03363 	 -21.7538 	 -112.098 	 
H 	 3.16308 	 -22.703 	 -113.266 	 
C 	 2.2486 	 -22.7087 	 -111.231 	 
H 	 1.17194 	 -22.6132 	 -111.449 	 
H 	 2.37149 	 -22.1145 	 -110.287 	 
C 	 2.68586 	 -24.139 	 -111.064 	 
H 	 2.45051 	 -24.6679 	 -111.93 	 
H 	 2.1083 	 -24.6151 	 -110.225 	 
H 	 3.7583 	 -24.2434 	 -110.851 	 
H 	 1.26305 	 -24.7705 	 -117.136 	 
H 	 1.48337 	 -17.4748 	 -112.837 	 
*
