! wB97X-D3 SP def2-SVP
%pal
nprocs 24
end

* xyz 0 1
S 	 -101.207 	 -2.32398 	 -108.671 	 
C 	 -101.1 	 -3.76779 	 -109.756 	 
C 	 -101.438 	 -4.95535 	 -109.068 	 
C 	 -102.016 	 -4.5994 	 -107.787 	 
C 	 -101.894 	 -3.24562 	 -107.4 	 
H 	 -102.449 	 -5.32754 	 -107.062 	 
C 	 -101.466 	 -6.3846 	 -109.604 	 
H 	 -101.058 	 -6.3482 	 -110.62 	 
H 	 -102.524 	 -6.62922 	 -109.501 	 
C 	 -100.634 	 -7.43024 	 -108.843 	 
H 	 -101.232 	 -7.88183 	 -108.019 	 
H 	 -100.296 	 -8.24688 	 -109.457 	 
C 	 -99.2772 	 -6.81354 	 -108.198 	 
H 	 -98.799 	 -7.54005 	 -107.608 	 
H 	 -98.5841 	 -6.52284 	 -108.975 	 
H 	 -99.4763 	 -5.90839 	 -107.589 	 
S 	 -102.975 	 -1.02192 	 -106.176 	 
C 	 -103.382 	 -1.08705 	 -104.538 	 
C 	 -102.936 	 -2.2716 	 -103.92 	 
C 	 -102.356 	 -3.15481 	 -104.835 	 
C 	 -102.313 	 -2.65631 	 -106.141 	 
H 	 -103.114 	 -2.39609 	 -102.841 	 
C 	 -101.916 	 -4.53176 	 -104.436 	 
H 	 -101.391 	 -4.42035 	 -103.438 	 
H 	 -101.09 	 -4.83116 	 -105.097 	 
C 	 -102.961 	 -5.60317 	 -104.175 	 
H 	 -103.599 	 -5.77434 	 -105.054 	 
H 	 -103.605 	 -5.09793 	 -103.524 	 
C 	 -102.312 	 -6.94318 	 -103.714 	 
H 	 -101.721 	 -6.83027 	 -102.827 	 
H 	 -101.669 	 -7.29982 	 -104.525 	 
H 	 -103.022 	 -7.78875 	 -103.668 	 
H 	 -100.887 	 -3.64442 	 -110.854 	 
H 	 -103.993 	 -0.352312 	 -104.071 	 
*
