! wB97X-D3 SP def2-SVP
%pal
nprocs 24
end

* xyz 0 1
S 	 -89.454 	 -10.7996 	 -112.383 	 
C 	 -90.481 	 -11.8828 	 -113.166 	 
C 	 -91.2393 	 -11.2398 	 -114.181 	 
C 	 -90.8101 	 -9.90836 	 -114.315 	 
C 	 -89.7216 	 -9.51727 	 -113.553 	 
H 	 -91.2615 	 -9.20341 	 -115.007 	 
C 	 -92.5192 	 -11.8116 	 -114.855 	 
H 	 -93.0551 	 -12.3747 	 -114.044 	 
H 	 -92.3125 	 -12.6346 	 -115.602 	 
C 	 -93.5161 	 -10.8313 	 -115.576 	 
H 	 -93.1538 	 -10.2702 	 -116.428 	 
H 	 -94.1811 	 -11.5949 	 -116.012 	 
C 	 -94.4554 	 -9.97654 	 -114.705 	 
H 	 -95.337 	 -9.82447 	 -115.422 	 
H 	 -94.746 	 -10.5046 	 -113.821 	 
H 	 -94.051 	 -9.07802 	 -114.343 	 
S 	 -87.4292 	 -7.9999 	 -113.761 	 
C 	 -87.4863 	 -6.31582 	 -113.416 	 
C 	 -88.7466 	 -5.96264 	 -113.012 	 
C 	 -89.7241 	 -6.96649 	 -113.115 	 
C 	 -89.1573 	 -8.18299 	 -113.432 	 
H 	 -88.9143 	 -5.05539 	 -112.517 	 
C 	 -91.1499 	 -6.80092 	 -112.616 	 
H 	 -91.8737 	 -7.00824 	 -113.402 	 
H 	 -91.235 	 -5.70591 	 -112.55 	 
C 	 -91.4824 	 -7.34307 	 -111.177 	 
H 	 -91.7077 	 -8.41836 	 -111.165 	 
H 	 -92.3597 	 -6.80435 	 -110.712 	 
C 	 -90.3604 	 -7.02815 	 -110.257 	 
H 	 -90.7388 	 -7.18321 	 -109.214 	 
H 	 -90.0177 	 -6.01874 	 -110.439 	 
H 	 -89.4632 	 -7.61602 	 -110.413 	 
H 	 -90.8213 	 -12.8019 	 -112.78 	 
H 	 -86.6533 	 -5.64128 	 -113.435 	 
*
