! wB97X-D3 SP def2-SVP
%pal
nprocs 24
end

* xyz 0 1
S 	 -51.6427 	 18.2713 	 27.7049 	 
C 	 -50.687 	 16.9924 	 27.1367 	 
C 	 -50.7 	 15.9497 	 28.069 	 
C 	 -51.3049 	 16.3516 	 29.2974 	 
C 	 -51.8706 	 17.5891 	 29.284 	 
H 	 -51.2852 	 15.824 	 30.2521 	 
C 	 -49.9681 	 14.6369 	 27.9046 	 
H 	 -49.3613 	 14.5364 	 28.8098 	 
H 	 -49.2239 	 14.7274 	 27.1387 	 
C 	 -50.8063 	 13.3511 	 27.6124 	 
H 	 -51.3371 	 13.4689 	 26.6609 	 
H 	 -50.3132 	 12.4296 	 27.5665 	 
C 	 -51.965 	 13.0359 	 28.5869 	 
H 	 -51.5691 	 12.8244 	 29.5733 	 
H 	 -52.5757 	 13.8978 	 28.7153 	 
H 	 -52.6075 	 12.2549 	 28.2661 	 
S 	 -52.3693 	 20.1884 	 30.1274 	 
C 	 -52.9711 	 20.511 	 31.7717 	 
C 	 -53.292 	 19.3609 	 32.4694 	 
C 	 -52.8902 	 18.195 	 31.6972 	 
C 	 -52.3464 	 18.4092 	 30.4054 	 
H 	 -53.7002 	 19.4102 	 33.4552 	 
C 	 -53.0642 	 16.7969 	 32.2739 	 
H 	 -53.2437 	 16.164 	 31.3837 	 
H 	 -53.9369 	 16.7572 	 32.9716 	 
C 	 -51.8575 	 16.3089 	 33.0056 	 
H 	 -51.589 	 16.8146 	 33.8804 	 
H 	 -51.009 	 16.4215 	 32.2879 	 
C 	 -52.0181 	 14.7666 	 33.3397 	 
H 	 -52.8146 	 14.6685 	 34.0647 	 
H 	 -51.1073 	 14.3816 	 33.8403 	 
H 	 -52.2617 	 14.1128 	 32.4279 	 
H 	 -50.2186 	 16.9231 	 26.1533 	 
H 	 -53.1069 	 21.5109 	 32.17 	 
*
