! wB97X-D3 SP def2-SVP
%pal
nprocs 24
end

* xyz 0 1
S 	 -97.2249 	 -30.0522 	 -67.206 	 
C 	 -98.5754 	 -31.0992 	 -66.9583 	 
C 	 -98.3201 	 -32.0716 	 -66.064 	 
C 	 -97.0084 	 -32.0124 	 -65.4991 	 
C 	 -96.2978 	 -30.944 	 -65.9814 	 
H 	 -96.491 	 -32.6102 	 -64.7389 	 
C 	 -99.2524 	 -33.2491 	 -65.7444 	 
H 	 -98.5868 	 -34.1395 	 -65.7814 	 
H 	 -99.8265 	 -33.4027 	 -66.6193 	 
C 	 -100.153 	 -33.1711 	 -64.4523 	 
H 	 -100.792 	 -32.36 	 -64.4367 	 
H 	 -100.774 	 -34.0602 	 -64.3789 	 
C 	 -99.4054 	 -32.8804 	 -63.1297 	 
H 	 -99.998 	 -32.8532 	 -62.2572 	 
H 	 -98.4735 	 -33.4461 	 -62.9459 	 
H 	 -99.1338 	 -31.8023 	 -63.1861 	 
S 	 -93.5697 	 -30.9438 	 -66.681 	 
C 	 -92.3687 	 -30.4345 	 -65.5191 	 
C 	 -92.9888 	 -29.8856 	 -64.4037 	 
C 	 -94.4461 	 -29.9554 	 -64.4444 	 
C 	 -94.9394 	 -30.5155 	 -65.6513 	 
H 	 -92.4906 	 -29.3946 	 -63.5702 	 
C 	 -95.2189 	 -29.346 	 -63.299 	 
H 	 -96.2929 	 -29.2868 	 -63.5595 	 
H 	 -94.9687 	 -28.2759 	 -63.3509 	 
C 	 -94.9848 	 -29.781 	 -61.8529 	 
H 	 -93.911 	 -29.7399 	 -61.5752 	 
H 	 -95.3371 	 -30.7837 	 -61.6454 	 
C 	 -95.5163 	 -28.7461 	 -60.8368 	 
H 	 -95.2029 	 -27.7571 	 -61.029 	 
H 	 -95.1288 	 -29.0921 	 -59.9001 	 
H 	 -96.5644 	 -28.8529 	 -60.7166 	 
H 	 -99.4811 	 -31.0538 	 -67.5127 	 
H 	 -91.3524 	 -30.675 	 -65.6954 	 
*
