! wB97X-D3 SP def2-SVP
%pal
nprocs 24
end

* xyz 0 1
S 	 -117.713 	 62.1498 	 -38.7981 	 
C 	 -117.767 	 62.1847 	 -40.5035 	 
C 	 -117.488 	 60.9173 	 -41.0994 	 
C 	 -117.052 	 59.9856 	 -40.0737 	 
C 	 -117.134 	 60.5194 	 -38.7987 	 
H 	 -116.735 	 58.9557 	 -40.3156 	 
C 	 -117.529 	 60.6048 	 -42.5595 	 
H 	 -116.484 	 60.3798 	 -42.8473 	 
H 	 -117.68 	 61.4488 	 -43.1416 	 
C 	 -118.563 	 59.5377 	 -43.0097 	 
H 	 -118.474 	 59.3312 	 -44.0771 	 
H 	 -118.423 	 58.6051 	 -42.5951 	 
C 	 -120.045 	 59.9669 	 -42.7954 	 
H 	 -120.328 	 60.9219 	 -43.2965 	 
H 	 -120.767 	 59.1321 	 -43.0307 	 
H 	 -120.241 	 60.124 	 -41.759 	 
S 	 -115.09 	 59.9557 	 -36.9765 	 
C 	 -115.438 	 59.0615 	 -35.5673 	 
C 	 -116.721 	 58.6241 	 -35.6287 	 
C 	 -117.49 	 59.0823 	 -36.7259 	 
C 	 -116.746 	 59.8562 	 -37.5467 	 
H 	 -117.083 	 57.9269 	 -34.8511 	 
C 	 -118.936 	 58.6351 	 -37.0682 	 
H 	 -118.953 	 57.759 	 -37.7669 	 
H 	 -119.523 	 59.3529 	 -37.6512 	 
C 	 -119.786 	 58.1252 	 -35.878 	 
H 	 -119.967 	 58.9532 	 -35.137 	 
H 	 -119.176 	 57.3067 	 -35.4497 	 
C 	 -121.198 	 57.5941 	 -36.0897 	 
H 	 -121.287 	 56.9459 	 -36.961 	 
H 	 -121.889 	 58.4165 	 -36.2415 	 
H 	 -121.498 	 57.0416 	 -35.1807 	 
H 	 -118.237 	 63.0338 	 -41.0897 	 
H 	 -114.742 	 58.77 	 -34.7835 	 
*
