! wB97X-D3 SP def2-SVP
%pal
nprocs 24
end

* xyz 0 1
S 	 -85.2685 	 3.35374 	 -115.484 	 
C 	 -85.038 	 4.98731 	 -116.151 	 
C 	 -85.8598 	 5.94686 	 -115.596 	 
C 	 -86.8081 	 5.32668 	 -114.732 	 
C 	 -86.6366 	 3.93432 	 -114.59 	 
H 	 -87.5103 	 5.91769 	 -114.176 	 
C 	 -85.7252 	 7.46109 	 -115.824 	 
H 	 -84.7927 	 7.80613 	 -116.268 	 
H 	 -85.6618 	 7.81038 	 -114.748 	 
C 	 -86.9489 	 8.11447 	 -116.582 	 
H 	 -87.0656 	 7.81538 	 -117.63 	 
H 	 -87.9132 	 7.82812 	 -116.125 	 
C 	 -86.9163 	 9.60859 	 -116.679 	 
H 	 -86.8812 	 10.1788 	 -115.702 	 
H 	 -86.0671 	 10.0158 	 -117.266 	 
H 	 -87.6775 	 9.8877 	 -117.472 	 
S 	 -86.3272 	 1.71266 	 -113.069 	 
C 	 -87.7242 	 0.926387 	 -112.322 	 
C 	 -88.8407 	 1.63361 	 -112.641 	 
C 	 -88.6656 	 2.8511 	 -113.379 	 
C 	 -87.3345 	 3.01221 	 -113.72 	 
H 	 -89.7068 	 1.11698 	 -112.26 	 
C 	 -89.7581 	 3.81414 	 -113.704 	 
H 	 -89.5007 	 4.87191 	 -113.489 	 
H 	 -90.5111 	 3.67871 	 -112.965 	 
C 	 -90.2791 	 3.60486 	 -115.228 	 
H 	 -90.6529 	 2.58989 	 -115.332 	 
H 	 -89.5239 	 3.55819 	 -115.933 	 
C 	 -91.2254 	 4.72642 	 -115.684 	 
H 	 -92.1832 	 4.62249 	 -115.265 	 
H 	 -91.352 	 4.68067 	 -116.781 	 
H 	 -90.7929 	 5.68012 	 -115.494 	 
H 	 -84.223 	 5.36663 	 -116.834 	 
H 	 -87.8252 	 -0.157908 	 -112.103 	 
*
