! wB97X-D3 SP def2-SVP
%pal
nprocs 24
end

* xyz 0 1
S 	 -113.616 	 30.2991 	 -22.4497 	 
C 	 -113.157 	 30.3881 	 -24.1406 	 
C 	 -114.271 	 30.779 	 -24.8878 	 
C 	 -115.44 	 31.0056 	 -24.1083 	 
C 	 -115.245 	 30.8721 	 -22.7351 	 
H 	 -116.437 	 31.2828 	 -24.3382 	 
C 	 -114.248 	 30.7087 	 -26.3568 	 
H 	 -113.199 	 30.7157 	 -26.7229 	 
H 	 -114.711 	 31.6828 	 -26.6214 	 
C 	 -114.954 	 29.4604 	 -26.9444 	 
H 	 -115.947 	 29.4003 	 -26.4197 	 
H 	 -115.192 	 29.5648 	 -27.9791 	 
C 	 -114.255 	 28.1106 	 -26.8412 	 
H 	 -113.881 	 27.9206 	 -25.8191 	 
H 	 -114.756 	 27.1897 	 -27.2107 	 
H 	 -113.361 	 28.2417 	 -27.4372 	 
S 	 -117.048 	 29.4787 	 -21.209 	 
C 	 -118.072 	 30.3978 	 -20.0853 	 
C 	 -117.893 	 31.7952 	 -20.1711 	 
C 	 -116.812 	 32.1265 	 -21.0862 	 
C 	 -116.208 	 30.9761 	 -21.6543 	 
H 	 -118.42 	 32.5303 	 -19.4921 	 
C 	 -116.261 	 33.5187 	 -21.1756 	 
H 	 -117.034 	 34.1979 	 -20.8881 	 
H 	 -116.081 	 33.6777 	 -22.2473 	 
C 	 -114.9 	 33.9383 	 -20.5539 	 
H 	 -114.567 	 34.9943 	 -20.7427 	 
H 	 -114.179 	 33.4357 	 -21.229 	 
C 	 -114.595 	 33.3983 	 -19.1566 	 
H 	 -113.762 	 33.7286 	 -18.5581 	 
H 	 -114.428 	 32.3239 	 -19.2752 	 
H 	 -115.42 	 33.4393 	 -18.5009 	 
H 	 -112.27 	 30.1099 	 -24.5894 	 
H 	 -118.799 	 29.9657 	 -19.509 	 
*
