! wB97X-D3 SP def2-SVP
%pal
nprocs 24
end

* xyz 0 1
S 	 39.178 	 -21.9678 	 -123.336 	 
C 	 38.0672 	 -22.1924 	 -124.662 	 
C 	 37.6445 	 -23.5062 	 -124.807 	 
C 	 38.1788 	 -24.2918 	 -123.71 	 
C 	 39.1471 	 -23.622 	 -122.989 	 
H 	 37.8809 	 -25.2913 	 -123.457 	 
C 	 36.6822 	 -23.9541 	 -125.891 	 
H 	 36.4399 	 -23.1468 	 -126.664 	 
H 	 35.7425 	 -24.2096 	 -125.458 	 
C 	 37.0842 	 -25.238 	 -126.65 	 
H 	 37.3005 	 -26.1547 	 -126.069 	 
H 	 36.2547 	 -25.5613 	 -127.275 	 
C 	 38.3293 	 -25.0926 	 -127.536 	 
H 	 38.5945 	 -26.1513 	 -127.836 	 
H 	 38.0449 	 -24.4552 	 -128.4 	 
H 	 39.2258 	 -24.7074 	 -126.997 	 
S 	 39.7964 	 -23.2381 	 -120.353 	 
C 	 40.6822 	 -24.4406 	 -119.54 	 
C 	 40.9792 	 -25.5335 	 -120.383 	 
C 	 40.5587 	 -25.3527 	 -121.713 	 
C 	 39.9412 	 -24.0999 	 -121.88 	 
H 	 41.5677 	 -26.3928 	 -120.043 	 
C 	 40.6807 	 -26.4062 	 -122.797 	 
H 	 41.7014 	 -26.7943 	 -122.775 	 
H 	 40.5963 	 -25.8545 	 -123.76 	 
C 	 39.7241 	 -27.5931 	 -122.696 	 
H 	 38.7379 	 -27.2859 	 -122.821 	 
H 	 39.7743 	 -27.9022 	 -121.66 	 
C 	 40.0205 	 -28.8452 	 -123.627 	 
H 	 39.4999 	 -28.7304 	 -124.591 	 
H 	 39.5285 	 -29.7012 	 -123.092 	 
H 	 41.0311 	 -28.9277 	 -123.842 	 
H 	 37.8327 	 -21.4295 	 -125.397 	 
H 	 40.8468 	 -24.4261 	 -118.505 	 
*
