! wB97X-D3 SP def2-SVP
%pal
nprocs 24
end

* xyz 0 1
S 	 -109.164 	 60.7248 	 -95.5497 	 
C 	 -108.761 	 61.0813 	 -93.8613 	 
C 	 -107.569 	 60.4344 	 -93.4277 	 
C 	 -106.981 	 59.6666 	 -94.4801 	 
C 	 -107.67 	 59.7369 	 -95.6965 	 
H 	 -106.061 	 59.1597 	 -94.557 	 
C 	 -106.804 	 60.6115 	 -92.0997 	 
H 	 -106.216 	 59.6751 	 -91.9254 	 
H 	 -107.497 	 60.6814 	 -91.2297 	 
C 	 -105.895 	 61.8424 	 -92.1045 	 
H 	 -104.903 	 61.5996 	 -91.7297 	 
H 	 -105.607 	 61.9363 	 -93.1723 	 
C 	 -106.425 	 63.1262 	 -91.5422 	 
H 	 -105.691 	 63.8907 	 -91.3925 	 
H 	 -107.138 	 63.5776 	 -92.2603 	 
H 	 -107.034 	 63.0006 	 -90.6118 	 
S 	 -107.53 	 60.215 	 -98.4114 	 
C 	 -107.176 	 58.8853 	 -99.4863 	 
C 	 -106.941 	 57.7567 	 -98.7039 	 
C 	 -107.059 	 57.8706 	 -97.3028 	 
C 	 -107.312 	 59.1907 	 -96.9784 	 
H 	 -106.808 	 56.8605 	 -99.2895 	 
C 	 -106.978 	 56.6866 	 -96.3545 	 
H 	 -107.791 	 56.9258 	 -95.5889 	 
H 	 -106.104 	 56.8546 	 -95.759 	 
C 	 -107.071 	 55.2687 	 -96.9811 	 
H 	 -106.319 	 55.0798 	 -97.7873 	 
H 	 -107.998 	 55.1574 	 -97.5093 	 
C 	 -106.925 	 54.1756 	 -95.9263 	 
H 	 -106.031 	 54.1974 	 -95.3129 	 
H 	 -106.957 	 53.0945 	 -96.36 	 
H 	 -107.856 	 54.1782 	 -95.2982 	 
H 	 -109.405 	 61.8323 	 -93.353 	 
H 	 -107.109 	 58.8913 	 -100.543 	 
*
