! wB97X-D3 SP def2-SVP
%pal
nprocs 24
end

* xyz 0 1
S 	 -68.2852 	 21.0039 	 -110.092 	 
C 	 -66.9322 	 20.9983 	 -108.936 	 
C 	 -65.9743 	 20.0472 	 -109.269 	 
C 	 -66.4231 	 19.3422 	 -110.453 	 
C 	 -67.4368 	 19.8752 	 -111.155 	 
H 	 -65.9324 	 18.4975 	 -110.981 	 
C 	 -64.7105 	 19.5965 	 -108.397 	 
H 	 -64.0069 	 20.4845 	 -108.453 	 
H 	 -64.2607 	 18.7615 	 -108.98 	 
C 	 -65.1268 	 19.1734 	 -106.948 	 
H 	 -65.1223 	 20.0998 	 -106.423 	 
H 	 -66.2182 	 18.8492 	 -106.91 	 
C 	 -64.1675 	 18.0935 	 -106.278 	 
H 	 -64.1087 	 18.3572 	 -105.217 	 
H 	 -64.6197 	 17.0785 	 -106.297 	 
H 	 -63.1527 	 18.0686 	 -106.693 	 
S 	 -67.869 	 20.9009 	 -113.738 	 
C 	 -68.0998 	 19.8145 	 -115.068 	 
C 	 -68.0419 	 18.4796 	 -114.698 	 
C 	 -67.8084 	 18.3889 	 -113.293 	 
C 	 -67.7458 	 19.6067 	 -112.589 	 
H 	 -67.9295 	 17.714 	 -115.465 	 
C 	 -67.6618 	 16.989 	 -112.739 	 
H 	 -67.026 	 17.1295 	 -111.927 	 
H 	 -67.1297 	 16.3751 	 -113.494 	 
C 	 -68.9699 	 16.2456 	 -112.304 	 
H 	 -69.524 	 16.0578 	 -113.251 	 
H 	 -69.5785 	 16.9815 	 -111.698 	 
C 	 -68.6712 	 14.9948 	 -111.462 	 
H 	 -67.8886 	 15.2095 	 -110.672 	 
H 	 -68.3976 	 14.1213 	 -112.039 	 
H 	 -69.5796 	 14.7277 	 -110.95 	 
H 	 -67.094 	 21.562 	 -108.016 	 
H 	 -68.1602 	 20.0828 	 -116.118 	 
*
