! wB97X-D3 SP def2-SVP
%pal
nprocs 24
end

* xyz 0 1
S 	 -44.2793 	 17.3688 	 27.9501 	 
C 	 -45.9895 	 17.0201 	 27.8187 	 
C 	 -46.7653 	 18.1652 	 27.5496 	 
C 	 -45.9304 	 19.3178 	 27.4126 	 
C 	 -44.5981 	 19.0474 	 27.5758 	 
H 	 -46.2227 	 20.3809 	 27.2959 	 
C 	 -48.2317 	 18.3423 	 27.4024 	 
H 	 -48.5127 	 18.1013 	 26.3892 	 
H 	 -48.531 	 19.3384 	 27.4429 	 
C 	 -49.1316 	 17.6098 	 28.3654 	 
H 	 -48.9467 	 16.5654 	 28.1192 	 
H 	 -48.7175 	 17.6737 	 29.3648 	 
C 	 -50.6747 	 17.9457 	 28.2512 	 
H 	 -51.0263 	 17.6994 	 27.2455 	 
H 	 -51.298 	 17.3358 	 28.8896 	 
H 	 -50.8643 	 18.9545 	 28.4031 	 
S 	 -43.1456 	 20.0189 	 29.6051 	 
C 	 -41.9138 	 21.2096 	 29.3121 	 
C 	 -41.9119 	 21.6016 	 27.9343 	 
C 	 -42.9443 	 20.9727 	 27.1787 	 
C 	 -43.6172 	 19.9874 	 27.9009 	 
H 	 -41.1385 	 22.2632 	 27.6094 	 
C 	 -43.2078 	 21.2797 	 25.7496 	 
H 	 -43.1302 	 22.3325 	 25.501 	 
H 	 -44.2514 	 21.1507 	 25.5414 	 
C 	 -42.3956 	 20.5318 	 24.687 	 
H 	 -42.662 	 20.7963 	 23.6119 	 
H 	 -42.6727 	 19.5209 	 24.6912 	 
C 	 -40.931 	 20.4879 	 24.8987 	 
H 	 -40.5149 	 21.4494 	 24.7398 	 
H 	 -40.4464 	 19.7511 	 24.36 	 
H 	 -40.6433 	 20.1893 	 25.9905 	 
H 	 -46.5087 	 16.1421 	 28.1248 	 
H 	 -41.0258 	 21.4598 	 29.8503 	 
*
