! wB97X-D3 SP def2-SVP
%pal
nprocs 24
end

* xyz 0 1
S 	 -112.335 	 59.3448 	 -22.508 	 
C 	 -111.94 	 61.0663 	 -22.2625 	 
C 	 -112.841 	 61.9116 	 -22.9027 	 
C 	 -113.836 	 61.2351 	 -23.6565 	 
C 	 -113.722 	 59.8478 	 -23.4972 	 
H 	 -114.751 	 61.5586 	 -24.1087 	 
C 	 -112.842 	 63.479 	 -22.7982 	 
H 	 -113.298 	 63.6687 	 -21.8404 	 
H 	 -113.352 	 63.8513 	 -23.6648 	 
C 	 -111.467 	 64.1225 	 -22.8065 	 
H 	 -110.91 	 64.0607 	 -21.8808 	 
H 	 -111.02 	 63.6998 	 -23.7049 	 
C 	 -111.71 	 65.6597 	 -22.9686 	 
H 	 -110.821 	 66.2735 	 -22.991 	 
H 	 -112.236 	 65.8352 	 -23.9056 	 
H 	 -112.299 	 66.1136 	 -22.1236 	 
S 	 -114.968 	 57.4235 	 -22.9766 	 
C 	 -116.082 	 56.6981 	 -24.0936 	 
C 	 -116.36 	 57.6142 	 -25.1081 	 
C 	 -115.43 	 58.7094 	 -25.1428 	 
C 	 -114.611 	 58.7913 	 -24.0105 	 
H 	 -116.919 	 57.399 	 -25.9965 	 
C 	 -115.32 	 59.7576 	 -26.2454 	 
H 	 -115.388 	 59.1422 	 -27.138 	 
H 	 -114.334 	 60.1697 	 -26.2538 	 
C 	 -116.451 	 60.8306 	 -26.2948 	 
H 	 -116.506 	 61.3328 	 -25.3364 	 
H 	 -117.423 	 60.3372 	 -26.4472 	 
C 	 -116.378 	 61.8067 	 -27.4676 	 
H 	 -117.059 	 62.589 	 -27.2288 	 
H 	 -116.606 	 61.235 	 -28.288 	 
H 	 -115.369 	 62.0619 	 -27.6168 	 
H 	 -110.943 	 61.3825 	 -21.7742 	 
H 	 -116.518 	 55.7222 	 -23.9844 	 
*
