! wB97X-D3 SP def2-SVP
%pal
nprocs 24
end

* xyz 0 1
S 	 -54.1042 	 -42.0313 	 -75.5693 	 
C 	 -54.3571 	 -42.2186 	 -73.8747 	 
C 	 -53.2109 	 -42.6573 	 -73.2406 	 
C 	 -52.1176 	 -42.8169 	 -74.1589 	 
C 	 -52.3745 	 -42.3873 	 -75.4626 	 
H 	 -51.1114 	 -43.263 	 -74.0096 	 
C 	 -53.1725 	 -43.3203 	 -71.8641 	 
H 	 -53.5847 	 -42.601 	 -71.1341 	 
H 	 -52.1935 	 -43.4533 	 -71.4739 	 
C 	 -53.849 	 -44.7142 	 -71.8409 	 
H 	 -54.586 	 -44.6229 	 -72.6281 	 
H 	 -53.1639 	 -45.4246 	 -72.3109 	 
C 	 -54.2284 	 -45.2503 	 -70.4546 	 
H 	 -54.7342 	 -44.4782 	 -69.8268 	 
H 	 -54.8826 	 -46.074 	 -70.6853 	 
H 	 -53.4106 	 -45.6575 	 -69.8982 	 
S 	 -52.2334 	 -43.811 	 -77.73 	 
C 	 -50.8292 	 -43.8804 	 -78.7354 	 
C 	 -49.7846 	 -43.226 	 -78.1709 	 
C 	 -50.1774 	 -42.5768 	 -76.935 	 
C 	 -51.539 	 -42.6647 	 -76.6552 	 
H 	 -48.7858 	 -43.3166 	 -78.5292 	 
C 	 -49.144 	 -42.0478 	 -75.9861 	 
H 	 -49.5941 	 -41.2031 	 -75.3714 	 
H 	 -48.4411 	 -41.5109 	 -76.6756 	 
C 	 -48.3194 	 -43.092 	 -75.1858 	 
H 	 -49.0211 	 -43.6005 	 -74.5328 	 
H 	 -47.7642 	 -42.4673 	 -74.4334 	 
C 	 -47.3949 	 -43.9667 	 -76.019 	 
H 	 -46.6563 	 -43.4122 	 -76.6787 	 
H 	 -47.8393 	 -44.8071 	 -76.5949 	 
H 	 -46.8886 	 -44.492 	 -75.3376 	 
H 	 -55.3365 	 -42.0722 	 -73.335 	 
H 	 -50.8104 	 -44.3804 	 -79.6531 	 
*
