! wB97X-D3 SP def2-SVP
%pal
nprocs 24
end

* xyz 0 1
S 	 -137.564 	 15.2857 	 -2.77455 	 
C 	 -137.677 	 14.3418 	 -1.25632 	 
C 	 -136.485 	 14.0982 	 -0.616452 	 
C 	 -135.417 	 14.8365 	 -1.24812 	 
C 	 -135.804 	 15.3807 	 -2.45833 	 
H 	 -134.426 	 14.9156 	 -1.00594 	 
C 	 -136.26 	 13.402 	 0.744297 	 
H 	 -137.241 	 12.8348 	 0.93755 	 
H 	 -136 	 14.2003 	 1.39547 	 
C 	 -135.265 	 12.19 	 0.714342 	 
H 	 -134.423 	 12.6236 	 0.225778 	 
H 	 -134.897 	 11.8433 	 1.73581 	 
C 	 -135.844 	 11.1062 	 -0.100751 	 
H 	 -135.084 	 10.3052 	 -0.14097 	 
H 	 -136.69 	 10.5962 	 0.319579 	 
H 	 -136.08 	 11.4088 	 -1.08267 	 
S 	 -134.929 	 17.9918 	 -3.04052 	 
C 	 -133.54 	 18.279 	 -4.06153 	 
C 	 -132.912 	 17.1315 	 -4.20237 	 
C 	 -133.664 	 15.94 	 -3.83722 	 
C 	 -134.877 	 16.2469 	 -3.26213 	 
H 	 -131.892 	 17.1595 	 -4.62137 	 
C 	 -132.981 	 14.6062 	 -3.96227 	 
H 	 -132.998 	 14.3415 	 -5.01575 	 
H 	 -133.536 	 13.7067 	 -3.55224 	 
C 	 -131.654 	 14.5405 	 -3.27017 	 
H 	 -131.841 	 14.5979 	 -2.14686 	 
H 	 -131.022 	 15.4381 	 -3.48356 	 
C 	 -130.944 	 13.1423 	 -3.49664 	 
H 	 -129.844 	 13.2701 	 -3.52635 	 
H 	 -131.29 	 12.7245 	 -4.41549 	 
H 	 -131.113 	 12.5563 	 -2.59781 	 
H 	 -138.685 	 14.0555 	 -0.875629 	 
H 	 -133.123 	 19.2617 	 -4.20746 	 
*
