! wB97X-D3 SP def2-SVP
%pal
nprocs 24
end

* xyz 0 1
S 	 -34.8459 	 -39.2708 	 -80.5255 	 
C 	 -35.1767 	 -37.5944 	 -80.1381 	 
C 	 -34.137 	 -36.8352 	 -80.6969 	 
C 	 -33.185 	 -37.6133 	 -81.4375 	 
C 	 -33.6205 	 -38.8804 	 -81.7018 	 
H 	 -32.2321 	 -37.3118 	 -81.866 	 
C 	 -33.9435 	 -35.3444 	 -80.3319 	 
H 	 -34.9837 	 -35.0732 	 -80.3124 	 
H 	 -33.4509 	 -34.8433 	 -81.1389 	 
C 	 -33.1986 	 -35.1054 	 -79.0567 	 
H 	 -33.7671 	 -35.5343 	 -78.2174 	 
H 	 -32.3025 	 -35.6981 	 -79.0826 	 
C 	 -32.7549 	 -33.619 	 -78.886 	 
H 	 -31.8482 	 -33.5166 	 -78.3142 	 
H 	 -32.4372 	 -33.142 	 -79.8459 	 
H 	 -33.6478 	 -33.1034 	 -78.4877 	 
S 	 -32.8983 	 -41.5607 	 -81.8782 	 
C 	 -32.0862 	 -42.0948 	 -83.3601 	 
C 	 -31.8127 	 -41.0561 	 -84.2171 	 
C 	 -32.2358 	 -39.7753 	 -83.7363 	 
C 	 -32.9663 	 -39.8728 	 -82.5323 	 
H 	 -31.214 	 -41.1692 	 -85.05 	 
C 	 -31.9713 	 -38.4918 	 -84.5271 	 
H 	 -30.8727 	 -38.3793 	 -84.6667 	 
H 	 -32.3763 	 -37.6463 	 -84.0046 	 
C 	 -32.5476 	 -38.4135 	 -85.8886 	 
H 	 -33.659 	 -38.5202 	 -85.9683 	 
H 	 -32.254 	 -39.3065 	 -86.4922 	 
C 	 -31.9632 	 -37.2352 	 -86.5897 	 
H 	 -32.2531 	 -36.3382 	 -86.1694 	 
H 	 -32.3032 	 -37.0437 	 -87.5746 	 
H 	 -30.9262 	 -37.3038 	 -86.6358 	 
H 	 -35.8943 	 -37.2553 	 -79.3405 	 
H 	 -31.7031 	 -43.0636 	 -83.5844 	 
*
