! wB97X-D3 SP def2-SVP
%pal
nprocs 24
end

* xyz 0 1
S 	 -64.0321 	 10.5582 	 20.4209 	 
C 	 -62.3994 	 11.1484 	 20.614 	 
C 	 -61.5086 	 10.1338 	 20.8469 	 
C 	 -62.222 	 8.93219 	 21.1367 	 
C 	 -63.557 	 8.99995 	 21.0197 	 
H 	 -61.9134 	 8.00779 	 21.3782 	 
C 	 -60.0354 	 10.2107 	 20.813 	 
H 	 -59.6495 	 10.3606 	 19.8284 	 
H 	 -59.6757 	 9.18636 	 21.0421 	 
C 	 -59.2597 	 11.0979 	 21.7809 	 
H 	 -59.4473 	 12.1559 	 21.5105 	 
H 	 -59.7569 	 11.0011 	 22.7502 	 
C 	 -57.8078 	 10.5849 	 21.7418 	 
H 	 -57.2346 	 11.2228 	 22.4153 	 
H 	 -57.7683 	 9.59603 	 22.1015 	 
H 	 -57.159 	 10.7488 	 20.8093 	 
S 	 -64.9004 	 7.65984 	 22.9533 	 
C 	 -65.6105 	 6.12138 	 22.5276 	 
C 	 -65.5646 	 5.844 	 21.1915 	 
C 	 -64.957 	 6.92374 	 20.4631 	 
C 	 -64.4956 	 7.9585 	 21.3302 	 
H 	 -66.036 	 4.85787 	 20.8362 	 
C 	 -64.6616 	 6.93841 	 18.9927 	 
H 	 -64.23 	 7.86823 	 18.6408 	 
H 	 -65.5577 	 6.98306 	 18.3425 	 
C 	 -63.7905 	 5.74593 	 18.5681 	 
H 	 -64.1308 	 4.80769 	 18.9646 	 
H 	 -62.8795 	 5.92569 	 19.0619 	 
C 	 -63.5531 	 5.68469 	 17.0208 	 
H 	 -63.2352 	 6.60356 	 16.5446 	 
H 	 -64.4555 	 5.59867 	 16.5132 	 
H 	 -63.016 	 4.79961 	 16.7674 	 
H 	 -62.1451 	 12.1929 	 20.4375 	 
H 	 -66.1986 	 5.45163 	 23.1938 	 
*
