! wB97X-D3 SP def2-SVP
%pal
nprocs 24
end

* xyz 0 1
S 	 -45.9482 	 12.2542 	 -16.1592 	 
C 	 -45.9239 	 11.067 	 -14.8262 	 
C 	 -45.0503 	 10.0853 	 -15.1959 	 
C 	 -44.3131 	 10.3739 	 -16.4316 	 
C 	 -44.5985 	 11.6009 	 -16.9907 	 
H 	 -43.4992 	 9.80862 	 -16.9324 	 
C 	 -44.8692 	 8.8195 	 -14.3802 	 
H 	 -45.1342 	 9.00561 	 -13.3077 	 
H 	 -43.7976 	 8.69886 	 -14.3876 	 
C 	 -45.5656 	 7.57532 	 -14.9419 	 
H 	 -46.5925 	 7.67825 	 -14.738 	 
H 	 -45.3656 	 7.52181 	 -16.0284 	 
C 	 -45.0272 	 6.30355 	 -14.2399 	 
H 	 -45.4824 	 5.40215 	 -14.6676 	 
H 	 -43.9565 	 6.2011 	 -14.2172 	 
H 	 -45.483 	 6.2095 	 -13.2347 	 
S 	 -45.0098 	 12.03 	 -19.6858 	 
C 	 -43.782 	 12.6766 	 -20.6144 	 
C 	 -42.6038 	 12.839 	 -19.9395 	 
C 	 -42.7691 	 12.5783 	 -18.5024 	 
C 	 -44.0338 	 12.1635 	 -18.2175 	 
H 	 -41.7178 	 13.164 	 -20.4832 	 
C 	 -41.6584 	 12.7254 	 -17.5278 	 
H 	 -41.9709 	 13.1485 	 -16.5523 	 
H 	 -40.9925 	 13.5148 	 -17.9186 	 
C 	 -40.7652 	 11.5299 	 -17.3837 	 
H 	 -41.3935 	 10.6692 	 -16.9314 	 
H 	 -40.0701 	 11.8969 	 -16.6456 	 
C 	 -39.9649 	 11.1014 	 -18.5896 	 
H 	 -39.3646 	 11.8729 	 -19.0223 	 
H 	 -40.6407 	 10.8735 	 -19.3088 	 
H 	 -39.29 	 10.2518 	 -18.518 	 
H 	 -46.7112 	 10.9418 	 -14.0627 	 
H 	 -43.8809 	 12.9268 	 -21.6955 	 
*
