! wB97X-D3 SP def2-SVP
%pal
nprocs 24
end

* xyz 0 1
S 	 -41.6676 	 -50.0096 	 -74.5406 	 
C 	 -41.6912 	 -48.3012 	 -74.5573 	 
C 	 -40.632 	 -47.7388 	 -73.908 	 
C 	 -39.9637 	 -48.7177 	 -73.1563 	 
C 	 -40.4271 	 -50.0089 	 -73.318 	 
H 	 -39.1378 	 -48.5038 	 -72.4724 	 
C 	 -40.4311 	 -46.2605 	 -73.6981 	 
H 	 -39.9568 	 -45.9928 	 -72.7271 	 
H 	 -41.4123 	 -45.761 	 -73.842 	 
C 	 -39.6434 	 -45.5729 	 -74.8295 	 
H 	 -40.1489 	 -45.8003 	 -75.7245 	 
H 	 -39.7225 	 -44.5065 	 -74.8013 	 
C 	 -38.171 	 -45.9634 	 -74.8433 	 
H 	 -37.6993 	 -45.8869 	 -73.8389 	 
H 	 -38.0241 	 -46.9372 	 -75.2416 	 
H 	 -37.5364 	 -45.3656 	 -75.5061 	 
S 	 -41.039 	 -52.3932 	 -72.1188 	 
C 	 -39.907 	 -53.6687 	 -72.1279 	 
C 	 -38.7281 	 -53.3403 	 -72.7891 	 
C 	 -38.7035 	 -51.9309 	 -73.1822 	 
C 	 -39.8684 	 -51.3069 	 -72.849 	 
H 	 -37.9628 	 -54.0682 	 -72.9907 	 
C 	 -37.5669 	 -51.3379 	 -73.8782 	 
H 	 -38.0627 	 -50.6419 	 -74.6263 	 
H 	 -36.995 	 -52.1164 	 -74.3601 	 
C 	 -36.5899 	 -50.5223 	 -72.9963 	 
H 	 -36.2862 	 -51.211 	 -72.1918 	 
H 	 -37.1896 	 -49.6998 	 -72.6088 	 
C 	 -35.3528 	 -50.1522 	 -73.8038 	 
H 	 -34.833 	 -50.9616 	 -74.2767 	 
H 	 -34.6175 	 -49.6654 	 -73.191 	 
H 	 -35.5501 	 -49.4178 	 -74.5272 	 
H 	 -42.235 	 -47.7151 	 -75.2679 	 
H 	 -40.1578 	 -54.6639 	 -71.8758 	 
*
