! wB97X-D3 SP def2-SVP
%pal
nprocs 24
end

* xyz 0 1
S 	 -75.758 	 5.41508 	 -103.671 	 
C 	 -76.951 	 6.61182 	 -103.907 	 
C 	 -77.4884 	 6.68438 	 -105.166 	 
C 	 -77.0231 	 5.50275 	 -105.911 	 
C 	 -76.1535 	 4.68441 	 -105.208 	 
H 	 -77.3365 	 5.21694 	 -106.924 	 
C 	 -78.6056 	 7.46921 	 -105.782 	 
H 	 -78.8007 	 8.24963 	 -105.096 	 
H 	 -79.4688 	 6.82709 	 -105.644 	 
C 	 -78.4056 	 7.9419 	 -107.198 	 
H 	 -78.0816 	 7.07261 	 -107.751 	 
H 	 -79.3144 	 8.39581 	 -107.529 	 
C 	 -77.1399 	 8.91305 	 -107.296 	 
H 	 -77.2223 	 9.72669 	 -106.574 	 
H 	 -76.163 	 8.4757 	 -107.115 	 
H 	 -77.1137 	 9.41083 	 -108.284 	 
S 	 -75.9325 	 1.91686 	 -105.2 	 
C 	 -74.8134 	 1.10352 	 -106.264 	 
C 	 -74.1434 	 2.07705 	 -107.037 	 
C 	 -74.4423 	 3.4004 	 -106.7 	 
C 	 -75.4361 	 3.5471 	 -105.717 	 
H 	 -73.3678 	 1.90468 	 -107.791 	 
C 	 -73.7828 	 4.58095 	 -107.428 	 
H 	 -72.717 	 4.42657 	 -107.602 	 
H 	 -73.787 	 5.47953 	 -106.748 	 
C 	 -74.3572 	 4.93564 	 -108.825 	 
H 	 -75.3898 	 5.3006 	 -108.699 	 
H 	 -74.5702 	 4.12603 	 -109.501 	 
C 	 -73.6311 	 6.17894 	 -109.378 	 
H 	 -73.8465 	 7.05891 	 -108.769 	 
H 	 -74.0411 	 6.49699 	 -110.368 	 
H 	 -72.5551 	 5.97906 	 -109.507 	 
H 	 -77.369 	 7.28669 	 -103.149 	 
H 	 -74.6261 	 0.0372121 	 -106.357 	 
*
