! wB97X-D3 SP def2-SVP
%pal
nprocs 24
end

* xyz 0 1
S 	 -127.969 	 60.53 	 -47.2324 	 
C 	 -126.975 	 59.3006 	 -47.826 	 
C 	 -125.777 	 59.8627 	 -48.2171 	 
C 	 -125.591 	 61.2335 	 -47.9284 	 
C 	 -126.74 	 61.8084 	 -47.4907 	 
H 	 -124.724 	 61.8103 	 -48.223 	 
C 	 -124.785 	 59.1083 	 -49.1112 	 
H 	 -124.31 	 58.3749 	 -48.551 	 
H 	 -124.013 	 59.8685 	 -49.275 	 
C 	 -125.358 	 58.5887 	 -50.3767 	 
H 	 -124.494 	 58.0694 	 -50.8569 	 
H 	 -126.155 	 57.8417 	 -50.1266 	 
C 	 -125.853 	 59.6508 	 -51.3518 	 
H 	 -125.039 	 60.2818 	 -51.5662 	 
H 	 -126.178 	 59.2425 	 -52.2579 	 
H 	 -126.646 	 60.2947 	 -50.9883 	 
S 	 -127.206 	 64.2613 	 -48.6523 	 
C 	 -127.607 	 65.6326 	 -47.7169 	 
C 	 -127.334 	 65.377 	 -46.3747 	 
C 	 -126.961 	 63.998 	 -46.1039 	 
C 	 -127.094 	 63.2003 	 -47.2525 	 
H 	 -127.215 	 66.2525 	 -45.7482 	 
C 	 -126.646 	 63.534 	 -44.6692 	 
H 	 -125.67 	 63.9456 	 -44.5397 	 
H 	 -126.503 	 62.418 	 -44.6012 	 
C 	 -127.726 	 63.9293 	 -43.6715 	 
H 	 -128.711 	 63.4622 	 -43.8526 	 
H 	 -127.87 	 64.9825 	 -43.6983 	 
C 	 -127.193 	 63.6894 	 -42.2684 	 
H 	 -127.943 	 63.9171 	 -41.5518 	 
H 	 -126.423 	 64.3788 	 -42.1213 	 
H 	 -126.86 	 62.6678 	 -42.0843 	 
H 	 -127.412 	 58.3278 	 -48.0048 	 
H 	 -127.749 	 66.5851 	 -48.06 	 
*
