! wB97X-D3 SP def2-SVP
%pal
nprocs 24
end

* xyz 0 1
S 	 -117.04 	 24.2629 	 -117.947 	 
C 	 -118.634 	 23.9294 	 -117.538 	 
C 	 -119.071 	 24.5618 	 -116.391 	 
C 	 -117.961 	 25.3871 	 -115.912 	 
C 	 -116.816 	 25.4154 	 -116.664 	 
H 	 -117.929 	 26.084 	 -115.093 	 
C 	 -120.377 	 24.4191 	 -115.656 	 
H 	 -120.587 	 23.3491 	 -115.535 	 
H 	 -121.176 	 24.8294 	 -116.372 	 
C 	 -120.487 	 25.1224 	 -114.252 	 
H 	 -120.237 	 26.215 	 -114.369 	 
H 	 -121.538 	 25.1097 	 -113.911 	 
C 	 -119.617 	 24.4752 	 -113.198 	 
H 	 -118.636 	 24.1183 	 -113.571 	 
H 	 -119.331 	 25.3039 	 -112.465 	 
H 	 -120.249 	 23.6818 	 -112.786 	 
S 	 -114.397 	 25.6151 	 -115.625 	 
C 	 -113.415 	 27.0051 	 -115.87 	 
C 	 -114.098 	 28.0769 	 -116.422 	 
C 	 -115.389 	 27.687 	 -116.827 	 
C 	 -115.7 	 26.3313 	 -116.534 	 
H 	 -113.707 	 29.0591 	 -116.456 	 
C 	 -116.35 	 28.7208 	 -117.287 	 
H 	 -117.297 	 28.2767 	 -117.612 	 
H 	 -115.927 	 29.056 	 -118.212 	 
C 	 -116.622 	 29.8851 	 -116.26 	 
H 	 -117.574 	 30.3416 	 -116.593 	 
H 	 -115.813 	 30.6589 	 -116.421 	 
C 	 -116.699 	 29.4473 	 -114.774 	 
H 	 -115.75 	 29.0943 	 -114.437 	 
H 	 -117.369 	 28.6196 	 -114.607 	 
H 	 -116.923 	 30.3021 	 -114.11 	 
H 	 -119.325 	 23.2762 	 -118.014 	 
H 	 -112.422 	 27.1305 	 -115.486 	 
*
