! wB97X-D3 SP def2-SVP
%pal
nprocs 24
end

* xyz 0 1
S 	 -65.1846 	 21.3904 	 -117.958 	 
C 	 -63.5055 	 21.2662 	 -118.144 	 
C 	 -62.8255 	 20.8633 	 -116.982 	 
C 	 -63.784 	 20.4296 	 -116.063 	 
C 	 -65.0452 	 20.8868 	 -116.279 	 
H 	 -63.5215 	 19.8578 	 -115.154 	 
C 	 -61.4012 	 20.4782 	 -116.865 	 
H 	 -61.0984 	 19.7678 	 -117.681 	 
H 	 -61.3086 	 19.9909 	 -115.902 	 
C 	 -60.4 	 21.549 	 -116.584 	 
H 	 -60.8895 	 22.1984 	 -115.827 	 
H 	 -59.3909 	 21.2324 	 -116.182 	 
C 	 -60.1418 	 22.5631 	 -117.769 	 
H 	 -59.505 	 22.0196 	 -118.457 	 
H 	 -61.0728 	 22.979 	 -118.168 	 
H 	 -59.4704 	 23.3934 	 -117.449 	 
S 	 -67.3088 	 19.3544 	 -116.17 	 
C 	 -68.4174 	 19.5889 	 -114.836 	 
C 	 -67.7575 	 20.2404 	 -113.786 	 
C 	 -66.4935 	 20.7688 	 -114.17 	 
C 	 -66.1707 	 20.4841 	 -115.476 	 
H 	 -68.3686 	 20.3783 	 -112.889 	 
C 	 -65.7796 	 21.6161 	 -113.113 	 
H 	 -64.8898 	 22.0544 	 -113.604 	 
H 	 -65.2053 	 21.0336 	 -112.416 	 
C 	 -66.5035 	 22.8872 	 -112.649 	 
H 	 -67.5036 	 22.741 	 -112.289 	 
H 	 -66.6452 	 23.5422 	 -113.559 	 
C 	 -65.7201 	 23.7749 	 -111.529 	 
H 	 -65.6122 	 23.1838 	 -110.686 	 
H 	 -66.2799 	 24.7126 	 -111.34 	 
H 	 -64.7047 	 24.2218 	 -111.82 	 
H 	 -62.9635 	 21.4928 	 -119.06 	 
H 	 -69.2523 	 18.9608 	 -114.474 	 
*
