! wB97X-D3 SP def2-SVP
%pal
nprocs 24
end

* xyz 0 1
S 	 49.5631 	 -19.9336 	 -110.665 	 
C 	 49.5102 	 -21.1696 	 -111.867 	 
C 	 49.5401 	 -22.4285 	 -111.251 	 
C 	 49.8546 	 -22.3134 	 -109.846 	 
C 	 50.0158 	 -21.0405 	 -109.391 	 
H 	 49.9326 	 -23.1686 	 -109.105 	 
C 	 49.4013 	 -23.826 	 -111.896 	 
H 	 49.2506 	 -23.6886 	 -113.022 	 
H 	 48.5446 	 -24.3797 	 -111.488 	 
C 	 50.6026 	 -24.7531 	 -111.764 	 
H 	 51.5211 	 -24.3391 	 -112.145 	 
H 	 50.7408 	 -24.9235 	 -110.721 	 
C 	 50.3301 	 -26.0851 	 -112.422 	 
H 	 49.4238 	 -26.5043 	 -112.04 	 
H 	 50.3296 	 -25.9287 	 -113.507 	 
H 	 51.1251 	 -26.858 	 -112.153 	 
S 	 51.3364 	 -21.6364 	 -107.005 	 
C 	 50.8957 	 -20.8657 	 -105.545 	 
C 	 49.9411 	 -19.9036 	 -105.752 	 
C 	 49.4587 	 -19.7957 	 -107.094 	 
C 	 50.1553 	 -20.7292 	 -107.923 	 
H 	 49.6163 	 -19.2832 	 -104.857 	 
C 	 48.3395 	 -18.7553 	 -107.524 	 
H 	 47.6727 	 -18.8658 	 -106.741 	 
H 	 47.7303 	 -19.0164 	 -108.419 	 
C 	 48.7933 	 -17.2695 	 -107.571 	 
H 	 49.5938 	 -17.1825 	 -108.3 	 
H 	 49.1776 	 -16.9278 	 -106.608 	 
C 	 47.7349 	 -16.3429 	 -108.282 	 
H 	 46.9396 	 -16.9118 	 -108.765 	 
H 	 48.3325 	 -15.6455 	 -108.778 	 
H 	 47.1618 	 -15.7421 	 -107.627 	 
H 	 49.1157 	 -21.0146 	 -112.815 	 
H 	 51.3561 	 -21.0389 	 -104.548 	 
*
