! wB97X-D3 SP def2-SVP
%pal
nprocs 24
end

* xyz 0 1
S 	 -130.012 	 65.1072 	 -59.2135 	 
C 	 -128.284 	 65.004 	 -58.9347 	 
C 	 -127.627 	 65.9751 	 -59.6278 	 
C 	 -128.437 	 66.643 	 -60.5956 	 
C 	 -129.738 	 66.1591 	 -60.6175 	 
H 	 -128.144 	 67.4447 	 -61.2469 	 
C 	 -126.216 	 66.3536 	 -59.4121 	 
H 	 -125.646 	 65.8693 	 -60.2905 	 
H 	 -125.993 	 65.9795 	 -58.4348 	 
C 	 -125.816 	 67.8231 	 -59.5326 	 
H 	 -126 	 68.1285 	 -60.4452 	 
H 	 -126.38 	 68.4886 	 -58.8924 	 
C 	 -124.278 	 68.0739 	 -59.2592 	 
H 	 -123.522 	 67.6194 	 -59.9487 	 
H 	 -124.16 	 69.1255 	 -59.4843 	 
H 	 -123.881 	 67.8383 	 -58.301 	 
S 	 -131.264 	 68.2907 	 -61.4519 	 
C 	 -132.657 	 68.0421 	 -62.4374 	 
C 	 -132.84 	 66.7076 	 -62.7392 	 
C 	 -131.797 	 65.8716 	 -62.2393 	 
C 	 -130.857 	 66.5524 	 -61.456 	 
H 	 -133.656 	 66.3905 	 -63.4232 	 
C 	 -131.725 	 64.3905 	 -62.6127 	 
H 	 -130.694 	 64.0792 	 -62.8802 	 
H 	 -132.313 	 64.5069 	 -63.5107 	 
C 	 -132.406 	 63.3911 	 -61.7672 	 
H 	 -133.46 	 63.6355 	 -61.6384 	 
H 	 -132.057 	 63.382 	 -60.7395 	 
C 	 -132.184 	 61.9702 	 -62.3291 	 
H 	 -131.133 	 61.6 	 -62.3237 	 
H 	 -132.501 	 62.0194 	 -63.3633 	 
H 	 -132.755 	 61.2439 	 -61.7549 	 
H 	 -127.805 	 64.3261 	 -58.2314 	 
H 	 -133.319 	 68.851 	 -62.722 	 
*
