! wB97X-D3 SP def2-SVP
%pal
nprocs 24
end

* xyz 0 1
S 	 -47.8211 	 -2.49295 	 21.2689 	 
C 	 -49.3436 	 -2.87356 	 20.3385 	 
C 	 -49.271 	 -4.01255 	 19.6193 	 
C 	 -47.9702 	 -4.62352 	 19.7879 	 
C 	 -47.0311 	 -3.90602 	 20.527 	 
H 	 -47.6396 	 -5.51597 	 19.2848 	 
C 	 -50.3892 	 -4.5772 	 18.7871 	 
H 	 -51.2778 	 -4.45774 	 19.4699 	 
H 	 -50.2592 	 -5.62364 	 18.5877 	 
C 	 -50.6806 	 -3.90218 	 17.4658 	 
H 	 -50.7211 	 -2.81409 	 17.6902 	 
H 	 -49.8469 	 -4.09023 	 16.8102 	 
C 	 -52.0101 	 -4.40182 	 16.883 	 
H 	 -52.3294 	 -3.69299 	 16.053 	 
H 	 -51.9586 	 -5.43068 	 16.5821 	 
H 	 -52.9483 	 -4.30886 	 17.414 	 
S 	 -45.0287 	 -5.73467 	 20.2401 	 
C 	 -43.3767 	 -5.40491 	 20.8428 	 
C 	 -43.258 	 -4.0515 	 20.8816 	 
C 	 -44.5325 	 -3.35595 	 20.8676 	 
C 	 -45.6391 	 -4.14543 	 20.6462 	 
H 	 -42.3298 	 -3.61576 	 21.1681 	 
C 	 -44.4535 	 -1.85532 	 21.0805 	 
H 	 -44.2293 	 -1.62879 	 22.1361 	 
H 	 -45.442 	 -1.41915 	 20.8261 	 
C 	 -43.3946 	 -0.978833 	 20.2775 	 
H 	 -43.5033 	 -1.15268 	 19.2325 	 
H 	 -42.3264 	 -1.22441 	 20.5121 	 
C 	 -43.4755 	 0.53285 	 20.5287 	 
H 	 -42.5496 	 1.11537 	 20.1716 	 
H 	 -43.5974 	 0.777086 	 21.6241 	 
H 	 -44.2445 	 1.07868 	 19.9605 	 
H 	 -50.2124 	 -2.28961 	 20.6022 	 
H 	 -42.5855 	 -6.08344 	 20.913 	 
*
