! wB97X-D3 SP def2-SVP
%pal
nprocs 24
end

* xyz 0 1
S 	 -87.691 	 -1.01628 	 -63.4234 	 
C 	 -88.2919 	 0.694729 	 -63.5718 	 
C 	 -87.9405 	 1.35791 	 -62.421 	 
C 	 -87.2504 	 0.539587 	 -61.4793 	 
C 	 -87.1746 	 -0.792293 	 -61.7514 	 
H 	 -86.8986 	 0.947354 	 -60.5637 	 
C 	 -88.0775 	 2.7993 	 -62.1348 	 
H 	 -88.7501 	 2.92661 	 -61.2676 	 
H 	 -88.6671 	 3.24083 	 -62.9075 	 
C 	 -86.7807 	 3.63831 	 -62.0103 	 
H 	 -87.0124 	 4.6327 	 -61.6708 	 
H 	 -86.056 	 3.16231 	 -61.3327 	 
C 	 -86.0399 	 3.8814 	 -63.3507 	 
H 	 -86.6321 	 4.37913 	 -64.1363 	 
H 	 -85.2168 	 4.60238 	 -63.2205 	 
H 	 -85.5573 	 2.93031 	 -63.7295 	 
S 	 -85.2096 	 -2.65049 	 -62.0364 	 
C 	 -84.6244 	 -3.43722 	 -60.6268 	 
C 	 -85.5306 	 -3.34709 	 -59.5719 	 
C 	 -86.4903 	 -2.33202 	 -59.747 	 
C 	 -86.3847 	 -1.81719 	 -61.0365 	 
H 	 -85.35 	 -3.99406 	 -58.6932 	 
C 	 -87.5306 	 -2.01091 	 -58.6586 	 
H 	 -87.6427 	 -2.93838 	 -58.0405 	 
H 	 -88.5105 	 -1.65303 	 -58.9987 	 
C 	 -87.0702 	 -0.942826 	 -57.6396 	 
H 	 -87.939 	 -0.597874 	 -57.0374 	 
H 	 -86.8207 	 -0.0323598 	 -58.0691 	 
C 	 -85.9535 	 -1.4646 	 -56.6902 	 
H 	 -86.2034 	 -2.41758 	 -56.2295 	 
H 	 -85.7073 	 -0.851972 	 -55.8863 	 
H 	 -85.0624 	 -1.75314 	 -57.2351 	 
H 	 -88.5922 	 1.20403 	 -64.5191 	 
H 	 -83.797 	 -4.04007 	 -60.6223 	 
*
