! wB97X-D3 SP def2-SVP
%pal
nprocs 24
end

* xyz 0 1
S 	 -114.264 	 47.7243 	 -74.9301 	 
C 	 -114.639 	 48.1286 	 -76.5834 	 
C 	 -113.706 	 48.945 	 -77.1511 	 
C 	 -112.945 	 49.5599 	 -76.1268 	 
C 	 -113.092 	 49.0099 	 -74.8749 	 
H 	 -112.327 	 50.4092 	 -76.2291 	 
C 	 -113.728 	 49.5061 	 -78.553 	 
H 	 -113.639 	 48.6669 	 -79.2776 	 
H 	 -112.748 	 49.973 	 -78.6372 	 
C 	 -114.907 	 50.3824 	 -78.8193 	 
H 	 -114.95 	 50.7272 	 -79.8371 	 
H 	 -115.838 	 49.8416 	 -78.6097 	 
C 	 -115.11 	 51.5922 	 -77.8805 	 
H 	 -115.077 	 51.3151 	 -76.8413 	 
H 	 -114.312 	 52.3482 	 -78.0033 	 
H 	 -116.024 	 52.131 	 -78.0016 	 
S 	 -113.665 	 49.7709 	 -72.4203 	 
C 	 -112.502 	 50.5129 	 -71.3679 	 
C 	 -111.398 	 50.8739 	 -72.0912 	 
C 	 -111.297 	 50.2718 	 -73.3667 	 
C 	 -112.527 	 49.6141 	 -73.6534 	 
H 	 -110.581 	 51.4113 	 -71.6382 	 
C 	 -110.154 	 50.5051 	 -74.3775 	 
H 	 -109.987 	 51.5831 	 -74.6041 	 
H 	 -110.365 	 50.045 	 -75.3498 	 
C 	 -108.839 	 49.7631 	 -74.0546 	 
H 	 -108.988 	 48.6486 	 -74.0357 	 
H 	 -108.546 	 50.2305 	 -73.1244 	 
C 	 -107.774 	 49.9413 	 -75.192 	 
H 	 -106.927 	 49.4336 	 -74.8856 	 
H 	 -107.388 	 50.922 	 -75.2927 	 
H 	 -108.066 	 49.5611 	 -76.155 	 
H 	 -115.549 	 47.8322 	 -77.0488 	 
H 	 -112.687 	 50.8608 	 -70.3384 	 
*
