! wB97X-D3 SP def2-SVP
%pal
nprocs 24
end

* xyz 0 1
S 	 -101.594 	 26.0003 	 -116.583 	 
C 	 -103.266 	 26.3672 	 -116.215 	 
C 	 -103.773 	 27.2378 	 -117.203 	 
C 	 -102.787 	 27.6236 	 -118.221 	 
C 	 -101.545 	 27.0563 	 -117.959 	 
H 	 -103.095 	 28.1301 	 -119.112 	 
C 	 -105.297 	 27.6811 	 -117.221 	 
H 	 -105.842 	 26.8862 	 -116.766 	 
H 	 -105.652 	 27.7521 	 -118.302 	 
C 	 -105.476 	 29.0417 	 -116.527 	 
H 	 -105.288 	 28.8898 	 -115.461 	 
H 	 -104.773 	 29.7368 	 -116.871 	 
C 	 -106.937 	 29.7298 	 -116.608 	 
H 	 -107.605 	 29.2247 	 -115.868 	 
H 	 -106.803 	 30.744 	 -116.296 	 
H 	 -107.41 	 29.835 	 -117.681 	 
S 	 -98.8601 	 26.7651 	 -118.103 	 
C 	 -98.0798 	 26.8846 	 -119.641 	 
C 	 -98.8975 	 26.9913 	 -120.744 	 
C 	 -100.268 	 27.0405 	 -120.306 	 
C 	 -100.384 	 27.0469 	 -118.891 	 
H 	 -98.4786 	 26.9071 	 -121.75 	 
C 	 -101.445 	 27.0287 	 -121.358 	 
H 	 -101.134 	 27.081 	 -122.374 	 
H 	 -101.951 	 28.0222 	 -120.982 	 
C 	 -102.36 	 25.8583 	 -121.352 	 
H 	 -102.339 	 25.4085 	 -120.329 	 
H 	 -101.826 	 25.0723 	 -121.931 	 
C 	 -103.75 	 26.2205 	 -121.995 	 
H 	 -103.629 	 26.5422 	 -123.06 	 
H 	 -104.318 	 26.972 	 -121.469 	 
H 	 -104.325 	 25.2804 	 -121.995 	 
H 	 -103.909 	 25.8862 	 -115.536 	 
H 	 -97.0248 	 26.8247 	 -119.701 	 
*
