! wB97X-D3 SP def2-SVP
%pal
nprocs 24
end

* xyz 0 1
S 	 -49.2115 	 13.6709 	 -105.642 	 
C 	 -50.975 	 13.5181 	 -105.679 	 
C 	 -51.4451 	 12.4127 	 -104.898 	 
C 	 -50.3177 	 11.9281 	 -104.101 	 
C 	 -49.057 	 12.5197 	 -104.433 	 
H 	 -50.3302 	 11.2148 	 -103.315 	 
C 	 -52.838 	 11.8365 	 -104.816 	 
H 	 -53.5992 	 12.5838 	 -104.779 	 
H 	 -52.9159 	 11.4089 	 -103.869 	 
C 	 -53.0413 	 10.7069 	 -105.777 	 
H 	 -52.1079 	 10.1975 	 -105.757 	 
H 	 -53.8135 	 9.98472 	 -105.486 	 
C 	 -53.4545 	 10.9959 	 -107.289 	 
H 	 -53.3697 	 10.072 	 -107.811 	 
H 	 -54.496 	 11.3401 	 -107.331 	 
H 	 -52.8364 	 11.687 	 -107.865 	 
S 	 -46.7853 	 11.0252 	 -104.428 	 
C 	 -45.5582 	 11.3382 	 -103.22 	 
C 	 -45.9516 	 12.3376 	 -102.301 	 
C 	 -47.2976 	 12.8756 	 -102.612 	 
C 	 -47.7999 	 12.2755 	 -103.756 	 
H 	 -45.3375 	 12.6642 	 -101.435 	 
C 	 -47.9072 	 13.8504 	 -101.641 	 
H 	 -48.4879 	 13.1929 	 -100.988 	 
H 	 -48.5599 	 14.5054 	 -102.258 	 
C 	 -46.95 	 14.7034 	 -100.792 	 
H 	 -46.2088 	 15.1816 	 -101.455 	 
H 	 -46.4574 	 14.0652 	 -100.104 	 
C 	 -47.6438 	 15.8023 	 -99.9268 	 
H 	 -48.0067 	 16.6536 	 -100.557 	 
H 	 -47.1062 	 16.2435 	 -99.0336 	 
H 	 -48.6409 	 15.5141 	 -99.4228 	 
H 	 -51.6241 	 13.9589 	 -106.421 	 
H 	 -44.6636 	 10.7948 	 -103.034 	 
*
