! wB97X-D3 SP def2-SVP
%pal
nprocs 24
end

* xyz 0 1
S 	 -40.7479 	 11.0591 	 26.7414 	 
C 	 -40.6141 	 12.2529 	 28.0028 	 
C 	 -40.2489 	 11.6038 	 29.1594 	 
C 	 -40.222 	 10.1597 	 29.0874 	 
C 	 -40.4741 	 9.69651 	 27.8526 	 
H 	 -39.8039 	 9.47933 	 29.8165 	 
C 	 -39.9168 	 12.2778 	 30.5033 	 
H 	 -40.0493 	 11.6314 	 31.3638 	 
H 	 -40.6908 	 13.0301 	 30.7216 	 
C 	 -38.5517 	 12.8913 	 30.5537 	 
H 	 -37.8872 	 12.0506 	 30.2653 	 
H 	 -38.4063 	 13.6511 	 29.797 	 
C 	 -38.0387 	 13.4176 	 31.8462 	 
H 	 -37.322 	 14.25 	 31.7036 	 
H 	 -38.8858 	 13.7554 	 32.4679 	 
H 	 -37.5518 	 12.6669 	 32.3724 	 
S 	 -38.6686 	 8.17899 	 26.4179 	 
C 	 -38.7645 	 6.45875 	 26.6455 	 
C 	 -40.0634 	 6.05867 	 27.0106 	 
C 	 -40.8336 	 7.15305 	 27.4951 	 
C 	 -40.1673 	 8.37269 	 27.3129 	 
H 	 -40.2294 	 4.99577 	 27.0413 	 
C 	 -42.1468 	 6.91785 	 28.2429 	 
H 	 -42.1729 	 7.58983 	 29.1001 	 
H 	 -42.2133 	 5.91413 	 28.6717 	 
C 	 -43.5012 	 7.12998 	 27.5275 	 
H 	 -43.7086 	 8.15681 	 27.4365 	 
H 	 -44.2464 	 6.76025 	 28.2182 	 
C 	 -43.654 	 6.4378 	 26.0932 	 
H 	 -44.6955 	 6.32906 	 25.8347 	 
H 	 -43.262 	 5.42424 	 26.0979 	 
H 	 -43.2193 	 6.99401 	 25.2828 	 
H 	 -40.8205 	 13.2786 	 27.9192 	 
H 	 -37.9773 	 5.79122 	 26.3658 	 
*
