! wB97X-D3 SP def2-SVP
%pal
nprocs 24
end

* xyz 0 1
S 	 -59.0248 	 -55.706 	 -84.5008 	 
C 	 -59.6883 	 -54.2218 	 -83.9644 	 
C 	 -60.4886 	 -54.4649 	 -82.8552 	 
C 	 -60.2707 	 -55.7581 	 -82.2898 	 
C 	 -59.5408 	 -56.5967 	 -83.1173 	 
H 	 -60.7361 	 -56.1052 	 -81.3557 	 
C 	 -61.3435 	 -53.3422 	 -82.3031 	 
H 	 -62.3145 	 -53.7588 	 -81.9537 	 
H 	 -61.5596 	 -52.5267 	 -82.9776 	 
C 	 -60.6439 	 -52.5779 	 -81.0639 	 
H 	 -60.303 	 -53.3112 	 -80.3712 	 
H 	 -59.7652 	 -52.0311 	 -81.4178 	 
C 	 -61.7201 	 -51.5296 	 -80.366 	 
H 	 -62.4485 	 -52.091 	 -79.8544 	 
H 	 -61.1231 	 -50.9785 	 -79.5984 	 
H 	 -62.1266 	 -50.8016 	 -80.9849 	 
S 	 -58.7515 	 -58.5426 	 -81.3209 	 
C 	 -58.3887 	 -60.1126 	 -81.9271 	 
C 	 -58.8483 	 -60.3183 	 -83.2412 	 
C 	 -59.3254 	 -59.0901 	 -83.824 	 
C 	 -59.2413 	 -58.0128 	 -82.9453 	 
H 	 -58.8349 	 -61.2383 	 -83.6704 	 
C 	 -59.8959 	 -59.1107 	 -85.2068 	 
H 	 -59.4576 	 -60.0756 	 -85.6736 	 
H 	 -59.4234 	 -58.3443 	 -85.7876 	 
C 	 -61.4174 	 -59.1053 	 -85.3077 	 
H 	 -61.6631 	 -58.0809 	 -85.1372 	 
H 	 -61.8375 	 -59.762 	 -84.5186 	 
C 	 -61.8379 	 -59.465 	 -86.7673 	 
H 	 -61.5115 	 -58.6891 	 -87.4507 	 
H 	 -62.8864 	 -59.659 	 -86.9059 	 
H 	 -61.375 	 -60.4727 	 -86.9808 	 
H 	 -59.6373 	 -53.3201 	 -84.4681 	 
H 	 -58.0298 	 -60.9149 	 -81.318 	 
*
