! wB97X-D3 SP def2-SVP
%pal
nprocs 24
end

* xyz 0 1
S 	 -32.8167 	 12.0408 	 -3.29164 	 
C 	 -33.2492 	 10.4655 	 -3.95944 	 
C 	 -33.662 	 9.6774 	 -2.84571 	 
C 	 -33.9174 	 10.4091 	 -1.67786 	 
C 	 -33.4281 	 11.7287 	 -1.71295 	 
H 	 -34.215 	 10.072 	 -0.698393 	 
C 	 -33.9325 	 8.27109 	 -2.82669 	 
H 	 -33.5101 	 7.76991 	 -1.89732 	 
H 	 -33.2335 	 7.88503 	 -3.55678 	 
C 	 -35.3839 	 8.03632 	 -3.14897 	 
H 	 -36.0324 	 8.71994 	 -2.68229 	 
H 	 -35.5509 	 8.31133 	 -4.17756 	 
C 	 -35.7044 	 6.53565 	 -3.01477 	 
H 	 -35.6048 	 6.23216 	 -1.9143 	 
H 	 -36.7601 	 6.39322 	 -3.38433 	 
H 	 -34.9606 	 5.88123 	 -3.51748 	 
S 	 -31.4565 	 13.1393 	 -0.543377 	 
C 	 -31.6276 	 13.7348 	 1.05328 	 
C 	 -32.9544 	 13.7024 	 1.52506 	 
C 	 -33.7684 	 12.9929 	 0.583783 	 
C 	 -33.1203 	 12.5349 	 -0.568056 	 
H 	 -33.3419 	 14.1621 	 2.43228 	 
C 	 -35.2089 	 12.5724 	 0.971324 	 
H 	 -35.2024 	 11.4997 	 1.26806 	 
H 	 -35.7953 	 12.6376 	 0.0502019 	 
C 	 -35.9757 	 13.2719 	 2.12934 	 
H 	 -35.4291 	 13.2208 	 3.09228 	 
H 	 -36.876 	 12.7134 	 2.31976 	 
C 	 -36.3216 	 14.6664 	 1.71762 	 
H 	 -37.3304 	 14.7864 	 1.15349 	 
H 	 -35.5121 	 15.1719 	 1.06968 	 
H 	 -36.387 	 15.2785 	 2.58188 	 
H 	 -33.0311 	 10.1313 	 -4.98294 	 
H 	 -30.9388 	 14.3748 	 1.48836 	 
*
