! wB97X-D3 SP def2-SVP
%pal
nprocs 24
end

* xyz 0 1
S 	 -56.1541 	 22.2296 	 25.7485 	 
C 	 -55.9636 	 20.7113 	 26.5837 	 
C 	 -56.8915 	 19.7905 	 26.2077 	 
C 	 -57.9009 	 20.4398 	 25.409 	 
C 	 -57.665 	 21.741 	 25.0936 	 
H 	 -58.8894 	 20.0069 	 25.1234 	 
C 	 -57.0148 	 18.3942 	 26.7649 	 
H 	 -58.0226 	 17.9638 	 26.7068 	 
H 	 -56.946 	 18.4644 	 27.8663 	 
C 	 -56.0391 	 17.3971 	 26.2277 	 
H 	 -56.0591 	 17.2102 	 25.1497 	 
H 	 -55.1002 	 17.9251 	 26.3826 	 
C 	 -56.11 	 16.03 	 26.9464 	 
H 	 -55.1478 	 15.5087 	 26.7328 	 
H 	 -56.1704 	 15.8645 	 27.9937 	 
H 	 -56.8931 	 15.4545 	 26.5669 	 
S 	 -58.2561 	 24.2469 	 24.2896 	 
C 	 -59.2885 	 24.5042 	 22.9448 	 
C 	 -59.8417 	 23.3868 	 22.4178 	 
C 	 -59.3316 	 22.1849 	 23.0287 	 
C 	 -58.4485 	 22.4861 	 24.1255 	 
H 	 -60.5721 	 23.4925 	 21.6676 	 
C 	 -59.6724 	 20.7676 	 22.5608 	 
H 	 -60.519 	 20.5443 	 23.1876 	 
H 	 -58.8546 	 20.0784 	 22.7552 	 
C 	 -59.9333 	 20.6104 	 21.0836 	 
H 	 -60.7235 	 21.2602 	 20.8149 	 
H 	 -60.303 	 19.6425 	 20.9143 	 
C 	 -58.7044 	 20.9167 	 20.1781 	 
H 	 -58.9788 	 21.4127 	 19.2385 	 
H 	 -58.0985 	 20.0132 	 19.9994 	 
H 	 -58.0145 	 21.5802 	 20.58 	 
H 	 -55.153 	 20.5205 	 27.2753 	 
H 	 -59.5179 	 25.5412 	 22.6526 	 
*
