! wB97X-D3 SP def2-SVP
%pal
nprocs 24
end

* xyz 0 1
S 	 -48.2023 	 23.8603 	 26.386 	 
C 	 -46.719 	 22.8646 	 26.3486 	 
C 	 -46.4287 	 22.2445 	 27.5494 	 
C 	 -47.4443 	 22.4908 	 28.5309 	 
C 	 -48.4353 	 23.3404 	 28.0839 	 
H 	 -47.5065 	 22.089 	 29.5541 	 
C 	 -45.3598 	 21.1659 	 27.7269 	 
H 	 -45.0079 	 20.8733 	 26.7024 	 
H 	 -45.8294 	 20.1847 	 27.9996 	 
C 	 -44.1336 	 21.6762 	 28.5513 	 
H 	 -43.897 	 22.6659 	 28.2596 	 
H 	 -44.2416 	 21.5001 	 29.6212 	 
C 	 -42.8347 	 20.8694 	 28.241 	 
H 	 -42.8513 	 19.7781 	 28.5711 	 
H 	 -42.6288 	 20.8021 	 27.1796 	 
H 	 -41.9785 	 21.2758 	 28.7884 	 
S 	 -50.2888 	 22.6806 	 29.9777 	 
C 	 -51.4571 	 23.8902 	 30.4698 	 
C 	 -51.2976 	 25.095 	 29.761 	 
C 	 -50.1616 	 25.0798 	 28.8192 	 
C 	 -49.5397 	 23.8356 	 28.8656 	 
H 	 -52.0724 	 25.8999 	 29.8933 	 
C 	 -49.7579 	 26.3077 	 27.9166 	 
H 	 -50.3994 	 26.4324 	 26.9932 	 
H 	 -48.7726 	 26.2691 	 27.667 	 
C 	 -49.8658 	 27.6538 	 28.5944 	 
H 	 -50.8919 	 27.6936 	 28.963 	 
H 	 -49.6785 	 28.5076 	 27.9071 	 
C 	 -48.8463 	 27.8735 	 29.7511 	 
H 	 -47.7909 	 28.0697 	 29.5155 	 
H 	 -48.7919 	 27.0181 	 30.4041 	 
H 	 -49.255 	 28.7418 	 30.3882 	 
H 	 -46.1329 	 22.6927 	 25.4019 	 
H 	 -52.2915 	 23.5255 	 31.0777 	 
*
