! wB97X-D3 SP def2-SVP
%pal
nprocs 24
end

* xyz 0 1
S 	 -39.6278 	 7.76378 	 27.0679 	 
C 	 -41.3246 	 7.65288 	 26.8821 	 
C 	 -41.9663 	 8.52608 	 27.794 	 
C 	 -41.0875 	 9.36662 	 28.5433 	 
C 	 -39.7557 	 8.965 	 28.4185 	 
H 	 -41.2805 	 9.96609 	 29.3609 	 
C 	 -43.5016 	 8.6486 	 27.9333 	 
H 	 -43.7539 	 8.8207 	 26.8571 	 
H 	 -43.734 	 9.43162 	 28.5578 	 
C 	 -44.2511 	 7.35459 	 28.3107 	 
H 	 -44.0327 	 6.51539 	 27.6096 	 
H 	 -43.8836 	 6.93545 	 29.2491 	 
C 	 -45.7405 	 7.6526 	 28.4704 	 
H 	 -46.2739 	 6.96512 	 27.7961 	 
H 	 -46.186 	 7.7152 	 29.4226 	 
H 	 -46.0191 	 8.61921 	 27.9953 	 
S 	 -37.5785 	 10.7752 	 28.9257 	 
C 	 -36.9593 	 10.8452 	 30.5458 	 
C 	 -37.6695 	 10.0407 	 31.3814 	 
C 	 -38.5885 	 9.13621 	 30.7115 	 
C 	 -38.6868 	 9.4392 	 29.3705 	 
H 	 -37.4212 	 10.1019 	 32.4404 	 
C 	 -39.2706 	 8.0644 	 31.5522 	 
H 	 -38.4091 	 7.45294 	 31.9212 	 
H 	 -39.7458 	 7.2659 	 30.8864 	 
C 	 -40.1892 	 8.54373 	 32.7683 	 
H 	 -39.771 	 9.39564 	 33.2286 	 
H 	 -40.3331 	 7.8764 	 33.5898 	 
C 	 -41.586 	 8.87553 	 32.1086 	 
H 	 -42.0284 	 8.05048 	 31.5667 	 
H 	 -41.5235 	 9.73838 	 31.4787 	 
H 	 -42.2524 	 9.16047 	 32.8656 	 
H 	 -41.8929 	 7.08289 	 26.1267 	 
H 	 -36.3079 	 11.6214 	 30.9646 	 
*
