! wB97X-D3 SP def2-SVP
%pal
nprocs 24
end

* xyz 0 1
S 	 -109.637 	 60.4559 	 -21.1844 	 
C 	 -109.256 	 61.5532 	 -19.9109 	 
C 	 -108.541 	 61.0438 	 -18.8531 	 
C 	 -108.302 	 59.6385 	 -19.0989 	 
C 	 -108.757 	 59.2402 	 -20.3203 	 
H 	 -107.709 	 58.9307 	 -18.5135 	 
C 	 -108.161 	 61.7454 	 -17.6027 	 
H 	 -107.476 	 61.0562 	 -17.0382 	 
H 	 -109.021 	 61.8211 	 -16.9481 	 
C 	 -107.7 	 63.159 	 -17.8548 	 
H 	 -106.684 	 63.0416 	 -18.2588 	 
H 	 -108.325 	 63.6713 	 -18.5684 	 
C 	 -107.66 	 64.1544 	 -16.7076 	 
H 	 -107.109 	 63.646 	 -15.9443 	 
H 	 -106.973 	 64.9659 	 -17.072 	 
H 	 -108.638 	 64.6886 	 -16.3809 	 
S 	 -110.253 	 56.9898 	 -21.042 	 
C 	 -109.446 	 55.4597 	 -21.2016 	 
C 	 -108.087 	 55.5831 	 -21.4136 	 
C 	 -107.691 	 56.9238 	 -21.0704 	 
C 	 -108.755 	 57.8579 	 -20.8096 	 
H 	 -107.462 	 54.6028 	 -21.6697 	 
C 	 -106.24 	 57.2369 	 -20.8254 	 
H 	 -106.087 	 58.2924 	 -20.9709 	 
H 	 -105.553 	 56.8581 	 -21.5586 	 
C 	 -105.579 	 56.8962 	 -19.4695 	 
H 	 -105.511 	 55.821 	 -19.4271 	 
H 	 -106.27 	 57.1496 	 -18.6121 	 
C 	 -104.119 	 57.2266 	 -19.4342 	 
H 	 -103.646 	 56.9448 	 -20.3557 	 
H 	 -103.635 	 56.606 	 -18.6627 	 
H 	 -104.022 	 58.339 	 -19.3217 	 
H 	 -109.67 	 62.5604 	 -19.7664 	 
H 	 -109.902 	 54.5145 	 -21.2923 	 
*
