! wB97X-D3 SP def2-SVP
%pal
nprocs 24
end

* xyz 0 1
S 	 -106.635 	 11.5143 	 -7.62234 	 
C 	 -105.514 	 12.8762 	 -7.91336 	 
C 	 -105.335 	 13.6605 	 -6.7613 	 
C 	 -106.12 	 13.2289 	 -5.66172 	 
C 	 -106.98 	 12.1922 	 -6.00323 	 
H 	 -106.161 	 13.6705 	 -4.69891 	 
C 	 -104.392 	 14.8206 	 -6.6813 	 
H 	 -104.299 	 15.1102 	 -5.63929 	 
H 	 -104.804 	 15.6604 	 -7.22664 	 
C 	 -102.923 	 14.5491 	 -7.13003 	 
H 	 -102.817 	 14.4525 	 -8.20807 	 
H 	 -102.274 	 15.3945 	 -6.9502 	 
C 	 -102.298 	 13.4006 	 -6.43704 	 
H 	 -102.647 	 12.3735 	 -6.81219 	 
H 	 -101.201 	 13.4284 	 -6.58151 	 
H 	 -102.678 	 13.3837 	 -5.40787 	 
S 	 -109.683 	 11.6451 	 -5.82477 	 
C 	 -110.371 	 11.1989 	 -4.2998 	 
C 	 -109.354 	 10.8787 	 -3.43692 	 
C 	 -108.071 	 11.0845 	 -3.89272 	 
C 	 -108.072 	 11.6035 	 -5.15906 	 
H 	 -109.58 	 10.3553 	 -2.54691 	 
C 	 -106.889 	 10.873 	 -2.88684 	 
H 	 -107.214 	 10.4731 	 -1.92846 	 
H 	 -106.453 	 11.8776 	 -2.57573 	 
C 	 -105.646 	 10.0226 	 -3.36833 	 
H 	 -105.297 	 10.2919 	 -4.38972 	 
H 	 -105.889 	 8.95436 	 -3.51675 	 
C 	 -104.503 	 10.1342 	 -2.30866 	 
H 	 -104.012 	 11.0875 	 -2.13463 	 
H 	 -103.652 	 9.5435 	 -2.69521 	 
H 	 -104.83 	 9.81925 	 -1.32655 	 
H 	 -105.114 	 13.0967 	 -8.87392 	 
H 	 -111.463 	 11.0383 	 -4.11691 	 
*
