! wB97X-D3 SP def2-SVP
%pal
nprocs 24
end

* xyz 0 1
S 	 -49.8675 	 17.3008 	 25.3098 	 
C 	 -50.1078 	 17.8975 	 23.7408 	 
C 	 -48.9884 	 17.9094 	 22.9547 	 
C 	 -47.8271 	 17.7431 	 23.8296 	 
C 	 -48.1473 	 17.3616 	 25.1272 	 
H 	 -46.7998 	 17.9183 	 23.6808 	 
C 	 -48.8212 	 18.3094 	 21.4828 	 
H 	 -49.4292 	 17.6711 	 20.8317 	 
H 	 -47.9615 	 17.8821 	 21.1828 	 
C 	 -48.7334 	 19.8146 	 21.1781 	 
H 	 -49.2199 	 20.323 	 21.9563 	 
H 	 -47.7106 	 20.2757 	 21.1715 	 
C 	 -49.6938 	 20.2582 	 19.9345 	 
H 	 -49.3773 	 19.8246 	 19.0308 	 
H 	 -50.7148 	 19.8908 	 20.1158 	 
H 	 -49.7529 	 21.3438 	 19.8013 	 
S 	 -47.4866 	 15.1884 	 26.629 	 
C 	 -46.2557 	 15.3505 	 27.7949 	 
C 	 -45.6439 	 16.5648 	 27.6856 	 
C 	 -46.2064 	 17.4741 	 26.8422 	 
C 	 -47.2356 	 16.885 	 26.1377 	 
H 	 -44.7486 	 16.6289 	 28.3501 	 
C 	 -45.6693 	 18.951 	 26.6996 	 
H 	 -45.6762 	 19.2141 	 25.5879 	 
H 	 -44.6335 	 18.9573 	 26.9158 	 
C 	 -46.4379 	 20.0086 	 27.3916 	 
H 	 -47.4294 	 19.723 	 27.2466 	 
H 	 -46.1943 	 20.955 	 26.8486 	 
C 	 -46.1088 	 19.9264 	 28.9124 	 
H 	 -46.7576 	 20.6664 	 29.4167 	 
H 	 -45.0297 	 19.9587 	 29.1802 	 
H 	 -46.5685 	 19.0145 	 29.2011 	 
H 	 -51.0372 	 18.0137 	 23.2355 	 
H 	 -45.8683 	 14.5308 	 28.3823 	 
*
