! wB97X-D3 SP def2-SVP
%pal
nprocs 24
end

* xyz 0 1
S 	 -100.568 	 24.4008 	 -110.876 	 
C 	 -101.096 	 22.8567 	 -110.32 	 
C 	 -102.31 	 22.9727 	 -109.553 	 
C 	 -102.691 	 24.3477 	 -109.415 	 
C 	 -101.866 	 25.2409 	 -110.086 	 
H 	 -103.533 	 24.6867 	 -108.842 	 
C 	 -102.97 	 21.8783 	 -108.882 	 
H 	 -103.183 	 21.1786 	 -109.663 	 
H 	 -103.945 	 22.3775 	 -108.677 	 
C 	 -102.258 	 21.2558 	 -107.651 	 
H 	 -101.402 	 20.7545 	 -107.998 	 
H 	 -101.831 	 22.0763 	 -107.126 	 
C 	 -103.146 	 20.3733 	 -106.867 	 
H 	 -102.467 	 19.7482 	 -106.245 	 
H 	 -103.668 	 21.092 	 -106.178 	 
H 	 -103.724 	 19.73 	 -107.552 	 
S 	 -100.63 	 27.6175 	 -110.084 	 
C 	 -101.448 	 29.0786 	 -110.605 	 
C 	 -102.729 	 28.7743 	 -110.944 	 
C 	 -103.133 	 27.4438 	 -110.724 	 
C 	 -102.092 	 26.6885 	 -110.311 	 
H 	 -103.36 	 29.6158 	 -111.139 	 
C 	 -104.579 	 27.1128 	 -111.026 	 
H 	 -104.604 	 26.0103 	 -111.266 	 
H 	 -104.889 	 27.5794 	 -111.95 	 
C 	 -105.573 	 27.4667 	 -109.918 	 
H 	 -105.165 	 27.1917 	 -108.845 	 
H 	 -106.463 	 26.8443 	 -109.973 	 
C 	 -106.088 	 28.879 	 -110.061 	 
H 	 -106.407 	 29.1678 	 -111.091 	 
H 	 -105.289 	 29.5522 	 -109.747 	 
H 	 -106.946 	 29.0131 	 -109.38 	 
H 	 -100.509 	 21.9427 	 -110.3 	 
H 	 -101.267 	 30.109 	 -110.633 	 
*
