! wB97X-D3 SP def2-SVP
%pal
nprocs 24
end

* xyz 0 1
S 	 -88.491 	 -47.1327 	 -82.8981 	 
C 	 -89.1369 	 -46.1794 	 -81.6613 	 
C 	 -88.1856 	 -45.6684 	 -80.8096 	 
C 	 -86.9177 	 -46.2084 	 -81.0973 	 
C 	 -86.8689 	 -47.0269 	 -82.1862 	 
H 	 -86.09 	 -45.9478 	 -80.5411 	 
C 	 -88.5227 	 -44.8354 	 -79.6086 	 
H 	 -89.3956 	 -44.1729 	 -79.7739 	 
H 	 -87.6992 	 -44.165 	 -79.5228 	 
C 	 -88.6376 	 -45.746 	 -78.4162 	 
H 	 -89.6208 	 -46.2446 	 -78.4097 	 
H 	 -87.9657 	 -46.5198 	 -78.4602 	 
C 	 -88.6052 	 -45.0578 	 -77.0091 	 
H 	 -88.8438 	 -45.7515 	 -76.2143 	 
H 	 -87.5916 	 -44.746 	 -76.7553 	 
H 	 -89.2397 	 -44.1586 	 -76.9557 	 
S 	 -85.796 	 -47.9789 	 -84.4943 	 
C 	 -84.2517 	 -48.7951 	 -84.3996 	 
C 	 -83.5937 	 -48.6303 	 -83.186 	 
C 	 -84.5173 	 -48.0508 	 -82.2455 	 
C 	 -85.7642 	 -47.7393 	 -82.7906 	 
H 	 -82.6859 	 -49.0876 	 -83.0183 	 
C 	 -84.0571 	 -47.8391 	 -80.9073 	 
H 	 -84.9396 	 -47.763 	 -80.2544 	 
H 	 -83.5832 	 -46.8671 	 -80.8841 	 
C 	 -83.0599 	 -48.8774 	 -80.2957 	 
H 	 -82.1323 	 -48.933 	 -80.8058 	 
H 	 -83.2876 	 -49.9469 	 -80.3368 	 
C 	 -82.7031 	 -48.5329 	 -78.8771 	 
H 	 -83.5547 	 -48.1283 	 -78.3521 	 
H 	 -81.9151 	 -47.781 	 -78.8026 	 
H 	 -82.4955 	 -49.3918 	 -78.2182 	 
H 	 -90.2 	 -45.9302 	 -81.4717 	 
H 	 -83.8149 	 -49.3738 	 -85.1154 	 
*
