! wB97X-D3 SP def2-SVP
%pal
nprocs 24
end

* xyz 0 1
S 	 -140.574 	 9.17125 	 5.09978 	 
C 	 -141.957 	 10.021 	 4.38368 	 
C 	 -142.476 	 11.049 	 5.15856 	 
C 	 -141.867 	 11.0298 	 6.4681 	 
C 	 -140.779 	 10.1494 	 6.52789 	 
H 	 -141.941 	 11.8016 	 7.25246 	 
C 	 -143.618 	 11.9904 	 4.74302 	 
H 	 -143.557 	 12.0452 	 3.67679 	 
H 	 -143.445 	 12.9067 	 5.11357 	 
C 	 -145.045 	 11.6944 	 5.19281 	 
H 	 -145.46 	 10.9201 	 4.57201 	 
H 	 -145.126 	 11.3497 	 6.23354 	 
C 	 -146.037 	 12.8342 	 4.98901 	 
H 	 -145.612 	 13.7667 	 4.4957 	 
H 	 -146.962 	 12.4468 	 4.45061 	 
H 	 -146.45 	 13.1693 	 5.95703 	 
S 	 -138.078 	 9.68901 	 7.19979 	 
C 	 -137.733 	 9.6587 	 8.92187 	 
C 	 -138.831 	 9.5161 	 9.73146 	 
C 	 -140.009 	 9.68431 	 8.96584 	 
C 	 -139.805 	 9.85772 	 7.58112 	 
H 	 -138.755 	 9.425 	 10.8141 	 
C 	 -141.373 	 9.61596 	 9.6525 	 
H 	 -141.219 	 8.87967 	 10.496 	 
H 	 -142.127 	 9.32223 	 8.97982 	 
C 	 -141.805 	 10.9282 	 10.2839 	 
H 	 -142.718 	 10.7894 	 10.9009 	 
H 	 -142.002 	 11.5912 	 9.48077 	 
C 	 -140.833 	 11.5566 	 11.2846 	 
H 	 -139.997 	 11.9716 	 10.7572 	 
H 	 -140.613 	 10.9492 	 12.1275 	 
H 	 -141.377 	 12.3738 	 11.7531 	 
H 	 -142.199 	 9.8466 	 3.3029 	 
H 	 -136.73 	 9.64124 	 9.28686 	 
*
