! wB97X-D3 SP def2-SVP
%pal
nprocs 24
end

* xyz 0 1
S 	 -60.6711 	 -57.4799 	 -76.9446 	 
C 	 -62.0722 	 -57.3289 	 -75.8441 	 
C 	 -62.8922 	 -56.2524 	 -76.2183 	 
C 	 -62.3089 	 -55.5245 	 -77.3363 	 
C 	 -61.0051 	 -55.9519 	 -77.6997 	 
H 	 -62.8404 	 -54.6855 	 -77.7775 	 
C 	 -64.2283 	 -56.0783 	 -75.5436 	 
H 	 -64.5733 	 -57.0492 	 -75.179 	 
H 	 -64.9698 	 -55.9448 	 -76.3989 	 
C 	 -64.4848 	 -54.892 	 -74.5686 	 
H 	 -64.4977 	 -53.9495 	 -75.0486 	 
H 	 -65.5137 	 -55.0702 	 -74.2599 	 
C 	 -63.4889 	 -54.9556 	 -73.4592 	 
H 	 -63.7894 	 -54.2651 	 -72.7016 	 
H 	 -63.4661 	 -55.9812 	 -73.0554 	 
H 	 -62.4681 	 -54.6509 	 -73.7921 	 
S 	 -60.2234 	 -56.1198 	 -80.3472 	 
C 	 -59.2768 	 -54.7719 	 -80.9419 	 
C 	 -59.0428 	 -53.7801 	 -80.0295 	 
C 	 -59.6284 	 -54.0978 	 -78.7808 	 
C 	 -60.1224 	 -55.3965 	 -78.7005 	 
H 	 -58.4977 	 -52.8556 	 -80.34 	 
C 	 -59.6009 	 -53.0695 	 -77.5944 	 
H 	 -60.4122 	 -53.2998 	 -76.8729 	 
H 	 -59.9059 	 -52.1645 	 -78.0682 	 
C 	 -58.2659 	 -52.6795 	 -76.9652 	 
H 	 -58.4857 	 -51.9464 	 -76.2259 	 
H 	 -57.7063 	 -52.1719 	 -77.6888 	 
C 	 -57.4523 	 -53.8615 	 -76.3409 	 
H 	 -56.6276 	 -53.4655 	 -75.7809 	 
H 	 -57.2324 	 -54.6766 	 -77.0425 	 
H 	 -58.0637 	 -54.4399 	 -75.5737 	 
H 	 -62.334 	 -58.1569 	 -75.1776 	 
H 	 -58.9697 	 -54.6268 	 -82.0051 	 
*
