! wB97X-D3 SP def2-SVP
%pal
nprocs 24
end

* xyz 0 1
S 	 -47.0033 	 11.9308 	 -18.6521 	 
C 	 -48.0541 	 11.1159 	 -17.5572 	 
C 	 -48.8496 	 10.1588 	 -18.1309 	 
C 	 -48.6908 	 10.2867 	 -19.6007 	 
C 	 -47.6233 	 11.0034 	 -20.0175 	 
H 	 -49.2012 	 9.7443 	 -20.3211 	 
C 	 -49.9004 	 9.30775 	 -17.4706 	 
H 	 -50.7342 	 9.10104 	 -18.1811 	 
H 	 -50.3251 	 9.83208 	 -16.6083 	 
C 	 -49.4858 	 7.86112 	 -17.1253 	 
H 	 -50.4104 	 7.37035 	 -16.7899 	 
H 	 -49.2532 	 7.29148 	 -18.0835 	 
C 	 -48.4105 	 7.82417 	 -16.0126 	 
H 	 -48.6285 	 6.83487 	 -15.564 	 
H 	 -47.3686 	 7.94479 	 -16.1359 	 
H 	 -48.6799 	 8.51157 	 -15.2387 	 
S 	 -45.1635 	 11.0596 	 -21.413 	 
C 	 -45.1417 	 10.5635 	 -23.002 	 
C 	 -46.3733 	 10.5823 	 -23.6098 	 
C 	 -47.4325 	 10.6399 	 -22.6297 	 
C 	 -46.903 	 10.8965 	 -21.3449 	 
H 	 -46.4729 	 10.5276 	 -24.6886 	 
C 	 -48.8534 	 10.5681 	 -23.0751 	 
H 	 -49.5042 	 10.0039 	 -22.4552 	 
H 	 -48.9303 	 10.2898 	 -24.1518 	 
C 	 -49.6033 	 11.9531 	 -23.1327 	 
H 	 -49.0596 	 12.6501 	 -23.7728 	 
H 	 -49.5736 	 12.3455 	 -22.1256 	 
C 	 -51.1242 	 11.8942 	 -23.6325 	 
H 	 -51.6663 	 11.1837 	 -22.9511 	 
H 	 -51.3624 	 11.4804 	 -24.6179 	 
H 	 -51.5529 	 12.9325 	 -23.5375 	 
H 	 -48.0761 	 11.3645 	 -16.4909 	 
H 	 -44.1857 	 10.341 	 -23.5252 	 
*
