! wB97X-D3 SP def2-SVP
%pal
nprocs 24
end

* xyz 0 1
S 	 -69.8718 	 9.6017 	 -70.4616 	 
C 	 -70.1635 	 9.07163 	 -68.9006 	 
C 	 -69.7672 	 7.75551 	 -68.7361 	 
C 	 -69.1339 	 7.19722 	 -69.8538 	 
C 	 -68.9197 	 8.17347 	 -70.8688 	 
H 	 -68.8144 	 6.20019 	 -69.8545 	 
C 	 -69.7929 	 6.974 	 -67.4563 	 
H 	 -70.2195 	 7.58244 	 -66.6644 	 
H 	 -68.7014 	 6.89834 	 -67.1618 	 
C 	 -70.4551 	 5.61375 	 -67.3629 	 
H 	 -69.7955 	 4.87387 	 -67.7686 	 
H 	 -70.411 	 5.30477 	 -66.3145 	 
C 	 -71.9522 	 5.53093 	 -67.968 	 
H 	 -72.1251 	 6.11566 	 -68.8746 	 
H 	 -72.1639 	 4.49086 	 -68.3367 	 
H 	 -72.678 	 5.83893 	 -67.2652 	 
S 	 -68.6988 	 8.98042 	 -73.3981 	 
C 	 -67.5171 	 8.31382 	 -74.4057 	 
C 	 -66.7696 	 7.32497 	 -73.7744 	 
C 	 -67.0145 	 7.29482 	 -72.4029 	 
C 	 -68.1703 	 8.00895 	 -72.0965 	 
H 	 -65.9774 	 6.85827 	 -74.3536 	 
C 	 -66.2074 	 6.37469 	 -71.5207 	 
H 	 -66.4752 	 6.6282 	 -70.5206 	 
H 	 -65.1458 	 6.47553 	 -71.524 	 
C 	 -66.6645 	 4.93998 	 -71.7433 	 
H 	 -66.5224 	 4.63444 	 -72.7804 	 
H 	 -67.7527 	 4.88184 	 -71.574 	 
C 	 -65.8741 	 4.00013 	 -70.8865 	 
H 	 -64.828 	 3.9304 	 -71.1181 	 
H 	 -66.2376 	 2.99358 	 -71.0737 	 
H 	 -65.9698 	 4.15131 	 -69.7932 	 
H 	 -70.6299 	 9.72322 	 -68.1834 	 
H 	 -67.4802 	 8.43336 	 -75.4793 	 
*
