! wB97X-D3 SP def2-SVP
%pal
nprocs 24
end

* xyz 0 1
S 	 -3.89705 	 -22.8074 	 -118.101 	 
C 	 -2.62571 	 -22.432 	 -119.307 	 
C 	 -1.38438 	 -22.8279 	 -118.848 	 
C 	 -1.35742 	 -23.404 	 -117.475 	 
C 	 -2.64804 	 -23.319 	 -116.883 	 
H 	 -0.494755 	 -23.8755 	 -116.978 	 
C 	 -0.115416 	 -22.9683 	 -119.648 	 
H 	 -0.445223 	 -23.198 	 -120.656 	 
H 	 0.461829 	 -23.8208 	 -119.368 	 
C 	 0.844435 	 -21.7052 	 -119.546 	 
H 	 1.07704 	 -21.4954 	 -118.523 	 
H 	 1.73557 	 -21.9912 	 -120.146 	 
C 	 0.338708 	 -20.4306 	 -120.225 	 
H 	 0.807597 	 -19.5598 	 -119.863 	 
H 	 0.431142 	 -20.4387 	 -121.275 	 
H 	 -0.706534 	 -20.3329 	 -119.898 	 
S 	 -4.39318 	 -24.6704 	 -115.199 	 
C 	 -3.89238 	 -25.064 	 -113.607 	 
C 	 -2.71981 	 -24.4449 	 -113.299 	 
C 	 -2.14086 	 -23.6311 	 -114.345 	 
C 	 -2.92514 	 -23.7337 	 -115.494 	 
H 	 -2.35431 	 -24.5233 	 -112.296 	 
C 	 -0.813061 	 -22.9721 	 -114.109 	 
H 	 -0.918235 	 -22.2183 	 -113.347 	 
H 	 -0.615106 	 -22.4628 	 -115.086 	 
C 	 0.285714 	 -23.9476 	 -113.81 	 
H 	 0.424261 	 -24.5049 	 -114.71 	 
H 	 -0.0276768 	 -24.6243 	 -112.954 	 
C 	 1.63915 	 -23.189 	 -113.416 	 
H 	 1.70685 	 -22.5941 	 -112.53 	 
H 	 1.9412 	 -22.4969 	 -114.203 	 
H 	 2.45617 	 -23.9247 	 -113.429 	 
H 	 -2.78225 	 -22.1855 	 -120.306 	 
H 	 -4.45145 	 -25.5427 	 -112.853 	 
*
