! wB97X-D3 SP def2-SVP
%pal
nprocs 24
end

* xyz 0 1
S 	 -93.5256 	 -25.4431 	 -67.2508 	 
C 	 -95.1124 	 -24.9344 	 -67.8105 	 
C 	 -96.0499 	 -25.2525 	 -66.7945 	 
C 	 -95.4733 	 -25.7962 	 -65.6286 	 
C 	 -94.1267 	 -25.899 	 -65.6851 	 
H 	 -96.0078 	 -26.1303 	 -64.753 	 
C 	 -97.541 	 -25.2155 	 -66.9524 	 
H 	 -97.9045 	 -26.1104 	 -66.4784 	 
H 	 -97.6655 	 -25.3663 	 -68.0503 	 
C 	 -98.2087 	 -23.9343 	 -66.4281 	 
H 	 -97.7775 	 -23.0977 	 -66.8435 	 
H 	 -99.2062 	 -23.8887 	 -66.8282 	 
C 	 -98.1603 	 -24.0154 	 -64.8767 	 
H 	 -98.8204 	 -23.22 	 -64.4424 	 
H 	 -98.5261 	 -24.9442 	 -64.4673 	 
H 	 -97.1168 	 -23.81 	 -64.4847 	 
S 	 -92.5732 	 -27.9131 	 -64.5286 	 
C 	 -91.9133 	 -27.5959 	 -62.8943 	 
C 	 -92.2727 	 -26.3577 	 -62.4579 	 
C 	 -92.8804 	 -25.5645 	 -63.4798 	 
C 	 -93.2059 	 -26.3096 	 -64.6156 	 
H 	 -91.9624 	 -26.0885 	 -61.4741 	 
C 	 -93.4567 	 -24.2188 	 -63.1572 	 
H 	 -93.8139 	 -23.8591 	 -64.1898 	 
H 	 -92.6846 	 -23.5679 	 -62.8198 	 
C 	 -94.6471 	 -24.3509 	 -62.2228 	 
H 	 -94.4758 	 -24.8416 	 -61.2506 	 
H 	 -95.4293 	 -24.9881 	 -62.7389 	 
C 	 -95.2588 	 -22.9013 	 -62.0322 	 
H 	 -96.2341 	 -22.994 	 -61.5417 	 
H 	 -95.4884 	 -22.581 	 -63.0385 	 
H 	 -94.5782 	 -22.1938 	 -61.5272 	 
H 	 -95.3499 	 -24.5498 	 -68.7398 	 
H 	 -91.4349 	 -28.3366 	 -62.2463 	 
*
