! wB97X-D3 SP def2-SVP
%pal
nprocs 24
end

* xyz 0 1
S 	 -145.738 	 12.9256 	 -9.38966 	 
C 	 -144.231 	 12.5476 	 -8.51916 	 
C 	 -144.325 	 11.3931 	 -7.81526 	 
C 	 -145.731 	 10.9664 	 -7.78953 	 
C 	 -146.639 	 11.7705 	 -8.42652 	 
H 	 -146.11 	 10.0845 	 -7.34357 	 
C 	 -143.205 	 10.6422 	 -7.14402 	 
H 	 -143.569 	 10.4851 	 -6.17656 	 
H 	 -142.348 	 11.34 	 -7.05709 	 
C 	 -142.717 	 9.31315 	 -7.82079 	 
H 	 -143.582 	 8.67408 	 -7.61885 	 
H 	 -142.585 	 9.47099 	 -8.86987 	 
C 	 -141.555 	 8.50049 	 -7.19349 	 
H 	 -140.547 	 8.88581 	 -7.3678 	 
H 	 -141.515 	 8.30917 	 -6.10188 	 
H 	 -141.569 	 7.53365 	 -7.71368 	 
S 	 -148.47 	 9.79489 	 -9.06802 	 
C 	 -150.032 	 10.3416 	 -9.60562 	 
C 	 -150.238 	 11.7076 	 -9.4247 	 
C 	 -149.082 	 12.3397 	 -8.93809 	 
C 	 -148.046 	 11.4595 	 -8.60977 	 
H 	 -151.064 	 12.2852 	 -9.74396 	 
C 	 -149.028 	 13.8353 	 -8.69058 	 
H 	 -148.153 	 13.9218 	 -8.07891 	 
H 	 -149.883 	 14.1325 	 -8.14957 	 
C 	 -148.921 	 14.6485 	 -9.93445 	 
H 	 -149.782 	 14.4596 	 -10.5504 	 
H 	 -148.19 	 14.3608 	 -10.5768 	 
C 	 -148.738 	 16.1356 	 -9.62107 	 
H 	 -147.705 	 16.2995 	 -9.30355 	 
H 	 -149.395 	 16.5002 	 -8.85558 	 
H 	 -149.018 	 16.7499 	 -10.4732 	 
H 	 -143.286 	 13.0847 	 -8.6775 	 
H 	 -150.667 	 9.67351 	 -10.1664 	 
*
