! wB97X-D3 SP def2-SVP
%pal
nprocs 24
end

* xyz 0 1
S 	 -47.4869 	 18.9177 	 31.8099 	 
C 	 -46.2273 	 17.7218 	 31.5068 	 
C 	 -45.0776 	 18.3824 	 31.1528 	 
C 	 -45.0505 	 19.804 	 31.4354 	 
C 	 -46.31 	 20.2795 	 31.8024 	 
H 	 -44.2809 	 20.4686 	 31.319 	 
C 	 -43.8793 	 17.661 	 30.6787 	 
H 	 -43.7055 	 16.6888 	 31.2127 	 
H 	 -43.0624 	 18.3585 	 30.9202 	 
C 	 -43.896 	 17.3843 	 29.1714 	 
H 	 -43.0232 	 17.0322 	 28.7526 	 
H 	 -44.5691 	 16.5812 	 28.9517 	 
C 	 -44.2425 	 18.6247 	 28.2633 	 
H 	 -43.6723 	 19.5141 	 28.5261 	 
H 	 -44.0392 	 18.3884 	 27.1858 	 
H 	 -45.3009 	 18.832 	 28.289 	 
S 	 -48.2291 	 22.3474 	 31.8547 	 
C 	 -47.7472 	 23.7472 	 32.6898 	 
C 	 -46.4329 	 23.7868 	 33.0572 	 
C 	 -45.6704 	 22.6319 	 32.7591 	 
C 	 -46.5654 	 21.6848 	 32.1679 	 
H 	 -46.1413 	 24.6942 	 33.5473 	 
C 	 -44.2634 	 22.4671 	 33.2499 	 
H 	 -44.1131 	 21.4149 	 33.5651 	 
H 	 -44.0871 	 23.1028 	 34.0999 	 
C 	 -43.286 	 22.7815 	 32.1144 	 
H 	 -43.3194 	 23.8681 	 31.9396 	 
H 	 -43.7238 	 22.382 	 31.1181 	 
C 	 -41.8418 	 22.2366 	 32.4174 	 
H 	 -41.566 	 22.3111 	 33.4605 	 
H 	 -41.0719 	 22.6663 	 31.7348 	 
H 	 -41.8389 	 21.1706 	 32.167 	 
H 	 -46.3449 	 16.65 	 31.4065 	 
H 	 -48.3065 	 24.6811 	 32.66 	 
*
