! wB97X-D3 SP def2-SVP
%pal
nprocs 24
end

* xyz 0 1
S 	 -63.708 	 -48.3302 	 -88.1482 	 
C 	 -62.3954 	 -49.4007 	 -88.476 	 
C 	 -62.7923 	 -50.7643 	 -88.2407 	 
C 	 -64.1137 	 -50.8048 	 -87.7448 	 
C 	 -64.7988 	 -49.5862 	 -87.6395 	 
H 	 -64.6825 	 -51.6422 	 -87.4681 	 
C 	 -61.9096 	 -51.9575 	 -88.5396 	 
H 	 -60.9416 	 -51.7075 	 -88.0894 	 
H 	 -61.5939 	 -52.1501 	 -89.5564 	 
C 	 -62.5168 	 -53.2935 	 -87.9107 	 
H 	 -62.9977 	 -53.2342 	 -86.8915 	 
H 	 -63.3638 	 -53.7531 	 -88.5031 	 
C 	 -61.5955 	 -54.5515 	 -87.9644 	 
H 	 -62.172 	 -55.4277 	 -87.6176 	 
H 	 -61.1545 	 -54.8853 	 -88.8915 	 
H 	 -60.7102 	 -54.3356 	 -87.2571 	 
S 	 -65.9745 	 -48.8398 	 -85.3375 	 
C 	 -67.7733 	 -49.0686 	 -85.2797 	 
C 	 -68.2868 	 -49.5835 	 -86.4144 	 
C 	 -67.3486 	 -49.7464 	 -87.4729 	 
C 	 -66.0769 	 -49.3982 	 -87.0306 	 
H 	 -69.3171 	 -49.9039 	 -86.4969 	 
C 	 -67.6105 	 -50.3963 	 -88.7747 	 
H 	 -66.8328 	 -50.1063 	 -89.5281 	 
H 	 -68.5584 	 -50.0618 	 -89.0463 	 
C 	 -67.5458 	 -51.9212 	 -88.9449 	 
H 	 -68.3264 	 -52.3154 	 -88.3059 	 
H 	 -66.5877 	 -52.3097 	 -88.5078 	 
C 	 -68.0336 	 -52.493 	 -90.3643 	 
H 	 -68.9798 	 -52.1043 	 -90.7302 	 
H 	 -68.2476 	 -53.5233 	 -90.2598 	 
H 	 -67.3245 	 -52.2828 	 -91.1218 	 
H 	 -61.4252 	 -49.1295 	 -88.8512 	 
H 	 -68.257 	 -48.8558 	 -84.3309 	 
*
