! wB97X-D3 SP def2-SVP
%pal
nprocs 24
end

* xyz 0 1
S 	 -100.508 	 -0.489358 	 -105.979 	 
C 	 -100.556 	 -0.841892 	 -107.694 	 
C 	 -101.772 	 -1.50681 	 -107.976 	 
C 	 -102.53 	 -1.83559 	 -106.798 	 
C 	 -101.946 	 -1.38955 	 -105.621 	 
H 	 -103.455 	 -2.38046 	 -106.713 	 
C 	 -102.086 	 -2.12623 	 -109.314 	 
H 	 -101.468 	 -1.80703 	 -110.177 	 
H 	 -103.086 	 -1.7282 	 -109.571 	 
C 	 -102.156 	 -3.61564 	 -109.439 	 
H 	 -103.048 	 -3.95842 	 -109.015 	 
H 	 -102.293 	 -3.86763 	 -110.535 	 
C 	 -100.943 	 -4.37865 	 -108.832 	 
H 	 -101.048 	 -5.44399 	 -109.139 	 
H 	 -100.026 	 -4.05683 	 -109.29 	 
H 	 -100.906 	 -4.30419 	 -107.708 	 
S 	 -103.696 	 0.055379 	 -104.156 	 
C 	 -104.544 	 -0.768439 	 -102.918 	 
C 	 -103.949 	 -1.91294 	 -102.5 	 
C 	 -102.891 	 -2.32008 	 -103.416 	 
C 	 -102.578 	 -1.31074 	 -104.328 	 
H 	 -104.371 	 -2.52638 	 -101.693 	 
C 	 -102.169 	 -3.71114 	 -103.351 	 
H 	 -102.299 	 -4.00067 	 -102.309 	 
H 	 -101.148 	 -3.66272 	 -103.544 	 
C 	 -102.781 	 -4.74452 	 -104.271 	 
H 	 -102.75 	 -4.43166 	 -105.314 	 
H 	 -103.824 	 -4.726 	 -103.943 	 
C 	 -102.318 	 -6.17267 	 -104.241 	 
H 	 -103.074 	 -6.83049 	 -104.615 	 
H 	 -102.103 	 -6.44206 	 -103.164 	 
H 	 -101.404 	 -6.54659 	 -104.829 	 
H 	 -99.7886 	 -0.688373 	 -108.458 	 
H 	 -105.364 	 -0.302197 	 -102.405 	 
*
