! wB97X-D3 SP def2-SVP
%pal
nprocs 24
end

* xyz 0 1
S 	 -34.3222 	 -30.3062 	 -99.4166 	 
C 	 -35.2478 	 -29.7166 	 -100.866 	 
C 	 -36.3841 	 -30.4885 	 -101.074 	 
C 	 -36.4858 	 -31.5167 	 -100.178 	 
C 	 -35.5268 	 -31.543 	 -99.1931 	 
H 	 -37.2822 	 -32.2705 	 -100.139 	 
C 	 -37.4787 	 -30.2289 	 -102.176 	 
H 	 -37.6811 	 -31.1911 	 -102.633 	 
H 	 -37.0998 	 -29.7057 	 -103.044 	 
C 	 -38.8559 	 -29.7514 	 -101.733 	 
H 	 -38.6927 	 -28.7062 	 -101.335 	 
H 	 -39.576 	 -29.7146 	 -102.572 	 
C 	 -39.7014 	 -30.6542 	 -100.823 	 
H 	 -39.9057 	 -31.664 	 -101.238 	 
H 	 -39.2006 	 -30.8788 	 -99.9189 	 
H 	 -40.6903 	 -30.2063 	 -100.612 	 
S 	 -36.9729 	 -32.5436 	 -97.1238 	 
C 	 -36.175 	 -33.5941 	 -95.8872 	 
C 	 -34.9375 	 -33.8265 	 -96.3125 	 
C 	 -34.4906 	 -33.1337 	 -97.4566 	 
C 	 -35.502 	 -32.4214 	 -98.0908 	 
H 	 -34.3255 	 -34.4847 	 -95.7574 	 
C 	 -33.0494 	 -33.1801 	 -97.86 	 
H 	 -32.4588 	 -33.2599 	 -96.9815 	 
H 	 -32.8833 	 -32.2826 	 -98.4786 	 
C 	 -32.6526 	 -34.4092 	 -98.6649 	 
H 	 -33.3337 	 -34.4591 	 -99.4931 	 
H 	 -32.853 	 -35.2335 	 -98.011 	 
C 	 -31.2127 	 -34.2485 	 -99.1827 	 
H 	 -30.5904 	 -34.014 	 -98.303 	 
H 	 -31.1654 	 -33.4214 	 -99.7689 	 
H 	 -31.0597 	 -35.1557 	 -99.7869 	 
H 	 -34.9384 	 -28.8668 	 -101.484 	 
H 	 -36.6153 	 -34.0981 	 -94.996 	 
*
