! wB97X-D3 SP def2-SVP
%pal
nprocs 24
end

* xyz 0 1
S 	 -118.848 	 59.1667 	 -38.5804 	 
C 	 -118.322 	 57.631 	 -38.0234 	 
C 	 -117.077 	 57.7464 	 -37.4447 	 
C 	 -116.542 	 59.0815 	 -37.5256 	 
C 	 -117.316 	 59.901 	 -38.3782 	 
H 	 -115.582 	 59.4198 	 -37.0713 	 
C 	 -116.299 	 56.6143 	 -36.7608 	 
H 	 -115.233 	 57.0034 	 -36.7916 	 
H 	 -116.378 	 55.7223 	 -37.4111 	 
C 	 -116.623 	 56.2886 	 -35.3656 	 
H 	 -116.478 	 57.1503 	 -34.7442 	 
H 	 -117.687 	 56.0459 	 -35.2323 	 
C 	 -115.83 	 55.1819 	 -34.6818 	 
H 	 -116.471 	 54.8965 	 -33.8067 	 
H 	 -115.85 	 54.357 	 -35.3422 	 
H 	 -114.853 	 55.4002 	 -34.2074 	 
S 	 -115.647 	 61.9507 	 -39.2719 	 
C 	 -116.107 	 63.5846 	 -38.8845 	 
C 	 -117.359 	 63.7618 	 -38.4136 	 
C 	 -117.94 	 62.4521 	 -38.1115 	 
C 	 -117.116 	 61.3582 	 -38.5863 	 
H 	 -117.751 	 64.7397 	 -38.2048 	 
C 	 -119.286 	 62.4207 	 -37.4137 	 
H 	 -119.78 	 61.4827 	 -37.4244 	 
H 	 -119.913 	 63.0585 	 -37.958 	 
C 	 -119.223 	 62.8603 	 -35.9497 	 
H 	 -118.495 	 63.6232 	 -35.6984 	 
H 	 -118.902 	 62.0182 	 -35.3429 	 
C 	 -120.409 	 63.5144 	 -35.3054 	 
H 	 -120.265 	 63.8888 	 -34.2055 	 
H 	 -121.267 	 62.7941 	 -35.2626 	 
H 	 -120.653 	 64.2944 	 -36.0031 	 
H 	 -118.746 	 56.666 	 -38.0857 	 
H 	 -115.39 	 64.4151 	 -39.0472 	 
*
