! wB97X-D3 SP def2-SVP
%pal
nprocs 24
end

* xyz 0 1
S 	 -129.412 	 29.8037 	 -21.0233 	 
C 	 -130.767 	 29.1271 	 -20.1079 	 
C 	 -131.519 	 28.3194 	 -20.9674 	 
C 	 -130.838 	 28.0676 	 -22.1973 	 
C 	 -129.761 	 28.8751 	 -22.4093 	 
H 	 -131.188 	 27.4329 	 -22.9686 	 
C 	 -132.727 	 27.5403 	 -20.4721 	 
H 	 -132.834 	 27.6472 	 -19.369 	 
H 	 -132.496 	 26.4581 	 -20.6359 	 
C 	 -134.054 	 27.9499 	 -21.1773 	 
H 	 -134.806 	 27.7861 	 -20.4298 	 
H 	 -134.14 	 28.9981 	 -21.3882 	 
C 	 -134.51 	 27.04 	 -22.3524 	 
H 	 -135.546 	 27.1893 	 -22.5514 	 
H 	 -133.963 	 27.2291 	 -23.3178 	 
H 	 -134.266 	 25.9499 	 -22.1598 	 
S 	 -128.496 	 30.8384 	 -23.7203 	 
C 	 -127.84 	 30.6882 	 -25.2513 	 
C 	 -128.001 	 29.3885 	 -25.7024 	 
C 	 -128.73 	 28.5644 	 -24.8042 	 
C 	 -129.007 	 29.1916 	 -23.6174 	 
H 	 -127.579 	 29.0948 	 -26.6611 	 
C 	 -129.333 	 27.2696 	 -25.1959 	 
H 	 -129.983 	 26.9009 	 -24.4143 	 
H 	 -128.493 	 26.6199 	 -25.3296 	 
C 	 -130.287 	 27.2346 	 -26.394 	 
H 	 -130.314 	 26.21 	 -26.7809 	 
H 	 -129.915 	 27.8165 	 -27.2116 	 
C 	 -131.713 	 27.7218 	 -26.0461 	 
H 	 -132.339 	 27.5716 	 -26.8801 	 
H 	 -131.607 	 28.7946 	 -25.8935 	 
H 	 -132.083 	 27.4053 	 -25.1012 	 
H 	 -130.966 	 29.3928 	 -19.0306 	 
H 	 -127.229 	 31.4493 	 -25.7423 	 
*
