! wB97X-D3 SP def2-SVP
%pal
nprocs 24
end

* xyz 0 1
S 	 -45.7357 	 13.2752 	 27.6237 	 
C 	 -47.2979 	 13.3441 	 26.9174 	 
C 	 -48.2554 	 13.921 	 27.7402 	 
C 	 -47.7022 	 14.2095 	 29.0201 	 
C 	 -46.3176 	 13.9883 	 29.1702 	 
H 	 -48.2797 	 14.5996 	 29.9008 	 
C 	 -49.7072 	 14.3172 	 27.2686 	 
H 	 -49.6527 	 14.828 	 26.2814 	 
H 	 -50.1299 	 15.0588 	 27.9402 	 
C 	 -50.7023 	 13.1665 	 26.971 	 
H 	 -51.52 	 13.6779 	 26.5148 	 
H 	 -50.3136 	 12.4818 	 26.1575 	 
C 	 -51.2361 	 12.314 	 28.1095 	 
H 	 -50.4804 	 11.8118 	 28.6338 	 
H 	 -51.8715 	 12.9796 	 28.7712 	 
H 	 -51.9611 	 11.4994 	 27.8181 	 
S 	 -45.0178 	 12.8479 	 31.3219 	 
C 	 -44.5692 	 13.914 	 32.6781 	 
C 	 -44.8591 	 15.1962 	 32.4572 	 
C 	 -45.6486 	 15.3415 	 31.2499 	 
C 	 -45.5573 	 14.2223 	 30.4565 	 
H 	 -44.7264 	 15.9736 	 33.1997 	 
C 	 -46.2857 	 16.6976 	 30.8976 	 
H 	 -46.8712 	 17.0175 	 31.7695 	 
H 	 -47.1565 	 16.5301 	 30.1872 	 
C 	 -45.4422 	 17.7906 	 30.4195 	 
H 	 -44.8016 	 18.2875 	 31.1526 	 
H 	 -46.1601 	 18.6271 	 30.233 	 
C 	 -44.7847 	 17.4302 	 29.0884 	 
H 	 -44.1125 	 16.5259 	 29.1413 	 
H 	 -44.4027 	 18.3246 	 28.5851 	 
H 	 -45.5283 	 17.0609 	 28.3754 	 
H 	 -47.474 	 13.1157 	 25.8623 	 
H 	 -44.0556 	 13.5813 	 33.5847 	 
*
