! wB97X-D3 SP def2-SVP
%pal
nprocs 24
end

* xyz 0 1
S 	 -51.4113 	 18.4906 	 -99.5247 	 
C 	 -52.8772 	 17.5212 	 -99.9432 	 
C 	 -53.3258 	 17.844 	 -101.21 	 
C 	 -52.4356 	 18.7508 	 -101.916 	 
C 	 -51.4127 	 19.2114 	 -101.091 	 
H 	 -52.4927 	 18.9754 	 -102.982 	 
C 	 -54.6602 	 17.3504 	 -101.845 	 
H 	 -55.3393 	 17.1464 	 -101.012 	 
H 	 -54.4705 	 16.3571 	 -102.326 	 
C 	 -55.3496 	 18.3558 	 -102.796 	 
H 	 -54.6387 	 18.676 	 -103.591 	 
H 	 -56.2229 	 17.8375 	 -103.225 	 
C 	 -55.8454 	 19.5555 	 -102.037 	 
H 	 -56.5624 	 19.4042 	 -101.187 	 
H 	 -55.0143 	 20.1678 	 -101.667 	 
H 	 -56.3853 	 20.2232 	 -102.572 	 
S 	 -50.2275 	 21.5794 	 -100.416 	 
C 	 -48.9913 	 22.2748 	 -101.467 	 
C 	 -48.8542 	 21.5932 	 -102.656 	 
C 	 -49.7904 	 20.515 	 -102.703 	 
C 	 -50.4448 	 20.2568 	 -101.491 	 
H 	 -48.3149 	 21.943 	 -103.495 	 
C 	 -49.8449 	 19.5556 	 -103.923 	 
H 	 -50.4186 	 18.7149 	 -103.711 	 
H 	 -48.9116 	 19.1718 	 -104.1 	 
C 	 -50.3621 	 20.2119 	 -105.21 	 
H 	 -50.552 	 19.3539 	 -105.873 	 
H 	 -49.6646 	 20.9176 	 -105.616 	 
C 	 -51.7249 	 20.9052 	 -105.218 	 
H 	 -51.6173 	 21.9426 	 -104.808 	 
H 	 -52.4857 	 20.2807 	 -104.896 	 
H 	 -52.0886 	 21.1017 	 -106.228 	 
H 	 -53.3191 	 16.7788 	 -99.2772 	 
H 	 -48.4132 	 23.1879 	 -101.231 	 
*
