! wB97X-D3 SP def2-SVP
%pal
nprocs 24
end

* xyz 0 1
S 	 -118.126 	 58.7006 	 -38.3529 	 
C 	 -117.509 	 58.1496 	 -36.8713 	 
C 	 -116.914 	 59.0892 	 -36.117 	 
C 	 -116.701 	 60.2718 	 -36.9194 	 
C 	 -117.592 	 60.2959 	 -37.9572 	 
H 	 -116.064 	 61.2022 	 -36.6283 	 
C 	 -116.204 	 58.8525 	 -34.7813 	 
H 	 -115.581 	 58.0253 	 -34.9547 	 
H 	 -116.822 	 58.4861 	 -34.0196 	 
C 	 -115.376 	 60.0181 	 -34.1909 	 
H 	 -114.74 	 60.6184 	 -34.8549 	 
H 	 -116.037 	 60.6782 	 -33.668 	 
C 	 -114.488 	 59.4429 	 -33.0655 	 
H 	 -113.958 	 58.5049 	 -33.3967 	 
H 	 -113.768 	 60.1993 	 -32.6935 	 
H 	 -115.123 	 59.1465 	 -32.2965 	 
S 	 -117.915 	 60.8921 	 -40.6519 	 
C 	 -118.016 	 62.5999 	 -41.0822 	 
C 	 -117.93 	 63.4372 	 -39.9767 	 
C 	 -117.776 	 62.7427 	 -38.7533 	 
C 	 -117.748 	 61.3458 	 -38.938 	 
H 	 -118.121 	 64.477 	 -40.1565 	 
C 	 -117.541 	 63.4997 	 -37.4195 	 
H 	 -117.628 	 64.5736 	 -37.5942 	 
H 	 -116.63 	 63.3376 	 -37.0102 	 
C 	 -118.51 	 63.1862 	 -36.2684 	 
H 	 -118.342 	 62.1268 	 -36.0309 	 
H 	 -119.551 	 63.2401 	 -36.7097 	 
C 	 -118.272 	 63.8475 	 -34.9342 	 
H 	 -119.087 	 63.5399 	 -34.2328 	 
H 	 -118.37 	 64.9368 	 -35.0723 	 
H 	 -117.337 	 63.4916 	 -34.4565 	 
H 	 -117.66 	 57.1336 	 -36.5184 	 
H 	 -118.209 	 63.0209 	 -42.0638 	 
*
