! wB97X-D3 SP def2-SVP
%pal
nprocs 24
end

* xyz 0 1
S 	 -101.736 	 -2.06761 	 -118 	 
C 	 -103.091 	 -3.02217 	 -118.575 	 
C 	 -102.953 	 -3.28848 	 -119.91 	 
C 	 -101.615 	 -2.99472 	 -120.392 	 
C 	 -100.888 	 -2.30824 	 -119.478 	 
H 	 -101.266 	 -3.29477 	 -121.372 	 
C 	 -103.813 	 -4.15259 	 -120.733 	 
H 	 -103.963 	 -3.59547 	 -121.678 	 
H 	 -104.817 	 -3.99798 	 -120.406 	 
C 	 -103.362 	 -5.6246 	 -120.947 	 
H 	 -104.029 	 -6.1331 	 -121.68 	 
H 	 -102.34 	 -5.54344 	 -121.313 	 
C 	 -103.361 	 -6.33509 	 -119.584 	 
H 	 -102.578 	 -5.77286 	 -118.993 	 
H 	 -104.331 	 -6.23989 	 -119.13 	 
H 	 -103.18 	 -7.44205 	 -119.72 	 
S 	 -99.2993 	 -0.0980185 	 -119.773 	 
C 	 -97.6352 	 -0.305845 	 -120.149 	 
C 	 -97.2406 	 -1.616 	 -120.081 	 
C 	 -98.324 	 -2.4643 	 -119.694 	 
C 	 -99.5669 	 -1.82804 	 -119.629 	 
H 	 -96.182 	 -1.88192 	 -120.35 	 
C 	 -98.0376 	 -3.94245 	 -119.518 	 
H 	 -97.2739 	 -4.14749 	 -120.277 	 
H 	 -98.9818 	 -4.32697 	 -119.913 	 
C 	 -97.8354 	 -4.36553 	 -118.112 	 
H 	 -98.764 	 -3.98723 	 -117.56 	 
H 	 -96.863 	 -4.02769 	 -117.635 	 
C 	 -98.0008 	 -5.89264 	 -118.029 	 
H 	 -97.1718 	 -6.25445 	 -118.682 	 
H 	 -99.0239 	 -6.26094 	 -118.402 	 
H 	 -97.8471 	 -6.26449 	 -116.941 	 
H 	 -103.871 	 -3.30261 	 -117.864 	 
H 	 -97.1258 	 0.51767 	 -120.469 	 
*
