! wB97X-D3 SP def2-SVP
%pal
nprocs 24
end

* xyz 0 1
S 	 -115.415 	 22.1107 	 -108.741 	 
C 	 -114.807 	 23.4981 	 -109.624 	 
C 	 -114.165 	 23.1129 	 -110.813 	 
C 	 -114.255 	 21.7091 	 -111.021 	 
C 	 -114.81 	 20.9737 	 -109.917 	 
H 	 -114.016 	 21.1765 	 -111.925 	 
C 	 -113.49 	 23.967 	 -111.914 	 
H 	 -112.497 	 23.5249 	 -112.169 	 
H 	 -113.246 	 24.8937 	 -111.488 	 
C 	 -114.309 	 24.1287 	 -113.219 	 
H 	 -114.638 	 23.1621 	 -113.631 	 
H 	 -115.24 	 24.7024 	 -113.122 	 
C 	 -113.461 	 24.7738 	 -114.247 	 
H 	 -112.591 	 24.1769 	 -114.491 	 
H 	 -114.123 	 24.8335 	 -115.139 	 
H 	 -113.163 	 25.7996 	 -114.045 	 
S 	 -116.453 	 18.8991 	 -109.072 	 
C 	 -115.899 	 17.2184 	 -109.268 	 
C 	 -114.8 	 17.1405 	 -110.065 	 
C 	 -114.202 	 18.4538 	 -110.336 	 
C 	 -114.996 	 19.5191 	 -109.83 	 
H 	 -114.308 	 16.1901 	 -110.274 	 
C 	 -112.878 	 18.6496 	 -111.043 	 
H 	 -112.698 	 19.7232 	 -111.169 	 
H 	 -113.02 	 18.4399 	 -112.15 	 
C 	 -111.766 	 17.8438 	 -110.404 	 
H 	 -110.937 	 18.0959 	 -111.016 	 
H 	 -111.942 	 16.7538 	 -110.524 	 
C 	 -111.415 	 18.1328 	 -108.93 	 
H 	 -111.108 	 19.1598 	 -108.793 	 
H 	 -110.633 	 17.4642 	 -108.658 	 
H 	 -112.395 	 17.8567 	 -108.437 	 
H 	 -114.833 	 24.5039 	 -109.216 	 
H 	 -116.484 	 16.3577 	 -108.935 	 
*
