! wB97X-D3 SP def2-SVP
%pal
nprocs 24
end

* xyz 0 1
S 	 -121.857 	 22.2602 	 -15.1533 	 
C 	 -120.77 	 21.8333 	 -16.4022 	 
C 	 -120.208 	 22.9987 	 -17.0145 	 
C 	 -120.661 	 24.1945 	 -16.3728 	 
C 	 -121.466 	 23.9779 	 -15.305 	 
H 	 -120.436 	 25.2917 	 -16.4888 	 
C 	 -119.405 	 23.0219 	 -18.2929 	 
H 	 -120.049 	 23.3884 	 -19.0125 	 
H 	 -119.151 	 22.0352 	 -18.6421 	 
C 	 -118.048 	 23.6857 	 -18.1522 	 
H 	 -117.616 	 23.8415 	 -19.147 	 
H 	 -118.246 	 24.633 	 -17.6753 	 
C 	 -116.999 	 22.8411 	 -17.4731 	 
H 	 -117.2 	 22.85 	 -16.3721 	 
H 	 -117.1 	 21.8354 	 -17.9338 	 
H 	 -116.061 	 23.2329 	 -17.7025 	 
S 	 -120.801 	 25.7735 	 -13.3239 	 
C 	 -122.035 	 26.8825 	 -12.7133 	 
C 	 -123.283 	 26.6644 	 -13.2867 	 
C 	 -123.238 	 25.6191 	 -14.1815 	 
C 	 -121.968 	 25.0222 	 -14.3846 	 
H 	 -124.056 	 27.32 	 -13.097 	 
C 	 -124.327 	 25.1065 	 -15.1525 	 
H 	 -124.499 	 24.0469 	 -15.1013 	 
H 	 -124.077 	 25.1485 	 -16.2019 	 
C 	 -125.683 	 25.934 	 -14.9685 	 
H 	 -126.378 	 25.7107 	 -15.8344 	 
H 	 -125.582 	 27.0326 	 -14.9852 	 
C 	 -126.494 	 25.4862 	 -13.8057 	 
H 	 -125.986 	 25.6001 	 -12.8613 	 
H 	 -126.748 	 24.435 	 -13.9736 	 
H 	 -127.423 	 26.0292 	 -13.7692 	 
H 	 -120.703 	 20.8573 	 -16.8156 	 
H 	 -121.947 	 27.5857 	 -11.8976 	 
*
