! wB97X-D3 SP def2-SVP
%pal
nprocs 24
end

* xyz 0 1
S 	 -107.04 	 15.2833 	 -121.296 	 
C 	 -107.059 	 13.5675 	 -121.036 	 
C 	 -106.411 	 12.8548 	 -122.055 	 
C 	 -105.841 	 13.7494 	 -123.042 	 
C 	 -106.317 	 15.0401 	 -122.895 	 
H 	 -105.37 	 13.4286 	 -123.948 	 
C 	 -106.01 	 11.3914 	 -121.926 	 
H 	 -105.397 	 11.1782 	 -122.782 	 
H 	 -106.863 	 10.7257 	 -122.002 	 
C 	 -105.299 	 11.0313 	 -120.596 	 
H 	 -105.937 	 11.4302 	 -119.841 	 
H 	 -105.202 	 9.95403 	 -120.422 	 
C 	 -103.902 	 11.7297 	 -120.375 	 
H 	 -103.24 	 11.2895 	 -119.495 	 
H 	 -103.222 	 11.5769 	 -121.277 	 
H 	 -103.987 	 12.8179 	 -120.195 	 
S 	 -104.899 	 17.2396 	 -123.646 	 
C 	 -105.491 	 18.1652 	 -125.024 	 
C 	 -106.571 	 17.5441 	 -125.62 	 
C 	 -106.996 	 16.3797 	 -124.978 	 
C 	 -106.164 	 16.0872 	 -123.875 	 
H 	 -106.857 	 17.9963 	 -126.567 	 
C 	 -108.245 	 15.6413 	 -125.449 	 
H 	 -109.072 	 16.1907 	 -125.97 	 
H 	 -108.804 	 15.4375 	 -124.53 	 
C 	 -107.922 	 14.237 	 -125.951 	 
H 	 -107.226 	 13.7611 	 -125.294 	 
H 	 -107.373 	 14.2894 	 -126.874 	 
C 	 -109.1 	 13.2778 	 -126.099 	 
H 	 -109.746 	 13.566 	 -127.023 	 
H 	 -109.672 	 13.1605 	 -125.215 	 
H 	 -108.696 	 12.3021 	 -126.352 	 
H 	 -107.361 	 12.9965 	 -120.102 	 
H 	 -104.98 	 19.0286 	 -125.51 	 
*
