! wB97X-D3 SP def2-SVP
%pal
nprocs 24
end

* xyz 0 1
S 	 -128.575 	 63.8948 	 -55.9377 	 
C 	 -127.077 	 64.6917 	 -55.4863 	 
C 	 -125.964 	 63.9735 	 -56.0135 	 
C 	 -126.314 	 62.7688 	 -56.7403 	 
C 	 -127.676 	 62.5971 	 -56.7066 	 
H 	 -125.569 	 62.0535 	 -57.0917 	 
C 	 -124.534 	 64.5752 	 -56.178 	 
H 	 -123.858 	 63.8203 	 -55.7623 	 
H 	 -124.581 	 65.4582 	 -55.5416 	 
C 	 -124.074 	 64.7616 	 -57.623 	 
H 	 -124.221 	 63.8356 	 -58.1359 	 
H 	 -124.652 	 65.5712 	 -58.0661 	 
C 	 -122.584 	 65.03 	 -57.7095 	 
H 	 -122.299 	 65.4135 	 -58.7082 	 
H 	 -122.258 	 65.8295 	 -57.0178 	 
H 	 -122.051 	 64.0858 	 -57.4599 	 
S 	 -129.73 	 61.7288 	 -58.4192 	 
C 	 -129.98 	 59.9917 	 -58.6946 	 
C 	 -129.119 	 59.2661 	 -57.8735 	 
C 	 -128.294 	 60.1238 	 -57.0733 	 
C 	 -128.451 	 61.4966 	 -57.3036 	 
H 	 -128.992 	 58.2126 	 -57.9856 	 
C 	 -127.215 	 59.4892 	 -56.1973 	 
H 	 -127.701 	 58.7738 	 -55.458 	 
H 	 -126.962 	 60.2504 	 -55.4824 	 
C 	 -125.979 	 58.7773 	 -56.784 	 
H 	 -125.386 	 59.5196 	 -57.3674 	 
H 	 -126.367 	 58.1456 	 -57.5126 	 
C 	 -125.135 	 58.0288 	 -55.7691 	 
H 	 -124.505 	 58.6008 	 -55.0763 	 
H 	 -124.439 	 57.3264 	 -56.1115 	 
H 	 -125.81 	 57.3869 	 -55.1692 	 
H 	 -126.967 	 65.7377 	 -55.264 	 
H 	 -130.793 	 59.5719 	 -59.2845 	 
*
