! wB97X-D3 SP def2-SVP
%pal
nprocs 24
end

* xyz 0 1
S 	 -133.613 	 17.3988 	 -15.5967 	 
C 	 -133.135 	 15.7433 	 -15.7818 	 
C 	 -133.376 	 15.2846 	 -17.0659 	 
C 	 -133.857 	 16.3658 	 -17.8662 	 
C 	 -133.909 	 17.6013 	 -17.3168 	 
H 	 -133.941 	 16.1848 	 -18.925 	 
C 	 -133.034 	 13.8856 	 -17.6263 	 
H 	 -131.983 	 13.784 	 -17.4702 	 
H 	 -133.324 	 13.8912 	 -18.6931 	 
C 	 -133.854 	 12.7831 	 -16.931 	 
H 	 -133.655 	 11.7718 	 -17.396 	 
H 	 -133.408 	 12.8067 	 -15.9015 	 
C 	 -135.418 	 12.9667 	 -17.0164 	 
H 	 -135.887 	 12.2869 	 -16.3532 	 
H 	 -135.787 	 13.8485 	 -16.5296 	 
H 	 -135.883 	 12.9527 	 -18.0227 	 
S 	 -135.772 	 19.4646 	 -17.9999 	 
C 	 -135.483 	 20.7307 	 -19.0613 	 
C 	 -134.149 	 20.6704 	 -19.5204 	 
C 	 -133.361 	 19.6576 	 -18.8873 	 
C 	 -134.14 	 18.8902 	 -17.9627 	 
H 	 -133.74 	 21.298 	 -20.3295 	 
C 	 -131.939 	 19.2564 	 -19.4754 	 
H 	 -131.635 	 19.9161 	 -20.3035 	 
H 	 -132.117 	 18.2686 	 -19.8902 	 
C 	 -130.928 	 19.356 	 -18.4313 	 
H 	 -131.072 	 18.5436 	 -17.6805 	 
H 	 -131.185 	 20.3748 	 -17.9734 	 
C 	 -129.455 	 19.3556 	 -19.0036 	 
H 	 -129.282 	 18.6696 	 -19.8381 	 
H 	 -128.849 	 19.054 	 -18.1419 	 
H 	 -129.274 	 20.3962 	 -19.1736 	 
H 	 -132.788 	 15.2022 	 -14.9769 	 
H 	 -136.219 	 21.3671 	 -19.488 	 
*
