! wB97X-D3 SP def2-SVP
%pal
nprocs 24
end

* xyz 0 1
S 	 -70.8312 	 -43.928 	 -93.0394 	 
C 	 -70.7451 	 -42.2285 	 -93.1862 	 
C 	 -71.0556 	 -41.8263 	 -94.459 	 
C 	 -71.2324 	 -42.928 	 -95.3535 	 
C 	 -70.9171 	 -44.1552 	 -94.8121 	 
H 	 -71.4691 	 -42.8369 	 -96.437 	 
C 	 -71.1628 	 -40.3767 	 -94.972 	 
H 	 -71.6801 	 -39.7968 	 -94.1217 	 
H 	 -71.8126 	 -40.4074 	 -95.8823 	 
C 	 -69.76 	 -39.8262 	 -95.2461 	 
H 	 -69.9286 	 -38.7419 	 -95.234 	 
H 	 -69.206 	 -40.0595 	 -94.3229 	 
C 	 -69.0583 	 -40.423 	 -96.4553 	 
H 	 -68.175 	 -39.8441 	 -96.8016 	 
H 	 -68.6384 	 -41.4343 	 -96.2378 	 
H 	 -69.72 	 -40.4867 	 -97.3412 	 
S 	 -69.7093 	 -45.8518 	 -96.5856 	 
C 	 -70.5083 	 -47.1811 	 -97.1884 	 
C 	 -71.777 	 -47.311 	 -96.5915 	 
C 	 -72.0755 	 -46.2294 	 -95.6691 	 
C 	 -70.974 	 -45.4388 	 -95.4558 	 
H 	 -72.412 	 -48.0882 	 -96.8828 	 
C 	 -73.3908 	 -46.1308 	 -94.9151 	 
H 	 -74.2094 	 -45.8955 	 -95.5974 	 
H 	 -73.2246 	 -45.2927 	 -94.1747 	 
C 	 -73.8103 	 -47.3064 	 -94.0599 	 
H 	 -74.4903 	 -46.9554 	 -93.2531 	 
H 	 -72.926 	 -47.784 	 -93.6715 	 
C 	 -74.5612 	 -48.3953 	 -94.7062 	 
H 	 -74.8422 	 -49.143 	 -94.0236 	 
H 	 -73.88 	 -48.9844 	 -95.3671 	 
H 	 -75.4527 	 -48.0252 	 -95.2439 	 
H 	 -70.7275 	 -41.4261 	 -92.3886 	 
H 	 -70.1653 	 -47.8694 	 -97.9837 	 
*
