! wB97X-D3 SP def2-SVP
%pal
nprocs 24
end

* xyz 0 1
S 	 -126.81 	 60.2615 	 -59.2427 	 
C 	 -128.43 	 60.6707 	 -59.846 	 
C 	 -129.045 	 61.5606 	 -58.9494 	 
C 	 -128.128 	 61.9389 	 -57.939 	 
C 	 -126.89 	 61.3004 	 -57.8778 	 
H 	 -128.244 	 62.7546 	 -57.2088 	 
C 	 -130.465 	 62.1278 	 -59.1824 	 
H 	 -130.869 	 62.2129 	 -58.1824 	 
H 	 -131.006 	 61.4729 	 -59.918 	 
C 	 -130.523 	 63.5226 	 -59.8088 	 
H 	 -131.477 	 63.6292 	 -60.3127 	 
H 	 -130.343 	 64.175 	 -58.9746 	 
C 	 -129.453 	 63.7115 	 -60.8363 	 
H 	 -129.556 	 64.6033 	 -61.3664 	 
H 	 -128.498 	 63.8019 	 -60.3716 	 
H 	 -129.598 	 62.9095 	 -61.5998 	 
S 	 -124.263 	 61.7543 	 -57.9164 	 
C 	 -123.408 	 62.1489 	 -56.4277 	 
C 	 -124.216 	 62.2608 	 -55.3818 	 
C 	 -125.581 	 61.8943 	 -55.6745 	 
C 	 -125.743 	 61.67 	 -57.0327 	 
H 	 -123.684 	 62.6912 	 -54.4624 	 
C 	 -126.661 	 61.9038 	 -54.6677 	 
H 	 -127.529 	 62.171 	 -55.2157 	 
H 	 -126.548 	 62.683 	 -53.9688 	 
C 	 -126.874 	 60.5348 	 -54.0241 	 
H 	 -126.8 	 59.6393 	 -54.74 	 
H 	 -127.937 	 60.5874 	 -53.6775 	 
C 	 -125.928 	 60.2705 	 -52.8263 	 
H 	 -126.133 	 59.1693 	 -52.7063 	 
H 	 -126.395 	 60.8322 	 -51.9581 	 
H 	 -124.821 	 60.5842 	 -52.9564 	 
H 	 -128.78 	 60.3623 	 -60.803 	 
H 	 -122.437 	 62.5698 	 -56.3499 	 
*
