! wB97X-D3 SP def2-SVP
%pal
nprocs 24
end

* xyz 0 1
S 	 -132.048 	 31.8868 	 -16.5696 	 
C 	 -130.305 	 31.9278 	 -16.6065 	 
C 	 -129.715 	 32.415 	 -17.7432 	 
C 	 -130.699 	 32.7828 	 -18.6456 	 
C 	 -132.024 	 32.4727 	 -18.2078 	 
H 	 -130.603 	 33.2196 	 -19.666 	 
C 	 -128.172 	 32.6109 	 -18.0588 	 
H 	 -127.594 	 32.9643 	 -17.1823 	 
H 	 -128.018 	 33.312 	 -18.9091 	 
C 	 -127.53 	 31.2438 	 -18.4537 	 
H 	 -126.503 	 31.4527 	 -18.7165 	 
H 	 -127.572 	 30.4115 	 -17.6937 	 
C 	 -128.066 	 30.6255 	 -19.8285 	 
H 	 -127.389 	 29.8466 	 -20.26 	 
H 	 -129.158 	 30.4374 	 -19.9312 	 
H 	 -127.961 	 31.4926 	 -20.6432 	 
S 	 -134.317 	 33.8154 	 -18.3797 	 
C 	 -135.31 	 33.778 	 -19.797 	 
C 	 -135.033 	 32.7025 	 -20.5619 	 
C 	 -133.803 	 32.0572 	 -20.1042 	 
C 	 -133.297 	 32.6002 	 -18.9404 	 
H 	 -135.694 	 32.483 	 -21.4129 	 
C 	 -132.984 	 31.0333 	 -20.8948 	 
H 	 -131.923 	 31.4116 	 -20.8584 	 
H 	 -133.248 	 31.1705 	 -21.952 	 
C 	 -133.226 	 29.6171 	 -20.3501 	 
H 	 -134.252 	 29.3076 	 -20.4032 	 
H 	 -132.78 	 29.6167 	 -19.2834 	 
C 	 -132.49 	 28.5084 	 -21.1376 	 
H 	 -133.068 	 28.3744 	 -22.0476 	 
H 	 -132.73 	 27.6097 	 -20.666 	 
H 	 -131.443 	 28.5582 	 -21.3993 	 
H 	 -129.81 	 31.5471 	 -15.7245 	 
H 	 -136.144 	 34.5028 	 -20.0155 	 
*
