! wB97X-D3 SP def2-SVP
%pal
nprocs 24
end

* xyz 0 1
S 	 -34.3003 	 9.54597 	 -0.775556 	 
C 	 -35.1404 	 8.14485 	 -1.45883 	 
C 	 -34.8286 	 7.04605 	 -0.742047 	 
C 	 -33.7815 	 7.26997 	 0.245398 	 
C 	 -33.2934 	 8.51651 	 0.272423 	 
H 	 -33.2948 	 6.50742 	 0.929698 	 
C 	 -35.3276 	 5.68535 	 -0.95704 	 
H 	 -34.6789 	 5.07146 	 -0.330646 	 
H 	 -35.1625 	 5.39834 	 -2.0165 	 
C 	 -36.8287 	 5.41722 	 -0.552455 	 
H 	 -37.491 	 5.88212 	 -1.32545 	 
H 	 -36.9076 	 4.30161 	 -0.684461 	 
C 	 -37.2005 	 5.88791 	 0.850423 	 
H 	 -36.3816 	 5.8013 	 1.57461 	 
H 	 -37.5948 	 6.88797 	 0.809753 	 
H 	 -38.0561 	 5.35705 	 1.23639 	 
S 	 -30.7517 	 9.6815 	 0.62317 	 
C 	 -30.1752 	 9.88359 	 2.25493 	 
C 	 -31.1124 	 9.53059 	 3.18165 	 
C 	 -32.3741 	 9.06888 	 2.62052 	 
C 	 -32.2961 	 9.00888 	 1.1942 	 
H 	 -30.8352 	 9.59904 	 4.2497 	 
C 	 -33.5233 	 8.75317 	 3.48688 	 
H 	 -33.7503 	 7.69767 	 3.57835 	 
H 	 -34.4263 	 9.09846 	 3.09988 	 
C 	 -33.5331 	 9.50501 	 4.81361 	 
H 	 -34.577 	 9.62456 	 5.03919 	 
H 	 -33.3205 	 10.5948 	 4.81448 	 
C 	 -32.7629 	 8.93225 	 6.05626 	 
H 	 -31.716 	 8.76796 	 5.84277 	 
H 	 -33.2076 	 7.97326 	 6.32389 	 
H 	 -32.7554 	 9.67667 	 6.79722 	 
H 	 -35.8737 	 8.21899 	 -2.26115 	 
H 	 -29.2473 	 10.1406 	 2.58095 	 
*
