! wB97X-D3 SP def2-SVP
%pal
nprocs 24
end

* xyz 0 1
S 	 -35.9857 	 -48.9466 	 -75.9509 	 
C 	 -34.3664 	 -49.3323 	 -76.3904 	 
C 	 -33.594 	 -48.1951 	 -76.5811 	 
C 	 -34.3418 	 -46.9685 	 -76.4313 	 
C 	 -35.7061 	 -47.2405 	 -76.1918 	 
H 	 -33.8258 	 -46.0389 	 -76.6 	 
C 	 -32.1082 	 -48.1681 	 -76.8724 	 
H 	 -31.8954 	 -47.6396 	 -77.8159 	 
H 	 -31.9332 	 -49.1926 	 -77.2085 	 
C 	 -31.193 	 -47.5611 	 -75.7562 	 
H 	 -30.196 	 -47.3827 	 -76.1688 	 
H 	 -31.6904 	 -46.6007 	 -75.5598 	 
C 	 -31.0249 	 -48.5184 	 -74.5253 	 
H 	 -31.9729 	 -48.9763 	 -74.1446 	 
H 	 -30.3668 	 -49.4203 	 -74.6575 	 
H 	 -30.6427 	 -47.9727 	 -73.691 	 
S 	 -37.5377 	 -46.4681 	 -74.4469 	 
C 	 -38.658 	 -45.1546 	 -74.7765 	 
C 	 -38.4272 	 -44.5885 	 -76.0499 	 
C 	 -37.1899 	 -45.1153 	 -76.6249 	 
C 	 -36.7632 	 -46.2667 	 -75.9667 	 
H 	 -39.0138 	 -43.786 	 -76.3719 	 
C 	 -36.6744 	 -44.6749 	 -77.9691 	 
H 	 -36.21 	 -45.464 	 -78.5389 	 
H 	 -35.9048 	 -43.9541 	 -77.7802 	 
C 	 -37.684 	 -44.1242 	 -79.0043 	 
H 	 -37.9717 	 -43.1507 	 -78.5919 	 
H 	 -38.5389 	 -44.8474 	 -79.1026 	 
C 	 -37.0898 	 -43.9692 	 -80.4322 	 
H 	 -37.7143 	 -43.3665 	 -81.0028 	 
H 	 -37.149 	 -44.9081 	 -81.0138 	 
H 	 -36.1422 	 -43.3578 	 -80.4999 	 
H 	 -34.1172 	 -50.3783 	 -76.5405 	 
H 	 -39.4066 	 -44.7309 	 -74.162 	 
*
