! wB97X-D3 SP def2-SVP
%pal
nprocs 24
end

* xyz 0 1
S 	 28.219 	 -9.05541 	 -119.621 	 
C 	 29.6511 	 -8.53984 	 -120.575 	 
C 	 30.3428 	 -7.57839 	 -119.899 	 
C 	 29.8092 	 -7.25324 	 -118.612 	 
C 	 28.7413 	 -8.046 	 -118.281 	 
H 	 30.3408 	 -6.55814 	 -117.899 	 
C 	 31.4641 	 -6.75703 	 -120.518 	 
H 	 31.2841 	 -5.73136 	 -120.62 	 
H 	 31.7204 	 -7.12044 	 -121.515 	 
C 	 32.8434 	 -6.89921 	 -119.774 	 
H 	 33.5904 	 -6.15102 	 -120.002 	 
H 	 32.6224 	 -6.6885 	 -118.748 	 
C 	 33.4638 	 -8.27433 	 -119.881 	 
H 	 34.2938 	 -8.42919 	 -119.215 	 
H 	 32.6929 	 -9.05489 	 -119.689 	 
H 	 33.9371 	 -8.36082 	 -120.84 	 
S 	 26.2469 	 -7.56645 	 -117.204 	 
C 	 26.1776 	 -7.15943 	 -115.549 	 
C 	 27.3765 	 -7.34327 	 -114.92 	 
C 	 28.4174 	 -7.83832 	 -115.704 	 
C 	 28.0139 	 -7.95161 	 -117.04 	 
H 	 27.5146 	 -7.04583 	 -113.902 	 
C 	 29.8527 	 -8.05229 	 -115.266 	 
H 	 30.0687 	 -7.13584 	 -114.621 	 
H 	 30.6282 	 -7.98995 	 -116.046 	 
C 	 30.1118 	 -9.22723 	 -114.352 	 
H 	 29.7025 	 -10.1521 	 -114.91 	 
H 	 29.5103 	 -9.12156 	 -113.407 	 
C 	 31.6442 	 -9.32136 	 -114.021 	 
H 	 31.9253 	 -8.49533 	 -113.348 	 
H 	 32.4114 	 -9.45267 	 -114.756 	 
H 	 31.7115 	 -10.16 	 -113.39 	 
H 	 29.9619 	 -8.99045 	 -121.478 	 
H 	 25.336 	 -6.79656 	 -114.95 	 
*
