! wB97X-D3 SP def2-SVP
%pal
nprocs 24
end

* xyz 0 1
S 	 -138.444 	 7.12874 	 -14.4956 	 
C 	 -138.983 	 8.73534 	 -14.0318 	 
C 	 -138.035 	 9.67793 	 -14.3946 	 
C 	 -136.911 	 9.13698 	 -15.0019 	 
C 	 -136.909 	 7.73317 	 -15.0283 	 
H 	 -136.03 	 9.65068 	 -15.436 	 
C 	 -138.166 	 11.1671 	 -14.2093 	 
H 	 -137.336 	 11.6959 	 -14.7033 	 
H 	 -137.963 	 11.4304 	 -13.1635 	 
C 	 -139.567 	 11.7757 	 -14.4043 	 
H 	 -139.737 	 11.6172 	 -15.445 	 
H 	 -140.353 	 11.2507 	 -13.8936 	 
C 	 -139.765 	 13.2826 	 -13.9389 	 
H 	 -140.767 	 13.6146 	 -14.1777 	 
H 	 -139.802 	 13.4256 	 -12.8944 	 
H 	 -138.962 	 13.9156 	 -14.2207 	 
S 	 -136.389 	 5.57281 	 -16.5327 	 
C 	 -134.772 	 5.14951 	 -16.9067 	 
C 	 -133.825 	 5.84242 	 -16.1482 	 
C 	 -134.474 	 6.81703 	 -15.2629 	 
C 	 -135.88 	 6.82392 	 -15.4494 	 
H 	 -132.742 	 5.62531 	 -16.2297 	 
C 	 -133.764 	 7.77102 	 -14.4374 	 
H 	 -134.374 	 8.75361 	 -14.3521 	 
H 	 -132.865 	 8.04609 	 -14.8471 	 
C 	 -133.616 	 7.27858 	 -13.0038 	 
H 	 -133.277 	 6.23676 	 -12.9315 	 
H 	 -134.525 	 7.40663 	 -12.4646 	 
C 	 -132.503 	 7.94815 	 -12.2893 	 
H 	 -132.474 	 7.69583 	 -11.2145 	 
H 	 -132.567 	 8.97443 	 -12.4303 	 
H 	 -131.529 	 7.68046 	 -12.7541 	 
H 	 -139.897 	 9.0708 	 -13.5491 	 
H 	 -134.577 	 4.32137 	 -17.5825 	 
*
