! wB97X-D3 SP def2-SVP
%pal
nprocs 24
end

* xyz 0 1
S 	 -121.834 	 49.536 	 -24.5857 	 
C 	 -120.519 	 48.3238 	 -24.4126 	 
C 	 -120.298 	 47.8117 	 -25.6774 	 
C 	 -120.832 	 48.6473 	 -26.7418 	 
C 	 -121.587 	 49.6757 	 -26.3366 	 
H 	 -120.616 	 48.5229 	 -27.7964 	 
C 	 -119.354 	 46.6664 	 -25.9691 	 
H 	 -118.61 	 46.6832 	 -25.1739 	 
H 	 -118.791 	 46.8972 	 -26.837 	 
C 	 -120.082 	 45.2627 	 -26.0293 	 
H 	 -120.287 	 44.7721 	 -25.0608 	 
H 	 -121.044 	 45.4087 	 -26.4717 	 
C 	 -119.203 	 44.2459 	 -26.7759 	 
H 	 -119.779 	 43.2912 	 -26.8415 	 
H 	 -119.05 	 44.5204 	 -27.7658 	 
H 	 -118.284 	 44.0209 	 -26.2374 	 
S 	 -122.199 	 52.3268 	 -26.3895 	 
C 	 -122.862 	 53.0436 	 -27.8427 	 
C 	 -123.2 	 52.0547 	 -28.7464 	 
C 	 -122.812 	 50.7146 	 -28.3446 	 
C 	 -122.233 	 50.7116 	 -27.084 	 
H 	 -123.815 	 52.2934 	 -29.6226 	 
C 	 -122.957 	 49.5569 	 -29.2491 	 
H 	 -123.07 	 48.6299 	 -28.664 	 
H 	 -121.915 	 49.4493 	 -29.6998 	 
C 	 -124.163 	 49.5459 	 -30.1131 	 
H 	 -124.107 	 50.4528 	 -30.7885 	 
H 	 -125.067 	 49.613 	 -29.4958 	 
C 	 -124.395 	 48.2998 	 -30.9778 	 
H 	 -123.691 	 48.1633 	 -31.79 	 
H 	 -125.375 	 48.2926 	 -31.3942 	 
H 	 -124.482 	 47.414 	 -30.3822 	 
H 	 -120.17 	 47.7833 	 -23.4924 	 
H 	 -123.037 	 54.1507 	 -28.0449 	 
*
