! wB97X-D3 SP def2-SVP
%pal
nprocs 24
end

* xyz 0 1
S 	 31.2796 	 -3.66787 	 -119.922 	 
C 	 29.7623 	 -3.2536 	 -120.725 	 
C 	 29.0458 	 -4.39968 	 -121.118 	 
C 	 29.8283 	 -5.5545 	 -120.948 	 
C 	 31.0416 	 -5.33412 	 -120.324 	 
H 	 29.5046 	 -6.45773 	 -121.325 	 
C 	 27.7279 	 -4.38022 	 -121.862 	 
H 	 27.1404 	 -3.57165 	 -121.553 	 
H 	 27.1733 	 -5.19099 	 -121.317 	 
C 	 27.8178 	 -4.4436 	 -123.393 	 
H 	 28.1913 	 -3.55606 	 -123.84 	 
H 	 28.4744 	 -5.24454 	 -123.689 	 
C 	 26.4553 	 -4.69496 	 -123.928 	 
H 	 26.1036 	 -5.73476 	 -123.746 	 
H 	 25.6563 	 -3.99081 	 -123.628 	 
H 	 26.6816 	 -4.65369 	 -125.021 	 
S 	 33.4414 	 -5.96557 	 -121.339 	 
C 	 34.2883 	 -7.41412 	 -120.839 	 
C 	 33.445 	 -8.20562 	 -120.054 	 
C 	 32.2118 	 -7.50331 	 -119.629 	 
C 	 32.0641 	 -6.28834 	 -120.305 	 
H 	 33.7568 	 -9.24048 	 -119.804 	 
C 	 31.0917 	 -8.21541 	 -118.869 	 
H 	 30.2428 	 -8.55052 	 -119.519 	 
H 	 30.5821 	 -7.49422 	 -118.18 	 
C 	 31.509 	 -9.26324 	 -117.962 	 
H 	 32.2788 	 -8.83654 	 -117.332 	 
H 	 31.9615 	 -10.1317 	 -118.429 	 
C 	 30.3844 	 -9.72746 	 -117.082 	 
H 	 29.5245 	 -10.2082 	 -117.608 	 
H 	 29.9599 	 -8.85414 	 -116.536 	 
H 	 30.7235 	 -10.499 	 -116.465 	 
H 	 29.387 	 -2.27402 	 -120.83 	 
H 	 35.1729 	 -7.81805 	 -121.312 	 
*
