! wB97X-D3 SP def2-SVP
%pal
nprocs 24
end

* xyz 0 1
S 	 -46.0391 	 17.9484 	 26.4067 	 
C 	 -46.852 	 17.0881 	 25.1488 	 
C 	 -47.6797 	 16.1089 	 25.5725 	 
C 	 -47.6334 	 16.0569 	 26.995 	 
C 	 -46.8904 	 17.0745 	 27.5694 	 
H 	 -48.2524 	 15.4221 	 27.6466 	 
C 	 -48.6161 	 15.2786 	 24.6549 	 
H 	 -48.0409 	 15.1771 	 23.7445 	 
H 	 -49.4412 	 15.9857 	 24.4699 	 
C 	 -49.1675 	 13.9491 	 25.1905 	 
H 	 -49.6713 	 13.9967 	 26.1323 	 
H 	 -49.7597 	 13.568 	 24.4727 	 
C 	 -48.0446 	 12.8801 	 25.0144 	 
H 	 -48.4897 	 11.9121 	 25.0149 	 
H 	 -47.4239 	 13.0387 	 24.0732 	 
H 	 -47.3764 	 12.9842 	 25.8623 	 
S 	 -47.9638 	 17.8081 	 30.0589 	 
C 	 -46.9347 	 17.8227 	 31.4541 	 
C 	 -45.6719 	 17.455 	 31.1148 	 
C 	 -45.4892 	 17.1178 	 29.7392 	 
C 	 -46.6433 	 17.2307 	 29.0056 	 
H 	 -45.0442 	 17.4728 	 31.944 	 
C 	 -44.1844 	 16.6115 	 29.2349 	 
H 	 -43.452 	 16.9296 	 29.9573 	 
H 	 -43.8882 	 16.9094 	 28.2216 	 
C 	 -44.1114 	 15.0827 	 29.4135 	 
H 	 -44.335 	 14.7957 	 30.4071 	 
H 	 -43.095 	 14.6962 	 29.1984 	 
C 	 -45.0653 	 14.1798 	 28.6863 	 
H 	 -45.2203 	 13.1479 	 29.1293 	 
H 	 -44.8192 	 14.1197 	 27.6186 	 
H 	 -46.0521 	 14.5807 	 28.7918 	 
H 	 -46.9229 	 17.3119 	 24.0792 	 
H 	 -47.141 	 18.013 	 32.4738 	 
*
