! wB97X-D3 SP def2-SVP
%pal
nprocs 24
end

* xyz 0 1
S 	 -59.8309 	 -0.0309795 	 -17.9148 	 
C 	 -61.2576 	 0.189794 	 -16.922 	 
C 	 -62.3695 	 -0.261915 	 -17.5292 	 
C 	 -62.0506 	 -0.720189 	 -18.8744 	 
C 	 -60.7228 	 -0.560533 	 -19.2639 	 
H 	 -62.815 	 -1.13081 	 -19.5844 	 
C 	 -63.7202 	 -0.125 	 -16.8633 	 
H 	 -64.4583 	 0.129696 	 -17.6314 	 
H 	 -63.6392 	 0.5855 	 -16.0306 	 
C 	 -64.188 	 -1.34404 	 -16.1895 	 
H 	 -64.2421 	 -2.19879 	 -16.8472 	 
H 	 -63.4142 	 -1.61984 	 -15.4151 	 
C 	 -65.5335 	 -1.22071 	 -15.5272 	 
H 	 -65.5955 	 -0.534118 	 -14.6682 	 
H 	 -66.424 	 -1.08651 	 -16.1115 	 
H 	 -65.7803 	 -2.1673 	 -15.1293 	 
S 	 -58.9103 	 0.393233 	 -20.9575 	 
C 	 -58.7394 	 -0.256596 	 -22.5946 	 
C 	 -59.7669 	 -1.17624 	 -22.8556 	 
C 	 -60.5957 	 -1.41848 	 -21.7453 	 
C 	 -60.2324 	 -0.70691 	 -20.6013 	 
H 	 -59.9683 	 -1.50333 	 -23.8912 	 
C 	 -61.583 	 -2.50779 	 -21.8062 	 
H 	 -61.8086 	 -2.45681 	 -22.9227 	 
H 	 -62.5352 	 -2.11883 	 -21.4298 	 
C 	 -61.0192 	 -3.8715 	 -21.348 	 
H 	 -61.5823 	 -4.65409 	 -21.8257 	 
H 	 -60.9445 	 -4.09717 	 -20.2939 	 
C 	 -59.6061 	 -4.24996 	 -21.9112 	 
H 	 -59.3669 	 -5.29773 	 -21.6614 	 
H 	 -58.9277 	 -3.66136 	 -21.32 	 
H 	 -59.4495 	 -4.06428 	 -23.0139 	 
H 	 -61.2584 	 0.772184 	 -16.0075 	 
H 	 -58.0347 	 0.122423 	 -23.2755 	 
*
