! wB97X-D3 SP def2-SVP
%pal
nprocs 24
end

* xyz 0 1
S 	 -136.593 	 6.10096 	 -0.100177 	 
C 	 -135.974 	 6.89252 	 -1.534 	 
C 	 -134.591 	 6.8612 	 -1.61173 	 
C 	 -134.047 	 6.11324 	 -0.461615 	 
C 	 -135.013 	 5.64208 	 0.417747 	 
H 	 -132.985 	 5.99971 	 -0.274052 	 
C 	 -133.722 	 7.52171 	 -2.63322 	 
H 	 -133.206 	 6.72717 	 -3.21924 	 
H 	 -132.972 	 8.14765 	 -2.1813 	 
C 	 -134.552 	 8.35929 	 -3.61893 	 
H 	 -133.987 	 8.57852 	 -4.48155 	 
H 	 -135.41 	 7.78308 	 -4.12731 	 
C 	 -135.008 	 9.66111 	 -3.12331 	 
H 	 -135.381 	 9.70182 	 -2.07855 	 
H 	 -134.17 	 10.4093 	 -3.18609 	 
H 	 -135.792 	 10.055 	 -3.81587 	 
S 	 -134.433 	 6.00514 	 3.13502 	 
C 	 -134.335 	 4.6506 	 4.2021 	 
C 	 -134.754 	 3.4937 	 3.59102 	 
C 	 -135.079 	 3.70665 	 2.18756 	 
C 	 -134.851 	 5.00427 	 1.74269 	 
H 	 -134.883 	 2.57583 	 4.15764 	 
C 	 -135.667 	 2.5791 	 1.38059 	 
H 	 -136.446 	 2.97215 	 0.655487 	 
H 	 -136.283 	 2.00215 	 2.07494 	 
C 	 -134.746 	 1.62739 	 0.534396 	 
H 	 -135.328 	 0.934913 	 0.0343399 	 
H 	 -134.037 	 1.15779 	 1.20399 	 
C 	 -133.944 	 2.29264 	 -0.513487 	 
H 	 -134.537 	 2.74729 	 -1.32988 	 
H 	 -133.228 	 1.56367 	 -0.968458 	 
H 	 -133.359 	 3.12192 	 -0.132838 	 
H 	 -136.693 	 7.42995 	 -2.12137 	 
H 	 -134.309 	 4.71417 	 5.19721 	 
*
