! wB97X-D3 SP def2-SVP
%pal
nprocs 24
end

* xyz 0 1
S 	 24.2933 	 3.21372 	 -115.144 	 
C 	 22.8538 	 4.20876 	 -115 	 
C 	 22.477 	 4.21042 	 -113.637 	 
C 	 23.3267 	 3.48054 	 -112.8 	 
C 	 24.3176 	 2.7972 	 -113.463 	 
H 	 23.1408 	 3.47971 	 -111.757 	 
C 	 21.1383 	 4.71419 	 -113.101 	 
H 	 20.9214 	 5.6036 	 -113.654 	 
H 	 21.1856 	 5.05437 	 -112.019 	 
C 	 19.9348 	 3.75145 	 -113.203 	 
H 	 19.8365 	 3.57437 	 -114.243 	 
H 	 20.1861 	 2.75637 	 -112.733 	 
C 	 18.6026 	 4.23076 	 -112.699 	 
H 	 18.5363 	 4.43015 	 -111.656 	 
H 	 18.321 	 5.14937 	 -113.238 	 
H 	 17.7264 	 3.60608 	 -112.98 	 
S 	 26.5602 	 1.25839 	 -114.006 	 
C 	 27.237 	 0.387058 	 -112.633 	 
C 	 26.3297 	 0.11799 	 -111.646 	 
C 	 25.1689 	 0.969757 	 -111.84 	 
C 	 25.1795 	 1.70412 	 -113.057 	 
H 	 26.5065 	 -0.51327 	 -110.821 	 
C 	 24.3171 	 1.26686 	 -110.724 	 
H 	 23.3801 	 1.60788 	 -111.065 	 
H 	 24.8905 	 1.94593 	 -110.037 	 
C 	 23.7908 	 0.0525158 	 -109.856 	 
H 	 24.6016 	 -0.640513 	 -109.58 	 
H 	 23.034 	 -0.53527 	 -110.436 	 
C 	 23.1633 	 0.574346 	 -108.605 	 
H 	 22.5102 	 -0.0391345 	 -108.02 	 
H 	 22.4889 	 1.39844 	 -108.797 	 
H 	 23.8607 	 0.847322 	 -107.824 	 
H 	 22.1759 	 4.63741 	 -115.758 	 
H 	 28.2028 	 -0.123627 	 -112.832 	 
*
