! wB97X-D3 SP def2-SVP
%pal
nprocs 24
end

* xyz 0 1
S 	 -147.793 	 17.1984 	 -5.2661 	 
C 	 -147.033 	 16.9903 	 -6.75346 	 
C 	 -146.504 	 15.6849 	 -6.78044 	 
C 	 -147.074 	 14.8405 	 -5.77862 	 
C 	 -147.751 	 15.5486 	 -4.8464 	 
H 	 -147.09 	 13.7955 	 -5.70351 	 
C 	 -145.71 	 15.1229 	 -7.98306 	 
H 	 -145.197 	 15.9116 	 -8.45964 	 
H 	 -146.375 	 14.6857 	 -8.68742 	 
C 	 -144.705 	 13.993 	 -7.50113 	 
H 	 -144.067 	 14.5117 	 -6.79187 	 
H 	 -145.154 	 13.1118 	 -6.95209 	 
C 	 -143.733 	 13.4731 	 -8.55492 	 
H 	 -143.381 	 14.3505 	 -9.10708 	 
H 	 -142.865 	 12.9725 	 -8.17574 	 
H 	 -144.373 	 12.826 	 -9.219 	 
S 	 -148.366 	 16.1844 	 -2.26435 	 
C 	 -149.032 	 14.9007 	 -1.22346 	 
C 	 -149.345 	 13.7524 	 -1.92581 	 
C 	 -149.058 	 13.9068 	 -3.30443 	 
C 	 -148.353 	 15.0573 	 -3.64479 	 
H 	 -149.8 	 12.9665 	 -1.39649 	 
C 	 -149.354 	 12.7117 	 -4.24975 	 
H 	 -149.536 	 12.9557 	 -5.26152 	 
H 	 -150.256 	 12.1845 	 -3.87108 	 
C 	 -148.216 	 11.7078 	 -4.24395 	 
H 	 -148.306 	 11.0399 	 -3.43737 	 
H 	 -147.255 	 12.1312 	 -4.23086 	 
C 	 -148.262 	 10.7367 	 -5.40234 	 
H 	 -147.433 	 10.0321 	 -5.36167 	 
H 	 -148.257 	 11.2052 	 -6.46009 	 
H 	 -149.21 	 10.2158 	 -5.35349 	 
H 	 -146.722 	 17.6916 	 -7.51386 	 
H 	 -149.017 	 15.0287 	 -0.167219 	 
*
