! wB97X-D3 SP def2-SVP
%pal
nprocs 24
end

* xyz 0 1
S 	 -106.583 	 55.6781 	 -104.447 	 
C 	 -108.385 	 55.6823 	 -104.453 	 
C 	 -108.873 	 56.7668 	 -103.759 	 
C 	 -107.791 	 57.6255 	 -103.225 	 
C 	 -106.496 	 57.1867 	 -103.515 	 
H 	 -107.844 	 58.4866 	 -102.68 	 
C 	 -110.317 	 57.1103 	 -103.547 	 
H 	 -110.434 	 57.5089 	 -102.612 	 
H 	 -110.946 	 56.1701 	 -103.621 	 
C 	 -111.027 	 58.1186 	 -104.509 	 
H 	 -111.822 	 58.5463 	 -103.787 	 
H 	 -110.382 	 58.9941 	 -104.697 	 
C 	 -111.516 	 57.5426 	 -105.842 	 
H 	 -110.706 	 56.993 	 -106.347 	 
H 	 -112.299 	 56.8163 	 -105.44 	 
H 	 -111.789 	 58.3426 	 -106.52 	 
S 	 -104.263 	 57.0309 	 -101.96 	 
C 	 -103.295 	 58.5285 	 -101.813 	 
C 	 -103.778 	 59.5526 	 -102.537 	 
C 	 -104.952 	 59.2514 	 -103.294 	 
C 	 -105.309 	 57.9233 	 -103.078 	 
H 	 -103.339 	 60.5072 	 -102.636 	 
C 	 -105.505 	 60.2546 	 -104.245 	 
H 	 -106.448 	 59.8416 	 -104.597 	 
H 	 -104.777 	 60.3105 	 -105.088 	 
C 	 -105.777 	 61.654 	 -103.713 	 
H 	 -106.204 	 62.3498 	 -104.474 	 
H 	 -104.822 	 62.0757 	 -103.467 	 
C 	 -106.706 	 61.6341 	 -102.503 	 
H 	 -107.714 	 61.4041 	 -102.78 	 
H 	 -106.678 	 62.5973 	 -102.005 	 
H 	 -106.413 	 60.9192 	 -101.696 	 
H 	 -109.184 	 55.2163 	 -105.028 	 
H 	 -102.455 	 58.6055 	 -101.152 	 
*
