! wB97X-D3 SP def2-SVP
%pal
nprocs 24
end

* xyz 0 1
S 	 -124.431 	 67.6884 	 -39.9594 	 
C 	 -125.924 	 68.3737 	 -39.6087 	 
C 	 -125.852 	 69.7183 	 -39.726 	 
C 	 -124.561 	 70.1844 	 -40.144 	 
C 	 -123.668 	 69.2178 	 -40.377 	 
H 	 -124.363 	 71.2277 	 -40.2902 	 
C 	 -127.016 	 70.67 	 -39.2814 	 
H 	 -127.898 	 70.0827 	 -38.9491 	 
H 	 -127.376 	 71.1052 	 -40.2138 	 
C 	 -126.571 	 71.7073 	 -38.2467 	 
H 	 -126.106 	 71.1952 	 -37.4478 	 
H 	 -125.734 	 72.1187 	 -38.7093 	 
C 	 -127.668 	 72.7116 	 -37.8109 	 
H 	 -128.079 	 73.4194 	 -38.4641 	 
H 	 -128.473 	 72.1742 	 -37.3224 	 
H 	 -127.299 	 73.2998 	 -37.0251 	 
S 	 -120.986 	 69.7019 	 -39.8356 	 
C 	 -119.794 	 69.8063 	 -41.1426 	 
C 	 -120.4 	 69.3621 	 -42.2929 	 
C 	 -121.822 	 69.3583 	 -42.2726 	 
C 	 -122.323 	 69.3285 	 -40.9682 	 
H 	 -119.787 	 69.3923 	 -43.1371 	 
C 	 -122.694 	 69.2136 	 -43.4657 	 
H 	 -123.502 	 68.556 	 -43.2089 	 
H 	 -122.01 	 68.6143 	 -44.0346 	 
C 	 -123.059 	 70.5061 	 -44.086 	 
H 	 -122.373 	 71.264 	 -43.6005 	 
H 	 -124.121 	 70.6922 	 -43.8993 	 
C 	 -122.847 	 70.6524 	 -45.5534 	 
H 	 -121.822 	 70.3563 	 -45.8151 	 
H 	 -122.956 	 71.7191 	 -45.795 	 
H 	 -123.497 	 69.9962 	 -46.0517 	 
H 	 -126.813 	 67.8739 	 -39.1654 	 
H 	 -118.664 	 69.9583 	 -41.1862 	 
*
