! wB97X-D3 SP def2-SVP
%pal
nprocs 24
end

* xyz 0 1
S 	 -141.492 	 6.56416 	 2.74886 	 
C 	 -140.79 	 5.28748 	 3.79962 	 
C 	 -140.56 	 5.75892 	 5.05984 	 
C 	 -141.118 	 7.07126 	 5.27725 	 
C 	 -141.802 	 7.56139 	 4.18804 	 
H 	 -141.052 	 7.66093 	 6.18619 	 
C 	 -139.611 	 5.10344 	 6.04795 	 
H 	 -139 	 5.86028 	 6.44956 	 
H 	 -138.949 	 4.51134 	 5.43956 	 
C 	 -140.267 	 4.42171 	 7.31161 	 
H 	 -139.445 	 4.19412 	 7.95711 	 
H 	 -140.833 	 5.18714 	 7.88814 	 
C 	 -141.116 	 3.16298 	 7.19439 	 
H 	 -142.1 	 3.48722 	 6.69719 	 
H 	 -140.633 	 2.29567 	 6.62067 	 
H 	 -141.459 	 2.85876 	 8.19487 	 
S 	 -141.813 	 10.127 	 2.91924 	 
C 	 -143.052 	 11.2405 	 3.47823 	 
C 	 -143.963 	 10.7139 	 4.32518 	 
C 	 -143.678 	 9.41539 	 4.74849 	 
C 	 -142.55 	 8.86702 	 4.09278 	 
H 	 -144.852 	 11.2533 	 4.56943 	 
C 	 -144.502 	 8.79481 	 5.88121 	 
H 	 -144.557 	 9.56482 	 6.62408 	 
H 	 -144 	 7.92943 	 6.29358 	 
C 	 -145.928 	 8.42828 	 5.60361 	 
H 	 -145.969 	 7.79009 	 4.72297 	 
H 	 -146.509 	 9.33152 	 5.29674 	 
C 	 -146.79 	 7.78997 	 6.69618 	 
H 	 -146.365 	 6.83801 	 6.92895 	 
H 	 -147.822 	 7.63941 	 6.35066 	 
H 	 -146.772 	 8.45125 	 7.565 	 
H 	 -140.371 	 4.416 	 3.35494 	 
H 	 -143.113 	 12.2662 	 3.17459 	 
*
