! wB97X-D3 SP def2-SVP
%pal
nprocs 24
end

* xyz 0 1
S 	 -122.946 	 48.8245 	 -36.3181 	 
C 	 -123.907 	 47.5669 	 -35.6326 	 
C 	 -124.481 	 47.8753 	 -34.4032 	 
C 	 -123.884 	 49.0853 	 -33.8726 	 
C 	 -123.032 	 49.6607 	 -34.8023 	 
H 	 -124.005 	 49.5382 	 -32.9388 	 
C 	 -125.178 	 46.9463 	 -33.4353 	 
H 	 -125.536 	 46.1928 	 -34.0356 	 
H 	 -126.036 	 47.4683 	 -33.0028 	 
C 	 -124.365 	 46.5202 	 -32.1865 	 
H 	 -123.82 	 47.3718 	 -31.7289 	 
H 	 -125.142 	 46.2138 	 -31.4369 	 
C 	 -123.435 	 45.3499 	 -32.4326 	 
H 	 -122.499 	 45.4475 	 -31.9193 	 
H 	 -123.853 	 44.2874 	 -32.3103 	 
H 	 -123.172 	 45.2269 	 -33.5296 	 
S 	 -122.399 	 52.2664 	 -35.5818 	 
C 	 -121.217 	 53.1815 	 -34.5659 	 
C 	 -120.977 	 52.5463 	 -33.3498 	 
C 	 -121.527 	 51.205 	 -33.3065 	 
C 	 -122.181 	 50.8285 	 -34.5167 	 
H 	 -120.428 	 53.1249 	 -32.6378 	 
C 	 -121.19 	 50.2875 	 -32.134 	 
H 	 -121.733 	 49.3308 	 -32.2483 	 
H 	 -121.544 	 50.7916 	 -31.2371 	 
C 	 -119.649 	 49.9236 	 -32.0025 	 
H 	 -119.265 	 49.6328 	 -33.0087 	 
H 	 -119.386 	 49.1383 	 -31.3308 	 
C 	 -118.786 	 51.1084 	 -31.4783 	 
H 	 -119.222 	 51.7326 	 -30.7127 	 
H 	 -118.699 	 51.7532 	 -32.3462 	 
H 	 -117.824 	 50.7824 	 -31.1753 	 
H 	 -123.865 	 46.5397 	 -35.9373 	 
H 	 -120.955 	 54.2057 	 -34.7187 	 
*
