! wB97X-D3 SP def2-SVP
%pal
nprocs 24
end

* xyz 0 1
S 	 -99.8637 	 37.9978 	 -82.1263 	 
C 	 -99.5745 	 36.262 	 -82.2905 	 
C 	 -100.522 	 35.6551 	 -83.0813 	 
C 	 -101.529 	 36.5547 	 -83.5544 	 
C 	 -101.281 	 37.8757 	 -83.1468 	 
H 	 -102.346 	 36.2963 	 -84.1986 	 
C 	 -100.605 	 34.164 	 -83.2275 	 
H 	 -101.185 	 33.977 	 -84.1947 	 
H 	 -101.327 	 33.7763 	 -82.4849 	 
C 	 -99.3431 	 33.2784 	 -83.0621 	 
H 	 -98.8245 	 33.3427 	 -83.9741 	 
H 	 -98.776 	 33.6718 	 -82.2316 	 
C 	 -99.6794 	 31.7642 	 -82.7161 	 
H 	 -100.224 	 31.6384 	 -81.7295 	 
H 	 -100.214 	 31.1885 	 -83.442 	 
H 	 -98.7593 	 31.204 	 -82.4502 	 
S 	 -103.122 	 39.6987 	 -82.2404 	 
C 	 -103.411 	 41.1736 	 -83.147 	 
C 	 -102.993 	 40.9815 	 -84.4306 	 
C 	 -102.223 	 39.7836 	 -84.6397 	 
C 	 -102.097 	 39.0229 	 -83.4928 	 
H 	 -103.211 	 41.6876 	 -85.2629 	 
C 	 -101.706 	 39.3703 	 -86.0363 	 
H 	 -102.606 	 39.1573 	 -86.5748 	 
H 	 -101.099 	 38.4873 	 -86.0424 	 
C 	 -100.938 	 40.3882 	 -86.8746 	 
H 	 -99.8956 	 40.3303 	 -86.4554 	 
H 	 -101.213 	 41.4327 	 -86.6453 	 
C 	 -100.97 	 40.0893 	 -88.4246 	 
H 	 -101.937 	 40.059 	 -88.7607 	 
H 	 -100.572 	 39.1494 	 -88.6731 	 
H 	 -100.377 	 40.7886 	 -88.9565 	 
H 	 -98.8094 	 35.7033 	 -81.7211 	 
H 	 -103.905 	 42.0109 	 -82.7314 	 
*
