! wB97X-D3 SP def2-SVP
%pal
nprocs 24
end

* xyz 0 1
S 	 -106.126 	 20.4643 	 -111.889 	 
C 	 -106.097 	 19.5698 	 -110.367 	 
C 	 -105.634 	 20.253 	 -109.285 	 
C 	 -105.369 	 21.6219 	 -109.699 	 
C 	 -105.591 	 21.8571 	 -111.011 	 
H 	 -105.043 	 22.5132 	 -109.173 	 
C 	 -105.462 	 19.7518 	 -107.849 	 
H 	 -106.298 	 20.0023 	 -107.297 	 
H 	 -104.619 	 20.2651 	 -107.327 	 
C 	 -105.269 	 18.2139 	 -107.679 	 
H 	 -106.138 	 17.6429 	 -108.045 	 
H 	 -104.534 	 17.7863 	 -108.447 	 
C 	 -104.975 	 17.824 	 -106.302 	 
H 	 -104.771 	 16.7315 	 -106.232 	 
H 	 -104.104 	 18.3414 	 -105.822 	 
H 	 -105.759 	 18.0407 	 -105.631 	 
S 	 -104.339 	 23.2021 	 -113.124 	 
C 	 -104.573 	 24.9246 	 -113.337 	 
C 	 -105.659 	 25.3555 	 -112.56 	 
C 	 -106.153 	 24.3387 	 -111.681 	 
C 	 -105.428 	 23.1159 	 -111.739 	 
H 	 -105.882 	 26.4869 	 -112.567 	 
C 	 -107.341 	 24.6301 	 -110.758 	 
H 	 -107.976 	 23.713 	 -110.573 	 
H 	 -108.076 	 25.2097 	 -111.286 	 
C 	 -106.964 	 25.3989 	 -109.435 	 
H 	 -106.605 	 26.314 	 -109.88 	 
H 	 -106.128 	 24.9473 	 -108.851 	 
C 	 -108.125 	 25.722 	 -108.497 	 
H 	 -109.069 	 26.0915 	 -108.949 	 
H 	 -107.876 	 26.5796 	 -107.839 	 
H 	 -108.38 	 24.8067 	 -107.893 	 
H 	 -106.315 	 18.4741 	 -110.33 	 
H 	 -104.012 	 25.543 	 -114.024 	 
*
