! wB97X-D3 SP def2-SVP
%pal
nprocs 24
end

* xyz 0 1
S 	 21.8721 	 -2.26545 	 -111.321 	 
C 	 20.1826 	 -2.48794 	 -111.462 	 
C 	 19.4632 	 -1.30943 	 -111.336 	 
C 	 20.3567 	 -0.227668 	 -111.147 	 
C 	 21.6996 	 -0.573389 	 -111.035 	 
H 	 20.163 	 0.818669 	 -111.242 	 
C 	 18.0395 	 -1.14746 	 -111.732 	 
H 	 17.8323 	 -1.90131 	 -112.518 	 
H 	 17.9659 	 -0.149621 	 -112.136 	 
C 	 16.9436 	 -1.44107 	 -110.677 	 
H 	 15.9575 	 -1.49464 	 -111.119 	 
H 	 17.1761 	 -2.4157 	 -110.26 	 
C 	 16.9594 	 -0.406371 	 -109.515 	 
H 	 16.9437 	 0.662691 	 -109.847 	 
H 	 16.1177 	 -0.542226 	 -108.84 	 
H 	 17.8145 	 -0.575273 	 -108.9 	 
S 	 23.7856 	 0.2753 	 -112.625 	 
C 	 24.6336 	 1.68369 	 -112.151 	 
C 	 24.217 	 2.19063 	 -110.916 	 
C 	 23.1506 	 1.46966 	 -110.284 	 
C 	 22.7808 	 0.338559 	 -111.142 	 
H 	 24.5856 	 3.15517 	 -110.544 	 
C 	 22.5142 	 1.75339 	 -108.871 	 
H 	 21.5002 	 1.39042 	 -108.946 	 
H 	 22.4209 	 2.80439 	 -108.571 	 
C 	 23.1821 	 1.01769 	 -107.655 	 
H 	 22.9974 	 1.53074 	 -106.678 	 
H 	 24.3278 	 1.01618 	 -107.719 	 
C 	 22.842 	 -0.454907 	 -107.329 	 
H 	 21.76 	 -0.653345 	 -107.146 	 
H 	 23.2315 	 -0.818922 	 -106.404 	 
H 	 23.1516 	 -0.991878 	 -108.161 	 
H 	 19.6498 	 -3.39049 	 -111.698 	 
H 	 25.3634 	 2.1607 	 -112.767 	 
*
