! wB97X-D3 SP def2-SVP
%pal
nprocs 24
end

* xyz 0 1
S 	 -98.6309 	 4.5359 	 -6.41439 	 
C 	 -97.3281 	 5.63062 	 -6.04648 	 
C 	 -97.8079 	 6.95957 	 -6.03978 	 
C 	 -99.2353 	 7.04333 	 -6.32379 	 
C 	 -99.8457 	 5.83029 	 -6.41513 	 
H 	 -99.8725 	 7.95063 	 -6.34123 	 
C 	 -97.0174 	 8.19286 	 -5.83259 	 
H 	 -97.5047 	 8.89837 	 -6.49204 	 
H 	 -96.0374 	 7.99069 	 -6.32455 	 
C 	 -96.7399 	 8.67202 	 -4.35796 	 
H 	 -95.9522 	 8.12404 	 -3.73635 	 
H 	 -96.2579 	 9.61095 	 -4.42877 	 
C 	 -98.0511 	 8.68546 	 -3.57201 	 
H 	 -98.7942 	 9.30608 	 -4.10031 	 
H 	 -98.5627 	 7.80385 	 -3.2409 	 
H 	 -97.735 	 9.09258 	 -2.63642 	 
S 	 -101.749 	 4.12801 	 -7.37215 	 
C 	 -103.419 	 4.53619 	 -7.25092 	 
C 	 -103.628 	 5.70499 	 -6.5055 	 
C 	 -102.415 	 6.26233 	 -6.0277 	 
C 	 -101.274 	 5.49898 	 -6.43549 	 
H 	 -104.617 	 6.16336 	 -6.50481 	 
C 	 -102.433 	 7.48739 	 -5.12873 	 
H 	 -101.533 	 7.51398 	 -4.54635 	 
H 	 -103.195 	 7.28609 	 -4.43284 	 
C 	 -102.789 	 8.85809 	 -5.73996 	 
H 	 -103.87 	 8.9576 	 -5.8983 	 
H 	 -102.202 	 8.9575 	 -6.67898 	 
C 	 -102.32 	 9.98727 	 -4.75307 	 
H 	 -101.237 	 9.86103 	 -4.5472 	 
H 	 -102.795 	 10.0155 	 -3.75161 	 
H 	 -102.441 	 10.9571 	 -5.19889 	 
H 	 -96.3543 	 5.38498 	 -5.72814 	 
H 	 -104.308 	 4.05444 	 -7.74444 	 
*
