! wB97X-D3 SP def2-SVP
%pal
nprocs 24
end

* xyz 0 1
S 	 24.4526 	 -7.26483 	 -119.607 	 
C 	 24.4573 	 -7.12913 	 -121.326 	 
C 	 25.6468 	 -6.63971 	 -121.904 	 
C 	 26.6015 	 -6.34609 	 -120.892 	 
C 	 26.1706 	 -6.63847 	 -119.623 	 
H 	 27.534 	 -5.91779 	 -121.205 	 
C 	 25.9013 	 -6.55773 	 -123.451 	 
H 	 27.0164 	 -6.42949 	 -123.566 	 
H 	 25.3913 	 -5.67218 	 -123.753 	 
C 	 25.4899 	 -7.74651 	 -124.369 	 
H 	 24.3948 	 -8.05086 	 -124.195 	 
H 	 25.6246 	 -7.49589 	 -125.407 	 
C 	 26.4966 	 -8.86819 	 -124.094 	 
H 	 26.5518 	 -9.10274 	 -123.017 	 
H 	 26.1496 	 -9.80947 	 -124.54 	 
H 	 27.471 	 -8.67755 	 -124.587 	 
S 	 26.7984 	 -5.20162 	 -117.375 	 
C 	 28.029 	 -5.85231 	 -116.251 	 
C 	 28.5573 	 -7.00959 	 -116.768 	 
C 	 27.9101 	 -7.49516 	 -117.905 	 
C 	 26.9035 	 -6.57021 	 -118.381 	 
H 	 29.3805 	 -7.37893 	 -116.2 	 
C 	 28.3768 	 -8.76969 	 -118.628 	 
H 	 29.4155 	 -8.77343 	 -118.832 	 
H 	 27.9414 	 -8.58066 	 -119.628 	 
C 	 27.8496 	 -10.075 	 -118.021 	 
H 	 26.8558 	 -9.88984 	 -117.714 	 
H 	 28.4298 	 -10.3291 	 -117.135 	 
C 	 27.9258 	 -11.3191 	 -118.868 	 
H 	 27.4815 	 -11.1936 	 -119.905 	 
H 	 27.3673 	 -12.1354 	 -118.377 	 
H 	 28.9187 	 -11.7184 	 -119.16 	 
H 	 23.6666 	 -7.34979 	 -121.98 	 
H 	 28.3984 	 -5.21177 	 -115.504 	 
*
