! wB97X-D3 SP def2-SVP
%pal
nprocs 24
end

* xyz 0 1
S 	 -102.424 	 -0.540076 	 -120.052 	 
C 	 -103.851 	 -1.60127 	 -120.375 	 
C 	 -103.4 	 -2.78927 	 -120.882 	 
C 	 -101.976 	 -2.81481 	 -121.262 	 
C 	 -101.296 	 -1.71707 	 -120.762 	 
H 	 -101.399 	 -3.6084 	 -121.608 	 
C 	 -104.261 	 -3.99506 	 -121.298 	 
H 	 -105.113 	 -4.14886 	 -120.559 	 
H 	 -103.747 	 -4.97012 	 -121.238 	 
C 	 -104.788 	 -3.75084 	 -122.677 	 
H 	 -105.45 	 -2.8296 	 -122.602 	 
H 	 -103.954 	 -3.45812 	 -123.35 	 
C 	 -105.455 	 -4.97933 	 -123.304 	 
H 	 -104.79 	 -5.794 	 -123.453 	 
H 	 -106.115 	 -5.3726 	 -122.549 	 
H 	 -106.125 	 -4.82122 	 -124.124 	 
S 	 -99.3491 	 0.0747651 	 -121.559 	 
C 	 -97.6885 	 -0.498692 	 -121.651 	 
C 	 -97.6025 	 -1.74688 	 -121.184 	 
C 	 -98.8109 	 -2.3652 	 -120.782 	 
C 	 -99.8997 	 -1.47352 	 -120.955 	 
H 	 -96.6495 	 -2.24772 	 -121.005 	 
C 	 -98.9413 	 -3.83478 	 -120.261 	 
H 	 -99.1092 	 -4.52653 	 -121.105 	 
H 	 -99.8697 	 -3.94967 	 -119.655 	 
C 	 -97.7961 	 -4.35203 	 -119.414 	 
H 	 -97.6046 	 -3.57823 	 -118.654 	 
H 	 -96.8535 	 -4.44295 	 -119.958 	 
C 	 -98.2086 	 -5.63506 	 -118.759 	 
H 	 -97.3567 	 -6.26419 	 -118.419 	 
H 	 -98.793 	 -6.16734 	 -119.465 	 
H 	 -98.7116 	 -5.53575 	 -117.793 	 
H 	 -104.911 	 -1.34107 	 -120.046 	 
H 	 -96.887 	 0.177374 	 -121.953 	 
*
