! wB97X-D3 SP def2-SVP
%pal
nprocs 24
end

* xyz 0 1
S 	 -40.8938 	 12.5414 	 32.1057 	 
C 	 -40.0219 	 13.2566 	 33.4619 	 
C 	 -40.2501 	 14.5618 	 33.6605 	 
C 	 -41.2151 	 15.0468 	 32.7514 	 
C 	 -41.8073 	 14.0553 	 31.9655 	 
H 	 -41.748 	 15.915 	 32.7638 	 
C 	 -39.6113 	 15.4598 	 34.691 	 
H 	 -39.2008 	 16.3931 	 34.2655 	 
H 	 -38.7751 	 14.8933 	 35.1248 	 
C 	 -40.5052 	 15.8208 	 35.8899 	 
H 	 -40.0278 	 16.3849 	 36.6853 	 
H 	 -41.3463 	 16.489 	 35.5726 	 
C 	 -41.3041 	 14.6223 	 36.4765 	 
H 	 -41.8629 	 14.0622 	 35.7548 	 
H 	 -40.6973 	 13.8782 	 37.0704 	 
H 	 -42.1342 	 14.9606 	 37.1537 	 
S 	 -42.8331 	 13.7615 	 29.3663 	 
C 	 -44.5706 	 13.8358 	 29.1695 	 
C 	 -45.2122 	 14.2575 	 30.3789 	 
C 	 -44.2837 	 14.2546 	 31.4586 	 
C 	 -42.9704 	 14.0267 	 31.0838 	 
H 	 -46.2828 	 14.4852 	 30.407 	 
C 	 -44.7606 	 14.668 	 32.8483 	 
H 	 -43.9224 	 14.7168 	 33.5702 	 
H 	 -45.3687 	 13.8763 	 33.2356 	 
C 	 -45.4638 	 15.9625 	 32.919 	 
H 	 -45.5248 	 16.1639 	 33.9979 	 
H 	 -46.5381 	 15.9994 	 32.5878 	 
C 	 -44.5332 	 17.075 	 32.4282 	 
H 	 -44.3849 	 17.0349 	 31.3579 	 
H 	 -43.5435 	 16.9646 	 32.8064 	 
H 	 -44.9354 	 18.0412 	 32.7547 	 
H 	 -39.1688 	 12.7332 	 33.9511 	 
H 	 -45.1099 	 13.7121 	 28.2728 	 
*
