! wB97X-D3 SP def2-SVP
%pal
nprocs 24
end

* xyz 0 1
S 	 -108.901 	 18.1604 	 -120.567 	 
C 	 -110.6 	 17.6939 	 -120.568 	 
C 	 -110.984 	 17.2125 	 -121.804 	 
C 	 -109.909 	 17.313 	 -122.78 	 
C 	 -108.731 	 17.8593 	 -122.261 	 
H 	 -110.042 	 16.9923 	 -123.826 	 
C 	 -112.323 	 16.5441 	 -122.184 	 
H 	 -112.451 	 16.5807 	 -123.231 	 
H 	 -113.152 	 17.1333 	 -121.808 	 
C 	 -112.649 	 15.096 	 -121.841 	 
H 	 -112.227 	 14.829 	 -120.883 	 
H 	 -113.737 	 14.939 	 -121.836 	 
C 	 -112.03 	 14.0457 	 -122.828 	 
H 	 -112.445 	 14.0102 	 -123.839 	 
H 	 -111.013 	 14.3882 	 -122.87 	 
H 	 -112.15 	 12.9835 	 -122.449 	 
S 	 -106.349 	 16.666 	 -122.705 	 
C 	 -105.351 	 17.0182 	 -124.035 	 
C 	 -105.929 	 18.0082 	 -124.78 	 
C 	 -107.206 	 18.5034 	 -124.304 	 
C 	 -107.506 	 17.9368 	 -123.065 	 
H 	 -105.325 	 18.401 	 -125.618 	 
C 	 -108.024 	 19.454 	 -125.159 	 
H 	 -107.447 	 20.1795 	 -125.653 	 
H 	 -108.622 	 19.9931 	 -124.467 	 
C 	 -108.8 	 18.931 	 -126.412 	 
H 	 -109.349 	 18.0073 	 -126.185 	 
H 	 -108.179 	 18.5388 	 -127.223 	 
C 	 -109.756 	 19.8654 	 -127.077 	 
H 	 -110.565 	 20.0444 	 -126.431 	 
H 	 -109.996 	 19.4128 	 -127.996 	 
H 	 -109.222 	 20.8484 	 -127.21 	 
H 	 -111.184 	 17.6005 	 -119.624 	 
H 	 -104.464 	 16.4703 	 -124.255 	 
*
