! wB97X-D3 SP def2-SVP
%pal
nprocs 24
end

* xyz 0 1
S 	 -105.854 	 22.6105 	 -115.119 	 
C 	 -105.951 	 23.2692 	 -113.515 	 
C 	 -106.712 	 22.4654 	 -112.657 	 
C 	 -107.069 	 21.1722 	 -113.241 	 
C 	 -106.818 	 21.1607 	 -114.585 	 
H 	 -107.521 	 20.223 	 -112.853 	 
C 	 -107.008 	 22.7363 	 -111.215 	 
H 	 -107.851 	 22.1306 	 -110.889 	 
H 	 -107.338 	 23.7574 	 -111.28 	 
C 	 -105.827 	 22.5881 	 -110.237 	 
H 	 -104.919 	 23.1605 	 -110.554 	 
H 	 -106.102 	 23.0689 	 -109.345 	 
C 	 -105.338 	 21.1545 	 -109.879 	 
H 	 -106.17 	 20.4883 	 -109.758 	 
H 	 -104.827 	 20.8471 	 -110.766 	 
H 	 -104.725 	 21.1406 	 -108.961 	 
S 	 -107.684 	 20.3794 	 -117.055 	 
C 	 -107.527 	 18.7195 	 -117.67 	 
C 	 -106.928 	 17.9241 	 -116.747 	 
C 	 -106.603 	 18.593 	 -115.487 	 
C 	 -106.985 	 19.9542 	 -115.479 	 
H 	 -106.699 	 16.9488 	 -117.006 	 
C 	 -106.097 	 17.8374 	 -114.312 	 
H 	 -106.894 	 17.0806 	 -113.971 	 
H 	 -105.877 	 18.5552 	 -113.468 	 
C 	 -104.663 	 17.2548 	 -114.651 	 
H 	 -104.646 	 16.6336 	 -115.581 	 
H 	 -104.321 	 16.606 	 -113.819 	 
C 	 -103.613 	 18.3685 	 -114.917 	 
H 	 -103.487 	 19.0838 	 -114.059 	 
H 	 -103.897 	 18.9675 	 -115.801 	 
H 	 -102.67 	 17.9435 	 -115.141 	 
H 	 -105.475 	 24.1793 	 -113.223 	 
H 	 -107.976 	 18.3968 	 -118.57 	 
*
