! wB97X-D3 SP def2-SVP
%pal
nprocs 24
end

* xyz 0 1
S 	 50.0408 	 -36.1789 	 -120.463 	 
C 	 50.3385 	 -35.0816 	 -121.779 	 
C 	 49.9737 	 -33.7935 	 -121.572 	 
C 	 49.5683 	 -33.5371 	 -120.202 	 
C 	 49.5602 	 -34.7526 	 -119.465 	 
H 	 49.306 	 -32.5868 	 -119.808 	 
C 	 49.8814 	 -32.6754 	 -122.59 	 
H 	 50.4034 	 -33.1442 	 -123.531 	 
H 	 50.5439 	 -31.8634 	 -122.202 	 
C 	 48.4782 	 -32.0512 	 -122.975 	 
H 	 48.6319 	 -31.411 	 -123.852 	 
H 	 47.8121 	 -32.8832 	 -123.256 	 
C 	 47.7148 	 -31.2301 	 -121.925 	 
H 	 46.8202 	 -30.8225 	 -122.448 	 
H 	 47.4159 	 -31.8017 	 -121.074 	 
H 	 48.3866 	 -30.4652 	 -121.555 	 
S 	 50.5675 	 -35.7738 	 -117.216 	 
C 	 49.8874 	 -35.3791 	 -115.659 	 
C 	 48.7107 	 -34.642 	 -115.744 	 
C 	 48.455 	 -34.3075 	 -117.138 	 
C 	 49.3647 	 -34.8868 	 -118.017 	 
H 	 48.1922 	 -34.415 	 -114.817 	 
C 	 47.3791 	 -33.3063 	 -117.583 	 
H 	 46.4176 	 -33.7151 	 -117.326 	 
H 	 47.4281 	 -33.2869 	 -118.68 	 
C 	 47.5824 	 -31.9357 	 -116.876 	 
H 	 47.7737 	 -31.9891 	 -115.824 	 
H 	 46.78 	 -31.3083 	 -117.025 	 
C 	 48.7762 	 -31.2711 	 -117.515 	 
H 	 49.6103 	 -31.9378 	 -117.487 	 
H 	 49.0482 	 -30.3665 	 -116.873 	 
H 	 48.6814 	 -31.017 	 -118.613 	 
H 	 50.7354 	 -35.3852 	 -122.738 	 
H 	 50.1995 	 -35.7914 	 -114.726 	 
*
