! wB97X-D3 SP def2-SVP
%pal
nprocs 24
end

* xyz 0 1
S 	 -56.7742 	 23.4909 	 25.1076 	 
C 	 -55.9606 	 22.0747 	 25.8192 	 
C 	 -56.6117 	 20.8848 	 25.4778 	 
C 	 -57.7626 	 21.1428 	 24.6439 	 
C 	 -58.0224 	 22.49 	 24.3425 	 
H 	 -58.3535 	 20.3513 	 24.2064 	 
C 	 -56.1995 	 19.4892 	 25.9195 	 
H 	 -56.0313 	 19.5625 	 26.9699 	 
H 	 -55.2599 	 19.2338 	 25.4962 	 
C 	 -57.3735 	 18.4352 	 25.6027 	 
H 	 -58.355 	 18.7443 	 25.8045 	 
H 	 -57.3017 	 18.2394 	 24.5129 	 
C 	 -57.1948 	 17.0654 	 26.2971 	 
H 	 -56.8902 	 17.178 	 27.3408 	 
H 	 -58.2049 	 16.5603 	 26.3042 	 
H 	 -56.482 	 16.5206 	 25.7614 	 
S 	 -60.6967 	 22.861 	 23.531 	 
C 	 -60.9139 	 23.4601 	 21.9652 	 
C 	 -59.7899 	 23.7856 	 21.3021 	 
C 	 -58.6233 	 23.5554 	 22.0859 	 
C 	 -58.9261 	 22.9939 	 23.3376 	 
H 	 -59.8513 	 24.1365 	 20.285 	 
C 	 -57.2871 	 23.4793 	 21.4399 	 
H 	 -56.5707 	 23.9383 	 22.0823 	 
H 	 -57.4153 	 23.9982 	 20.4659 	 
C 	 -56.7537 	 22.0714 	 21.1002 	 
H 	 -57.5633 	 21.4096 	 20.7056 	 
H 	 -56.3915 	 21.5722 	 22.0271 	 
C 	 -55.5502 	 21.9897 	 20.1319 	 
H 	 -54.6623 	 22.2849 	 20.6554 	 
H 	 -55.6715 	 22.6174 	 19.2224 	 
H 	 -55.2987 	 20.9372 	 19.8642 	 
H 	 -55.1024 	 22.1392 	 26.4301 	 
H 	 -61.8692 	 23.6267 	 21.4592 	 
*
