! wB97X-D3 SP def2-SVP
%pal
nprocs 24
end

* xyz 0 1
S 	 -106.04 	 56.7672 	 -79.9835 	 
C 	 -105.777 	 56.0603 	 -81.5772 	 
C 	 -106.965 	 55.5208 	 -82.0401 	 
C 	 -107.991 	 55.4899 	 -81.0629 	 
C 	 -107.693 	 56.1199 	 -79.9008 	 
H 	 -108.939 	 55.0678 	 -81.2102 	 
C 	 -107.065 	 54.8803 	 -83.369 	 
H 	 -108.154 	 54.7267 	 -83.6936 	 
H 	 -106.655 	 53.9178 	 -83.1307 	 
C 	 -106.234 	 55.4785 	 -84.5538 	 
H 	 -106.361 	 56.5477 	 -84.604 	 
H 	 -105.153 	 55.4158 	 -84.4101 	 
C 	 -106.562 	 54.8955 	 -85.8782 	 
H 	 -105.874 	 55.0883 	 -86.7068 	 
H 	 -106.515 	 53.8198 	 -85.6246 	 
H 	 -107.6 	 55.1887 	 -86.0409 	 
S 	 -109.088 	 57.877 	 -78.2634 	 
C 	 -110.062 	 57.2911 	 -76.9886 	 
C 	 -109.947 	 55.8978 	 -76.8963 	 
C 	 -109.058 	 55.2934 	 -77.8947 	 
C 	 -108.507 	 56.2657 	 -78.7021 	 
H 	 -110.476 	 55.3787 	 -76.0907 	 
C 	 -108.958 	 53.7736 	 -78.103 	 
H 	 -108.285 	 53.3683 	 -77.3656 	 
H 	 -108.334 	 53.6117 	 -78.9185 	 
C 	 -110.285 	 53.0085 	 -78.164 	 
H 	 -110.911 	 53.3464 	 -77.3485 	 
H 	 -110.037 	 51.9718 	 -77.9756 	 
C 	 -110.908 	 53.1693 	 -79.6348 	 
H 	 -111.658 	 52.4246 	 -79.7984 	 
H 	 -110.032 	 52.9363 	 -80.2847 	 
H 	 -111.258 	 54.177 	 -79.8465 	 
H 	 -104.765 	 56.0658 	 -82.0388 	 
H 	 -110.665 	 57.9087 	 -76.3588 	 
*
