! wB97X-D3 SP def2-SVP
%pal
nprocs 24
end

* xyz 0 1
S 	 27.2931 	 -9.03343 	 -115.231 	 
C 	 28.5958 	 -8.47051 	 -116.309 	 
C 	 29.8086 	 -8.54183 	 -115.668 	 
C 	 29.658 	 -9.03786 	 -114.36 	 
C 	 28.3881 	 -9.44069 	 -114.02 	 
H 	 30.3635 	 -9.00955 	 -113.551 	 
C 	 31.0746 	 -7.89373 	 -116.126 	 
H 	 31.4158 	 -7.26423 	 -115.197 	 
H 	 30.789 	 -7.06893 	 -116.863 	 
C 	 32.1459 	 -8.75034 	 -116.679 	 
H 	 33.0396 	 -8.1365 	 -116.82 	 
H 	 32.4093 	 -9.6096 	 -116.127 	 
C 	 31.7148 	 -9.15809 	 -118.08 	 
H 	 31.7019 	 -8.28572 	 -118.759 	 
H 	 32.4765 	 -9.82795 	 -118.356 	 
H 	 30.8278 	 -9.75217 	 -118.062 	 
S 	 27.9159 	 -11.6402 	 -112.365 	 
C 	 27.2384 	 -11.4287 	 -110.777 	 
C 	 27.0572 	 -10.0992 	 -110.523 	 
C 	 27.4836 	 -9.20455 	 -111.519 	 
C 	 27.8856 	 -9.92112 	 -112.691 	 
H 	 26.6127 	 -9.76497 	 -109.563 	 
C 	 27.3197 	 -7.67696 	 -111.412 	 
H 	 26.3704 	 -7.52443 	 -110.984 	 
H 	 27.276 	 -7.26955 	 -112.442 	 
C 	 28.4894 	 -6.91239 	 -110.631 	 
H 	 29.3595 	 -7.30641 	 -111.165 	 
H 	 28.3425 	 -7.23465 	 -109.638 	 
C 	 28.3711 	 -5.42551 	 -110.778 	 
H 	 29.0867 	 -4.80983 	 -110.187 	 
H 	 27.3726 	 -5.08648 	 -110.444 	 
H 	 28.462 	 -5.17646 	 -111.917 	 
H 	 28.4591 	 -8.01247 	 -117.308 	 
H 	 27.0681 	 -12.2366 	 -110.112 	 
*
