! wB97X-D3 SP def2-SVP
%pal
nprocs 24
end

* xyz 0 1
S 	 -1.01696 	 -17.6156 	 -102.897 	 
C 	 0.056531 	 -18.9107 	 -102.295 	 
C 	 1.25457 	 -18.8904 	 -102.997 	 
C 	 1.36544 	 -17.6847 	 -103.748 	 
C 	 0.250969 	 -16.8668 	 -103.843 	 
H 	 2.22781 	 -17.2997 	 -104.338 	 
C 	 2.16811 	 -20.1506 	 -103.006 	 
H 	 1.96136 	 -20.5837 	 -103.977 	 
H 	 1.83491 	 -20.8567 	 -102.262 	 
C 	 3.6433 	 -19.9882 	 -102.577 	 
H 	 4.24972 	 -19.2953 	 -103.195 	 
H 	 3.56219 	 -19.4942 	 -101.612 	 
C 	 4.44707 	 -21.2334 	 -102.397 	 
H 	 5.42416 	 -21.0297 	 -102.091 	 
H 	 4.05216 	 -22.009 	 -101.667 	 
H 	 4.57869 	 -21.8182 	 -103.32 	 
S 	 0.371708 	 -15.7563 	 -106.24 	 
C 	 0.0579041 	 -13.9551 	 -106.416 	 
C 	 -0.096928 	 -13.3718 	 -105.188 	 
C 	 -0.0882877 	 -14.2889 	 -104.127 	 
C 	 0.189006 	 -15.5827 	 -104.522 	 
H 	 -0.0965712 	 -12.3155 	 -105.019 	 
C 	 -0.247009 	 -13.8953 	 -102.651 	 
H 	 -0.475285 	 -14.7876 	 -102.013 	 
H 	 -1.04845 	 -13.223 	 -102.598 	 
C 	 1.00281 	 -13.2894 	 -101.997 	 
H 	 1.26277 	 -12.4266 	 -102.488 	 
H 	 1.76787 	 -14.0133 	 -102.228 	 
C 	 0.916341 	 -13.0038 	 -100.55 	 
H 	 0.546515 	 -11.9694 	 -100.395 	 
H 	 1.93103 	 -12.9533 	 -100.162 	 
H 	 0.268483 	 -13.8056 	 -100.039 	 
H 	 -0.373882 	 -19.7915 	 -101.804 	 
H 	 0.237263 	 -13.4068 	 -107.354 	 
*
