! wB97X-D3 SP def2-SVP
%pal
nprocs 24
end

* xyz 0 1
S 	 -111.429 	 56.2292 	 -100.443 	 
C 	 -112.827 	 55.6062 	 -101.149 	 
C 	 -113.779 	 56.5319 	 -101.434 	 
C 	 -113.374 	 57.8425 	 -101.047 	 
C 	 -112.112 	 57.8787 	 -100.516 	 
H 	 -114.033 	 58.6934 	 -101.137 	 
C 	 -115.097 	 56.093 	 -101.869 	 
H 	 -114.99 	 55.3152 	 -102.625 	 
H 	 -115.399 	 56.9988 	 -102.468 	 
C 	 -116.048 	 55.8314 	 -100.641 	 
H 	 -115.494 	 55.0876 	 -100.205 	 
H 	 -116.059 	 56.8191 	 -100.106 	 
C 	 -117.441 	 55.3724 	 -100.99 	 
H 	 -118.065 	 56.1526 	 -101.599 	 
H 	 -117.432 	 54.4322 	 -101.489 	 
H 	 -117.904 	 55.2172 	 -100.041 	 
S 	 -110.376 	 58.8979 	 -98.6448 	 
C 	 -110.194 	 60.6244 	 -98.468 	 
C 	 -110.847 	 61.2943 	 -99.5036 	 
C 	 -111.474 	 60.4172 	 -100.491 	 
C 	 -111.434 	 59.063 	 -100.029 	 
H 	 -110.873 	 62.3808 	 -99.4864 	 
C 	 -112.043 	 60.8526 	 -101.787 	 
H 	 -112.992 	 61.2684 	 -101.517 	 
H 	 -112.303 	 59.9965 	 -102.384 	 
C 	 -111.226 	 61.9243 	 -102.54 	 
H 	 -110.229 	 61.6909 	 -102.959 	 
H 	 -110.996 	 62.7573 	 -101.915 	 
C 	 -112.038 	 62.2728 	 -103.776 	 
H 	 -113.174 	 62.2317 	 -103.627 	 
H 	 -111.865 	 61.4932 	 -104.56 	 
H 	 -111.816 	 63.2591 	 -104.236 	 
H 	 -113.027 	 54.5307 	 -101.24 	 
H 	 -109.6 	 61.1636 	 -97.6847 	 
*
