! wB97X-D3 SP def2-SVP
%pal
nprocs 24
end

* xyz 0 1
S 	 -44.5354 	 18.5755 	 24.8676 	 
C 	 -44.386 	 20.3524 	 25.1542 	 
C 	 -45.1041 	 21.1163 	 24.205 	 
C 	 -45.8351 	 20.218 	 23.2714 	 
C 	 -45.6233 	 18.8686 	 23.5099 	 
H 	 -46.5135 	 20.5373 	 22.5036 	 
C 	 -45.2275 	 22.6437 	 24.1049 	 
H 	 -44.4212 	 22.9472 	 24.8019 	 
H 	 -46.1845 	 22.9121 	 24.6817 	 
C 	 -45.0574 	 23.2686 	 22.6927 	 
H 	 -45.7763 	 22.8416 	 21.9497 	 
H 	 -45.2934 	 24.3599 	 22.7168 	 
C 	 -43.5812 	 23.0606 	 22.063 	 
H 	 -43.4063 	 23.3834 	 21.0527 	 
H 	 -42.7955 	 23.3999 	 22.7204 	 
H 	 -43.4113 	 21.9845 	 21.9874 	 
S 	 -47.0254 	 16.5444 	 24.0869 	 
C 	 -47.667 	 15.6336 	 22.8196 	 
C 	 -47.4978 	 16.2067 	 21.5815 	 
C 	 -46.6706 	 17.4074 	 21.6376 	 
C 	 -46.2876 	 17.7181 	 22.955 	 
H 	 -47.9855 	 15.7038 	 20.7131 	 
C 	 -46.4781 	 18.2163 	 20.4269 	 
H 	 -46.6201 	 19.2229 	 20.7241 	 
H 	 -47.1474 	 17.9802 	 19.6604 	 
C 	 -45.0821 	 18.1408 	 19.9096 	 
H 	 -44.7891 	 17.1618 	 19.6997 	 
H 	 -44.3114 	 18.6588 	 20.5584 	 
C 	 -44.9607 	 18.9372 	 18.6261 	 
H 	 -45.1984 	 20.0196 	 18.8136 	 
H 	 -45.5327 	 18.4961 	 17.8575 	 
H 	 -43.872 	 19.0112 	 18.4019 	 
H 	 -43.8258 	 20.859 	 25.9692 	 
H 	 -48.2952 	 14.8224 	 22.9743 	 
*
