! wB97X-D3 SP def2-SVP
%pal
nprocs 24
end

* xyz 0 1
S 	 -121.241 	 60.4917 	 -38.1968 	 
C 	 -122.289 	 59.3378 	 -38.9731 	 
C 	 -122.976 	 58.5214 	 -38.0625 	 
C 	 -122.586 	 58.8502 	 -36.7281 	 
C 	 -121.673 	 59.9075 	 -36.5764 	 
H 	 -122.897 	 58.3239 	 -35.8837 	 
C 	 -123.85 	 57.3985 	 -38.44 	 
H 	 -124.808 	 57.7897 	 -38.711 	 
H 	 -124.053 	 56.8617 	 -37.6034 	 
C 	 -123.301 	 56.4204 	 -39.5615 	 
H 	 -124.145 	 55.82 	 -40.0013 	 
H 	 -122.881 	 56.9125 	 -40.4765 	 
C 	 -122.221 	 55.5241 	 -38.9709 	 
H 	 -122.695 	 54.8935 	 -38.1763 	 
H 	 -121.923 	 54.8168 	 -39.7298 	 
H 	 -121.366 	 56.0416 	 -38.6049 	 
S 	 -119.106 	 60.1523 	 -35.6052 	 
C 	 -118.915 	 61.0135 	 -34.055 	 
C 	 -120.111 	 61.2034 	 -33.4647 	 
C 	 -121.253 	 60.6488 	 -34.1814 	 
C 	 -120.87 	 60.2264 	 -35.4127 	 
H 	 -120.091 	 61.7585 	 -32.5617 	 
C 	 -122.682 	 60.6573 	 -33.6914 	 
H 	 -123.324 	 60.6084 	 -34.5646 	 
H 	 -122.906 	 61.6235 	 -33.3276 	 
C 	 -122.927 	 59.6539 	 -32.5791 	 
H 	 -123.867 	 60.0102 	 -32.218 	 
H 	 -122.203 	 59.8383 	 -31.7582 	 
C 	 -123.047 	 58.1357 	 -32.9246 	 
H 	 -123.658 	 58.198 	 -33.8051 	 
H 	 -123.581 	 57.4025 	 -32.3025 	 
H 	 -122.048 	 57.7574 	 -33.1485 	 
H 	 -122.441 	 59.1752 	 -39.9925 	 
H 	 -118.063 	 61.2392 	 -33.5838 	 
*
