! wB97X-D3 SP def2-SVP
%pal
nprocs 24
end

* xyz 0 1
S 	 -53.0844 	 24.9015 	 33.055 	 
C 	 -51.3928 	 24.697 	 33.0353 	 
C 	 -51.0179 	 23.3704 	 33.0197 	 
C 	 -52.1889 	 22.522 	 33.0383 	 
C 	 -53.3948 	 23.2125 	 32.9348 	 
H 	 -52.192 	 21.4514 	 32.9958 	 
C 	 -49.6376 	 22.8206 	 32.8317 	 
H 	 -49.3786 	 22.1627 	 33.6286 	 
H 	 -49.0132 	 23.7081 	 33.0761 	 
C 	 -49.1338 	 22.3032 	 31.4454 	 
H 	 -49.3226 	 23.1201 	 30.8229 	 
H 	 -48.0779 	 22.0186 	 31.4233 	 
C 	 -49.8672 	 21.0971 	 30.8268 	 
H 	 -49.2459 	 20.556 	 30.1389 	 
H 	 -50.0095 	 20.3336 	 31.5949 	 
H 	 -50.6938 	 21.555 	 30.3168 	 
S 	 -55.7347 	 22.8537 	 34.3303 	 
C 	 -56.7324 	 21.5283 	 33.8392 	 
C 	 -56.3175 	 21.017 	 32.5761 	 
C 	 -55.1193 	 21.5636 	 32.1701 	 
C 	 -54.7208 	 22.615 	 32.9192 	 
H 	 -56.9264 	 20.281 	 32.0754 	 
C 	 -54.6387 	 21.3599 	 30.7424 	 
H 	 -55.1113 	 20.4426 	 30.39 	 
H 	 -53.5114 	 21.2485 	 30.76 	 
C 	 -54.9437 	 22.5236 	 29.8862 	 
H 	 -54.4419 	 23.5106 	 30.117 	 
H 	 -56.0439 	 22.6935 	 29.9226 	 
C 	 -54.663 	 22.103 	 28.3569 	 
H 	 -55.1504 	 21.133 	 28.0839 	 
H 	 -53.6739 	 21.9347 	 27.9968 	 
H 	 -55.1625 	 22.8033 	 27.6918 	 
H 	 -50.6533 	 25.4909 	 33.0553 	 
H 	 -57.67 	 21.1599 	 34.2218 	 
*
