! wB97X-D3 SP def2-SVP
%pal
nprocs 24
end

* xyz 0 1
S 	 -86.6095 	 -29.8464 	 -59.7162 	 
C 	 -86.8181 	 -28.1463 	 -60.2368 	 
C 	 -87.8462 	 -27.5189 	 -59.5943 	 
C 	 -88.5021 	 -28.4012 	 -58.7358 	 
C 	 -87.9907 	 -29.6647 	 -58.6396 	 
H 	 -89.3002 	 -28.0383 	 -58.1195 	 
C 	 -88.4238 	 -26.1899 	 -60.0699 	 
H 	 -87.5914 	 -25.5127 	 -60.1183 	 
H 	 -89.2396 	 -25.9349 	 -59.3663 	 
C 	 -89.0344 	 -26.3271 	 -61.466 	 
H 	 -89.3839 	 -25.33 	 -61.8265 	 
H 	 -88.2788 	 -26.6506 	 -62.272 	 
C 	 -90.3168 	 -27.0983 	 -61.3995 	 
H 	 -90.1317 	 -28.0885 	 -61.058 	 
H 	 -90.8808 	 -26.5225 	 -60.6368 	 
H 	 -90.8316 	 -27.1769 	 -62.3879 	 
S 	 -89.3559 	 -32.1534 	 -58.3663 	 
C 	 -88.9059 	 -33.113 	 -56.9676 	 
C 	 -88.0621 	 -32.3965 	 -56.0778 	 
C 	 -87.7663 	 -31.0741 	 -56.5537 	 
C 	 -88.3568 	 -30.8027 	 -57.7666 	 
H 	 -87.7441 	 -32.8669 	 -55.1539 	 
C 	 -86.808 	 -30.201 	 -55.7184 	 
H 	 -86.3982 	 -29.3982 	 -56.3638 	 
H 	 -85.984 	 -30.8069 	 -55.5272 	 
C 	 -87.2413 	 -29.5982 	 -54.429 	 
H 	 -87.401 	 -30.3573 	 -53.6705 	 
H 	 -88.2521 	 -29.3273 	 -54.6127 	 
C 	 -86.3012 	 -28.5475 	 -53.8289 	 
H 	 -85.9952 	 -27.707 	 -54.504 	 
H 	 -85.3328 	 -28.9901 	 -53.493 	 
H 	 -86.791 	 -28.0729 	 -52.982 	 
H 	 -86.4475 	 -27.7939 	 -61.102 	 
H 	 -89.1357 	 -34.1366 	 -56.7893 	 
*
