! wB97X-D3 SP def2-SVP
%pal
nprocs 24
end

* xyz 0 1
S 	 -85.4233 	 -4.5386 	 -65.4667 	 
C 	 -86.1804 	 -3.24622 	 -66.3262 	 
C 	 -86.0248 	 -2.00767 	 -65.7166 	 
C 	 -85.3857 	 -2.13859 	 -64.4405 	 
C 	 -85.0157 	 -3.45444 	 -64.1671 	 
H 	 -85.0287 	 -1.39658 	 -63.7397 	 
C 	 -86.5122 	 -0.632152 	 -66.152 	 
H 	 -87.3304 	 -0.269687 	 -65.5041 	 
H 	 -86.9293 	 -0.686913 	 -67.1196 	 
C 	 -85.4756 	 0.50071 	 -66.1967 	 
H 	 -86.0735 	 1.29861 	 -66.715 	 
H 	 -85.2438 	 0.622905 	 -65.1334 	 
C 	 -84.1724 	 0.398986 	 -67.0699 	 
H 	 -84.4831 	 0.174544 	 -68.1088 	 
H 	 -83.7081 	 1.3992 	 -67.2585 	 
H 	 -83.4881 	 -0.320807 	 -66.7092 	 
S 	 -82.8018 	 -4.2919 	 -62.9358 	 
C 	 -82.749 	 -4.37895 	 -61.2173 	 
C 	 -83.9307 	 -4.11122 	 -60.6276 	 
C 	 -84.9393 	 -3.67076 	 -61.5801 	 
C 	 -84.4476 	 -3.82709 	 -62.906 	 
H 	 -83.9565 	 -4.22594 	 -59.5866 	 
C 	 -86.4397 	 -3.34273 	 -61.2814 	 
H 	 -86.6953 	 -4.05248 	 -60.4674 	 
H 	 -86.977 	 -3.73199 	 -62.2364 	 
C 	 -86.8764 	 -1.8985 	 -60.9155 	 
H 	 -87.9446 	 -1.95416 	 -60.6324 	 
H 	 -86.885 	 -1.27881 	 -61.7748 	 
C 	 -86.0801 	 -1.36119 	 -59.7764 	 
H 	 -85.9542 	 -2.00322 	 -58.8606 	 
H 	 -86.5712 	 -0.516395 	 -59.3728 	 
H 	 -85.1224 	 -0.965224 	 -60.098 	 
H 	 -86.5797 	 -3.31912 	 -67.3454 	 
H 	 -81.988 	 -4.79618 	 -60.5366 	 
*
