! wB97X-D3 SP def2-SVP
%pal
nprocs 24
end

* xyz 0 1
S 	 -40.2739 	 -0.574286 	 -5.77096 	 
C 	 -39.6468 	 0.301522 	 -4.43029 	 
C 	 -39.1562 	 1.50008 	 -4.83023 	 
C 	 -39.0506 	 1.64042 	 -6.26147 	 
C 	 -39.7082 	 0.638729 	 -6.91875 	 
H 	 -38.8617 	 2.61125 	 -6.78151 	 
C 	 -38.6877 	 2.55913 	 -3.85266 	 
H 	 -39.4098 	 2.53771 	 -3.03339 	 
H 	 -38.7889 	 3.59828 	 -4.2346 	 
C 	 -37.2484 	 2.38244 	 -3.37426 	 
H 	 -37.2135 	 1.44987 	 -2.85565 	 
H 	 -36.5563 	 2.36755 	 -4.19925 	 
C 	 -36.9092 	 3.4088 	 -2.34769 	 
H 	 -36.7534 	 4.26171 	 -2.97417 	 
H 	 -37.7094 	 3.60389 	 -1.58967 	 
H 	 -35.9157 	 3.35255 	 -1.84053 	 
S 	 -38.4767 	 0.640293 	 -9.37681 	 
C 	 -39.3876 	 0.124714 	 -10.7896 	 
C 	 -40.7449 	 0.0396746 	 -10.4988 	 
C 	 -41.0801 	 0.250729 	 -9.14154 	 
C 	 -39.9122 	 0.567206 	 -8.36049 	 
H 	 -41.3806 	 -0.244637 	 -11.2942 	 
C 	 -42.4787 	 0.159477 	 -8.57542 	 
H 	 -43.1516 	 0.778476 	 -9.17668 	 
H 	 -42.4357 	 0.552364 	 -7.53821 	 
C 	 -43.1373 	 -1.1733 	 -8.57084 	 
H 	 -42.6451 	 -1.8887 	 -7.89769 	 
H 	 -43.0973 	 -1.51329 	 -9.59556 	 
C 	 -44.6309 	 -1.00561 	 -8.19764 	 
H 	 -45.0836 	 -0.416909 	 -8.95151 	 
H 	 -44.8601 	 -0.508434 	 -7.23183 	 
H 	 -45.1862 	 -2.00355 	 -8.22786 	 
H 	 -39.9849 	 0.102174 	 -3.44794 	 
H 	 -39.0782 	 0.103102 	 -11.7607 	 
*
