! wB97X-D3 SP def2-SVP
%pal
nprocs 24
end

* xyz 0 1
S 	 -120.587 	 60.6143 	 -39.0899 	 
C 	 -122.195 	 60.2199 	 -39.5525 	 
C 	 -122.592 	 59.0441 	 -38.9275 	 
C 	 -121.569 	 58.4721 	 -38.0977 	 
C 	 -120.484 	 59.3267 	 -37.9616 	 
H 	 -121.596 	 57.5224 	 -37.5299 	 
C 	 -123.904 	 58.322 	 -39.2685 	 
H 	 -124.176 	 58.6156 	 -40.26 	 
H 	 -124.722 	 58.6879 	 -38.5691 	 
C 	 -123.967 	 56.7476 	 -39.1717 	 
H 	 -124.708 	 56.3754 	 -39.948 	 
H 	 -123.01 	 56.3559 	 -39.4367 	 
C 	 -124.249 	 56.2131 	 -37.771 	 
H 	 -125.339 	 56.1149 	 -37.5818 	 
H 	 -123.835 	 55.2667 	 -37.6312 	 
H 	 -123.904 	 56.9554 	 -37.0363 	 
S 	 -117.761 	 58.8616 	 -38.0947 	 
C 	 -116.979 	 58.3212 	 -36.6155 	 
C 	 -117.815 	 58.3172 	 -35.5688 	 
C 	 -119.126 	 58.8744 	 -35.841 	 
C 	 -119.27 	 59.0883 	 -37.2168 	 
H 	 -117.636 	 57.9209 	 -34.5502 	 
C 	 -120.201 	 58.9401 	 -34.8522 	 
H 	 -121.192 	 58.6082 	 -35.2466 	 
H 	 -120.346 	 59.9918 	 -34.5502 	 
C 	 -120.06 	 58.3005 	 -33.5083 	 
H 	 -120.92 	 58.7347 	 -32.9386 	 
H 	 -119.185 	 58.5297 	 -32.9174 	 
C 	 -120.192 	 56.7358 	 -33.59 	 
H 	 -121.082 	 56.6272 	 -34.2277 	 
H 	 -120.352 	 56.2218 	 -32.6578 	 
H 	 -119.282 	 56.3342 	 -34.139 	 
H 	 -122.756 	 60.6142 	 -40.4267 	 
H 	 -115.972 	 57.9001 	 -36.664 	 
*
