! wB97X-D3 SP def2-SVP
%pal
nprocs 24
end

* xyz 0 1
S 	 -40.6471 	 -47.3208 	 -73.9175 	 
C 	 -41.2263 	 -48.4385 	 -75.1248 	 
C 	 -40.5519 	 -49.6222 	 -75.0475 	 
C 	 -39.5021 	 -49.5837 	 -74.0467 	 
C 	 -39.4525 	 -48.3757 	 -73.3616 	 
H 	 -38.7115 	 -50.3616 	 -73.8929 	 
C 	 -40.834 	 -50.7352 	 -76.0312 	 
H 	 -40.192 	 -51.4889 	 -75.7486 	 
H 	 -40.3562 	 -50.4878 	 -76.9872 	 
C 	 -42.3157 	 -51.1145 	 -76.2133 	 
H 	 -42.7032 	 -50.2413 	 -76.7743 	 
H 	 -42.3539 	 -51.9413 	 -76.9633 	 
C 	 -43.0178 	 -51.4838 	 -74.8029 	 
H 	 -43.4604 	 -50.6037 	 -74.3234 	 
H 	 -43.8141 	 -52.1901 	 -74.9764 	 
H 	 -42.364 	 -51.9949 	 -74.0678 	 
S 	 -39.2657 	 -48.4488 	 -70.6323 	 
C 	 -37.7487 	 -48.2267 	 -69.8434 	 
C 	 -36.7213 	 -47.9366 	 -70.6852 	 
C 	 -37.2142 	 -47.893 	 -72.0876 	 
C 	 -38.5841 	 -48.1884 	 -72.2202 	 
H 	 -35.7364 	 -47.7308 	 -70.2785 	 
C 	 -36.2291 	 -47.5587 	 -73.2454 	 
H 	 -35.7135 	 -46.5959 	 -72.9604 	 
H 	 -36.8061 	 -47.298 	 -74.128 	 
C 	 -35.3267 	 -48.7653 	 -73.6515 	 
H 	 -35.9994 	 -49.359 	 -74.2243 	 
H 	 -35.1075 	 -49.2697 	 -72.7519 	 
C 	 -34.133 	 -48.3605 	 -74.4747 	 
H 	 -33.8993 	 -49.1295 	 -75.2381 	 
H 	 -33.328 	 -48.0173 	 -73.9199 	 
H 	 -34.2742 	 -47.4231 	 -75.0289 	 
H 	 -41.9474 	 -48.1538 	 -75.8064 	 
H 	 -37.6001 	 -48.056 	 -68.8065 	 
*
