! wB97X-D3 SP def2-SVP
%pal
nprocs 24
end

* xyz 0 1
S 	 -89.625 	 -48.808 	 -73.0491 	 
C 	 -88.3272 	 -49.8025 	 -72.4479 	 
C 	 -87.6838 	 -50.4902 	 -73.4804 	 
C 	 -88.2154 	 -50.1529 	 -74.7868 	 
C 	 -89.3023 	 -49.2726 	 -74.6793 	 
H 	 -88.1116 	 -50.6146 	 -75.8017 	 
C 	 -86.4714 	 -51.4077 	 -73.3209 	 
H 	 -86.5633 	 -51.9589 	 -74.2133 	 
H 	 -86.7761 	 -52.0488 	 -72.533 	 
C 	 -85.0429 	 -50.7891 	 -73.0876 	 
H 	 -84.4992 	 -51.6856 	 -73.0981 	 
H 	 -84.8238 	 -50.1827 	 -73.9437 	 
C 	 -84.9378 	 -50.0174 	 -71.7204 	 
H 	 -84.9241 	 -50.7179 	 -70.8661 	 
H 	 -84.0143 	 -49.3915 	 -71.7508 	 
H 	 -85.7163 	 -49.3557 	 -71.4958 	 
S 	 -91.8135 	 -48.4478 	 -75.4706 	 
C 	 -92.1986 	 -48.3343 	 -77.1968 	 
C 	 -91.0528 	 -48.3304 	 -77.9279 	 
C 	 -89.8446 	 -48.614 	 -77.1665 	 
C 	 -90.1246 	 -48.824 	 -75.7982 	 
H 	 -91.0417 	 -48.2285 	 -79.0672 	 
C 	 -88.5238 	 -48.6082 	 -77.9535 	 
H 	 -88.7445 	 -48.1964 	 -78.9161 	 
H 	 -88.118 	 -49.6905 	 -78.0527 	 
C 	 -87.4406 	 -47.7285 	 -77.3593 	 
H 	 -87.115 	 -48.1606 	 -76.3631 	 
H 	 -87.9504 	 -46.7874 	 -77.1482 	 
C 	 -86.2586 	 -47.5764 	 -78.2379 	 
H 	 -86.4555 	 -47.0707 	 -79.1691 	 
H 	 -85.9154 	 -48.5431 	 -78.5201 	 
H 	 -85.3908 	 -47.0698 	 -77.8184 	 
H 	 -87.9748 	 -49.8839 	 -71.4308 	 
H 	 -93.1279 	 -48.0563 	 -77.6614 	 
*
