! wB97X-D3 SP def2-SVP
%pal
nprocs 24
end

* xyz 0 1
S 	 -134.901 	 68.821 	 -62.2694 	 
C 	 -136.083 	 69.6765 	 -63.2886 	 
C 	 -137.083 	 70.2245 	 -62.4716 	 
C 	 -136.86 	 69.9987 	 -61.1037 	 
C 	 -135.686 	 69.3388 	 -60.8006 	 
H 	 -137.51 	 70.4272 	 -60.3652 	 
C 	 -138.262 	 70.9332 	 -63.1494 	 
H 	 -139.159 	 70.7156 	 -62.6 	 
H 	 -138.501 	 70.4684 	 -64.123 	 
C 	 -138.209 	 72.4541 	 -63.3154 	 
H 	 -137.352 	 72.7888 	 -63.9012 	 
H 	 -139.134 	 72.7099 	 -63.8299 	 
C 	 -138.173 	 73.3024 	 -62.0975 	 
H 	 -137.487 	 72.8564 	 -61.3734 	 
H 	 -137.748 	 74.2476 	 -62.3012 	 
H 	 -139.172 	 73.3457 	 -61.6358 	 
S 	 -134.755 	 67.3587 	 -59.1541 	 
C 	 -134.667 	 67.6476 	 -57.4632 	 
C 	 -134.908 	 68.9553 	 -57.1198 	 
C 	 -135.296 	 69.7553 	 -58.2812 	 
C 	 -135.355 	 68.959 	 -59.4253 	 
H 	 -134.829 	 69.1339 	 -55.9994 	 
C 	 -135.589 	 71.2775 	 -58.204 	 
H 	 -136.645 	 71.5108 	 -58.3222 	 
H 	 -135.044 	 71.6872 	 -59.0727 	 
C 	 -135.095 	 71.9897 	 -56.9975 	 
H 	 -135.043 	 73.071 	 -57.2067 	 
H 	 -134.059 	 71.7356 	 -56.8507 	 
C 	 -135.925 	 71.8356 	 -55.676 	 
H 	 -136.347 	 70.874 	 -55.5792 	 
H 	 -136.828 	 72.5652 	 -55.7025 	 
H 	 -135.25 	 72.1859 	 -54.7867 	 
H 	 -136.131 	 69.672 	 -64.35 	 
H 	 -134.394 	 66.8719 	 -56.7896 	 
*
