! wB97X-D3 SP def2-SVP
%pal
nprocs 24
end

* xyz 0 1
S 	 -113.424 	 63.2112 	 -28.6739 	 
C 	 -113.275 	 62.446 	 -27.0987 	 
C 	 -114.402 	 62.6215 	 -26.2988 	 
C 	 -115.536 	 63.0776 	 -27.1114 	 
C 	 -115.196 	 63.3115 	 -28.4358 	 
H 	 -116.562 	 63.2233 	 -26.7537 	 
C 	 -114.582 	 62.0936 	 -24.8524 	 
H 	 -115.361 	 62.7072 	 -24.4173 	 
H 	 -113.67 	 62.3079 	 -24.3112 	 
C 	 -114.942 	 60.626 	 -24.7488 	 
H 	 -115.564 	 60.3702 	 -25.6581 	 
H 	 -114.095 	 60.0581 	 -25.0194 	 
C 	 -115.442 	 59.9342 	 -23.3624 	 
H 	 -116.189 	 60.5238 	 -22.828 	 
H 	 -115.852 	 58.9487 	 -23.5415 	 
H 	 -114.655 	 59.7185 	 -22.6408 	 
S 	 -116.423 	 65.0805 	 -30.1963 	 
C 	 -117.613 	 64.4671 	 -31.3307 	 
C 	 -117.851 	 63.0933 	 -31.2076 	 
C 	 -116.971 	 62.5391 	 -30.1171 	 
C 	 -116.186 	 63.51 	 -29.5093 	 
H 	 -118.665 	 62.681 	 -31.788 	 
C 	 -117.002 	 61.0272 	 -29.7417 	 
H 	 -117.886 	 60.6259 	 -30.0884 	 
H 	 -116.941 	 61.0567 	 -28.6891 	 
C 	 -115.777 	 60.2199 	 -30.1584 	 
H 	 -114.873 	 60.7728 	 -29.9689 	 
H 	 -115.843 	 60.0838 	 -31.2102 	 
C 	 -115.901 	 58.8494 	 -29.5224 	 
H 	 -116.86 	 58.3805 	 -29.7714 	 
H 	 -115.828 	 58.895 	 -28.3575 	 
H 	 -115.093 	 58.2232 	 -29.8443 	 
H 	 -112.409 	 62.0658 	 -26.6265 	 
H 	 -118.212 	 65.0246 	 -32.1206 	 
*
