! wB97X-D3 SP def2-SVP
%pal
nprocs 24
end

* xyz 0 1
S 	 -44.8927 	 28.8456 	 29.0205 	 
C 	 -46.5941 	 28.9965 	 29.3431 	 
C 	 -47.2557 	 27.8144 	 29.1602 	 
C 	 -46.4094 	 26.7469 	 28.9165 	 
C 	 -45.0641 	 27.1133 	 28.9111 	 
H 	 -46.6568 	 25.7199 	 28.9859 	 
C 	 -48.7917 	 27.4879 	 29.2202 	 
H 	 -49.0762 	 27.8633 	 30.1846 	 
H 	 -49.0097 	 26.4195 	 29.3819 	 
C 	 -49.7156 	 27.9944 	 27.9878 	 
H 	 -50.6997 	 27.5999 	 28.2052 	 
H 	 -49.7746 	 29.059 	 27.975 	 
C 	 -49.3082 	 27.3683 	 26.6451 	 
H 	 -49.0617 	 26.3476 	 26.7269 	 
H 	 -50.1448 	 27.4565 	 25.9326 	 
H 	 -48.3392 	 27.76 	 26.2591 	 
S 	 -43.2248 	 26.4048 	 27.0241 	 
C 	 -42.299 	 24.9367 	 27.2426 	 
C 	 -42.4871 	 24.4787 	 28.5428 	 
C 	 -43.4696 	 25.1779 	 29.3479 	 
C 	 -43.9318 	 26.2551 	 28.6541 	 
H 	 -41.902 	 23.5446 	 28.8996 	 
C 	 -44.0105 	 24.6741 	 30.6995 	 
H 	 -44.1996 	 23.5366 	 30.6861 	 
H 	 -44.9376 	 25.0754 	 31.0171 	 
C 	 -42.9543 	 24.9457 	 31.8723 	 
H 	 -42.3787 	 25.9217 	 31.8991 	 
H 	 -42.1941 	 24.203 	 31.7987 	 
C 	 -43.6373 	 24.8144 	 33.2938 	 
H 	 -44.1305 	 25.7387 	 33.5733 	 
H 	 -42.8943 	 24.6924 	 34.0511 	 
H 	 -44.2697 	 23.9922 	 33.5026 	 
H 	 -47.1451 	 29.9492 	 29.5972 	 
H 	 -41.5671 	 24.6181 	 26.4796 	 
*
