! wB97X-D3 SP def2-SVP
%pal
nprocs 24
end

* xyz 0 1
S 	 -102.259 	 24.0494 	 -112.597 	 
C 	 -102.469 	 22.6368 	 -113.589 	 
C 	 -103.806 	 22.2984 	 -113.752 	 
C 	 -104.65 	 23.1923 	 -113.028 	 
C 	 -103.962 	 24.2729 	 -112.49 	 
H 	 -105.737 	 23.2122 	 -112.935 	 
C 	 -104.224 	 21.0085 	 -114.536 	 
H 	 -104.035 	 21.1816 	 -115.573 	 
H 	 -105.295 	 20.8096 	 -114.443 	 
C 	 -103.589 	 19.6884 	 -114.06 	 
H 	 -103.982 	 18.8755 	 -114.565 	 
H 	 -102.54 	 19.8095 	 -114.21 	 
C 	 -103.809 	 19.4005 	 -112.561 	 
H 	 -103.565 	 18.334 	 -112.32 	 
H 	 -103.236 	 20.1409 	 -111.936 	 
H 	 -104.861 	 19.5541 	 -112.27 	 
S 	 -103.738 	 26.082 	 -110.354 	 
C 	 -104.879 	 27.3047 	 -110.045 	 
C 	 -105.944 	 27.1331 	 -110.911 	 
C 	 -105.788 	 26.1277 	 -111.922 	 
C 	 -104.584 	 25.3995 	 -111.799 	 
H 	 -106.785 	 27.7828 	 -110.878 	 
C 	 -106.871 	 25.7124 	 -112.902 	 
H 	 -106.41 	 25.086 	 -113.677 	 
H 	 -107.194 	 26.6074 	 -113.468 	 
C 	 -108.16 	 25.1907 	 -112.274 	 
H 	 -108.703 	 26.032 	 -111.793 	 
H 	 -107.99 	 24.4559 	 -111.527 	 
C 	 -109.063 	 24.513 	 -113.299 	 
H 	 -108.796 	 24.815 	 -114.289 	 
H 	 -110.076 	 24.6571 	 -113.192 	 
H 	 -108.867 	 23.4401 	 -113.281 	 
H 	 -101.649 	 22.0332 	 -113.84 	 
H 	 -104.753 	 28.0188 	 -109.242 	 
*
