! wB97X-D3 SP def2-SVP
%pal
nprocs 24
end

* xyz 0 1
S 	 -104.71 	 59.2729 	 -100.785 	 
C 	 -106.003 	 59.8277 	 -101.795 	 
C 	 -105.511 	 60.5795 	 -102.863 	 
C 	 -104.098 	 60.8146 	 -102.774 	 
C 	 -103.496 	 60.0031 	 -101.824 	 
H 	 -103.481 	 61.4559 	 -103.443 	 
C 	 -106.301 	 61.4099 	 -103.806 	 
H 	 -107.04 	 60.8753 	 -104.203 	 
H 	 -105.764 	 61.5521 	 -104.735 	 
C 	 -106.808 	 62.788 	 -103.13 	 
H 	 -105.958 	 63.4112 	 -103.002 	 
H 	 -107.569 	 63.2798 	 -103.853 	 
C 	 -107.511 	 62.6776 	 -101.769 	 
H 	 -108.5 	 62.2424 	 -101.855 	 
H 	 -106.919 	 62.0699 	 -101.108 	 
H 	 -107.529 	 63.7121 	 -101.42 	 
S 	 -101.665 	 59.9841 	 -99.7405 	 
C 	 -99.9299 	 59.9168 	 -100.112 	 
C 	 -99.7335 	 60.0086 	 -101.45 	 
C 	 -100.92 	 60.1395 	 -102.263 	 
C 	 -102.062 	 60.0374 	 -101.507 	 
H 	 -98.6955 	 60.0451 	 -101.797 	 
C 	 -100.907 	 60.1427 	 -103.773 	 
H 	 -99.8714 	 60.1421 	 -104.147 	 
H 	 -101.442 	 60.9937 	 -104.183 	 
C 	 -101.531 	 58.8812 	 -104.367 	 
H 	 -102.38 	 58.4395 	 -103.876 	 
H 	 -100.654 	 58.1461 	 -104.315 	 
C 	 -101.95 	 59.0564 	 -105.851 	 
H 	 -102.671 	 59.8019 	 -106.055 	 
H 	 -102.39 	 58.1425 	 -106.341 	 
H 	 -101.123 	 59.2726 	 -106.396 	 
H 	 -106.981 	 59.4358 	 -101.736 	 
H 	 -99.199 	 59.9958 	 -99.3324 	 
*
