! wB97X-D3 SP def2-SVP
%pal
nprocs 24
end

* xyz 0 1
S 	 -113.993 	 52.6789 	 -94.0509 	 
C 	 -113.701 	 53.5741 	 -95.4363 	 
C 	 -113.026 	 54.7291 	 -95.1487 	 
C 	 -112.936 	 54.8775 	 -93.689 	 
C 	 -113.443 	 53.8853 	 -92.9272 	 
H 	 -112.51 	 55.7866 	 -93.3326 	 
C 	 -112.661 	 55.7552 	 -96.2274 	 
H 	 -112.842 	 55.2008 	 -97.1493 	 
H 	 -111.58 	 56.0623 	 -96.1773 	 
C 	 -113.582 	 56.9994 	 -96.2416 	 
H 	 -114.517 	 56.5883 	 -95.8671 	 
H 	 -113.282 	 57.6061 	 -95.3937 	 
C 	 -113.689 	 57.7564 	 -97.5099 	 
H 	 -114.226 	 57.2611 	 -98.2248 	 
H 	 -114.452 	 58.6001 	 -97.283 	 
H 	 -112.684 	 58.0528 	 -97.9341 	 
S 	 -112.76 	 52.218 	 -90.7697 	 
C 	 -113.524 	 52.4815 	 -89.223 	 
C 	 -114.13 	 53.7565 	 -89.295 	 
C 	 -114.204 	 54.3703 	 -90.5384 	 
C 	 -113.591 	 53.6419 	 -91.5075 	 
H 	 -114.628 	 54.114 	 -88.4507 	 
C 	 -114.907 	 55.6682 	 -90.7422 	 
H 	 -115.756 	 55.7406 	 -90.1443 	 
H 	 -115.195 	 55.6855 	 -91.7444 	 
C 	 -114 	 56.9299 	 -90.5124 	 
H 	 -113.275 	 57.0393 	 -91.3252 	 
H 	 -113.431 	 56.6738 	 -89.6204 	 
C 	 -114.663 	 58.345 	 -90.3477 	 
H 	 -115.353 	 58.4837 	 -91.2198 	 
H 	 -113.958 	 59.1499 	 -90.5268 	 
H 	 -115.087 	 58.5287 	 -89.374 	 
H 	 -114.074 	 53.3253 	 -96.4584 	 
H 	 -113.384 	 51.7945 	 -88.353 	 
*
