! wB97X-D3 SP def2-SVP
%pal
nprocs 24
end

* xyz 0 1
S 	 -55.4942 	 1.54893 	 -30.9231 	 
C 	 -56.8318 	 1.11989 	 -31.9856 	 
C 	 -57.4914 	 2.22624 	 -32.555 	 
C 	 -56.7799 	 3.46104 	 -32.2186 	 
C 	 -55.8086 	 3.27524 	 -31.2298 	 
H 	 -57.0458 	 4.46506 	 -32.6311 	 
C 	 -58.718 	 2.09938 	 -33.4668 	 
H 	 -59.3413 	 2.99662 	 -33.429 	 
H 	 -59.3075 	 1.28893 	 -33.0006 	 
C 	 -58.471 	 1.87405 	 -35.0121 	 
H 	 -59.4647 	 2.04444 	 -35.5233 	 
H 	 -57.8336 	 2.68299 	 -35.3134 	 
C 	 -57.9054 	 0.533903 	 -35.2884 	 
H 	 -56.9544 	 0.357776 	 -34.6906 	 
H 	 -58.6052 	 -0.299358 	 -35.1131 	 
H 	 -57.5759 	 0.627513 	 -36.3593 	 
S 	 -53.2089 	 4.05276 	 -30.8589 	 
C 	 -52.8581 	 5.56414 	 -29.9697 	 
C 	 -54.022 	 6.21449 	 -29.5706 	 
C 	 -55.2298 	 5.58215 	 -30.0221 	 
C 	 -54.9654 	 4.29433 	 -30.6031 	 
H 	 -53.8697 	 7.09019 	 -29.0905 	 
C 	 -56.6425 	 6.10048 	 -29.7451 	 
H 	 -56.7483 	 6.55626 	 -28.795 	 
H 	 -57.3817 	 5.25011 	 -29.7241 	 
C 	 -57.1412 	 7.13162 	 -30.8005 	 
H 	 -57.0384 	 6.81778 	 -31.8388 	 
H 	 -56.5113 	 7.93653 	 -30.6833 	 
C 	 -58.5693 	 7.6252 	 -30.4979 	 
H 	 -59.4173 	 6.94564 	 -30.6199 	 
H 	 -58.8268 	 8.56822 	 -31.0006 	 
H 	 -58.5477 	 7.81081 	 -29.5085 	 
H 	 -57.2003 	 0.16567 	 -32.1935 	 
H 	 -51.8951 	 6.06678 	 -29.8203 	 
*
