! wB97X-D3 SP def2-SVP
%pal
nprocs 24
end

* xyz 0 1
S 	 -107.607 	 2.19305 	 -108.576 	 
C 	 -107.225 	 3.78341 	 -109.295 	 
C 	 -106.314 	 4.45857 	 -108.491 	 
C 	 -105.879 	 3.68034 	 -107.334 	 
C 	 -106.426 	 2.43925 	 -107.297 	 
H 	 -105.095 	 3.90698 	 -106.589 	 
C 	 -105.819 	 5.84816 	 -108.672 	 
H 	 -106.085 	 6.16744 	 -109.696 	 
H 	 -104.72 	 5.79053 	 -108.639 	 
C 	 -106.401 	 6.88483 	 -107.723 	 
H 	 -107.483 	 7.03699 	 -107.971 	 
H 	 -106.211 	 6.47529 	 -106.668 	 
C 	 -105.792 	 8.33283 	 -107.837 	 
H 	 -106.007 	 8.57361 	 -108.889 	 
H 	 -106.284 	 9.07017 	 -107.164 	 
H 	 -104.714 	 8.33679 	 -107.482 	 
S 	 -104.597 	 0.713868 	 -106.197 	 
C 	 -105.087 	 -0.26022 	 -104.795 	 
C 	 -106.409 	 -0.0305399 	 -104.4 	 
C 	 -107.067 	 0.90813 	 -105.307 	 
C 	 -106.196 	 1.40376 	 -106.308 	 
H 	 -106.743 	 -0.46217 	 -103.461 	 
C 	 -108.452 	 1.51912 	 -104.951 	 
H 	 -108.684 	 2.41873 	 -105.529 	 
H 	 -108.384 	 1.94246 	 -103.92 	 
C 	 -109.614 	 0.517911 	 -105.062 	 
H 	 -110.53 	 1.02419 	 -104.687 	 
H 	 -109.383 	 -0.332273 	 -104.389 	 
C 	 -109.939 	 -0.00886483 	 -106.425 	 
H 	 -111.005 	 0.118178 	 -106.709 	 
H 	 -109.672 	 -1.07502 	 -106.525 	 
H 	 -109.352 	 0.571639 	 -107.107 	 
H 	 -107.709 	 4.27324 	 -110.186 	 
H 	 -104.434 	 -0.776366 	 -104.115 	 
*
