! wB97X-D3 SP def2-SVP
%pal
nprocs 24
end

* xyz 0 1
S 	 -51.0006 	 -49.2495 	 -76.1333 	 
C 	 -52.1095 	 -47.9819 	 -75.6089 	 
C 	 -51.9357 	 -46.8006 	 -76.2569 	 
C 	 -51.0317 	 -46.9965 	 -77.3923 	 
C 	 -50.4134 	 -48.219 	 -77.4458 	 
H 	 -50.8315 	 -46.1911 	 -78.1021 	 
C 	 -52.6968 	 -45.5181 	 -75.9711 	 
H 	 -52.0915 	 -45.003 	 -75.2652 	 
H 	 -53.6339 	 -45.7276 	 -75.3747 	 
C 	 -52.9857 	 -44.5303 	 -77.2656 	 
H 	 -53.4761 	 -43.6494 	 -76.909 	 
H 	 -51.9609 	 -44.2013 	 -77.6394 	 
C 	 -53.9946 	 -45.2291 	 -78.2804 	 
H 	 -54.1851 	 -44.496 	 -79.087 	 
H 	 -53.4312 	 -46.1498 	 -78.6918 	 
H 	 -54.8504 	 -45.619 	 -77.7155 	 
S 	 -48.1637 	 -47.7896 	 -78.8029 	 
C 	 -47.4944 	 -48.9397 	 -79.9817 	 
C 	 -48.2794 	 -50.0583 	 -80.0003 	 
C 	 -49.4306 	 -49.9539 	 -79.1138 	 
C 	 -49.5835 	 -48.7269 	 -78.5028 	 
H 	 -47.804 	 -50.8709 	 -80.5866 	 
C 	 -50.4568 	 -51.0382 	 -79.1825 	 
H 	 -51.3232 	 -50.7051 	 -78.6266 	 
H 	 -50.0806 	 -51.8491 	 -78.5459 	 
C 	 -50.8564 	 -51.5736 	 -80.6179 	 
H 	 -50.0294 	 -51.9846 	 -81.142 	 
H 	 -50.9932 	 -50.7517 	 -81.1993 	 
C 	 -52.0174 	 -52.5456 	 -80.4997 	 
H 	 -52.8719 	 -52.179 	 -80.0468 	 
H 	 -51.6063 	 -53.3022 	 -79.7818 	 
H 	 -52.3223 	 -53.1036 	 -81.3567 	 
H 	 -52.7995 	 -48.1144 	 -74.7741 	 
H 	 -46.6073 	 -48.8253 	 -80.5538 	 
*
