! wB97X-D3 SP def2-SVP
%pal
nprocs 24
end

* xyz 0 1
S 	 -127.81 	 69.0175 	 -44.5968 	 
C 	 -129.24 	 69.5521 	 -43.7115 	 
C 	 -129.197 	 70.8407 	 -43.2992 	 
C 	 -127.95 	 71.4894 	 -43.8345 	 
C 	 -127.267 	 70.6869 	 -44.6645 	 
H 	 -127.812 	 72.5589 	 -43.8755 	 
C 	 -130.156 	 71.6064 	 -42.424 	 
H 	 -130.165 	 71.046 	 -41.4719 	 
H 	 -131.21 	 71.391 	 -42.8204 	 
C 	 -129.88 	 73.0385 	 -42.0973 	 
H 	 -129.04 	 73.1442 	 -41.4602 	 
H 	 -129.607 	 73.3922 	 -43.078 	 
C 	 -131.02 	 73.8612 	 -41.6778 	 
H 	 -131.838 	 73.9573 	 -42.4062 	 
H 	 -131.447 	 73.4128 	 -40.8099 	 
H 	 -130.799 	 74.937 	 -41.3781 	 
S 	 -124.651 	 69.8535 	 -45.0862 	 
C 	 -123.767 	 70.638 	 -46.366 	 
C 	 -124.375 	 71.8644 	 -46.7812 	 
C 	 -125.627 	 72.0622 	 -46.1415 	 
C 	 -125.976 	 71.0199 	 -45.2812 	 
H 	 -123.84 	 72.3927 	 -47.5411 	 
C 	 -126.629 	 73.1831 	 -46.6037 	 
H 	 -126.544 	 73.958 	 -45.8105 	 
H 	 -127.606 	 72.8366 	 -46.5736 	 
C 	 -126.46 	 73.6037 	 -48.0777 	 
H 	 -126.665 	 72.6615 	 -48.7304 	 
H 	 -125.466 	 73.9805 	 -48.3873 	 
C 	 -127.541 	 74.6243 	 -48.5 	 
H 	 -127.483 	 75.4031 	 -47.728 	 
H 	 -128.55 	 74.3193 	 -48.4826 	 
H 	 -127.276 	 75.1251 	 -49.4512 	 
H 	 -129.962 	 68.8567 	 -43.3316 	 
H 	 -122.791 	 70.3867 	 -46.7176 	 
*
