! wB97X-D3 SP def2-SVP
%pal
nprocs 24
end

* xyz 0 1
S 	 -53.1714 	 14.4857 	 23.5416 	 
C 	 -54.1552 	 13.2438 	 22.9862 	 
C 	 -55.4219 	 13.7417 	 22.6713 	 
C 	 -55.4588 	 15.1964 	 22.755 	 
C 	 -54.2379 	 15.7507 	 23.0982 	 
H 	 -56.3138 	 15.8184 	 22.5693 	 
C 	 -56.6743 	 12.9458 	 22.4336 	 
H 	 -57.347 	 13.169 	 23.215 	 
H 	 -56.4545 	 11.9032 	 22.5236 	 
C 	 -57.3757 	 13.1819 	 21.094 	 
H 	 -57.5601 	 14.2329 	 21.1142 	 
H 	 -56.7354 	 13.0412 	 20.3049 	 
C 	 -58.5937 	 12.3256 	 20.7872 	 
H 	 -58.1903 	 11.3663 	 20.5071 	 
H 	 -59.2124 	 12.3301 	 21.6773 	 
H 	 -59.1244 	 12.5729 	 19.913 	 
S 	 -53.9537 	 17.7191 	 25.0541 	 
C 	 -53.282 	 19.2784 	 24.607 	 
C 	 -53.2109 	 19.393 	 23.2377 	 
C 	 -53.7026 	 18.2969 	 22.5583 	 
C 	 -53.9271 	 17.1882 	 23.3743 	 
H 	 -52.7735 	 20.2878 	 22.7138 	 
C 	 -53.5996 	 18.3075 	 21.0359 	 
H 	 -53.4932 	 17.2135 	 20.8503 	 
H 	 -52.7552 	 18.8488 	 20.6618 	 
C 	 -54.8992 	 18.7869 	 20.3157 	 
H 	 -55.7285 	 18.2569 	 20.6949 	 
H 	 -54.8374 	 18.5857 	 19.2627 	 
C 	 -55.2755 	 20.2872 	 20.4316 	 
H 	 -54.6409 	 21.038 	 19.9048 	 
H 	 -55.3005 	 20.5538 	 21.4835 	 
H 	 -56.285 	 20.4509 	 19.9432 	 
H 	 -53.9516 	 12.2547 	 23.1707 	 
H 	 -53.0884 	 20.0565 	 25.3558 	 
*
