! wB97X-D3 SP def2-SVP
%pal
nprocs 24
end

* xyz 0 1
S 	 -144.347 	 1.8429 	 15.5106 	 
C 	 -144.404 	 1.46496 	 13.7753 	 
C 	 -144.449 	 2.66039 	 13.0904 	 
C 	 -144.395 	 3.82019 	 13.9381 	 
C 	 -144.348 	 3.51812 	 15.2605 	 
H 	 -144.363 	 4.7782 	 13.5787 	 
C 	 -144.385 	 2.77241 	 11.574 	 
H 	 -144.594 	 3.84298 	 11.2393 	 
H 	 -145.281 	 2.19202 	 11.1987 	 
C 	 -143.114 	 2.39686 	 10.9113 	 
H 	 -142.315 	 3.0216 	 11.3958 	 
H 	 -143.004 	 1.33706 	 11.1367 	 
C 	 -142.958 	 2.57555 	 9.37092 	 
H 	 -141.926 	 2.4168 	 9.16626 	 
H 	 -143.581 	 1.89975 	 8.66007 	 
H 	 -143.073 	 3.64374 	 9.08944 	 
S 	 -143.085 	 5.56827 	 16.4842 	 
C 	 -143.696 	 6.13718 	 17.9398 	 
C 	 -144.93 	 5.56595 	 18.3037 	 
C 	 -145.383 	 4.60261 	 17.2994 	 
C 	 -144.372 	 4.44712 	 16.3583 	 
H 	 -145.4 	 5.97045 	 19.0999 	 
C 	 -146.712 	 3.91717 	 17.37 	 
H 	 -147.336 	 4.24621 	 18.2308 	 
H 	 -146.682 	 2.82388 	 17.3477 	 
C 	 -147.599 	 4.3015 	 16.1496 	 
H 	 -147.003 	 4.54893 	 15.2699 	 
H 	 -148.239 	 5.18269 	 16.283 	 
C 	 -148.571 	 3.17084 	 15.8715 	 
H 	 -149.213 	 3.27174 	 15.0208 	 
H 	 -149.281 	 3.06719 	 16.7556 	 
H 	 -148.119 	 2.29457 	 15.6988 	 
H 	 -144.686 	 0.554985 	 13.3625 	 
H 	 -143.39 	 7.10384 	 18.4024 	 
*
