! wB97X-D3 SP def2-SVP
%pal
nprocs 24
end

* xyz 0 1
S 	 -66.3676 	 1.26971 	 -71.3997 	 
C 	 -65.8307 	 2.66413 	 -72.327 	 
C 	 -65.1868 	 2.21424 	 -73.4728 	 
C 	 -65.2211 	 0.806668 	 -73.6745 	 
C 	 -65.803 	 0.110838 	 -72.5924 	 
H 	 -64.7507 	 0.247726 	 -74.4558 	 
C 	 -64.7492 	 3.10696 	 -74.5269 	 
H 	 -64.4658 	 4.08717 	 -74.1684 	 
H 	 -65.6638 	 3.25191 	 -75.184 	 
C 	 -63.6204 	 2.5583 	 -75.4187 	 
H 	 -62.8687 	 2.06297 	 -74.7654 	 
H 	 -64.0377 	 1.7225 	 -76.0173 	 
C 	 -63.0068 	 3.65311 	 -76.2513 	 
H 	 -62.4292 	 4.36457 	 -75.683 	 
H 	 -62.3413 	 3.22094 	 -76.9255 	 
H 	 -63.6848 	 4.29495 	 -76.7674 	 
S 	 -65.8231 	 -2.29945 	 -73.9442 	 
C 	 -66.1052 	 -3.75129 	 -73.0515 	 
C 	 -66.1901 	 -3.52731 	 -71.6615 	 
C 	 -66.071 	 -2.14003 	 -71.3014 	 
C 	 -65.9343 	 -1.34278 	 -72.4524 	 
H 	 -66.2424 	 -4.29765 	 -70.9718 	 
C 	 -66.0553 	 -1.68319 	 -69.8703 	 
H 	 -66.4817 	 -2.52079 	 -69.2431 	 
H 	 -66.8063 	 -0.931241 	 -69.96 	 
C 	 -64.7143 	 -1.07501 	 -69.354 	 
H 	 -64.1892 	 -0.469812 	 -70.1182 	 
H 	 -64.1188 	 -1.95555 	 -69.0486 	 
C 	 -65.0126 	 -0.252175 	 -68.1099 	 
H 	 -64.0057 	 0.0210538 	 -67.6789 	 
H 	 -65.3693 	 -0.851064 	 -67.2716 	 
H 	 -65.5215 	 0.727525 	 -68.2649 	 
H 	 -65.8037 	 3.75392 	 -72.0683 	 
H 	 -66.2819 	 -4.74866 	 -73.5362 	 
*
