! wB97X-D3 SP def2-SVP
%pal
nprocs 24
end

* xyz 0 1
S 	 -37.9205 	 -48.9218 	 -73.6879 	 
C 	 -38.468 	 -47.4241 	 -73.0628 	 
C 	 -39.3399 	 -47.537 	 -71.9557 	 
C 	 -39.3315 	 -48.9056 	 -71.5406 	 
C 	 -38.5641 	 -49.7908 	 -72.2891 	 
H 	 -39.9422 	 -49.3674 	 -70.7331 	 
C 	 -40.4056 	 -46.5964 	 -71.3166 	 
H 	 -40.1788 	 -45.5345 	 -71.6036 	 
H 	 -40.3382 	 -46.5929 	 -70.2184 	 
C 	 -41.9096 	 -46.9895 	 -71.6525 	 
H 	 -42.058 	 -48.0411 	 -71.3205 	 
H 	 -42.5761 	 -46.5182 	 -71.0304 	 
C 	 -42.2308 	 -46.8355 	 -73.1112 	 
H 	 -43.1687 	 -47.156 	 -73.553 	 
H 	 -41.9956 	 -45.7717 	 -73.4281 	 
H 	 -41.4885 	 -47.2737 	 -73.7892 	 
S 	 -39.2313 	 -52.1987 	 -73.3147 	 
C 	 -38.7015 	 -53.6973 	 -72.6347 	 
C 	 -37.9884 	 -53.4724 	 -71.456 	 
C 	 -37.954 	 -52.0445 	 -71.1235 	 
C 	 -38.5025 	 -51.2455 	 -72.1124 	 
H 	 -37.75 	 -54.3176 	 -70.8286 	 
C 	 -37.3483 	 -51.4141 	 -69.8427 	 
H 	 -37.1698 	 -52.1401 	 -69.1011 	 
H 	 -38.0599 	 -50.8182 	 -69.3145 	 
C 	 -36.0082 	 -50.615 	 -70.0535 	 
H 	 -35.7797 	 -49.8173 	 -69.2793 	 
H 	 -36.103 	 -50.2144 	 -71.0285 	 
C 	 -34.8314 	 -51.555 	 -69.9044 	 
H 	 -34.7418 	 -51.9364 	 -68.884 	 
H 	 -33.9565 	 -50.9515 	 -70.0742 	 
H 	 -34.8109 	 -52.343 	 -70.6701 	 
H 	 -38.5046 	 -46.5807 	 -73.7443 	 
H 	 -38.843 	 -54.6871 	 -73.0283 	 
*
