! wB97X-D3 SP def2-SVP
%pal
nprocs 24
end

* xyz 0 1
S 	 -106.575 	 51.6607 	 -80.6517 	 
C 	 -107.201 	 52.3995 	 -82.1083 	 
C 	 -108.564 	 52.7761 	 -82.0326 	 
C 	 -109.148 	 52.1329 	 -80.8729 	 
C 	 -108.263 	 51.4861 	 -80.0704 	 
H 	 -110.204 	 52.1563 	 -80.5612 	 
C 	 -109.356 	 53.3994 	 -83.1838 	 
H 	 -109.353 	 54.4428 	 -83.0708 	 
H 	 -110.397 	 53.0645 	 -83.0313 	 
C 	 -108.823 	 53.0942 	 -84.6172 	 
H 	 -107.769 	 53.3612 	 -84.6229 	 
H 	 -108.895 	 52.0623 	 -84.9271 	 
C 	 -109.503 	 54.0363 	 -85.6402 	 
H 	 -109.166 	 53.7395 	 -86.6908 	 
H 	 -110.6 	 54.0941 	 -85.6079 	 
H 	 -109.186 	 55.0797 	 -85.5338 	 
S 	 -109.759 	 51.4369 	 -77.773 	 
C 	 -109.677 	 50.1015 	 -76.7984 	 
C 	 -108.96 	 49.0797 	 -77.3511 	 
C 	 -108.377 	 49.4021 	 -78.6109 	 
C 	 -108.619 	 50.6941 	 -78.9255 	 
H 	 -108.911 	 48.1895 	 -76.7938 	 
C 	 -107.438 	 48.4116 	 -79.3198 	 
H 	 -107.412 	 47.3981 	 -78.809 	 
H 	 -106.434 	 48.8862 	 -79.3342 	 
C 	 -107.924 	 48.1451 	 -80.7469 	 
H 	 -107.132 	 47.6094 	 -81.2839 	 
H 	 -108.109 	 49.0792 	 -81.2062 	 
C 	 -109.238 	 47.3624 	 -80.9536 	 
H 	 -110.047 	 47.497 	 -80.2544 	 
H 	 -109.026 	 46.3474 	 -80.7284 	 
H 	 -109.63 	 47.3457 	 -81.9731 	 
H 	 -106.499 	 52.6424 	 -82.8599 	 
H 	 -110.064 	 50.0245 	 -75.8173 	 
*
