! wB97X-D3 SP def2-SVP
%pal
nprocs 24
end

* xyz 0 1
S 	 -58.8009 	 -2.9499 	 -23.0135 	 
C 	 -58.5222 	 -3.51309 	 -24.6387 	 
C 	 -58.958 	 -2.65569 	 -25.5978 	 
C 	 -59.5957 	 -1.48883 	 -25.0444 	 
C 	 -59.575 	 -1.48735 	 -23.6712 	 
H 	 -60.1226 	 -0.661677 	 -25.6286 	 
C 	 -58.8368 	 -2.84829 	 -27.0933 	 
H 	 -57.7744 	 -3.01148 	 -27.3535 	 
H 	 -59.0705 	 -1.9715 	 -27.6234 	 
C 	 -59.7107 	 -3.9471 	 -27.703 	 
H 	 -59.858 	 -4.70757 	 -26.9387 	 
H 	 -60.7404 	 -3.5696 	 -27.9905 	 
C 	 -59.171 	 -4.48778 	 -29.0597 	 
H 	 -58.2136 	 -4.97628 	 -28.9627 	 
H 	 -59.9 	 -5.20138 	 -29.3686 	 
H 	 -59.0619 	 -3.75746 	 -29.9095 	 
S 	 -60.6567 	 -1.12951 	 -21.2364 	 
C 	 -61.4716 	 0.28388 	 -20.8015 	 
C 	 -61.255 	 1.20963 	 -21.7803 	 
C 	 -60.7059 	 0.736531 	 -23.0282 	 
C 	 -60.1871 	 -0.546273 	 -22.7928 	 
H 	 -61.7061 	 2.14079 	 -21.547 	 
C 	 -60.469 	 1.58487 	 -24.197 	 
H 	 -61.0742 	 2.47319 	 -24.056 	 
H 	 -60.9437 	 1.22141 	 -25.1037 	 
C 	 -58.9525 	 1.87124 	 -24.5083 	 
H 	 -58.8271 	 2.45917 	 -25.4503 	 
H 	 -58.5299 	 0.88772 	 -24.5836 	 
C 	 -58.2611 	 2.68089 	 -23.4531 	 
H 	 -58.8524 	 3.54108 	 -23.0369 	 
H 	 -57.2973 	 3.04538 	 -23.717 	 
H 	 -58.0262 	 2.10577 	 -22.583 	 
H 	 -57.9908 	 -4.40449 	 -24.883 	 
H 	 -61.9223 	 0.511383 	 -19.801 	 
*
