! wB97X-D3 SP def2-SVP
%pal
nprocs 24
end

* xyz 0 1
S 	 46.2726 	 -34.384 	 -119.887 	 
C 	 46.2314 	 -32.7264 	 -120.374 	 
C 	 45.8188 	 -31.9163 	 -119.319 	 
C 	 45.6662 	 -32.6833 	 -118.132 	 
C 	 45.9138 	 -34.0613 	 -118.294 	 
H 	 45.441 	 -32.2544 	 -117.174 	 
C 	 45.5555 	 -30.44 	 -119.266 	 
H 	 45.9693 	 -30.1638 	 -118.319 	 
H 	 44.5131 	 -30.1443 	 -119.379 	 
C 	 46.2901 	 -29.6082 	 -120.261 	 
H 	 47.3164 	 -29.9769 	 -120.399 	 
H 	 45.8389 	 -29.7166 	 -121.254 	 
C 	 46.3075 	 -28.1085 	 -119.976 	 
H 	 46.7503 	 -27.8563 	 -119.033 	 
H 	 46.9483 	 -27.6117 	 -120.738 	 
H 	 45.2459 	 -27.7256 	 -120.192 	 
S 	 47.4702 	 -35.9874 	 -117.245 	 
C 	 47.0657 	 -36.8189 	 -115.836 	 
C 	 45.8756 	 -36.4054 	 -115.327 	 
C 	 45.2337 	 -35.4181 	 -116.158 	 
C 	 46.0029 	 -35.0298 	 -117.211 	 
H 	 45.5677 	 -36.8745 	 -114.398 	 
C 	 43.8323 	 -34.9057 	 -115.883 	 
H 	 43.8926 	 -33.7953 	 -115.781 	 
H 	 43.4996 	 -35.4123 	 -114.998 	 
C 	 42.8094 	 -35.1175 	 -117.007 	 
H 	 42.7452 	 -36.1968 	 -117.219 	 
H 	 43.1975 	 -34.6513 	 -117.982 	 
C 	 41.4071 	 -34.5458 	 -116.711 	 
H 	 41.3362 	 -33.4304 	 -116.699 	 
H 	 41.2132 	 -34.7715 	 -115.671 	 
H 	 40.6324 	 -34.95 	 -117.397 	 
H 	 46.2352 	 -32.3254 	 -121.37 	 
H 	 47.7362 	 -37.5917 	 -115.477 	 
*
