! wB97X-D3 SP def2-SVP
%pal
nprocs 24
end

* xyz 0 1
S 	 -58.8947 	 14.7703 	 -99.3063 	 
C 	 -58.7802 	 16.3361 	 -98.5769 	 
C 	 -58.9493 	 16.1674 	 -97.1891 	 
C 	 -59.2472 	 14.8316 	 -96.8063 	 
C 	 -59.4054 	 13.9411 	 -97.8683 	 
H 	 -59.288 	 14.3798 	 -95.8495 	 
C 	 -58.6061 	 17.2221 	 -96.0833 	 
H 	 -59.1031 	 17.1104 	 -95.114 	 
H 	 -59.0958 	 18.1337 	 -96.4375 	 
C 	 -57.1835 	 17.6569 	 -95.8864 	 
H 	 -56.8872 	 18.0698 	 -96.8553 	 
H 	 -57.0917 	 18.4828 	 -95.145 	 
C 	 -56.3158 	 16.4525 	 -95.2844 	 
H 	 -56.2815 	 15.5883 	 -95.998 	 
H 	 -55.3006 	 16.7798 	 -94.9766 	 
H 	 -56.7096 	 16.12 	 -94.3719 	 
S 	 -60.5113 	 11.8824 	 -96.4919 	 
C 	 -60.3001 	 10.2211 	 -96.9111 	 
C 	 -59.4403 	 10.1983 	 -97.9407 	 
C 	 -58.9514 	 11.4066 	 -98.4981 	 
C 	 -59.5387 	 12.4806 	 -97.804 	 
H 	 -59.2087 	 9.20968 	 -98.2915 	 
C 	 -58.0153 	 11.5168 	 -99.7329 	 
H 	 -57.6637 	 12.5679 	 -99.7506 	 
H 	 -58.6173 	 11.4365 	 -100.589 	 
C 	 -56.8064 	 10.5832 	 -99.7363 	 
H 	 -56.3406 	 10.8281 	 -100.731 	 
H 	 -57.2649 	 9.57971 	 -99.7069 	 
C 	 -55.8657 	 10.7624 	 -98.4987 	 
H 	 -55.6473 	 11.8144 	 -98.2692 	 
H 	 -54.9168 	 10.143 	 -98.5254 	 
H 	 -56.4204 	 10.3053 	 -97.7096 	 
H 	 -58.6988 	 17.2916 	 -99.0489 	 
H 	 -60.877 	 9.41557 	 -96.3643 	 
*
