! wB97X-D3 SP def2-SVP
%pal
nprocs 24
end

* xyz 0 1
S 	 -50.8276 	 15.1571 	 29.348 	 
C 	 -51.9359 	 14.8212 	 28.0299 	 
C 	 -51.4414 	 13.9039 	 27.1256 	 
C 	 -50.2179 	 13.3472 	 27.5547 	 
C 	 -49.7258 	 13.8872 	 28.7375 	 
H 	 -49.6832 	 12.573 	 27.0213 	 
C 	 -52.113 	 13.6148 	 25.8331 	 
H 	 -51.4834 	 12.9096 	 25.2813 	 
H 	 -52.1412 	 14.5469 	 25.2827 	 
C 	 -53.5245 	 13.0709 	 26.011 	 
H 	 -53.3845 	 12.0316 	 26.126 	 
H 	 -54.1267 	 13.4895 	 26.7696 	 
C 	 -54.3251 	 13.2026 	 24.7003 	 
H 	 -53.8648 	 12.6243 	 23.8799 	 
H 	 -55.3332 	 12.9185 	 24.7239 	 
H 	 -54.4438 	 14.2523 	 24.412 	 
S 	 -48.4847 	 12.6035 	 30.8335 	 
C 	 -46.7742 	 12.6932 	 30.9789 	 
C 	 -46.1937 	 13.6004 	 30.0465 	 
C 	 -47.2161 	 14.1717 	 29.1337 	 
C 	 -48.4781 	 13.6938 	 29.4387 	 
H 	 -45.1679 	 13.8353 	 29.9528 	 
C 	 -46.8159 	 15.0877 	 28.0247 	 
H 	 -47.5426 	 15.0509 	 27.2209 	 
H 	 -45.8617 	 14.5616 	 27.6929 	 
C 	 -46.578 	 16.5741 	 28.3861 	 
H 	 -47.4917 	 16.9877 	 28.8871 	 
H 	 -46.428 	 17.1014 	 27.4582 	 
C 	 -45.3726 	 16.723 	 29.3949 	 
H 	 -44.8523 	 17.6356 	 29.2272 	 
H 	 -44.633 	 16.02 	 29.1701 	 
H 	 -45.6808 	 16.5421 	 30.4056 	 
H 	 -52.8826 	 15.3004 	 27.8728 	 
H 	 -46.2219 	 12.0391 	 31.6921 	 
*
