! wB97X-D3 SP def2-SVP
%pal
nprocs 24
end

* xyz 0 1
S 	 21.4583 	 -9.66794 	 -115.608 	 
C 	 22.8428 	 -9.67431 	 -114.551 	 
C 	 23.602 	 -8.53625 	 -114.584 	 
C 	 23.0558 	 -7.59061 	 -115.514 	 
C 	 21.9234 	 -8.09091 	 -116.146 	 
H 	 23.3977 	 -6.54605 	 -115.636 	 
C 	 24.6817 	 -8.18258 	 -113.614 	 
H 	 25.4713 	 -7.57921 	 -114.095 	 
H 	 25.2143 	 -9.10036 	 -113.264 	 
C 	 24.2445 	 -7.52812 	 -112.245 	 
H 	 24.065 	 -6.43393 	 -112.364 	 
H 	 23.2743 	 -7.99088 	 -111.946 	 
C 	 25.2438 	 -7.73865 	 -111.034 	 
H 	 24.8502 	 -7.34089 	 -110.035 	 
H 	 25.5147 	 -8.76122 	 -110.87 	 
H 	 26.1344 	 -7.27172 	 -111.356 	 
S 	 20.3389 	 -7.989 	 -118.391 	 
C 	 19.476 	 -6.52894 	 -118.778 	 
C 	 19.5738 	 -5.56134 	 -117.761 	 
C 	 20.4656 	 -5.98532 	 -116.717 	 
C 	 21.0397 	 -7.24126 	 -116.932 	 
H 	 19.0871 	 -4.54922 	 -117.711 	 
C 	 20.6138 	 -5.01174 	 -115.539 	 
H 	 21.2046 	 -5.56346 	 -114.846 	 
H 	 19.7077 	 -4.82924 	 -115.025 	 
C 	 21.2545 	 -3.651 	 -115.879 	 
H 	 20.4521 	 -2.96544 	 -116.197 	 
H 	 21.8532 	 -3.86809 	 -116.81 	 
C 	 22.0917 	 -3.15139 	 -114.751 	 
H 	 22.7572 	 -4.0246 	 -114.567 	 
H 	 21.4137 	 -3.04518 	 -113.854 	 
H 	 22.7573 	 -2.29424 	 -114.949 	 
H 	 22.9616 	 -10.4201 	 -113.759 	 
H 	 18.7266 	 -6.42691 	 -119.539 	 
*
