! wB97X-D3 SP def2-SVP
%pal
nprocs 24
end

* xyz 0 1
S 	 -95.7693 	 46.184 	 -90.5753 	 
C 	 -95.4709 	 44.4486 	 -90.1292 	 
C 	 -95.4539 	 43.6018 	 -91.2549 	 
C 	 -95.7911 	 44.4272 	 -92.4136 	 
C 	 -96.2029 	 45.7424 	 -92.1835 	 
H 	 -95.8771 	 44.0315 	 -93.3851 	 
C 	 -95.2707 	 42.0726 	 -91.261 	 
H 	 -95.631 	 41.8452 	 -92.3171 	 
H 	 -95.8809 	 41.5599 	 -90.5329 	 
C 	 -93.831 	 41.5584 	 -91.0294 	 
H 	 -93.4699 	 41.875 	 -90.0789 	 
H 	 -93.9446 	 40.4218 	 -91.0317 	 
C 	 -92.7944 	 41.9069 	 -92.1022 	 
H 	 -92.651 	 42.9298 	 -92.1153 	 
H 	 -91.7783 	 41.4336 	 -91.9895 	 
H 	 -92.9586 	 41.6985 	 -93.2245 	 
S 	 -95.8824 	 47.7741 	 -93.9838 	 
C 	 -97.0383 	 48.2143 	 -95.1781 	 
C 	 -98.1231 	 47.3369 	 -95.0176 	 
C 	 -98.0321 	 46.4253 	 -93.8711 	 
C 	 -96.8186 	 46.572 	 -93.2097 	 
H 	 -98.9782 	 47.3875 	 -95.6692 	 
C 	 -98.9723 	 45.3297 	 -93.6021 	 
H 	 -100.035 	 45.623 	 -93.5079 	 
H 	 -98.7815 	 44.8599 	 -92.6524 	 
C 	 -98.8894 	 44.0802 	 -94.4787 	 
H 	 -97.8401 	 43.9158 	 -94.7203 	 
H 	 -99.4127 	 44.2384 	 -95.4238 	 
C 	 -99.4381 	 42.8024 	 -93.7557 	 
H 	 -99.2254 	 41.9378 	 -94.3443 	 
H 	 -100.472 	 42.8164 	 -93.4565 	 
H 	 -98.9537 	 42.6739 	 -92.7958 	 
H 	 -95.3618 	 44.1314 	 -89.1273 	 
H 	 -96.9488 	 48.8018 	 -96.0817 	 
*
