! wB97X-D3 SP def2-SVP
%pal
nprocs 24
end

* xyz 0 1
S 	 28.0826 	 -8.10906 	 -118.742 	 
C 	 29.3681 	 -8.79749 	 -119.647 	 
C 	 30.6437 	 -8.5949 	 -119.074 	 
C 	 30.4968 	 -8.33569 	 -117.65 	 
C 	 29.1701 	 -8.0433 	 -117.347 	 
H 	 31.2359 	 -8.27473 	 -116.888 	 
C 	 31.9533 	 -8.85492 	 -119.718 	 
H 	 32.4214 	 -7.84971 	 -119.809 	 
H 	 31.7023 	 -9.21941 	 -120.718 	 
C 	 32.8765 	 -9.74912 	 -118.963 	 
H 	 33.8716 	 -9.65105 	 -119.386 	 
H 	 32.9738 	 -9.29072 	 -117.919 	 
C 	 32.463 	 -11.1942 	 -118.712 	 
H 	 33.0381 	 -11.6338 	 -117.891 	 
H 	 31.4057 	 -11.2267 	 -118.417 	 
H 	 32.5882 	 -11.743 	 -119.638 	 
S 	 27.51 	 -6.14983 	 -116.139 	 
C 	 27.32 	 -6.26512 	 -114.351 	 
C 	 28.122 	 -7.25459 	 -113.805 	 
C 	 28.8686 	 -7.99597 	 -114.798 	 
C 	 28.675 	 -7.50056 	 -116.086 	 
H 	 28.1914 	 -7.46376 	 -112.741 	 
C 	 29.7438 	 -9.17416 	 -114.439 	 
H 	 30.7027 	 -8.73712 	 -114.025 	 
H 	 29.9804 	 -9.75325 	 -115.392 	 
C 	 29.138 	 -10.2275 	 -113.441 	 
H 	 28.2612 	 -10.6873 	 -114.006 	 
H 	 28.6237 	 -9.75199 	 -112.575 	 
C 	 30.1574 	 -11.2405 	 -112.758 	 
H 	 30.2329 	 -12.226 	 -113.247 	 
H 	 29.8907 	 -11.3713 	 -111.711 	 
H 	 31.1368 	 -10.8563 	 -112.715 	 
H 	 29.2958 	 -8.87272 	 -120.738 	 
H 	 26.501 	 -5.90254 	 -113.756 	 
*
