! wB97X-D3 SP def2-SVP
%pal
nprocs 24
end

* xyz 0 1
S 	 -65.119 	 -48.4599 	 -88.0213 	 
C 	 -64.3854 	 -49.1842 	 -89.4443 	 
C 	 -64.604 	 -50.5605 	 -89.3942 	 
C 	 -65.4967 	 -50.867 	 -88.3777 	 
C 	 -65.7922 	 -49.861 	 -87.5277 	 
H 	 -66.027 	 -51.7062 	 -88.0578 	 
C 	 -63.9974 	 -51.5172 	 -90.3642 	 
H 	 -63.1272 	 -51.1443 	 -90.8633 	 
H 	 -64.6655 	 -51.6532 	 -91.2852 	 
C 	 -63.5126 	 -52.8277 	 -89.7966 	 
H 	 -62.5291 	 -52.77 	 -89.3003 	 
H 	 -64.1637 	 -53.1599 	 -89.0083 	 
C 	 -63.2578 	 -53.8228 	 -90.9962 	 
H 	 -64.1474 	 -54.0848 	 -91.6062 	 
H 	 -62.534 	 -53.5681 	 -91.777 	 
H 	 -62.9796 	 -54.7387 	 -90.4974 	 
S 	 -65.9411 	 -49.2809 	 -84.9347 	 
C 	 -67.2685 	 -49.7871 	 -83.9348 	 
C 	 -68.2968 	 -50.2998 	 -84.7268 	 
C 	 -67.8744 	 -50.5259 	 -86.0694 	 
C 	 -66.6559 	 -49.9416 	 -86.3619 	 
H 	 -69.2381 	 -50.6021 	 -84.3024 	 
C 	 -68.7457 	 -51.3279 	 -87.0379 	 
H 	 -69.3607 	 -51.8975 	 -86.4352 	 
H 	 -68.2227 	 -51.9985 	 -87.6965 	 
C 	 -69.5931 	 -50.4837 	 -88.0003 	 
H 	 -68.958 	 -50.0039 	 -88.7448 	 
H 	 -70.0694 	 -49.6908 	 -87.4401 	 
C 	 -70.5715 	 -51.3973 	 -88.7299 	 
H 	 -71.1371 	 -52.1269 	 -88.1062 	 
H 	 -70.1012 	 -52.0385 	 -89.437 	 
H 	 -71.279 	 -50.7966 	 -89.2674 	 
H 	 -63.6696 	 -48.6833 	 -90.1439 	 
H 	 -67.3316 	 -49.8465 	 -82.8156 	 
*
