! wB97X-D3 SP def2-SVP
%pal
nprocs 24
end

* xyz 0 1
S 	 48.9184 	 -24.4173 	 -117.241 	 
C 	 47.3338 	 -24.572 	 -117.897 	 
C 	 46.6715 	 -23.3767 	 -117.883 	 
C 	 47.4253 	 -22.3154 	 -117.306 	 
C 	 48.6983 	 -22.7294 	 -116.87 	 
H 	 47.1491 	 -21.3059 	 -116.996 	 
C 	 45.2781 	 -23.0803 	 -118.45 	 
H 	 44.8392 	 -24.0817 	 -118.764 	 
H 	 45.2287 	 -22.4657 	 -119.352 	 
C 	 44.2458 	 -22.4687 	 -117.461 	 
H 	 44.2542 	 -21.3253 	 -117.427 	 
H 	 43.322 	 -22.7011 	 -117.986 	 
C 	 44.3432 	 -22.9407 	 -116.011 	 
H 	 45.1869 	 -22.4572 	 -115.495 	 
H 	 43.5304 	 -22.7378 	 -115.403 	 
H 	 44.477 	 -23.9755 	 -116.025 	 
S 	 50.9942 	 -21.3063 	 -117.168 	 
C 	 51.8256 	 -20.802 	 -115.767 	 
C 	 51.0176 	 -20.889 	 -114.653 	 
C 	 49.7053 	 -21.4155 	 -114.898 	 
C 	 49.6831 	 -21.9368 	 -116.197 	 
H 	 51.4226 	 -20.7355 	 -113.731 	 
C 	 48.6212 	 -21.5899 	 -113.839 	 
H 	 47.7593 	 -21.0956 	 -114.29 	 
H 	 48.7998 	 -21.1217 	 -112.962 	 
C 	 48.2423 	 -23.0393 	 -113.461 	 
H 	 49.0782 	 -23.6736 	 -113.183 	 
H 	 47.8174 	 -23.4721 	 -114.322 	 
C 	 47.1756 	 -23.0931 	 -112.385 	 
H 	 46.4187 	 -22.338 	 -112.418 	 
H 	 47.6105 	 -22.9623 	 -111.369 	 
H 	 46.7163 	 -24.059 	 -112.173 	 
H 	 46.8469 	 -25.5221 	 -117.967 	 
H 	 52.8595 	 -20.579 	 -115.636 	 
*
