! wB97X-D3 SP def2-SVP
%pal
nprocs 24
end

* xyz 0 1
S 	 -78.7385 	 -6.96079 	 -58.8995 	 
C 	 -78.882 	 -7.1766 	 -57.1609 	 
C 	 -79.788 	 -6.28335 	 -56.5936 	 
C 	 -80.4588 	 -5.54586 	 -57.6334 	 
C 	 -80.0989 	 -5.85117 	 -58.8763 	 
H 	 -81.2373 	 -4.81813 	 -57.5034 	 
C 	 -80.0615 	 -6.24387 	 -55.1338 	 
H 	 -80.38 	 -5.29766 	 -54.7381 	 
H 	 -79.1004 	 -6.41057 	 -54.7227 	 
C 	 -80.934 	 -7.43675 	 -54.6144 	 
H 	 -81.9336 	 -7.10642 	 -54.6817 	 
H 	 -80.9794 	 -8.40229 	 -55.2126 	 
C 	 -80.4973 	 -7.81249 	 -53.1742 	 
H 	 -81.3632 	 -8.1432 	 -52.7409 	 
H 	 -79.8672 	 -8.68644 	 -53.2565 	 
H 	 -80.1874 	 -6.95693 	 -52.5179 	 
S 	 -79.495 	 -4.14031 	 -60.9739 	 
C 	 -80.8184 	 -3.70878 	 -62.1088 	 
C 	 -82.01 	 -4.27924 	 -61.7434 	 
C 	 -81.8929 	 -5.2348 	 -60.6769 	 
C 	 -80.5721 	 -5.24268 	 -60.16 	 
H 	 -82.905 	 -4.01343 	 -62.2538 	 
C 	 -83.0465 	 -6.0791 	 -60.1836 	 
H 	 -82.8142 	 -6.38288 	 -59.1982 	 
H 	 -83.1108 	 -6.93969 	 -60.6862 	 
C 	 -84.4541 	 -5.31528 	 -60.1048 	 
H 	 -84.8527 	 -5.31353 	 -61.0747 	 
H 	 -84.547 	 -4.23919 	 -59.7886 	 
C 	 -85.4734 	 -6.06661 	 -59.2425 	 
H 	 -86.4128 	 -5.52614 	 -59.2741 	 
H 	 -85.2541 	 -6.07231 	 -58.1771 	 
H 	 -85.7506 	 -7.11844 	 -59.6193 	 
H 	 -78.404 	 -7.92903 	 -56.5535 	 
H 	 -80.5786 	 -2.90458 	 -62.7939 	 
*
