! wB97X-D3 SP def2-SVP
%pal
nprocs 24
end

* xyz 0 1
S 	 -83.3786 	 -34.2861 	 -77.5077 	 
C 	 -82.3968 	 -34.8108 	 -78.9493 	 
C 	 -82.6636 	 -33.9802 	 -80.062 	 
C 	 -83.6088 	 -32.9753 	 -79.7533 	 
C 	 -83.9613 	 -32.9349 	 -78.4161 	 
H 	 -84.0601 	 -32.2288 	 -80.4195 	 
C 	 -82.0691 	 -34.0932 	 -81.438 	 
H 	 -82.8737 	 -34.4691 	 -82.1018 	 
H 	 -81.3809 	 -34.9415 	 -81.3736 	 
C 	 -81.4844 	 -32.7959 	 -82.0195 	 
H 	 -81.1439 	 -32.9878 	 -83.0406 	 
H 	 -82.2985 	 -32.0637 	 -82.1284 	 
C 	 -80.4164 	 -32.2131 	 -81.0483 	 
H 	 -80.9155 	 -31.6614 	 -80.2221 	 
H 	 -79.7234 	 -32.9347 	 -80.6422 	 
H 	 -79.7768 	 -31.3944 	 -81.5248 	 
S 	 -86.4326 	 -32.7469 	 -77.0583 	 
C 	 -86.6757 	 -31.2799 	 -76.192 	 
C 	 -85.8606 	 -30.2435 	 -76.6484 	 
C 	 -84.7662 	 -30.6947 	 -77.4021 	 
C 	 -84.9165 	 -32.0757 	 -77.7074 	 
H 	 -86.0836 	 -29.2623 	 -76.2722 	 
C 	 -83.6209 	 -29.7949 	 -77.7404 	 
H 	 -83.9371 	 -28.7613 	 -77.6118 	 
H 	 -83.4091 	 -30.0802 	 -78.8191 	 
C 	 -82.3724 	 -29.9678 	 -76.8905 	 
H 	 -82.0148 	 -30.9606 	 -77.065 	 
H 	 -82.579 	 -29.9713 	 -75.8624 	 
C 	 -81.2176 	 -28.9629 	 -77.1352 	 
H 	 -81.0457 	 -28.5737 	 -78.1643 	 
H 	 -80.2707 	 -29.3594 	 -76.7824 	 
H 	 -81.3614 	 -28.016 	 -76.5809 	 
H 	 -81.5956 	 -35.5629 	 -79.0474 	 
H 	 -87.389 	 -31.1219 	 -75.4464 	 
*
