! wB97X-D3 SP def2-SVP
%pal
nprocs 24
end

* xyz 0 1
S 	 -130.225 	 8.80099 	 -9.3355 	 
C 	 -129.201 	 7.35986 	 -9.05767 	 
C 	 -128.305 	 7.60235 	 -8.04799 	 
C 	 -128.656 	 8.80946 	 -7.34185 	 
C 	 -129.726 	 9.5095 	 -7.87663 	 
H 	 -128.199 	 9.21265 	 -6.43035 	 
C 	 -127.139 	 6.77741 	 -7.64613 	 
H 	 -126.247 	 7.36303 	 -7.62247 	 
H 	 -127.017 	 5.97109 	 -8.32373 	 
C 	 -127.28 	 6.05956 	 -6.27657 	 
H 	 -126.444 	 5.37567 	 -6.26257 	 
H 	 -127.017 	 6.84313 	 -5.55775 	 
C 	 -128.583 	 5.37214 	 -5.932 	 
H 	 -129.35 	 6.0355 	 -5.50533 	 
H 	 -128.872 	 4.97925 	 -6.93763 	 
H 	 -128.314 	 4.56176 	 -5.27026 	 
S 	 -130.219 	 10.9366 	 -5.55146 	 
C 	 -130.59 	 12.6603 	 -5.73476 	 
C 	 -131.066 	 12.9668 	 -6.99724 	 
C 	 -130.846 	 11.9159 	 -7.96367 	 
C 	 -130.328 	 10.7618 	 -7.31579 	 
H 	 -131.379 	 13.9941 	 -7.28827 	 
C 	 -130.928 	 12.2173 	 -9.46902 	 
H 	 -131.818 	 11.6707 	 -9.79268 	 
H 	 -130.021 	 11.758 	 -9.90291 	 
C 	 -131.129 	 13.6649 	 -9.81358 	 
H 	 -130.411 	 14.3044 	 -9.2427 	 
H 	 -132.141 	 13.8058 	 -9.43861 	 
C 	 -131.07 	 14.009 	 -11.3591 	 
H 	 -130.883 	 15.0455 	 -11.6306 	 
H 	 -131.995 	 13.7255 	 -11.9151 	 
H 	 -130.284 	 13.514 	 -11.9051 	 
H 	 -129.013 	 6.56203 	 -9.75175 	 
H 	 -130.716 	 13.3987 	 -5.01421 	 
*
