! wB97X-D3 SP def2-SVP
%pal
nprocs 24
end

* xyz 0 1
S 	 -59.0182 	 -0.608468 	 -32.8974 	 
C 	 -59.7044 	 -0.663015 	 -31.3122 	 
C 	 -59.5586 	 0.577979 	 -30.6794 	 
C 	 -58.86 	 1.54609 	 -31.5195 	 
C 	 -58.3439 	 0.972689 	 -32.6847 	 
H 	 -58.6359 	 2.53395 	 -31.1901 	 
C 	 -60.0135 	 1.07873 	 -29.2765 	 
H 	 -59.2998 	 1.77059 	 -28.8135 	 
H 	 -59.9694 	 0.234794 	 -28.58 	 
C 	 -61.4229 	 1.77304 	 -29.0314 	 
H 	 -62.1352 	 1.00594 	 -28.9311 	 
H 	 -61.4397 	 2.34659 	 -28.1343 	 
C 	 -61.8001 	 2.67778 	 -30.2057 	 
H 	 -62.0166 	 2.04742 	 -31.0961 	 
H 	 -62.722 	 3.18222 	 -29.8865 	 
H 	 -61.0445 	 3.32402 	 -30.634 	 
S 	 -57.6762 	 1.01426 	 -35.3977 	 
C 	 -56.3719 	 2.033 	 -35.8552 	 
C 	 -55.8614 	 2.7486 	 -34.8043 	 
C 	 -56.4313 	 2.43714 	 -33.4891 	 
C 	 -57.4566 	 1.48899 	 -33.7144 	 
H 	 -54.9428 	 3.33821 	 -34.8196 	 
C 	 -55.8678 	 2.92378 	 -32.1473 	 
H 	 -54.881 	 2.49586 	 -32.1906 	 
H 	 -56.2724 	 2.28741 	 -31.3397 	 
C 	 -55.937 	 4.39063 	 -31.8194 	 
H 	 -56.0332 	 4.52447 	 -30.6924 	 
H 	 -56.9356 	 4.74144 	 -32.2623 	 
C 	 -54.7912 	 5.17895 	 -32.3605 	 
H 	 -54.8953 	 5.26981 	 -33.4547 	 
H 	 -53.8828 	 4.68155 	 -32.1408 	 
H 	 -54.7686 	 6.17617 	 -31.92 	 
H 	 -59.9912 	 -1.58273 	 -30.7642 	 
H 	 -55.9484 	 2.15824 	 -36.8645 	 
*
