! wB97X-D3 SP def2-SVP
%pal
nprocs 24
end

* xyz 0 1
S 	 -125.347 	 65.0309 	 -48.9342 	 
C 	 -125.102 	 66.7775 	 -48.8433 	 
C 	 -125.967 	 67.447 	 -49.6644 	 
C 	 -126.987 	 66.5816 	 -50.1748 	 
C 	 -126.715 	 65.2306 	 -50.0476 	 
H 	 -127.788 	 66.9468 	 -50.8066 	 
C 	 -125.904 	 68.9043 	 -50.0688 	 
H 	 -126.924 	 69.3309 	 -49.8994 	 
H 	 -125.539 	 69.0068 	 -51.1022 	 
C 	 -124.943 	 69.7742 	 -49.1971 	 
H 	 -125.328 	 69.7346 	 -48.2068 	 
H 	 -123.927 	 69.473 	 -49.3118 	 
C 	 -125.058 	 71.2555 	 -49.5461 	 
H 	 -124.272 	 71.778 	 -48.9701 	 
H 	 -124.79 	 71.4042 	 -50.5819 	 
H 	 -126.025 	 71.6478 	 -49.1965 	 
S 	 -126.146 	 63.4128 	 -52.0566 	 
C 	 -127.489 	 62.5704 	 -52.7708 	 
C 	 -128.716 	 62.8462 	 -52.1083 	 
C 	 -128.577 	 63.7105 	 -50.9307 	 
C 	 -127.219 	 64.16 	 -50.8592 	 
H 	 -129.604 	 62.3977 	 -52.4677 	 
C 	 -129.793 	 64.1937 	 -50.04 	 
H 	 -129.549 	 65.1926 	 -49.7741 	 
H 	 -129.946 	 63.6702 	 -49.1326 	 
C 	 -131.169 	 64.0763 	 -50.7615 	 
H 	 -131.413 	 63.0405 	 -50.6703 	 
H 	 -131.017 	 64.2594 	 -51.8627 	 
C 	 -132.428 	 64.8657 	 -50.2861 	 
H 	 -132.324 	 65.9462 	 -50.104 	 
H 	 -132.706 	 64.3378 	 -49.3353 	 
H 	 -133.197 	 64.7487 	 -51.0861 	 
H 	 -124.209 	 67.2489 	 -48.3884 	 
H 	 -127.408 	 61.8585 	 -53.6282 	 
*
