! wB97X-D3 SP def2-SVP
%pal
nprocs 24
end

* xyz 0 1
S 	 -110.604 	 47.7861 	 -111.486 	 
C 	 -110.123 	 47.6718 	 -113.196 	 
C 	 -110.74 	 48.7129 	 -113.886 	 
C 	 -111.474 	 49.5837 	 -113.048 	 
C 	 -111.614 	 49.1557 	 -111.727 	 
H 	 -111.896 	 50.5044 	 -113.263 	 
C 	 -110.464 	 49.2054 	 -115.288 	 
H 	 -111.064 	 50.1685 	 -115.431 	 
H 	 -110.869 	 48.5568 	 -116.011 	 
C 	 -108.962 	 49.4293 	 -115.605 	 
H 	 -108.462 	 48.5079 	 -115.317 	 
H 	 -108.827 	 49.586 	 -116.703 	 
C 	 -108.358 	 50.7433 	 -115.044 	 
H 	 -107.32 	 50.8823 	 -115.11 	 
H 	 -108.827 	 51.5385 	 -115.629 	 
H 	 -108.545 	 50.9817 	 -114.029 	 
S 	 -111.358 	 49.9744 	 -109.126 	 
C 	 -112.622 	 50.8596 	 -108.347 	 
C 	 -113.569 	 51.2401 	 -109.271 	 
C 	 -113.414 	 50.6078 	 -110.576 	 
C 	 -112.267 	 49.8444 	 -110.668 	 
H 	 -114.297 	 52.0087 	 -108.997 	 
C 	 -114.311 	 51.0429 	 -111.683 	 
H 	 -115.312 	 51.0342 	 -111.265 	 
H 	 -114.249 	 50.2351 	 -112.398 	 
C 	 -113.9 	 52.3711 	 -112.381 	 
H 	 -114.191 	 52.4615 	 -113.453 	 
H 	 -112.815 	 52.4582 	 -112.474 	 
C 	 -114.449 	 53.5114 	 -111.687 	 
H 	 -115.589 	 53.4513 	 -111.741 	 
H 	 -114.16 	 54.3519 	 -112.155 	 
H 	 -114.099 	 53.5488 	 -110.585 	 
H 	 -109.418 	 46.9697 	 -113.69 	 
H 	 -112.62 	 51.1551 	 -107.287 	 
*
