! wB97X-D3 SP def2-SVP
%pal
nprocs 24
end

* xyz 0 1
S 	 -49.6787 	 5.26613 	 -20.8752 	 
C 	 -50.6054 	 3.82968 	 -20.8484 	 
C 	 -51.3442 	 3.6861 	 -19.7024 	 
C 	 -50.9303 	 4.66051 	 -18.7066 	 
C 	 -49.9409 	 5.48464 	 -19.1496 	 
H 	 -51.2595 	 4.80023 	 -17.6797 	 
C 	 -52.3521 	 2.54779 	 -19.4847 	 
H 	 -52.053 	 1.60721 	 -20.0117 	 
H 	 -53.3853 	 2.79291 	 -19.9029 	 
C 	 -52.4073 	 2.11709 	 -17.9946 	 
H 	 -51.4175 	 1.91527 	 -17.6235 	 
H 	 -52.6911 	 3.01744 	 -17.4147 	 
C 	 -53.2222 	 0.857171 	 -17.8408 	 
H 	 -53.3852 	 0.470755 	 -16.8124 	 
H 	 -54.1984 	 0.91297 	 -18.3897 	 
H 	 -52.7789 	 0.0916985 	 -18.4358 	 
S 	 -49.2883 	 8.1592 	 -19.398 	 
C 	 -49.0398 	 9.11328 	 -17.966 	 
C 	 -48.9544 	 8.30929 	 -16.8424 	 
C 	 -49.3016 	 6.94456 	 -17.1146 	 
C 	 -49.5427 	 6.68471 	 -18.4466 	 
H 	 -48.7862 	 8.73987 	 -15.8457 	 
C 	 -49.2607 	 5.97266 	 -15.9558 	 
H 	 -50.175 	 5.51779 	 -15.9784 	 
H 	 -49.1672 	 6.55639 	 -14.9449 	 
C 	 -48.1788 	 4.86748 	 -15.9425 	 
H 	 -48.3868 	 4.11667 	 -16.6587 	 
H 	 -48.0651 	 4.35015 	 -15.021 	 
C 	 -46.8007 	 5.4431 	 -16.3468 	 
H 	 -46.501 	 6.19834 	 -15.6537 	 
H 	 -46.7948 	 5.90751 	 -17.356 	 
H 	 -45.9534 	 4.72212 	 -16.2917 	 
H 	 -50.6173 	 3.10654 	 -21.6304 	 
H 	 -49.2216 	 10.2239 	 -17.8409 	 
*
