! wB97X-D3 SP def2-SVP
%pal
nprocs 24
end

* xyz 0 1
S 	 -70.6435 	 -47.2944 	 -89.6798 	 
C 	 -70.1746 	 -46.6823 	 -91.2341 	 
C 	 -68.92 	 -47.1675 	 -91.5905 	 
C 	 -68.3078 	 -47.9861 	 -90.6349 	 
C 	 -69.1896 	 -48.1972 	 -89.5961 	 
H 	 -67.3713 	 -48.4118 	 -90.706 	 
C 	 -68.4322 	 -46.763 	 -92.9598 	 
H 	 -68.7465 	 -45.7024 	 -93.2177 	 
H 	 -69.0099 	 -47.5095 	 -93.5526 	 
C 	 -66.9117 	 -46.8837 	 -93.0287 	 
H 	 -66.4035 	 -46.1126 	 -92.4394 	 
H 	 -66.5496 	 -47.8323 	 -92.7146 	 
C 	 -66.519 	 -46.6391 	 -94.4885 	 
H 	 -67.1134 	 -47.186 	 -95.1443 	 
H 	 -66.5873 	 -45.5779 	 -94.8259 	 
H 	 -65.5606 	 -46.9984 	 -94.8128 	 
S 	 -68.4337 	 -48.0725 	 -86.8591 	 
C 	 -68.4887 	 -49.5619 	 -85.9637 	 
C 	 -68.6903 	 -50.6267 	 -86.7112 	 
C 	 -69.0856 	 -50.3052 	 -88.104 	 
C 	 -68.9108 	 -48.9427 	 -88.4012 	 
H 	 -68.7642 	 -51.6228 	 -86.27 	 
C 	 -69.4713 	 -51.461 	 -89.039 	 
H 	 -68.766 	 -52.3263 	 -88.9801 	 
H 	 -69.329 	 -51.1979 	 -90.1053 	 
C 	 -70.9392 	 -51.8679 	 -88.9196 	 
H 	 -71.1368 	 -52.5001 	 -89.7238 	 
H 	 -71.3579 	 -50.8811 	 -89.1402 	 
C 	 -71.279 	 -52.3082 	 -87.515 	 
H 	 -70.5507 	 -53.1406 	 -87.2559 	 
H 	 -72.2482 	 -52.702 	 -87.475 	 
H 	 -71.2258 	 -51.5419 	 -86.785 	 
H 	 -70.6628 	 -45.9438 	 -91.8726 	 
H 	 -68.1172 	 -49.7539 	 -84.9368 	 
*
