! wB97X-D3 SP def2-SVP
%pal
nprocs 24
end

* xyz 0 1
S 	 -109.051 	 68.2093 	 -7.68991 	 
C 	 -108.17 	 69.6513 	 -7.80119 	 
C 	 -106.857 	 69.3846 	 -8.29192 	 
C 	 -106.716 	 68.0365 	 -8.75338 	 
C 	 -107.887 	 67.3262 	 -8.631 	 
H 	 -105.819 	 67.6033 	 -9.12301 	 
C 	 -105.776 	 70.4128 	 -8.40395 	 
H 	 -104.819 	 69.9587 	 -8.04358 	 
H 	 -106.158 	 71.0997 	 -7.71387 	 
C 	 -105.515 	 71.0499 	 -9.77538 	 
H 	 -105.101 	 70.285 	 -10.4171 	 
H 	 -106.485 	 71.3881 	 -10.2001 	 
C 	 -104.538 	 72.2554 	 -9.74288 	 
H 	 -104.375 	 72.6854 	 -10.7048 	 
H 	 -104.904 	 72.9488 	 -9.07623 	 
H 	 -103.458 	 72.0454 	 -9.43092 	 
S 	 -108.397 	 64.758 	 -7.65782 	 
C 	 -108.305 	 63.415 	 -8.71821 	 
C 	 -108.035 	 63.791 	 -9.97403 	 
C 	 -107.654 	 65.1745 	 -10.082 	 
C 	 -108.041 	 65.8765 	 -8.92445 	 
H 	 -107.866 	 63.1147 	 -10.7712 	 
C 	 -107.161 	 65.7164 	 -11.4232 	 
H 	 -106.473 	 65.0266 	 -11.8845 	 
H 	 -106.518 	 66.5304 	 -11.2089 	 
C 	 -108.169 	 66.3642 	 -12.4308 	 
H 	 -108.705 	 65.5578 	 -12.8675 	 
H 	 -107.596 	 66.8958 	 -13.1307 	 
C 	 -109.187 	 67.382 	 -11.7935 	 
H 	 -109.809 	 67.9527 	 -12.5088 	 
H 	 -108.654 	 68.2106 	 -11.2765 	 
H 	 -109.837 	 66.8095 	 -11.1183 	 
H 	 -108.486 	 70.7142 	 -7.51878 	 
H 	 -108.601 	 62.3693 	 -8.45334 	 
*
