! wB97X-D3 SP def2-SVP
%pal
nprocs 24
end

* xyz 0 1
S 	 -99.5794 	 0.948023 	 -117.352 	 
C 	 -100.022 	 1.87741 	 -118.72 	 
C 	 -101.09 	 2.73672 	 -118.444 	 
C 	 -101.476 	 2.76355 	 -117.101 	 
C 	 -100.758 	 1.81057 	 -116.367 	 
H 	 -102.22 	 3.3878 	 -116.68 	 
C 	 -101.616 	 3.73807 	 -119.532 	 
H 	 -101.997 	 4.62768 	 -118.894 	 
H 	 -102.505 	 3.35782 	 -120 	 
C 	 -100.615 	 4.17616 	 -120.655 	 
H 	 -99.7394 	 4.75923 	 -120.187 	 
H 	 -100.161 	 3.35569 	 -121.1 	 
C 	 -101.268 	 5.00773 	 -121.75 	 
H 	 -100.562 	 5.46877 	 -122.453 	 
H 	 -101.822 	 4.25702 	 -122.306 	 
H 	 -101.938 	 5.77248 	 -121.347 	 
S 	 -99.2439 	 1.34818 	 -114.082 	 
C 	 -100.113 	 1.29589 	 -112.568 	 
C 	 -101.507 	 1.38372 	 -112.758 	 
C 	 -101.921 	 1.61016 	 -114.081 	 
C 	 -100.834 	 1.63072 	 -114.943 	 
H 	 -102.21 	 1.32208 	 -111.946 	 
C 	 -103.4 	 1.88454 	 -114.41 	 
H 	 -103.461 	 1.62297 	 -115.465 	 
H 	 -103.66 	 2.88723 	 -114.408 	 
C 	 -104.524 	 1.00323 	 -113.632 	 
H 	 -104.485 	 1.07952 	 -112.562 	 
H 	 -104.224 	 -0.025123 	 -113.819 	 
C 	 -105.896 	 1.10131 	 -114.201 	 
H 	 -106.466 	 0.245738 	 -113.716 	 
H 	 -105.886 	 0.984456 	 -115.352 	 
H 	 -106.295 	 2.07535 	 -113.866 	 
H 	 -99.6499 	 1.65655 	 -119.697 	 
H 	 -99.6271 	 1.21246 	 -111.593 	 
*
