! wB97X-D3 SP def2-SVP
%pal
nprocs 24
end

* xyz 0 1
S 	 -51.1842 	 20.9827 	 -98.9482 	 
C 	 -51.8189 	 19.8611 	 -97.7288 	 
C 	 -52.1226 	 18.6097 	 -98.3034 	 
C 	 -51.9555 	 18.6203 	 -99.7218 	 
C 	 -51.5454 	 19.8406 	 -100.251 	 
H 	 -52.2805 	 17.7962 	 -100.386 	 
C 	 -52.6462 	 17.2937 	 -97.6192 	 
H 	 -52.2029 	 17.2498 	 -96.5337 	 
H 	 -52.2785 	 16.4134 	 -98.1055 	 
C 	 -54.183 	 17.2183 	 -97.5107 	 
H 	 -54.5739 	 17.3109 	 -98.4719 	 
H 	 -54.4475 	 16.2519 	 -97.1835 	 
C 	 -54.7724 	 18.1765 	 -96.488 	 
H 	 -54.2887 	 18.0332 	 -95.5637 	 
H 	 -54.5915 	 19.2234 	 -96.7639 	 
H 	 -55.8535 	 18.0641 	 -96.4553 	 
S 	 -51.9908 	 21.7828 	 -102.104 	 
C 	 -51.3638 	 21.5468 	 -103.735 	 
C 	 -51.099 	 20.246 	 -104.031 	 
C 	 -51.0584 	 19.4696 	 -102.785 	 
C 	 -51.399 	 20.1889 	 -101.67 	 
H 	 -50.7998 	 19.8633 	 -104.961 	 
C 	 -50.7407 	 18.0192 	 -102.907 	 
H 	 -50.7774 	 17.4917 	 -101.984 	 
H 	 -49.7159 	 18.0507 	 -103.196 	 
C 	 -51.6201 	 17.0924 	 -103.784 	 
H 	 -51.0189 	 16.1463 	 -103.836 	 
H 	 -51.9558 	 17.5611 	 -104.714 	 
C 	 -52.9295 	 16.6771 	 -103.147 	 
H 	 -53.3607 	 17.5905 	 -102.737 	 
H 	 -52.7635 	 15.8975 	 -102.399 	 
H 	 -53.6729 	 16.2052 	 -103.816 	 
H 	 -51.6878 	 19.9331 	 -96.6254 	 
H 	 -51.4201 	 22.3147 	 -104.503 	 
*
