! wB97X-D3 SP def2-SVP
%pal
nprocs 24
end

* xyz 0 1
S 	 -136.392 	 70.3324 	 -55.1741 	 
C 	 -135.185 	 69.62 	 -56.2395 	 
C 	 -134.039 	 69.2617 	 -55.5801 	 
C 	 -134.204 	 69.5504 	 -54.1422 	 
C 	 -135.393 	 70.0723 	 -53.8072 	 
H 	 -133.423 	 69.505 	 -53.4468 	 
C 	 -132.729 	 68.9079 	 -56.2415 	 
H 	 -132.936 	 68.8668 	 -57.3434 	 
H 	 -132.514 	 67.9471 	 -55.9093 	 
C 	 -131.551 	 69.8001 	 -55.9214 	 
H 	 -131.402 	 69.7275 	 -54.7974 	 
H 	 -130.692 	 69.4712 	 -56.4442 	 
C 	 -131.697 	 71.2504 	 -56.3767 	 
H 	 -130.805 	 71.7743 	 -56.0759 	 
H 	 -131.723 	 71.3469 	 -57.4591 	 
H 	 -132.591 	 71.7824 	 -55.9538 	 
S 	 -136.24 	 72.1825 	 -52.383 	 
C 	 -136.263 	 72.1582 	 -50.6099 	 
C 	 -135.647 	 71.0087 	 -50.1949 	 
C 	 -135.388 	 70.0575 	 -51.2362 	 
C 	 -135.725 	 70.5539 	 -52.4713 	 
H 	 -135.375 	 70.9582 	 -49.1177 	 
C 	 -134.714 	 68.6812 	 -50.8855 	 
H 	 -134.271 	 68.7986 	 -49.9304 	 
H 	 -133.872 	 68.439 	 -51.4226 	 
C 	 -135.625 	 67.4673 	 -50.8663 	 
H 	 -135.969 	 67.5195 	 -51.9223 	 
H 	 -136.429 	 67.7623 	 -50.2096 	 
C 	 -134.957 	 66.1671 	 -50.6407 	 
H 	 -135.541 	 65.308 	 -50.9099 	 
H 	 -134.625 	 66.0077 	 -49.6059 	 
H 	 -134.041 	 66.1415 	 -51.2483 	 
H 	 -135.26 	 69.7334 	 -57.3511 	 
H 	 -136.461 	 73.06 	 -50.0236 	 
*
