! wB97X-D3 SP def2-SVP
%pal
nprocs 24
end

* xyz 0 1
S 	 -18.9203 	 -34.6706 	 -92.4233 	 
C 	 -17.3634 	 -35.3851 	 -92.706 	 
C 	 -16.5935 	 -34.7377 	 -93.6626 	 
C 	 -17.4134 	 -33.6655 	 -94.2348 	 
C 	 -18.5731 	 -33.3715 	 -93.534 	 
H 	 -17.2029 	 -33.049 	 -95.0892 	 
C 	 -15.1898 	 -35.0955 	 -94.0509 	 
H 	 -14.7849 	 -35.8064 	 -93.2954 	 
H 	 -14.5263 	 -34.1681 	 -94.1017 	 
C 	 -15.0512 	 -35.741 	 -95.4486 	 
H 	 -13.9923 	 -35.9995 	 -95.5887 	 
H 	 -15.455 	 -36.749 	 -95.5086 	 
C 	 -15.6601 	 -35.056 	 -96.7566 	 
H 	 -15.4256 	 -34.046 	 -96.9122 	 
H 	 -15.4128 	 -35.5523 	 -97.6497 	 
H 	 -16.6909 	 -35.0996 	 -96.8418 	 
S 	 -20.9762 	 -32.7449 	 -94.7101 	 
C 	 -21.4915 	 -31.1305 	 -94.9655 	 
C 	 -20.4881 	 -30.2985 	 -94.587 	 
C 	 -19.3489 	 -30.9276 	 -94.02 	 
C 	 -19.44 	 -32.2863 	 -93.9785 	 
H 	 -20.515 	 -29.2736 	 -94.8938 	 
C 	 -18.1657 	 -30.0914 	 -93.5476 	 
H 	 -18.2675 	 -29.0463 	 -93.8565 	 
H 	 -17.1969 	 -30.4622 	 -93.9307 	 
C 	 -18.0372 	 -29.8959 	 -91.9782 	 
H 	 -17.9924 	 -30.911 	 -91.5305 	 
H 	 -18.9398 	 -29.3999 	 -91.6844 	 
C 	 -16.7152 	 -29.2228 	 -91.5223 	 
H 	 -16.6491 	 -28.2018 	 -91.948 	 
H 	 -15.7881 	 -29.6764 	 -91.8626 	 
H 	 -16.6742 	 -29.122 	 -90.4421 	 
H 	 -16.8806 	 -36.2608 	 -92.2069 	 
H 	 -22.2573 	 -30.7888 	 -95.6474 	 
*
