! wB97X-D3 SP def2-SVP
%pal
nprocs 24
end

* xyz 0 1
S 	 -132.121 	 66.0144 	 -53.436 	 
C 	 -133.611 	 65.8955 	 -54.2992 	 
C 	 -133.488 	 66.4438 	 -55.5679 	 
C 	 -132.153 	 66.692 	 -55.9337 	 
C 	 -131.293 	 66.4811 	 -54.848 	 
H 	 -131.847 	 67.1858 	 -56.9125 	 
C 	 -134.63 	 66.7065 	 -56.515 	 
H 	 -135.542 	 66.292 	 -56.0158 	 
H 	 -134.584 	 66.0892 	 -57.4295 	 
C 	 -134.913 	 68.197 	 -56.8724 	 
H 	 -134.164 	 68.5249 	 -57.5668 	 
H 	 -135.889 	 68.3084 	 -57.3154 	 
C 	 -134.878 	 69.2464 	 -55.786 	 
H 	 -135.201 	 69.0354 	 -54.7754 	 
H 	 -133.803 	 69.6402 	 -55.809 	 
H 	 -135.487 	 70.1178 	 -56.1691 	 
S 	 -129.393 	 68.3163 	 -55.3077 	 
C 	 -127.724 	 67.8866 	 -54.8764 	 
C 	 -127.639 	 66.6904 	 -54.2252 	 
C 	 -128.848 	 65.8906 	 -54.2722 	 
C 	 -129.869 	 66.6903 	 -54.8079 	 
H 	 -126.729 	 66.3017 	 -53.8453 	 
C 	 -128.988 	 64.483 	 -53.6806 	 
H 	 -129.885 	 63.9508 	 -54.0584 	 
H 	 -128.94 	 64.5218 	 -52.5797 	 
C 	 -127.773 	 63.5412 	 -54.0535 	 
H 	 -127.79 	 62.655 	 -53.3118 	 
H 	 -126.865 	 64.0366 	 -53.7192 	 
C 	 -127.624 	 63.1243 	 -55.4973 	 
H 	 -128.622 	 62.8426 	 -55.8304 	 
H 	 -127.104 	 62.2214 	 -55.6029 	 
H 	 -127.132 	 63.8894 	 -56.1533 	 
H 	 -134.529 	 65.57 	 -53.8562 	 
H 	 -126.961 	 68.6069 	 -55.1704 	 
*
