! wB97X-D3 SP def2-SVP
%pal
nprocs 24
end

* xyz 0 1
S 	 -133.652 	 66.4835 	 -56.6793 	 
C 	 -135.375 	 66.7641 	 -56.5704 	 
C 	 -136.1 	 66.1832 	 -57.5586 	 
C 	 -135.232 	 65.615 	 -58.5044 	 
C 	 -133.845 	 65.6308 	 -58.2277 	 
H 	 -135.614 	 65.1054 	 -59.4124 	 
C 	 -137.601 	 66.1149 	 -57.6362 	 
H 	 -137.822 	 66.4191 	 -56.613 	 
H 	 -137.913 	 65.0517 	 -57.6318 	 
C 	 -138.311 	 66.8587 	 -58.6956 	 
H 	 -138.092 	 66.418 	 -59.6706 	 
H 	 -139.405 	 66.7136 	 -58.6116 	 
C 	 -137.97 	 68.3661 	 -58.6051 	 
H 	 -138.229 	 68.6533 	 -57.6054 	 
H 	 -136.911 	 68.6114 	 -58.8607 	 
H 	 -138.641 	 68.9115 	 -59.2739 	 
S 	 -132.305 	 66.2016 	 -60.3593 	 
C 	 -131.049 	 65.0127 	 -60.8168 	 
C 	 -131.023 	 63.9277 	 -60.0118 	 
C 	 -132.039 	 63.9661 	 -58.9745 	 
C 	 -132.773 	 65.1644 	 -59.053 	 
H 	 -130.181 	 63.1442 	 -60.0615 	 
C 	 -131.896 	 62.9869 	 -57.8343 	 
H 	 -132.466 	 63.3327 	 -56.8684 	 
H 	 -130.8 	 63.0244 	 -57.6109 	 
C 	 -132.206 	 61.5635 	 -58.1949 	 
H 	 -131.936 	 60.9556 	 -57.2389 	 
H 	 -131.541 	 61.309 	 -59.0024 	 
C 	 -133.68 	 61.1765 	 -58.4818 	 
H 	 -134.407 	 61.2823 	 -57.6486 	 
H 	 -133.688 	 60.1732 	 -58.9003 	 
H 	 -134.075 	 61.78 	 -59.2383 	 
H 	 -135.769 	 67.3817 	 -55.7696 	 
H 	 -130.38 	 65.0842 	 -61.619 	 
*
