! wB97X-D3 SP def2-SVP
%pal
nprocs 24
end

* xyz 0 1
S 	 45.3503 	 -16.8382 	 -104.3 	 
C 	 43.8845 	 -17.1344 	 -105.222 	 
C 	 44.1249 	 -17.1323 	 -106.593 	 
C 	 45.4488 	 -16.731 	 -106.85 	 
C 	 46.2292 	 -16.507 	 -105.744 	 
H 	 45.8695 	 -16.5433 	 -107.856 	 
C 	 43.1046 	 -17.2168 	 -107.72 	 
H 	 43.4557 	 -16.7052 	 -108.632 	 
H 	 42.2088 	 -16.6766 	 -107.52 	 
C 	 42.7272 	 -18.5996 	 -108.109 	 
H 	 43.53 	 -19.3403 	 -108.188 	 
H 	 42.0865 	 -19.0294 	 -107.397 	 
C 	 42.0801 	 -18.6108 	 -109.499 	 
H 	 41.6159 	 -19.5527 	 -109.81 	 
H 	 41.2729 	 -17.8705 	 -109.506 	 
H 	 42.7576 	 -18.3936 	 -110.348 	 
S 	 48.1701 	 -15.0356 	 -104.323 	 
C 	 49.823 	 -15.2594 	 -104.732 	 
C 	 49.9914 	 -16.0686 	 -105.825 	 
C 	 48.7445 	 -16.5548 	 -106.349 	 
C 	 47.6407 	 -16.194 	 -105.574 	 
H 	 50.9591 	 -16.4046 	 -106.107 	 
C 	 48.6879 	 -17.5606 	 -107.473 	 
H 	 49.5811 	 -17.2769 	 -108.049 	 
H 	 47.8231 	 -17.5296 	 -108.098 	 
C 	 48.8694 	 -19.0547 	 -106.976 	 
H 	 49.7742 	 -19.1491 	 -106.378 	 
H 	 49.074 	 -19.5568 	 -107.869 	 
C 	 47.7451 	 -19.7389 	 -106.173 	 
H 	 46.8044 	 -19.7414 	 -106.738 	 
H 	 47.5812 	 -19.4808 	 -105.131 	 
H 	 48.0432 	 -20.7863 	 -106.042 	 
H 	 42.8873 	 -17.2489 	 -104.813 	 
H 	 50.6352 	 -14.7355 	 -104.174 	 
*
