! wB97X-D3 SP def2-SVP
%pal
nprocs 24
end

* xyz 0 1
S 	 -55.2711 	 16.7437 	 -86.5218 	 
C 	 -54.4976 	 16.2708 	 -87.9797 	 
C 	 -54.791 	 17.1415 	 -89.0723 	 
C 	 -55.7897 	 18.0564 	 -88.6761 	 
C 	 -56.1587 	 17.9834 	 -87.3281 	 
H 	 -56.2258 	 18.7406 	 -89.4022 	 
C 	 -54.2377 	 17.0745 	 -90.4962 	 
H 	 -54.7084 	 17.882 	 -91.0515 	 
H 	 -54.6926 	 16.2062 	 -90.9201 	 
C 	 -52.7353 	 17.0958 	 -90.6436 	 
H 	 -52.4921 	 17.9699 	 -90.0178 	 
H 	 -52.4204 	 16.1052 	 -90.0804 	 
C 	 -52.2438 	 17.14 	 -92.133 	 
H 	 -52.4719 	 18.0578 	 -92.6193 	 
H 	 -51.1485 	 17.1221 	 -92.1655 	 
H 	 -52.5654 	 16.2712 	 -92.8203 	 
S 	 -57.3521 	 18.389 	 -84.9932 	 
C 	 -58.6523 	 19.5037 	 -84.8045 	 
C 	 -58.7222 	 20.4009 	 -85.7993 	 
C 	 -57.8314 	 20.044 	 -86.8809 	 
C 	 -57.1361 	 18.8226 	 -86.6316 	 
H 	 -59.4054 	 21.2316 	 -85.8776 	 
C 	 -57.7559 	 20.947 	 -88.075 	 
H 	 -58.7772 	 20.849 	 -88.5511 	 
H 	 -56.9451 	 20.6522 	 -88.7375 	 
C 	 -57.3532 	 22.4364 	 -87.9395 	 
H 	 -56.3932 	 22.3794 	 -87.5412 	 
H 	 -57.9549 	 22.9751 	 -87.2039 	 
C 	 -57.4393 	 23.2395 	 -89.2278 	 
H 	 -57.083 	 24.2587 	 -88.9673 	 
H 	 -58.3304 	 23.2933 	 -89.8016 	 
H 	 -56.6471 	 22.8147 	 -89.8616 	 
H 	 -53.8288 	 15.4934 	 -88.0107 	 
H 	 -59.3081 	 19.5598 	 -83.9898 	 
*
