! wB97X-D3 SP def2-SVP
%pal
nprocs 24
end

* xyz 0 1
S 	 -126.878 	 63.2161 	 -44.1007 	 
C 	 -125.27 	 62.9182 	 -43.62 	 
C 	 -125.146 	 62.9578 	 -42.2419 	 
C 	 -126.337 	 63.3016 	 -41.5947 	 
C 	 -127.445 	 63.4614 	 -42.484 	 
H 	 -126.455 	 63.2998 	 -40.5019 	 
C 	 -123.877 	 62.5795 	 -41.5324 	 
H 	 -123.577 	 63.4339 	 -40.8535 	 
H 	 -123.113 	 62.5185 	 -42.2329 	 
C 	 -124.026 	 61.2867 	 -40.735 	 
H 	 -123.031 	 61.0772 	 -40.2849 	 
H 	 -124.654 	 61.4556 	 -39.8383 	 
C 	 -124.526 	 60.0697 	 -41.4862 	 
H 	 -124.822 	 59.2489 	 -40.7799 	 
H 	 -125.446 	 60.1678 	 -41.9959 	 
H 	 -123.781 	 59.704 	 -42.1684 	 
S 	 -129.589 	 62.2326 	 -41.3068 	 
C 	 -131.056 	 63.1729 	 -40.9391 	 
C 	 -130.879 	 64.4911 	 -41.3923 	 
C 	 -129.604 	 64.8079 	 -41.9874 	 
C 	 -128.849 	 63.6672 	 -42.0391 	 
H 	 -131.803 	 65.0835 	 -41.3976 	 
C 	 -129.214 	 66.1626 	 -42.5268 	 
H 	 -128.263 	 66.0087 	 -43.0088 	 
H 	 -129.105 	 66.8246 	 -41.7262 	 
C 	 -130.125 	 66.7239 	 -43.6388 	 
H 	 -131.084 	 66.9954 	 -43.2769 	 
H 	 -130.187 	 65.9271 	 -44.366 	 
C 	 -129.501 	 68.0025 	 -44.1458 	 
H 	 -129.684 	 68.8528 	 -43.5054 	 
H 	 -129.972 	 68.14 	 -45.113 	 
H 	 -128.391 	 67.8566 	 -44.2933 	 
H 	 -124.436 	 62.6749 	 -44.3067 	 
H 	 -131.913 	 62.645 	 -40.6235 	 
*
