! wB97X-D3 SP def2-SVP
%pal
nprocs 24
end

* xyz 0 1
S 	 -66.3981 	 17.2424 	 -104.451 	 
C 	 -67.9035 	 16.6401 	 -105.151 	 
C 	 -67.7678 	 16.3251 	 -106.483 	 
C 	 -66.3363 	 16.4666 	 -106.919 	 
C 	 -65.4789 	 17.115 	 -106.009 	 
H 	 -66.0535 	 16.1943 	 -107.974 	 
C 	 -68.7781 	 15.8322 	 -107.5 	 
H 	 -68.3824 	 16.3114 	 -108.438 	 
H 	 -69.6967 	 16.2989 	 -107.197 	 
C 	 -68.8891 	 14.2838 	 -107.514 	 
H 	 -67.8695 	 13.8646 	 -107.552 	 
H 	 -69.2461 	 14.1377 	 -106.482 	 
C 	 -69.7295 	 13.5539 	 -108.609 	 
H 	 -70.8088 	 13.7841 	 -108.477 	 
H 	 -69.3852 	 13.8236 	 -109.624 	 
H 	 -69.5931 	 12.4442 	 -108.503 	 
S 	 -63.1511 	 16.4549 	 -104.798 	 
C 	 -61.6312 	 17.0063 	 -105.432 	 
C 	 -61.8258 	 17.5782 	 -106.645 	 
C 	 -63.1769 	 17.5389 	 -107.095 	 
C 	 -64.0299 	 17.2304 	 -106.069 	 
H 	 -60.9707 	 18.1649 	 -107.134 	 
C 	 -63.506 	 17.9577 	 -108.559 	 
H 	 -62.9899 	 18.98 	 -108.634 	 
H 	 -64.5348 	 18.1844 	 -108.666 	 
C 	 -63.0248 	 17.1241 	 -109.76 	 
H 	 -61.9138 	 16.8235 	 -109.639 	 
H 	 -63.056 	 17.7523 	 -110.603 	 
C 	 -63.9677 	 15.9354 	 -110.251 	 
H 	 -65.0316 	 16.3241 	 -110.145 	 
H 	 -63.7323 	 15.0112 	 -109.644 	 
H 	 -63.7873 	 15.6303 	 -111.23 	 
H 	 -68.7927 	 16.7087 	 -104.627 	 
H 	 -60.7137 	 17.1438 	 -104.853 	 
*
