! wB97X-D3 SP def2-SVP
%pal
nprocs 24
end

* xyz 0 1
S 	 -127.51 	 64.674 	 -36.456 	 
C 	 -126.775 	 63.6485 	 -37.7246 	 
C 	 -125.42 	 63.8938 	 -37.7339 	 
C 	 -124.946 	 64.6388 	 -36.6582 	 
C 	 -125.95 	 65.1592 	 -35.8345 	 
H 	 -123.922 	 64.8797 	 -36.4247 	 
C 	 -124.398 	 63.2143 	 -38.6373 	 
H 	 -124.779 	 62.2009 	 -38.4785 	 
H 	 -123.374 	 63.3164 	 -38.279 	 
C 	 -124.46 	 63.6524 	 -40.07 	 
H 	 -123.949 	 63.0202 	 -40.7378 	 
H 	 -125.44 	 63.5073 	 -40.5349 	 
C 	 -123.922 	 65.0557 	 -40.3019 	 
H 	 -122.969 	 65.1076 	 -39.8144 	 
H 	 -123.862 	 65.2203 	 -41.3505 	 
H 	 -124.605 	 65.6921 	 -39.7653 	 
S 	 -126.708 	 65.317 	 -33.2023 	 
C 	 -126.054 	 66.5363 	 -32.1873 	 
C 	 -125.037 	 67.2443 	 -32.8154 	 
C 	 -124.88 	 66.8384 	 -34.1782 	 
C 	 -125.823 	 65.8997 	 -34.5876 	 
H 	 -124.54 	 68.0812 	 -32.2701 	 
C 	 -123.821 	 67.429 	 -35.0403 	 
H 	 -123.855 	 68.5343 	 -34.9332 	 
H 	 -124.22 	 67.2794 	 -36.1179 	 
C 	 -122.345 	 66.9719 	 -34.9545 	 
H 	 -122.354 	 65.8521 	 -34.9392 	 
H 	 -121.746 	 67.2779 	 -34.0062 	 
C 	 -121.518 	 67.2878 	 -36.1713 	 
H 	 -121.419 	 68.3842 	 -36.2127 	 
H 	 -122.008 	 66.8965 	 -37.0365 	 
H 	 -120.537 	 66.8206 	 -36.051 	 
H 	 -127.221 	 63.0471 	 -38.4987 	 
H 	 -126.366 	 66.8085 	 -31.1638 	 
*
