! wB97X-D3 SP def2-SVP
%pal
nprocs 24
end

* xyz 0 1
S 	 25.5179 	 -9.07301 	 -113.222 	 
C 	 25.4815 	 -8.64937 	 -111.59 	 
C 	 24.1994 	 -8.60587 	 -111.121 	 
C 	 23.2168 	 -8.90254 	 -112.096 	 
C 	 23.7502 	 -9.2412 	 -113.315 	 
H 	 22.157 	 -8.85033 	 -111.974 	 
C 	 23.7885 	 -8.28222 	 -109.71 	 
H 	 22.8489 	 -8.87435 	 -109.579 	 
H 	 23.5971 	 -7.20829 	 -109.792 	 
C 	 24.6787 	 -8.60509 	 -108.542 	 
H 	 25.5465 	 -8.02293 	 -108.5 	 
H 	 24.1149 	 -8.5411 	 -107.57 	 
C 	 25.1573 	 -10.0734 	 -108.652 	 
H 	 24.2892 	 -10.7435 	 -108.754 	 
H 	 25.873 	 -10.2742 	 -109.499 	 
H 	 25.7652 	 -10.3117 	 -107.816 	 
S 	 23.2526 	 -11.2168 	 -115.181 	 
C 	 22.3323 	 -10.8871 	 -116.61 	 
C 	 21.7805 	 -9.62015 	 -116.529 	 
C 	 22.2705 	 -8.87335 	 -115.395 	 
C 	 23.0942 	 -9.57421 	 -114.565 	 
H 	 21.0616 	 -9.36754 	 -117.314 	 
C 	 22.0176 	 -7.3703 	 -115.073 	 
H 	 22.7316 	 -6.78069 	 -115.68 	 
H 	 22.4208 	 -7.182 	 -114.036 	 
C 	 20.5483 	 -6.87168 	 -115.202 	 
H 	 19.8098 	 -7.71569 	 -114.925 	 
H 	 20.298 	 -6.69599 	 -116.215 	 
C 	 20.2135 	 -5.50751 	 -114.516 	 
H 	 19.756 	 -4.76189 	 -115.263 	 
H 	 21.069 	 -5.07193 	 -114.037 	 
H 	 19.4321 	 -5.84525 	 -113.898 	 
H 	 26.3983 	 -8.42746 	 -110.987 	 
H 	 22.1608 	 -11.6604 	 -117.354 	 
*
