! wB97X-D3 SP def2-SVP
%pal
nprocs 24
end

* xyz 0 1
S 	 -67.8812 	 -42.2694 	 -91.5427 	 
C 	 -66.3922 	 -41.7699 	 -92.2909 	 
C 	 -66.0963 	 -42.5018 	 -93.4043 	 
C 	 -66.9909 	 -43.6096 	 -93.5408 	 
C 	 -68.1108 	 -43.5508 	 -92.7022 	 
H 	 -66.919 	 -44.4244 	 -94.2307 	 
C 	 -64.923 	 -42.2555 	 -94.2686 	 
H 	 -64.544 	 -41.2791 	 -94.0758 	 
H 	 -65.2825 	 -42.2699 	 -95.3135 	 
C 	 -63.7025 	 -43.1809 	 -94.0659 	 
H 	 -62.8775 	 -42.9998 	 -94.8167 	 
H 	 -63.2557 	 -42.8471 	 -93.1814 	 
C 	 -64.0252 	 -44.6833 	 -94.0752 	 
H 	 -63.1365 	 -45.192 	 -94.3414 	 
H 	 -64.2775 	 -44.9621 	 -93.0448 	 
H 	 -64.8056 	 -44.9381 	 -94.8169 	 
S 	 -69.4763 	 -45.1816 	 -90.9732 	 
C 	 -70.6101 	 -46.3887 	 -91.5951 	 
C 	 -70.8842 	 -46.0859 	 -92.9501 	 
C 	 -70.1091 	 -45.0096 	 -93.4694 	 
C 	 -69.1855 	 -44.5469 	 -92.5937 	 
H 	 -71.6081 	 -46.5495 	 -93.5171 	 
C 	 -70.2587 	 -44.5732 	 -94.9579 	 
H 	 -69.8499 	 -43.5125 	 -95.0668 	 
H 	 -71.3456 	 -44.6059 	 -95.1938 	 
C 	 -69.4971 	 -45.443 	 -95.9511 	 
H 	 -70.0283 	 -46.4505 	 -96.0093 	 
H 	 -68.5863 	 -45.6941 	 -95.4395 	 
C 	 -69.4631 	 -44.8129 	 -97.3347 	 
H 	 -70.3906 	 -44.537 	 -97.7513 	 
H 	 -69.1602 	 -45.6031 	 -97.9433 	 
H 	 -68.7952 	 -43.9766 	 -97.5873 	 
H 	 -65.7398 	 -40.9846 	 -91.9006 	 
H 	 -70.9483 	 -47.2047 	 -91.0076 	 
*
