! wB97X-D3 SP def2-SVP
%pal
nprocs 24
end

* xyz 0 1
S 	 -46.1165 	 15.8481 	 25.7559 	 
C 	 -45.3167 	 17.3823 	 25.8419 	 
C 	 -45.5083 	 18.1102 	 24.6659 	 
C 	 -46.2926 	 17.4264 	 23.7311 	 
C 	 -46.6124 	 16.1028 	 24.0734 	 
H 	 -46.576 	 17.7716 	 22.8083 	 
C 	 -45.0209 	 19.5162 	 24.4225 	 
H 	 -44.5412 	 19.8332 	 25.323 	 
H 	 -45.8607 	 20.1634 	 24.3298 	 
C 	 -44.1553 	 19.8576 	 23.1565 	 
H 	 -44.6801 	 19.8533 	 22.2093 	 
H 	 -43.8809 	 20.8958 	 23.1921 	 
C 	 -42.8679 	 19.037 	 22.9829 	 
H 	 -42.0712 	 19.7398 	 22.8134 	 
H 	 -42.6419 	 18.5224 	 23.873 	 
H 	 -42.8458 	 18.277 	 22.188 	 
S 	 -48.0561 	 13.7936 	 24.3567 	 
C 	 -48.4997 	 12.8489 	 22.8886 	 
C 	 -48.1674 	 13.5527 	 21.7473 	 
C 	 -47.3707 	 14.7355 	 21.9759 	 
C 	 -47.2724 	 15.0529 	 23.3505 	 
H 	 -48.4646 	 13.1458 	 20.7535 	 
C 	 -46.9689 	 15.6964 	 20.8853 	 
H 	 -47.309 	 16.7434 	 21.0969 	 
H 	 -47.4338 	 15.2631 	 20.0128 	 
C 	 -45.4534 	 15.7224 	 20.6905 	 
H 	 -45.1778 	 14.663 	 20.4394 	 
H 	 -44.7673 	 16.0126 	 21.5329 	 
C 	 -45.036 	 16.6505 	 19.512 	 
H 	 -44.1292 	 16.48 	 19.0095 	 
H 	 -45.0332 	 17.6796 	 19.9327 	 
H 	 -45.7057 	 16.594 	 18.6853 	 
H 	 -44.6789 	 17.7393 	 26.653 	 
H 	 -49.0793 	 11.9181 	 22.9201 	 
*
