! wB97X-D3 SP def2-SVP
%pal
nprocs 24
end

* xyz 0 1
S 	 -100.471 	 49.9678 	 -100.037 	 
C 	 -100.638 	 51.7019 	 -100.225 	 
C 	 -99.3808 	 52.32 	 -100.27 	 
C 	 -98.3048 	 51.3152 	 -100.293 	 
C 	 -98.7665 	 50.0211 	 -100.175 	 
H 	 -97.2511 	 51.5712 	 -100.406 	 
C 	 -99.0656 	 53.8251 	 -100.389 	 
H 	 -98.0189 	 53.9796 	 -100.737 	 
H 	 -98.9435 	 54.1995 	 -99.3361 	 
C 	 -100.065 	 54.648 	 -101.303 	 
H 	 -101.024 	 54.7541 	 -100.885 	 
H 	 -99.6965 	 55.6829 	 -101.46 	 
C 	 -100.119 	 53.9916 	 -102.67 	 
H 	 -100.542 	 52.9839 	 -102.595 	 
H 	 -100.819 	 54.5655 	 -103.33 	 
H 	 -99.2264 	 53.9892 	 -103.168 	 
S 	 -98.1649 	 47.8283 	 -98.6011 	 
C 	 -96.9555 	 46.6802 	 -99.1284 	 
C 	 -96.327 	 47.0359 	 -100.318 	 
C 	 -96.9665 	 48.1946 	 -100.902 	 
C 	 -97.9804 	 48.7993 	 -100.117 	 
H 	 -95.5304 	 46.4897 	 -100.692 	 
C 	 -96.4958 	 48.7634 	 -102.279 	 
H 	 -95.4259 	 48.964 	 -102.393 	 
H 	 -97.0701 	 49.7279 	 -102.465 	 
C 	 -96.8566 	 47.8345 	 -103.432 	 
H 	 -96.6757 	 48.3327 	 -104.365 	 
H 	 -97.9267 	 47.5837 	 -103.362 	 
C 	 -96.1668 	 46.5077 	 -103.573 	 
H 	 -96.849 	 45.8011 	 -103.995 	 
H 	 -95.7416 	 45.9989 	 -102.73 	 
H 	 -95.3771 	 46.6725 	 -104.334 	 
H 	 -101.563 	 52.2362 	 -100.03 	 
H 	 -96.7378 	 45.8297 	 -98.553 	 
*
