! wB97X-D3 SP def2-SVP
%pal
nprocs 24
end

* xyz 0 1
S 	 -57.3226 	 4.83421 	 -21.328 	 
C 	 -58.8932 	 5.70172 	 -21.1229 	 
C 	 -60.0086 	 4.95987 	 -21.5049 	 
C 	 -59.574 	 3.66349 	 -21.9322 	 
C 	 -58.1797 	 3.52743 	 -22.1263 	 
H 	 -60.1863 	 2.93701 	 -22.3975 	 
C 	 -61.4115 	 5.42331 	 -21.4774 	 
H 	 -61.5325 	 6.40769 	 -20.9306 	 
H 	 -61.7826 	 4.68194 	 -20.7708 	 
C 	 -62.1463 	 5.56194 	 -22.7895 	 
H 	 -61.7227 	 6.4446 	 -23.2232 	 
H 	 -61.8669 	 4.72585 	 -23.3887 	 
C 	 -63.648 	 5.60772 	 -22.5653 	 
H 	 -63.8697 	 6.42115 	 -21.8611 	 
H 	 -64.1347 	 5.90781 	 -23.487 	 
H 	 -64.0528 	 4.64773 	 -22.235 	 
S 	 -57.4664 	 0.847629 	 -22.221 	 
C 	 -56.7504 	 0.316619 	 -23.777 	 
C 	 -56.5957 	 1.38515 	 -24.6889 	 
C 	 -57.1906 	 2.59533 	 -24.2907 	 
C 	 -57.5923 	 2.49867 	 -22.9511 	 
H 	 -56.1058 	 1.21996 	 -25.6352 	 
C 	 -57.1719 	 3.8638 	 -25.1455 	 
H 	 -56.3801 	 3.6525 	 -25.8626 	 
H 	 -56.8275 	 4.542 	 -24.405 	 
C 	 -58.5359 	 4.21554 	 -25.7544 	 
H 	 -58.3149 	 5.17528 	 -26.1985 	 
H 	 -59.3041 	 4.43397 	 -24.9927 	 
C 	 -59.1105 	 3.11424 	 -26.749 	 
H 	 -59.1442 	 2.13777 	 -26.2993 	 
H 	 -58.4363 	 3.00154 	 -27.5922 	 
H 	 -60.0726 	 3.23311 	 -27.2342 	 
H 	 -59.0432 	 6.69011 	 -20.6521 	 
H 	 -56.4275 	 -0.655813 	 -24.0469 	 
*
