! wB97X-D3 SP def2-SVP
%pal
nprocs 24
end

* xyz 0 1
S 	 -109.052 	 61.8963 	 -96.3567 	 
C 	 -107.425 	 62.4855 	 -95.867 	 
C 	 -106.412 	 61.5866 	 -96.1146 	 
C 	 -106.945 	 60.4362 	 -96.772 	 
C 	 -108.32 	 60.3988 	 -96.8128 	 
H 	 -106.509 	 59.6223 	 -97.279 	 
C 	 -104.975 	 61.8227 	 -95.9722 	 
H 	 -104.879 	 61.4183 	 -94.9541 	 
H 	 -104.836 	 62.9356 	 -95.9145 	 
C 	 -103.914 	 61.1042 	 -96.9452 	 
H 	 -104.279 	 60.0704 	 -97.0042 	 
H 	 -104.039 	 61.4679 	 -97.9629 	 
C 	 -102.549 	 61.2549 	 -96.4124 	 
H 	 -101.791 	 60.8494 	 -97.2082 	 
H 	 -102.315 	 62.3021 	 -96.1825 	 
H 	 -102.495 	 60.6894 	 -95.5287 	 
S 	 -109.705 	 58.1761 	 -96.0921 	 
C 	 -110.55 	 57.3126 	 -97.3269 	 
C 	 -110.44 	 57.9133 	 -98.526 	 
C 	 -109.651 	 59.0742 	 -98.5857 	 
C 	 -109.101 	 59.3074 	 -97.345 	 
H 	 -110.947 	 57.4903 	 -99.346 	 
C 	 -109.415 	 59.8379 	 -99.8097 	 
H 	 -108.852 	 60.6866 	 -99.5423 	 
H 	 -110.407 	 60.1636 	 -100.198 	 
C 	 -108.647 	 58.9801 	 -100.851 	 
H 	 -109.17 	 58.0417 	 -101.141 	 
H 	 -107.722 	 58.791 	 -100.246 	 
C 	 -108.174 	 59.7164 	 -102.125 	 
H 	 -107.676 	 60.6515 	 -101.951 	 
H 	 -108.909 	 59.9652 	 -102.809 	 
H 	 -107.29 	 59.1788 	 -102.526 	 
H 	 -107.292 	 63.4546 	 -95.4314 	 
H 	 -111.151 	 56.4428 	 -97.1058 	 
*
