! wB97X-D3 SP def2-SVP
%pal
nprocs 24
end

* xyz 0 1
S 	 -99.2105 	 26.9529 	 -116.886 	 
C 	 -100.781 	 26.5121 	 -116.503 	 
C 	 -101.693 	 26.9474 	 -117.421 	 
C 	 -101.06 	 27.3891 	 -118.64 	 
C 	 -99.6982 	 27.3904 	 -118.54 	 
H 	 -101.584 	 27.7541 	 -119.561 	 
C 	 -103.176 	 26.8339 	 -117.305 	 
H 	 -103.498 	 27.5684 	 -116.518 	 
H 	 -103.433 	 25.8322 	 -116.889 	 
C 	 -104.179 	 27.1605 	 -118.565 	 
H 	 -103.834 	 28.1475 	 -118.919 	 
H 	 -103.992 	 26.4401 	 -119.396 	 
C 	 -105.648 	 27.1502 	 -118.244 	 
H 	 -105.893 	 28.0898 	 -117.699 	 
H 	 -106.197 	 27.1426 	 -119.237 	 
H 	 -105.962 	 26.2234 	 -117.746 	 
S 	 -97.9062 	 29.4946 	 -119.058 	 
C 	 -96.9162 	 29.4829 	 -120.506 	 
C 	 -97.2376 	 28.3852 	 -121.327 	 
C 	 -98.3179 	 27.554 	 -120.764 	 
C 	 -98.6761 	 27.9571 	 -119.509 	 
H 	 -96.7613 	 28.3534 	 -122.29 	 
C 	 -98.9575 	 26.4264 	 -121.528 	 
H 	 -98.3381 	 26.2944 	 -122.394 	 
H 	 -99.8949 	 26.8545 	 -121.788 	 
C 	 -99.0843 	 25.0857 	 -120.79 	 
H 	 -98.8822 	 25.2282 	 -119.731 	 
H 	 -98.2409 	 24.4331 	 -121.12 	 
C 	 -100.342 	 24.2566 	 -121.138 	 
H 	 -100.244 	 24.039 	 -122.207 	 
H 	 -101.18 	 24.8558 	 -120.861 	 
H 	 -100.36 	 23.3963 	 -120.562 	 
H 	 -101.04 	 26.0946 	 -115.569 	 
H 	 -96.0877 	 30.1389 	 -120.695 	 
*
