! wB97X-D3 SP def2-SVP
%pal
nprocs 24
end

* xyz 0 1
S 	 -104.336 	 56.7595 	 -15.1149 	 
C 	 -104.144 	 57.504 	 -13.5429 	 
C 	 -102.854 	 58.0565 	 -13.3453 	 
C 	 -102.061 	 57.8863 	 -14.5255 	 
C 	 -102.683 	 57.1481 	 -15.5528 	 
H 	 -101.04 	 58.2876 	 -14.5578 	 
C 	 -102.28 	 58.7119 	 -12.1324 	 
H 	 -101.58 	 59.4291 	 -12.4277 	 
H 	 -101.816 	 57.8688 	 -11.6016 	 
C 	 -103.357 	 59.3817 	 -11.2185 	 
H 	 -104.029 	 58.6692 	 -10.8085 	 
H 	 -102.703 	 59.8645 	 -10.4733 	 
C 	 -104.214 	 60.4748 	 -11.8285 	 
H 	 -105.004 	 60.8487 	 -11.2498 	 
H 	 -103.556 	 61.2791 	 -12.0834 	 
H 	 -104.67 	 60.0781 	 -12.7155 	 
S 	 -102.983 	 56.7849 	 -18.3503 	 
C 	 -101.672 	 56.2397 	 -19.2771 	 
C 	 -100.48 	 56.1853 	 -18.51 	 
C 	 -100.73 	 56.5736 	 -17.1665 	 
C 	 -102.071 	 56.875 	 -16.8544 	 
H 	 -99.5288 	 55.8166 	 -18.9888 	 
C 	 -99.5808 	 56.5414 	 -16.1529 	 
H 	 -99.6279 	 57.3785 	 -15.4563 	 
H 	 -98.6457 	 56.6313 	 -16.6514 	 
C 	 -99.5226 	 55.1603 	 -15.478 	 
H 	 -98.6082 	 54.6475 	 -15.6832 	 
H 	 -100.237 	 54.3666 	 -15.8851 	 
C 	 -99.7718 	 55.2197 	 -13.9883 	 
H 	 -98.802 	 55.3651 	 -13.419 	 
H 	 -100.2 	 54.2915 	 -13.5393 	 
H 	 -100.453 	 55.936 	 -13.5841 	 
H 	 -104.979 	 57.7126 	 -12.9735 	 
H 	 -101.558 	 56.104 	 -20.4244 	 
*
