! wB97X-D3 SP def2-SVP
%pal
nprocs 24
end

* xyz 0 1
S 	 -24.4422 	 -36.5398 	 -94.2923 	 
C 	 -22.9272 	 -37.3408 	 -94.6485 	 
C 	 -21.9715 	 -36.413 	 -95.1337 	 
C 	 -22.4806 	 -35.064 	 -95.1891 	 
C 	 -23.7955 	 -34.9568 	 -94.7028 	 
H 	 -21.9093 	 -34.2085 	 -95.5152 	 
C 	 -20.5275 	 -36.8504 	 -95.5926 	 
H 	 -20.4003 	 -36.7577 	 -96.6854 	 
H 	 -20.3588 	 -37.9106 	 -95.4037 	 
C 	 -19.3689 	 -36.1666 	 -94.885 	 
H 	 -19.4366 	 -35.0602 	 -95.0506 	 
H 	 -19.5052 	 -36.2538 	 -93.8021 	 
C 	 -18.0621 	 -36.771 	 -95.3661 	 
H 	 -17.9397 	 -37.8586 	 -95.4705 	 
H 	 -17.767 	 -36.3642 	 -96.3293 	 
H 	 -17.2658 	 -36.3974 	 -94.6823 	 
S 	 -26.2264 	 -33.5883 	 -94.8336 	 
C 	 -26.3006 	 -32.0183 	 -94.2144 	 
C 	 -25.057 	 -31.6587 	 -93.7459 	 
C 	 -24.0016 	 -32.5249 	 -94.0703 	 
C 	 -24.5121 	 -33.6712 	 -94.5445 	 
H 	 -24.9978 	 -30.6353 	 -93.281 	 
C 	 -22.6315 	 -32.3102 	 -93.5967 	 
H 	 -22.1878 	 -33.1661 	 -93.1204 	 
H 	 -22.7178 	 -31.5145 	 -92.8521 	 
C 	 -21.6686 	 -31.734 	 -94.6603 	 
H 	 -22.0921 	 -30.7643 	 -95.0318 	 
H 	 -21.6511 	 -32.2798 	 -95.5864 	 
C 	 -20.1962 	 -31.5117 	 -94.2543 	 
H 	 -19.5481 	 -32.389 	 -94.1755 	 
H 	 -20.0905 	 -30.911 	 -93.3218 	 
H 	 -19.8864 	 -30.8275 	 -94.9971 	 
H 	 -22.7325 	 -38.3784 	 -94.4331 	 
H 	 -27.1945 	 -31.4674 	 -93.8626 	 
*
