! wB97X-D3 SP def2-SVP
%pal
nprocs 24
end

* xyz 0 1
S 	 -77.5902 	 5.53976 	 -107.453 	 
C 	 -79.2462 	 5.56285 	 -107.134 	 
C 	 -79.8856 	 6.68573 	 -107.67 	 
C 	 -78.9852 	 7.44428 	 -108.529 	 
C 	 -77.6652 	 6.99088 	 -108.439 	 
H 	 -79.3287 	 8.34035 	 -108.997 	 
C 	 -81.3105 	 7.1126 	 -107.415 	 
H 	 -81.4005 	 8.198 	 -107.24 	 
H 	 -81.6118 	 6.72095 	 -106.48 	 
C 	 -82.3499 	 6.68204 	 -108.506 	 
H 	 -83.2877 	 7.17023 	 -108.161 	 
H 	 -81.9787 	 7.11086 	 -109.388 	 
C 	 -82.4623 	 5.1654 	 -108.629 	 
H 	 -82.7187 	 4.75514 	 -107.65 	 
H 	 -83.4058 	 4.92715 	 -109.216 	 
H 	 -81.5257 	 4.76725 	 -109.203 	 
S 	 -75.429 	 6.83073 	 -110.155 	 
C 	 -74.5987 	 8.34424 	 -110.46 	 
C 	 -75.0397 	 9.40142 	 -109.638 	 
C 	 -76.0859 	 8.97176 	 -108.735 	 
C 	 -76.4709 	 7.68678 	 -108.956 	 
H 	 -74.6556 	 10.4111 	 -109.746 	 
C 	 -76.9369 	 10.0407 	 -108.08 	 
H 	 -76.3077 	 10.3787 	 -107.32 	 
H 	 -77.7426 	 9.60151 	 -107.438 	 
C 	 -77.4485 	 11.1931 	 -108.963 	 
H 	 -78.3252 	 10.9093 	 -109.472 	 
H 	 -76.728 	 11.4583 	 -109.732 	 
C 	 -77.6962 	 12.4362 	 -108.129 	 
H 	 -78.1855 	 13.2094 	 -108.681 	 
H 	 -76.812 	 13.0602 	 -107.938 	 
H 	 -78.2242 	 12.296 	 -107.175 	 
H 	 -79.5738 	 4.7829 	 -106.372 	 
H 	 -73.8831 	 8.61292 	 -111.277 	 
*
