! wB97X-D3 SP def2-SVP
%pal
nprocs 24
end

* xyz 0 1
S 	 -46.0314 	 13.8748 	 26.1667 	 
C 	 -45.5705 	 13.0696 	 24.6695 	 
C 	 -46.6728 	 12.4402 	 24.1775 	 
C 	 -47.8443 	 12.4002 	 25.011 	 
C 	 -47.697 	 13.0192 	 26.2481 	 
H 	 -48.7721 	 11.8301 	 24.89 	 
C 	 -46.5814 	 11.6402 	 22.9337 	 
H 	 -47.3654 	 10.8611 	 22.9659 	 
H 	 -45.6169 	 11.0889 	 22.928 	 
C 	 -46.8751 	 12.4177 	 21.6316 	 
H 	 -46.0306 	 13.1044 	 21.5598 	 
H 	 -46.8048 	 11.6405 	 20.8521 	 
C 	 -48.213 	 13.1374 	 21.5594 	 
H 	 -48.5046 	 13.833 	 22.3351 	 
H 	 -48.3339 	 13.636 	 20.5574 	 
H 	 -49.037 	 12.4602 	 21.5271 	 
S 	 -48.942 	 11.5959 	 28.2722 	 
C 	 -50.396 	 12.2909 	 28.8854 	 
C 	 -50.6692 	 13.5627 	 28.4159 	 
C 	 -49.7269 	 14.0645 	 27.4622 	 
C 	 -48.6774 	 13.1044 	 27.3041 	 
H 	 -51.6153 	 13.9274 	 28.7026 	 
C 	 -49.9247 	 15.3532 	 26.6703 	 
H 	 -50.9534 	 15.2285 	 26.2487 	 
H 	 -49.1566 	 15.4205 	 25.8204 	 
C 	 -49.6567 	 16.6772 	 27.4174 	 
H 	 -49.7565 	 17.5339 	 26.6729 	 
H 	 -48.6911 	 16.6789 	 27.9837 	 
C 	 -50.7422 	 16.9845 	 28.4524 	 
H 	 -51.758 	 16.8708 	 28.0962 	 
H 	 -50.5328 	 17.8819 	 29.0324 	 
H 	 -50.6518 	 16.2344 	 29.2564 	 
H 	 -44.5797 	 13.0916 	 24.1142 	 
H 	 -51.0225 	 11.8103 	 29.5962 	 
*
