! wB97X-D3 SP def2-SVP
%pal
nprocs 24
end

* xyz 0 1
S 	 -91.3916 	 -33.8457 	 -59.8076 	 
C 	 -90.9303 	 -35.0226 	 -58.5207 	 
C 	 -89.926 	 -34.4884 	 -57.7712 	 
C 	 -89.7906 	 -33.073 	 -57.9472 	 
C 	 -90.5986 	 -32.5541 	 -58.9084 	 
H 	 -89.1025 	 -32.5178 	 -57.315 	 
C 	 -88.9421 	 -35.2976 	 -56.9396 	 
H 	 -88.0127 	 -34.8517 	 -57.122 	 
H 	 -88.8977 	 -36.3534 	 -57.3561 	 
C 	 -89.3587 	 -35.461 	 -55.4817 	 
H 	 -89.5718 	 -34.4793 	 -55.2147 	 
H 	 -90.3766 	 -35.9553 	 -55.3116 	 
C 	 -88.2811 	 -36.1587 	 -54.5605 	 
H 	 -87.3006 	 -35.7311 	 -54.8076 	 
H 	 -88.4519 	 -35.8561 	 -53.5081 	 
H 	 -88.2145 	 -37.2471 	 -54.664 	 
S 	 -89.9932 	 -30.9498 	 -61.1748 	 
C 	 -90.3446 	 -29.268 	 -61.0512 	 
C 	 -90.8025 	 -28.921 	 -59.8201 	 
C 	 -91.0007 	 -30.0548 	 -58.9604 	 
C 	 -90.5136 	 -31.2461 	 -59.468 	 
H 	 -90.9 	 -27.8641 	 -59.7535 	 
C 	 -91.5267 	 -29.826 	 -57.5795 	 
H 	 -91.2968 	 -30.8134 	 -57.082 	 
H 	 -92.5821 	 -29.7061 	 -57.5616 	 
C 	 -90.679 	 -28.8807 	 -56.7121 	 
H 	 -90.7766 	 -27.8654 	 -57.0299 	 
H 	 -89.6252 	 -29.1187 	 -56.7405 	 
C 	 -91.24 	 -28.9955 	 -55.2694 	 
H 	 -90.6114 	 -28.4103 	 -54.6523 	 
H 	 -91.299 	 -29.995 	 -54.8992 	 
H 	 -92.2349 	 -28.6671 	 -55.0416 	 
H 	 -90.9948 	 -36.0559 	 -58.5283 	 
H 	 -90.0452 	 -28.5757 	 -61.8033 	 
*
