! wB97X-D3 SP def2-SVP
%pal
nprocs 24
end

* xyz 0 1
S 	 -49.2528 	 13.3376 	 25.0586 	 
C 	 -49.1164 	 14.7103 	 26.1355 	 
C 	 -49.8981 	 15.7886 	 25.6747 	 
C 	 -50.6078 	 15.5612 	 24.4378 	 
C 	 -50.3861 	 14.2657 	 24.0169 	 
H 	 -51.2987 	 16.2277 	 23.9285 	 
C 	 -49.9516 	 17.1337 	 26.3591 	 
H 	 -50.1429 	 17.9171 	 25.7084 	 
H 	 -48.973 	 17.3161 	 26.8166 	 
C 	 -50.9637 	 17.2307 	 27.4911 	 
H 	 -50.7313 	 16.459 	 28.1411 	 
H 	 -50.7656 	 18.1711 	 27.9959 	 
C 	 -52.4135 	 17.1542 	 27.026 	 
H 	 -52.631 	 16.2127 	 26.5238 	 
H 	 -53.0149 	 17.0548 	 27.9201 	 
H 	 -52.6876 	 17.9672 	 26.4666 	 
S 	 -51.4229 	 12.0162 	 22.8488 	 
C 	 -51.5856 	 11.9723 	 21.1069 	 
C 	 -51.3101 	 13.1597 	 20.5146 	 
C 	 -50.7606 	 14.1086 	 21.4764 	 
C 	 -50.7591 	 13.6618 	 22.7776 	 
H 	 -51.4428 	 13.282 	 19.4833 	 
C 	 -50.2493 	 15.4819 	 21.0538 	 
H 	 -49.5951 	 15.5967 	 20.1572 	 
H 	 -49.6672 	 15.8626 	 21.9511 	 
C 	 -51.3063 	 16.553 	 20.8257 	 
H 	 -52.2046 	 16.4476 	 21.4863 	 
H 	 -51.7179 	 16.3794 	 19.8347 	 
C 	 -50.6773 	 17.9826 	 20.9418 	 
H 	 -51.2978 	 18.8664 	 20.7293 	 
H 	 -49.7153 	 17.9709 	 20.3531 	 
H 	 -50.2746 	 18.0096 	 22.0046 	 
H 	 -48.3948 	 14.8163 	 27.001 	 
H 	 -52.0474 	 11.138 	 20.6067 	 
*
