! wB97X-D3 SP def2-SVP
%pal
nprocs 24
end

* xyz 0 1
S 	 -107.798 	 62.9936 	 -13.8282 	 
C 	 -109.285 	 63.8187 	 -13.5528 	 
C 	 -110.361 	 62.8777 	 -13.596 	 
C 	 -109.908 	 61.6053 	 -14.0586 	 
C 	 -108.554 	 61.4823 	 -14.2423 	 
H 	 -110.573 	 60.7631 	 -14.2237 	 
C 	 -111.805 	 63.1839 	 -13.3167 	 
H 	 -112.448 	 62.7261 	 -14.0871 	 
H 	 -111.955 	 64.2904 	 -13.4137 	 
C 	 -112.223 	 62.783 	 -11.9064 	 
H 	 -113.344 	 62.8946 	 -11.9376 	 
H 	 -112.08 	 61.7889 	 -11.6769 	 
C 	 -111.56 	 63.7135 	 -10.8536 	 
H 	 -112.043 	 63.6008 	 -9.86538 	 
H 	 -110.567 	 63.4385 	 -10.8464 	 
H 	 -111.689 	 64.7037 	 -11.2315 	 
S 	 -106.524 	 59.6525 	 -13.6569 	 
C 	 -106.249 	 58.283 	 -14.7161 	 
C 	 -107.114 	 58.3952 	 -15.7843 	 
C 	 -108.018 	 59.4998 	 -15.7396 	 
C 	 -107.84 	 60.332 	 -14.6825 	 
H 	 -106.918 	 57.7832 	 -16.627 	 
C 	 -109.061 	 59.7238 	 -16.9043 	 
H 	 -110.01 	 60.1932 	 -16.5574 	 
H 	 -109.391 	 58.7337 	 -17.2249 	 
C 	 -108.514 	 60.5799 	 -18.1223 	 
H 	 -109.124 	 60.3443 	 -18.9875 	 
H 	 -107.458 	 60.449 	 -18.3832 	 
C 	 -108.807 	 62.0362 	 -17.8972 	 
H 	 -108.387 	 62.5851 	 -17.0615 	 
H 	 -109.846 	 62.0434 	 -17.7668 	 
H 	 -108.489 	 62.5689 	 -18.7584 	 
H 	 -109.326 	 64.9093 	 -13.354 	 
H 	 -105.39 	 57.6618 	 -14.6678 	 
*
