! wB97X-D3 SP def2-SVP
%pal
nprocs 24
end

* xyz 0 1
S 	 -100.86 	 5.97224 	 -6.52857 	 
C 	 -99.3922 	 6.78134 	 -6.10791 	 
C 	 -99.6183 	 7.92374 	 -5.36764 	 
C 	 -101.009 	 7.99963 	 -4.90987 	 
C 	 -101.767 	 7.00881 	 -5.50902 	 
H 	 -101.58 	 8.67701 	 -4.3136 	 
C 	 -98.5609 	 8.88086 	 -4.85802 	 
H 	 -98.8415 	 9.90132 	 -4.98667 	 
H 	 -97.7317 	 8.66067 	 -5.50344 	 
C 	 -98.2432 	 8.76324 	 -3.30181 	 
H 	 -97.9126 	 7.73816 	 -3.14276 	 
H 	 -97.4039 	 9.38758 	 -3.09341 	 
C 	 -99.4598 	 9.02715 	 -2.38447 	 
H 	 -100.142 	 8.12399 	 -2.29074 	 
H 	 -99.162 	 9.41476 	 -1.40708 	 
H 	 -100.009 	 9.8905 	 -2.76006 	 
S 	 -104.178 	 7.37076 	 -6.86887 	 
C 	 -105.571 	 6.89991 	 -6.04703 	 
C 	 -105.434 	 6.82523 	 -4.6862 	 
C 	 -104.078 	 7.02185 	 -4.28286 	 
C 	 -103.254 	 7.05636 	 -5.39719 	 
H 	 -106.254 	 6.62128 	 -4.01043 	 
C 	 -103.593 	 6.87812 	 -2.86775 	 
H 	 -102.536 	 6.44821 	 -2.83705 	 
H 	 -104.182 	 6.12195 	 -2.34718 	 
C 	 -103.542 	 8.2435 	 -2.09956 	 
H 	 -102.706 	 8.85973 	 -2.44179 	 
H 	 -103.274 	 8.0446 	 -1.08936 	 
C 	 -104.822 	 9.07413 	 -2.09947 	 
H 	 -105.713 	 8.5212 	 -1.87031 	 
H 	 -104.92 	 9.37565 	 -3.17153 	 
H 	 -104.738 	 9.97399 	 -1.4687 	 
H 	 -98.4202 	 6.37557 	 -6.35845 	 
H 	 -106.511 	 6.79974 	 -6.57338 	 
*
