! wB97X-D3 SP def2-SVP
%pal
nprocs 24
end

* xyz 0 1
S 	 -51.476 	 16.0743 	 24.402 	 
C 	 -52.8118 	 15.0469 	 24.8012 	 
C 	 -52.454 	 13.7547 	 24.9243 	 
C 	 -51.0193 	 13.5918 	 24.8858 	 
C 	 -50.3511 	 14.8076 	 24.6513 	 
H 	 -50.5473 	 12.6221 	 24.9365 	 
C 	 -53.4436 	 12.6364 	 25.2746 	 
H 	 -54.2682 	 12.9844 	 25.7839 	 
H 	 -52.9204 	 12.0275 	 25.9956 	 
C 	 -53.7729 	 11.6401 	 24.1366 	 
H 	 -54.2268 	 12.1011 	 23.2807 	 
H 	 -52.8447 	 11.2738 	 23.7617 	 
C 	 -54.5649 	 10.3878 	 24.6838 	 
H 	 -54.8921 	 9.7666 	 23.838 	 
H 	 -54.0618 	 9.71191 	 25.4218 	 
H 	 -55.3873 	 10.6493 	 25.3005 	 
S 	 -48.2139 	 15.5827 	 23.0819 	 
C 	 -46.5511 	 15.5409 	 23.8158 	 
C 	 -46.6104 	 14.9632 	 25.0949 	 
C 	 -47.9509 	 14.6468 	 25.4864 	 
C 	 -48.9059 	 15.0246 	 24.5909 	 
H 	 -45.7182 	 14.8713 	 25.6785 	 
C 	 -48.28 	 14.1547 	 26.9019 	 
H 	 -47.3711 	 13.7749 	 27.2902 	 
H 	 -48.9945 	 13.3542 	 26.742 	 
C 	 -48.9447 	 15.1703 	 27.9074 	 
H 	 -49.499 	 14.6747 	 28.7372 	 
H 	 -49.6492 	 15.7816 	 27.3649 	 
C 	 -47.939 	 16.1336 	 28.5201 	 
H 	 -47.3195 	 16.4879 	 27.7725 	 
H 	 -47.3213 	 15.6111 	 29.2302 	 
H 	 -48.4567 	 16.9222 	 29.0231 	 
H 	 -53.826 	 15.4557 	 24.9368 	 
H 	 -45.6471 	 15.7547 	 23.1902 	 
*
