! wB97X-D3 SP def2-SVP
%pal
nprocs 24
end

* xyz 0 1
S 	 -50.6177 	 20.8217 	 32.5297 	 
C 	 -50.5045 	 22.4427 	 33.287 	 
C 	 -49.9665 	 23.3678 	 32.3652 	 
C 	 -49.8259 	 22.7667 	 31.0835 	 
C 	 -49.9425 	 21.4267 	 31.0487 	 
H 	 -49.2981 	 23.3046 	 30.308 	 
C 	 -49.8463 	 24.8149 	 32.5415 	 
H 	 -50.7199 	 25.1781 	 32.9863 	 
H 	 -49.6351 	 25.29 	 31.5296 	 
C 	 -48.6674 	 25.1727 	 33.4823 	 
H 	 -48.6385 	 26.2758 	 33.6156 	 
H 	 -48.764 	 24.5716 	 34.3698 	 
C 	 -47.3612 	 24.7715 	 32.7681 	 
H 	 -47.297 	 25.2334 	 31.694 	 
H 	 -46.5044 	 25.1368 	 33.2507 	 
H 	 -47.2452 	 23.6901 	 32.6616 	 
S 	 -48.6412 	 19.0761 	 30.5504 	 
C 	 -48.5421 	 18.4798 	 28.8527 	 
C 	 -48.8655 	 19.4142 	 27.9575 	 
C 	 -49.3804 	 20.6202 	 28.588 	 
C 	 -49.501 	 20.5297 	 29.9502 	 
H 	 -48.6515 	 19.1961 	 26.9294 	 
C 	 -49.8475 	 21.8589 	 27.8012 	 
H 	 -50.4157 	 22.508 	 28.4405 	 
H 	 -50.6558 	 21.5857 	 27.1407 	 
C 	 -48.6824 	 22.5947 	 27.1799 	 
H 	 -48.1999 	 21.9007 	 26.4861 	 
H 	 -47.8672 	 22.6972 	 27.9604 	 
C 	 -49.0013 	 23.9883 	 26.6478 	 
H 	 -49.8151 	 23.9647 	 25.8867 	 
H 	 -48.1548 	 24.3964 	 26.1316 	 
H 	 -49.3594 	 24.576 	 27.4992 	 
H 	 -50.8359 	 22.7555 	 34.272 	 
H 	 -48.1703 	 17.5732 	 28.4781 	 
*
