! wB97X-D3 SP def2-SVP
%pal
nprocs 24
end

* xyz 0 1
S 	 -97.6017 	 48.972 	 -97.5408 	 
C 	 -97.0621 	 50.303 	 -96.5816 	 
C 	 -96.9025 	 51.4298 	 -97.3599 	 
C 	 -97.3485 	 51.3213 	 -98.7022 	 
C 	 -97.849 	 50.0241 	 -98.9583 	 
H 	 -97.2023 	 52.1353 	 -99.4726 	 
C 	 -96.3869 	 52.7924 	 -96.8924 	 
H 	 -96.5027 	 52.8939 	 -95.807 	 
H 	 -97.0624 	 53.4943 	 -97.3697 	 
C 	 -94.9599 	 53.034 	 -97.2822 	 
H 	 -94.21 	 52.4953 	 -96.6694 	 
H 	 -94.8116 	 52.6934 	 -98.3319 	 
C 	 -94.5221 	 54.5323 	 -97.2713 	 
H 	 -94.7013 	 54.9412 	 -96.257 	 
H 	 -93.4333 	 54.5818 	 -97.4315 	 
H 	 -95.1318 	 55.1185 	 -97.9367 	 
S 	 -97.1548 	 48.5388 	 -101.2 	 
C 	 -98.067 	 48.7301 	 -102.638 	 
C 	 -99.2221 	 49.4782 	 -102.386 	 
C 	 -99.4172 	 49.833 	 -100.996 	 
C 	 -98.2771 	 49.4897 	 -100.222 	 
H 	 -99.8343 	 49.7767 	 -103.192 	 
C 	 -100.513 	 50.8117 	 -100.603 	 
H 	 -100.503 	 50.8439 	 -99.5728 	 
H 	 -101.548 	 50.4274 	 -100.761 	 
C 	 -100.389 	 52.2959 	 -100.973 	 
H 	 -100.534 	 52.3944 	 -102.05 	 
H 	 -99.3349 	 52.5861 	 -100.867 	 
C 	 -101.34 	 53.1904 	 -100.188 	 
H 	 -101.083 	 54.2267 	 -100.425 	 
H 	 -101.09 	 53.0317 	 -99.127 	 
H 	 -102.424 	 53.023 	 -100.373 	 
H 	 -96.7153 	 50.3844 	 -95.5658 	 
H 	 -97.6928 	 48.3366 	 -103.578 	 
*
