! wB97X-D3 SP def2-SVP
%pal
nprocs 24
end

* xyz 0 1
S 	 -106.457 	 53.6154 	 -102.327 	 
C 	 -107.782 	 52.5083 	 -102.555 	 
C 	 -108.976 	 53.1196 	 -102.256 	 
C 	 -108.813 	 54.4429 	 -101.804 	 
C 	 -107.535 	 54.9524 	 -102.008 	 
H 	 -109.596 	 55.0624 	 -101.474 	 
C 	 -110.288 	 52.3892 	 -102.135 	 
H 	 -110.197 	 51.3592 	 -102.452 	 
H 	 -110.864 	 52.9715 	 -102.851 	 
C 	 -110.919 	 52.3609 	 -100.66 	 
H 	 -110.229 	 51.7891 	 -100.102 	 
H 	 -110.89 	 53.3916 	 -100.314 	 
C 	 -112.416 	 51.938 	 -100.633 	 
H 	 -112.977 	 52.7049 	 -101.16 	 
H 	 -112.676 	 50.9354 	 -100.958 	 
H 	 -112.912 	 52.0587 	 -99.6487 	 
S 	 -105.361 	 56.2523 	 -100.864 	 
C 	 -105.305 	 58.0108 	 -100.828 	 
C 	 -106.523 	 58.5739 	 -100.999 	 
C 	 -107.455 	 57.5518 	 -101.507 	 
C 	 -106.932 	 56.2261 	 -101.587 	 
H 	 -106.742 	 59.6338 	 -100.832 	 
C 	 -108.784 	 58.0144 	 -102.095 	 
H 	 -109.366 	 57.1085 	 -102.279 	 
H 	 -108.549 	 58.5269 	 -102.973 	 
C 	 -109.616 	 58.9327 	 -101.149 	 
H 	 -110.361 	 59.3489 	 -101.831 	 
H 	 -109.006 	 59.8065 	 -100.684 	 
C 	 -110.158 	 58.176 	 -99.8782 	 
H 	 -110.921 	 57.4361 	 -100.049 	 
H 	 -110.66 	 58.874 	 -99.1867 	 
H 	 -109.302 	 57.6433 	 -99.4844 	 
H 	 -107.763 	 51.4967 	 -103.015 	 
H 	 -104.444 	 58.5795 	 -100.523 	 
*
