! wB97X-D3 SP def2-SVP
%pal
nprocs 24
end

* xyz 0 1
S 	 -57.6108 	 4.28287 	 -19.3012 	 
C 	 -58.4857 	 3.79445 	 -17.8539 	 
C 	 -58.5994 	 4.76055 	 -16.9374 	 
C 	 -57.8024 	 5.86303 	 -17.3452 	 
C 	 -57.2393 	 5.77775 	 -18.5671 	 
H 	 -57.4852 	 6.76591 	 -16.7308 	 
C 	 -59.2349 	 4.57171 	 -15.5561 	 
H 	 -59.8527 	 3.71804 	 -15.5133 	 
H 	 -59.8604 	 5.39232 	 -15.26 	 
C 	 -58.2946 	 4.41739 	 -14.3795 	 
H 	 -57.7799 	 3.44513 	 -14.5183 	 
H 	 -57.5367 	 5.17536 	 -14.5747 	 
C 	 -58.8732 	 4.60303 	 -12.9567 	 
H 	 -59.5451 	 5.50349 	 -12.881 	 
H 	 -59.4644 	 3.75903 	 -12.5758 	 
H 	 -58.104 	 4.68443 	 -12.2328 	 
S 	 -54.8281 	 6.27631 	 -19.8414 	 
C 	 -54.4399 	 7.94361 	 -20.2083 	 
C 	 -55.5327 	 8.75172 	 -20.1961 	 
C 	 -56.6943 	 8.00982 	 -19.7886 	 
C 	 -56.3949 	 6.75821 	 -19.2982 	 
H 	 -55.4073 	 9.77027 	 -20.4053 	 
C 	 -58.1003 	 8.53097 	 -19.5949 	 
H 	 -58.1596 	 9.62943 	 -19.5002 	 
H 	 -58.6003 	 7.98445 	 -18.7367 	 
C 	 -59.0074 	 8.19108 	 -20.739 	 
H 	 -58.8228 	 7.16673 	 -21.0181 	 
H 	 -58.7324 	 8.70563 	 -21.6092 	 
C 	 -60.4592 	 8.23898 	 -20.449 	 
H 	 -60.643 	 7.61719 	 -19.5887 	 
H 	 -60.9734 	 7.71526 	 -21.3167 	 
H 	 -60.8432 	 9.27911 	 -20.2771 	 
H 	 -58.7763 	 2.68286 	 -17.6931 	 
H 	 -53.422 	 8.29038 	 -20.3955 	 
*
