! wB97X-D3 SP def2-SVP
%pal
nprocs 24
end

* xyz 0 1
S 	 -44.0536 	 -3.37547 	 19.307 	 
C 	 -44.1007 	 -4.50181 	 17.9555 	 
C 	 -43.982 	 -5.80789 	 18.396 	 
C 	 -43.9117 	 -5.8923 	 19.8013 	 
C 	 -43.8761 	 -4.67013 	 20.4419 	 
H 	 -43.9232 	 -6.81019 	 20.3831 	 
C 	 -44.1256 	 -6.99453 	 17.4386 	 
H 	 -44.0391 	 -7.92395 	 18.0164 	 
H 	 -43.176 	 -6.86835 	 16.8347 	 
C 	 -45.4235 	 -7.01385 	 16.5438 	 
H 	 -46.2868 	 -7.49319 	 17.0287 	 
H 	 -45.7615 	 -6.03617 	 16.2782 	 
C 	 -45.2433 	 -7.75956 	 15.2161 	 
H 	 -44.8484 	 -7.10557 	 14.5171 	 
H 	 -44.4593 	 -8.53719 	 15.2851 	 
H 	 -46.1009 	 -8.21493 	 14.7288 	 
S 	 -42.949 	 -5.63495 	 22.8229 	 
C 	 -43.4279 	 -4.84844 	 24.3112 	 
C 	 -44.3441 	 -3.87927 	 24.0159 	 
C 	 -44.7089 	 -3.69034 	 22.6322 	 
C 	 -43.8988 	 -4.49454 	 21.8625 	 
H 	 -44.7639 	 -3.35866 	 24.8349 	 
C 	 -45.6495 	 -2.60879 	 22.1646 	 
H 	 -46.6235 	 -2.67716 	 22.5926 	 
H 	 -46.0396 	 -2.86536 	 21.1658 	 
C 	 -45.1169 	 -1.14924 	 22.062 	 
H 	 -45.9853 	 -0.661504 	 21.5499 	 
H 	 -44.2807 	 -1.09283 	 21.3037 	 
C 	 -44.8036 	 -0.485119 	 23.3695 	 
H 	 -44.0591 	 -0.824275 	 24.0892 	 
H 	 -45.689 	 -0.619036 	 23.9577 	 
H 	 -44.5673 	 0.559707 	 23.2443 	 
H 	 -44.5162 	 -4.15889 	 17.0177 	 
H 	 -42.9922 	 -4.99705 	 25.2762 	 
*
