! wB97X-D3 SP def2-SVP
%pal
nprocs 24
end

* xyz 0 1
S 	 -102.209 	 0.789467 	 -119.182 	 
C 	 -103.786 	 1.54678 	 -119.307 	 
C 	 -104.2 	 1.91944 	 -118.071 	 
C 	 -103.443 	 1.36755 	 -116.981 	 
C 	 -102.315 	 0.719502 	 -117.431 	 
H 	 -103.684 	 1.37173 	 -115.901 	 
C 	 -105.416 	 2.86043 	 -117.802 	 
H 	 -105.054 	 3.81711 	 -118.272 	 
H 	 -105.52 	 2.98642 	 -116.677 	 
C 	 -106.734 	 2.25101 	 -118.296 	 
H 	 -106.827 	 2.36995 	 -119.351 	 
H 	 -106.677 	 1.15705 	 -118.02 	 
C 	 -107.973 	 2.83962 	 -117.628 	 
H 	 -108.857 	 2.51701 	 -118.05 	 
H 	 -107.988 	 2.49477 	 -116.597 	 
H 	 -108.006 	 3.91293 	 -117.707 	 
S 	 -99.5764 	 0.414688 	 -116.797 	 
C 	 -99.1002 	 -0.717159 	 -115.576 	 
C 	 -100.25 	 -1.22828 	 -114.949 	 
C 	 -101.481 	 -0.822583 	 -115.59 	 
C 	 -101.277 	 0.0476697 	 -116.647 	 
H 	 -100.13 	 -1.94684 	 -114.146 	 
C 	 -102.869 	 -1.3954 	 -115.22 	 
H 	 -103.443 	 -0.548239 	 -114.775 	 
H 	 -102.61 	 -1.95957 	 -114.352 	 
C 	 -103.637 	 -2.25073 	 -116.24 	 
H 	 -103.853 	 -1.77308 	 -117.211 	 
H 	 -104.572 	 -2.49199 	 -115.897 	 
C 	 -103.034 	 -3.67481 	 -116.447 	 
H 	 -102.902 	 -4.24038 	 -115.487 	 
H 	 -102.053 	 -3.68875 	 -117.08 	 
H 	 -103.727 	 -4.2647 	 -117.005 	 
H 	 -104.371 	 1.64682 	 -120.238 	 
H 	 -98.1078 	 -0.909994 	 -115.308 	 
*
