! wB97X-D3 SP def2-SVP
%pal
nprocs 24
end

* xyz 0 1
S 	 -137.605 	 7.52109 	 -9.90358 	 
C 	 -138.547 	 8.84803 	 -10.4588 	 
C 	 -139.239 	 9.43258 	 -9.47251 	 
C 	 -139.086 	 8.70984 	 -8.19973 	 
C 	 -138.241 	 7.6047 	 -8.23484 	 
H 	 -139.635 	 8.82868 	 -7.23194 	 
C 	 -140.05 	 10.708 	 -9.5783 	 
H 	 -140.167 	 10.9073 	 -10.6246 	 
H 	 -139.44 	 11.5276 	 -9.05613 	 
C 	 -141.535 	 10.6095 	 -9.20441 	 
H 	 -142.001 	 9.79833 	 -9.81621 	 
H 	 -141.616 	 10.2639 	 -8.18894 	 
C 	 -142.345 	 11.8879 	 -9.32149 	 
H 	 -143.325 	 11.8489 	 -8.97052 	 
H 	 -141.882 	 12.604 	 -8.62779 	 
H 	 -142.446 	 12.2518 	 -10.2877 	 
S 	 -138.716 	 4.97797 	 -7.75323 	 
C 	 -138.271 	 4.33919 	 -6.18591 	 
C 	 -137.8 	 5.30816 	 -5.32187 	 
C 	 -137.642 	 6.56165 	 -5.94311 	 
C 	 -138.122 	 6.54657 	 -7.22208 	 
H 	 -137.448 	 4.94252 	 -4.38638 	 
C 	 -137.027 	 7.75926 	 -5.17167 	 
H 	 -137.629 	 7.70982 	 -4.19755 	 
H 	 -137.15 	 8.74612 	 -5.65437 	 
C 	 -135.534 	 7.49569 	 -4.81716 	 
H 	 -134.909 	 7.49866 	 -5.77167 	 
H 	 -135.416 	 6.4687 	 -4.66579 	 
C 	 -135.014 	 8.15755 	 -3.55539 	 
H 	 -135.781 	 7.86559 	 -2.79553 	 
H 	 -135.086 	 9.23953 	 -3.59515 	 
H 	 -134.11 	 7.70262 	 -3.23035 	 
H 	 -138.469 	 9.3571 	 -11.4142 	 
H 	 -138.604 	 3.33705 	 -5.85281 	 
*
