! wB97X-D3 SP def2-SVP
%pal
nprocs 24
end

* xyz 0 1
S 	 -120.417 	 26.8361 	 -15.1166 	 
C 	 -118.702 	 26.6963 	 -15.589 	 
C 	 -118.043 	 25.6824 	 -14.9045 	 
C 	 -118.907 	 25.0931 	 -13.9533 	 
C 	 -120.196 	 25.554 	 -13.9675 	 
H 	 -118.608 	 24.1943 	 -13.3326 	 
C 	 -116.72 	 25.2112 	 -15.3027 	 
H 	 -116.06 	 25.346 	 -14.4076 	 
H 	 -116.307 	 25.7488 	 -16.2049 	 
C 	 -116.615 	 23.6607 	 -15.7189 	 
H 	 -116.856 	 23.0534 	 -14.8694 	 
H 	 -117.295 	 23.3019 	 -16.4511 	 
C 	 -115.334 	 23.1827 	 -16.3572 	 
H 	 -115.241 	 23.6711 	 -17.309 	 
H 	 -114.508 	 23.5858 	 -15.7152 	 
H 	 -115.227 	 22.1338 	 -16.5707 	 
S 	 -122.73 	 24.4956 	 -13.6865 	 
C 	 -123.41 	 24.3342 	 -12.1062 	 
C 	 -122.543 	 24.7195 	 -11.1423 	 
C 	 -121.321 	 25.1972 	 -11.6448 	 
C 	 -121.258 	 25.1562 	 -13.0887 	 
H 	 -122.829 	 24.5909 	 -10.0923 	 
C 	 -120.356 	 25.9415 	 -10.6722 	 
H 	 -119.492 	 26.3189 	 -11.2655 	 
H 	 -119.959 	 25.2376 	 -9.97986 	 
C 	 -120.95 	 27.122 	 -9.81042 	 
H 	 -121.289 	 27.9633 	 -10.4419 	 
H 	 -120.195 	 27.6021 	 -9.21556 	 
C 	 -122.131 	 26.989 	 -8.84171 	 
H 	 -122.072 	 26.0444 	 -8.25643 	 
H 	 -123.077 	 26.8593 	 -9.35186 	 
H 	 -122.153 	 27.7941 	 -8.129 	 
H 	 -118.13 	 27.185 	 -16.458 	 
H 	 -124.352 	 23.8485 	 -11.8343 	 
*
