! wB97X-D3 SP def2-SVP
%pal
nprocs 24
end

* xyz 0 1
S 	 -105.011 	 63.1579 	 -98.3947 	 
C 	 -106.616 	 63.5431 	 -98.9583 	 
C 	 -107.489 	 63.7013 	 -97.8679 	 
C 	 -106.858 	 63.2872 	 -96.6492 	 
C 	 -105.487 	 63.1172 	 -96.7318 	 
H 	 -107.226 	 63.142 	 -95.6723 	 
C 	 -108.944 	 64.0897 	 -97.9787 	 
H 	 -108.992 	 64.8266 	 -98.8188 	 
H 	 -109.285 	 64.626 	 -96.9754 	 
C 	 -109.936 	 62.9407 	 -98.1902 	 
H 	 -110.817 	 63.3784 	 -98.5716 	 
H 	 -109.571 	 62.2201 	 -98.9153 	 
C 	 -110.36 	 62.0926 	 -96.9262 	 
H 	 -109.64 	 61.3999 	 -96.5032 	 
H 	 -110.612 	 62.6966 	 -96.0337 	 
H 	 -111.23 	 61.4149 	 -97.1035 	 
S 	 -103.372 	 61.5938 	 -96.1081 	 
C 	 -102.782 	 61.3482 	 -94.513 	 
C 	 -103.32 	 62.3564 	 -93.6859 	 
C 	 -104.423 	 63.0986 	 -94.3031 	 
C 	 -104.579 	 62.7507 	 -95.6513 	 
H 	 -103.035 	 62.3744 	 -92.6136 	 
C 	 -105.116 	 64.2973 	 -93.614 	 
H 	 -105.643 	 64.9468 	 -94.3059 	 
H 	 -104.329 	 64.7982 	 -93.0856 	 
C 	 -106.189 	 63.8478 	 -92.5694 	 
H 	 -105.754 	 63.0408 	 -91.947 	 
H 	 -107.078 	 63.4631 	 -93.0511 	 
C 	 -106.744 	 64.9709 	 -91.7277 	 
H 	 -107.538 	 64.5562 	 -91.1145 	 
H 	 -107.269 	 65.7295 	 -92.3297 	 
H 	 -105.885 	 65.4011 	 -91.1767 	 
H 	 -106.865 	 63.797 	 -99.9781 	 
H 	 -102.031 	 60.6727 	 -94.2155 	 
*
