! wB97X-D3 SP def2-SVP
%pal
nprocs 24
end

* xyz 0 1
S 	 -46.4634 	 21.2352 	 28.4774 	 
C 	 -45.0291 	 20.2193 	 28.8766 	 
C 	 -44.4352 	 20.6205 	 30.1061 	 
C 	 -45.1968 	 21.5866 	 30.7557 	 
C 	 -46.3099 	 22.0026 	 30.0658 	 
H 	 -44.9348 	 21.8572 	 31.7888 	 
C 	 -43.183 	 20.0215 	 30.6692 	 
H 	 -43.0212 	 19.0664 	 30.1524 	 
H 	 -43.33 	 19.6777 	 31.7574 	 
C 	 -41.9811 	 20.9185 	 30.3896 	 
H 	 -42.0557 	 21.3961 	 29.3817 	 
H 	 -41.9744 	 21.7275 	 31.0926 	 
C 	 -40.6194 	 20.1702 	 30.6621 	 
H 	 -40.5269 	 19.8198 	 31.6802 	 
H 	 -40.4085 	 19.308 	 30.0529 	 
H 	 -39.752 	 20.823 	 30.515 	 
S 	 -47.932 	 22.5347 	 32.1719 	 
C 	 -49.0583 	 23.8782 	 32.0389 	 
C 	 -48.7332 	 24.7418 	 31.0039 	 
C 	 -47.8861 	 24.0617 	 30.048 	 
C 	 -47.4031 	 22.8554 	 30.5631 	 
H 	 -49.1997 	 25.7815 	 30.8721 	 
C 	 -47.4289 	 24.7311 	 28.7027 	 
H 	 -48.3659 	 24.9369 	 28.274 	 
H 	 -46.9385 	 23.9703 	 28.1028 	 
C 	 -46.5166 	 25.924 	 28.9727 	 
H 	 -46.9697 	 26.5471 	 29.7577 	 
H 	 -46.3687 	 26.5515 	 28.0469 	 
C 	 -45.0737 	 25.6213 	 29.3906 	 
H 	 -44.5531 	 25.0002 	 28.6145 	 
H 	 -45.0751 	 24.887 	 30.288 	 
H 	 -44.5133 	 26.5391 	 29.546 	 
H 	 -44.5468 	 19.4535 	 28.3213 	 
H 	 -49.5492 	 24.3453 	 32.9046 	 
*
