! wB97X-D3 SP def2-SVP
%pal
nprocs 24
end

* xyz 0 1
S 	 -83.8466 	 -1.01185 	 -64.6606 	 
C 	 -84.6174 	 0.164519 	 -65.8126 	 
C 	 -85.9703 	 -0.0394134 	 -65.8138 	 
C 	 -86.4159 	 -1.22091 	 -65.0945 	 
C 	 -85.3331 	 -1.90486 	 -64.454 	 
H 	 -87.4677 	 -1.50467 	 -65.0059 	 
C 	 -87.0002 	 0.884736 	 -66.5182 	 
H 	 -87.5282 	 0.23475 	 -67.1288 	 
H 	 -86.3623 	 1.3898 	 -67.2566 	 
C 	 -87.7854 	 1.87356 	 -65.6539 	 
H 	 -88.4869 	 2.41831 	 -66.289 	 
H 	 -88.3565 	 1.38079 	 -64.8277 	 
C 	 -86.8997 	 2.94371 	 -65.0622 	 
H 	 -85.9919 	 3.28769 	 -65.6708 	 
H 	 -87.4035 	 3.87051 	 -64.7985 	 
H 	 -86.5624 	 2.50721 	 -64.095 	 
S 	 -84.6189 	 -4.46011 	 -64.2107 	 
C 	 -85.0827 	 -5.32733 	 -62.7762 	 
C 	 -86.1151 	 -4.68053 	 -62.1231 	 
C 	 -86.2989 	 -3.3526 	 -62.5776 	 
C 	 -85.4368 	 -3.07508 	 -63.6184 	 
H 	 -86.6413 	 -5.22649 	 -61.344 	 
C 	 -87.2401 	 -2.21522 	 -61.8955 	 
H 	 -88.0737 	 -2.68881 	 -61.3234 	 
H 	 -87.6956 	 -1.62089 	 -62.7646 	 
C 	 -86.4269 	 -1.29317 	 -60.9378 	 
H 	 -87.1821 	 -0.555987 	 -60.5589 	 
H 	 -85.6148 	 -0.806084 	 -61.4446 	 
C 	 -85.8448 	 -2.05606 	 -59.6921 	 
H 	 -85.0922 	 -2.83525 	 -59.9308 	 
H 	 -86.6023 	 -2.66049 	 -59.169 	 
H 	 -85.2385 	 -1.36267 	 -59.1084 	 
H 	 -84.2008 	 1.03682 	 -66.1625 	 
H 	 -84.6297 	 -6.32404 	 -62.5063 	 
*
