! wB97X-D3 SP def2-SVP
%pal
nprocs 24
end

* xyz 0 1
S 	 29.9909 	 2.46914 	 -114.21 	 
C 	 28.5712 	 3.042 	 -115.079 	 
C 	 27.5083 	 2.21417 	 -114.921 	 
C 	 27.9198 	 1.02792 	 -114.197 	 
C 	 29.2162 	 1.07355 	 -113.764 	 
H 	 27.2345 	 0.193256 	 -114.019 	 
C 	 26.1586 	 2.34609 	 -115.624 	 
H 	 25.9749 	 1.30213 	 -115.85 	 
H 	 26.271 	 2.87434 	 -116.534 	 
C 	 25.09 	 2.99804 	 -114.813 	 
H 	 25.0333 	 2.42808 	 -113.86 	 
H 	 25.3366 	 3.99958 	 -114.514 	 
C 	 23.652 	 2.96891 	 -115.393 	 
H 	 23.5009 	 3.74565 	 -116.149 	 
H 	 23.554 	 2.00193 	 -115.897 	 
H 	 22.9429 	 3.12973 	 -114.568 	 
S 	 31.028 	 -0.894153 	 -114.261 	 
C 	 31.7174 	 -1.77723 	 -112.919 	 
C 	 31.0198 	 -1.54834 	 -111.764 	 
C 	 30.1082 	 -0.466232 	 -111.905 	 
C 	 29.9476 	 -0.0605466 	 -113.187 	 
H 	 31.2559 	 -2.02433 	 -110.819 	 
C 	 29.4843 	 0.110083 	 -110.765 	 
H 	 29.0484 	 -0.701872 	 -110.202 	 
H 	 28.6962 	 0.81884 	 -110.969 	 
C 	 30.5388 	 0.908213 	 -109.977 	 
H 	 30.8555 	 1.78886 	 -110.627 	 
H 	 31.4076 	 0.314109 	 -109.753 	 
C 	 30.059 	 1.51343 	 -108.612 	 
H 	 29.337 	 0.852408 	 -108.137 	 
H 	 29.4964 	 2.47763 	 -108.77 	 
H 	 30.7981 	 1.74109 	 -107.841 	 
H 	 28.6561 	 3.91655 	 -115.698 	 
H 	 32.4454 	 -2.57181 	 -113.085 	 
*
