! wB97X-D3 SP def2-SVP
%pal
nprocs 24
end

* xyz 0 1
S 	 -32.3547 	 -47.5402 	 -78.2567 	 
C 	 -30.7925 	 -47.971 	 -78.8707 	 
C 	 -29.7386 	 -47.5219 	 -78.1371 	 
C 	 -30.2242 	 -46.8152 	 -76.959 	 
C 	 -31.584 	 -46.6445 	 -76.9824 	 
H 	 -29.6314 	 -46.4002 	 -76.1888 	 
C 	 -28.2416 	 -47.7207 	 -78.393 	 
H 	 -28.0054 	 -48.7381 	 -78.6933 	 
H 	 -27.5645 	 -47.7597 	 -77.5601 	 
C 	 -27.5535 	 -46.8388 	 -79.4464 	 
H 	 -26.4433 	 -47.0965 	 -79.5387 	 
H 	 -28.0411 	 -47.1187 	 -80.409 	 
C 	 -27.9202 	 -45.3344 	 -79.1863 	 
H 	 -29.0098 	 -45.2806 	 -79.0983 	 
H 	 -27.4163 	 -45.0096 	 -78.3033 	 
H 	 -27.5853 	 -44.7602 	 -80.0513 	 
S 	 -33.5019 	 -47.1171 	 -75.0634 	 
C 	 -33.8136 	 -45.7999 	 -73.9257 	 
C 	 -33.0544 	 -44.6623 	 -74.1146 	 
C 	 -32.2292 	 -44.7825 	 -75.3084 	 
C 	 -32.304 	 -46.0648 	 -75.8803 	 
H 	 -33.2304 	 -43.8294 	 -73.4172 	 
C 	 -31.29 	 -43.7213 	 -75.7616 	 
H 	 -30.3693 	 -44.1022 	 -75.6351 	 
H 	 -31.2443 	 -42.8725 	 -75.0518 	 
C 	 -31.4381 	 -43.254 	 -77.2654 	 
H 	 -32.4349 	 -43.0828 	 -77.5987 	 
H 	 -31.0947 	 -44.0475 	 -77.9088 	 
C 	 -30.621 	 -41.8809 	 -77.4758 	 
H 	 -30.4743 	 -41.7102 	 -78.6079 	 
H 	 -29.6713 	 -41.9003 	 -76.9588 	 
H 	 -31.1641 	 -41.0437 	 -77.0052 	 
H 	 -30.6788 	 -48.5167 	 -79.8022 	 
H 	 -34.503 	 -45.7368 	 -73.1639 	 
*
