! wB97X-D3 SP def2-SVP
%pal
nprocs 24
end

* xyz 0 1
S 	 -3.32195 	 -24.8538 	 -109.444 	 
C 	 -3.2673 	 -23.1501 	 -110.101 	 
C 	 -2.36737 	 -22.3907 	 -109.379 	 
C 	 -1.81439 	 -23.0745 	 -108.263 	 
C 	 -2.09318 	 -24.4471 	 -108.237 	 
H 	 -1.0614 	 -22.6321 	 -107.64 	 
C 	 -2.15585 	 -20.9442 	 -109.475 	 
H 	 -2.27705 	 -20.5566 	 -110.47 	 
H 	 -1.18923 	 -20.6825 	 -109.252 	 
C 	 -3.0913 	 -20.1566 	 -108.525 	 
H 	 -2.67088 	 -20.0669 	 -107.497 	 
H 	 -3.31669 	 -19.1644 	 -108.844 	 
C 	 -4.59793 	 -20.6649 	 -108.483 	 
H 	 -4.64635 	 -21.4046 	 -107.642 	 
H 	 -5.29865 	 -19.9538 	 -108.154 	 
H 	 -5.03402 	 -21.246 	 -109.385 	 
S 	 0.076809 	 -25.8198 	 -107.048 	 
C 	 -0.223655 	 -27.0851 	 -105.914 	 
C 	 -1.62514 	 -27.2119 	 -105.751 	 
C 	 -2.42146 	 -26.3074 	 -106.551 	 
C 	 -1.64076 	 -25.4588 	 -107.313 	 
H 	 -1.92596 	 -28.0131 	 -105.052 	 
C 	 -3.9517 	 -26.2326 	 -106.491 	 
H 	 -4.42649 	 -25.2853 	 -106.813 	 
H 	 -3.99018 	 -26.0285 	 -105.394 	 
C 	 -4.65854 	 -27.4608 	 -107.067 	 
H 	 -4.40441 	 -28.3834 	 -106.541 	 
H 	 -4.2603 	 -27.5767 	 -108.125 	 
C 	 -6.20491 	 -27.2464 	 -107.014 	 
H 	 -6.46095 	 -26.3039 	 -107.525 	 
H 	 -6.5091 	 -27.1164 	 -105.991 	 
H 	 -6.70542 	 -28.0245 	 -107.561 	 
H 	 -3.88414 	 -22.8454 	 -110.982 	 
H 	 0.444905 	 -27.731 	 -105.363 	 
*
