! wB97X-D3 SP def2-SVP
%pal
nprocs 24
end

* xyz 0 1
S 	 -90.444 	 -33.6207 	 -59.1999 	 
C 	 -89.3647 	 -34.3809 	 -60.3434 	 
C 	 -88.0909 	 -33.7743 	 -60.4021 	 
C 	 -87.9937 	 -32.6793 	 -59.4888 	 
C 	 -89.1203 	 -32.4766 	 -58.7164 	 
H 	 -87.195 	 -31.9659 	 -59.3755 	 
C 	 -86.8964 	 -34.1074 	 -61.2469 	 
H 	 -86.3911 	 -33.1488 	 -61.3737 	 
H 	 -87.0911 	 -34.6268 	 -62.1328 	 
C 	 -85.7866 	 -34.9471 	 -60.5022 	 
H 	 -85.4843 	 -34.3829 	 -59.5431 	 
H 	 -86.1717 	 -35.9266 	 -60.2591 	 
C 	 -84.5144 	 -35.1554 	 -61.3399 	 
H 	 -83.9092 	 -35.9369 	 -60.9776 	 
H 	 -84.611 	 -35.3702 	 -62.4058 	 
H 	 -83.8599 	 -34.2719 	 -61.1607 	 
S 	 -89.0963 	 -29.661 	 -58.4169 	 
C 	 -89.1539 	 -29.022 	 -56.7554 	 
C 	 -89.2071 	 -30.0617 	 -55.7554 	 
C 	 -89.2952 	 -31.3698 	 -56.386 	 
C 	 -89.1695 	 -31.3386 	 -57.7636 	 
H 	 -89.3372 	 -29.9287 	 -54.6566 	 
C 	 -89.3792 	 -32.6568 	 -55.5337 	 
H 	 -88.8251 	 -32.5905 	 -54.6234 	 
H 	 -88.7994 	 -33.4575 	 -56.0773 	 
C 	 -90.8029 	 -33.1705 	 -55.3005 	 
H 	 -91.2117 	 -33.3561 	 -56.3254 	 
H 	 -91.3701 	 -32.3997 	 -54.783 	 
C 	 -90.8449 	 -34.4737 	 -54.5218 	 
H 	 -90.4819 	 -35.3338 	 -55.0554 	 
H 	 -91.9092 	 -34.6104 	 -54.3142 	 
H 	 -90.3782 	 -34.4583 	 -53.5951 	 
H 	 -89.5529 	 -35.3 	 -60.8555 	 
H 	 -89.0837 	 -27.953 	 -56.4979 	 
*
