! wB97X-D3 SP def2-SVP
%pal
nprocs 24
end

* xyz 0 1
S 	 -134.937 	 69.9757 	 -61.3624 	 
C 	 -135.443 	 71.4273 	 -62.0443 	 
C 	 -136.401 	 71.9929 	 -61.2313 	 
C 	 -136.654 	 71.2689 	 -60.0231 	 
C 	 -135.834 	 70.1764 	 -59.9149 	 
H 	 -137.335 	 71.4829 	 -59.1969 	 
C 	 -137.3 	 73.1563 	 -61.5087 	 
H 	 -138.34 	 72.7576 	 -61.5064 	 
H 	 -137.156 	 73.4876 	 -62.5551 	 
C 	 -137.138 	 74.5029 	 -60.7063 	 
H 	 -136.088 	 74.7271 	 -60.8107 	 
H 	 -137.719 	 75.2049 	 -61.2946 	 
C 	 -137.628 	 74.3374 	 -59.2664 	 
H 	 -136.754 	 73.9749 	 -58.668 	 
H 	 -137.917 	 75.2993 	 -58.9139 	 
H 	 -138.59 	 73.7607 	 -59.1533 	 
S 	 -136.212 	 67.4652 	 -59.3461 	 
C 	 -136.405 	 67.0898 	 -57.6376 	 
C 	 -136.107 	 68.1327 	 -56.8438 	 
C 	 -135.811 	 69.3321 	 -57.5256 	 
C 	 -135.883 	 69.1667 	 -58.8794 	 
H 	 -136.051 	 67.8987 	 -55.7375 	 
C 	 -135.535 	 70.6037 	 -56.7956 	 
H 	 -135.433 	 71.441 	 -57.5996 	 
H 	 -134.54 	 70.5378 	 -56.3389 	 
C 	 -136.607 	 70.9358 	 -55.6603 	 
H 	 -136.345 	 71.8782 	 -55.0677 	 
H 	 -136.655 	 70.0453 	 -55.0757 	 
C 	 -137.888 	 71.3074 	 -56.2456 	 
H 	 -138.263 	 70.5657 	 -56.9357 	 
H 	 -137.87 	 72.2076 	 -56.825 	 
H 	 -138.713 	 71.3697 	 -55.5323 	 
H 	 -135.125 	 71.8431 	 -62.9688 	 
H 	 -136.611 	 66.0861 	 -57.3026 	 
*
