! wB97X-D3 SP def2-SVP
%pal
nprocs 24
end

* xyz 0 1
S 	 -59.3436 	 6.59742 	 -10.1869 	 
C 	 -59.1728 	 4.91289 	 -10.8728 	 
C 	 -59.7276 	 4.86434 	 -12.1246 	 
C 	 -60.1719 	 6.09573 	 -12.5889 	 
C 	 -60.1072 	 7.1042 	 -11.6219 	 
H 	 -60.462 	 6.19993 	 -13.6464 	 
C 	 -59.7064 	 3.66483 	 -13.0541 	 
H 	 -60.6879 	 3.61106 	 -13.6411 	 
H 	 -59.816 	 2.75618 	 -12.4616 	 
C 	 -58.5028 	 3.65498 	 -14.0179 	 
H 	 -58.3417 	 4.66331 	 -14.4348 	 
H 	 -57.6508 	 3.2859 	 -13.4087 	 
C 	 -58.4782 	 2.58939 	 -15.1392 	 
H 	 -57.4861 	 2.62361 	 -15.6414 	 
H 	 -58.5127 	 1.55459 	 -14.8218 	 
H 	 -59.2711 	 2.83496 	 -15.8623 	 
S 	 -61.9996 	 8.84392 	 -10.8896 	 
C 	 -62.1089 	 10.3711 	 -11.7442 	 
C 	 -61.2678 	 10.419 	 -12.7917 	 
C 	 -60.4004 	 9.29396 	 -12.9316 	 
C 	 -60.6064 	 8.42962 	 -11.8819 	 
H 	 -61.5276 	 11.0779 	 -13.6131 	 
C 	 -59.294 	 9.03789 	 -13.9694 	 
H 	 -58.884 	 7.98726 	 -13.8393 	 
H 	 -58.4217 	 9.75557 	 -13.9368 	 
C 	 -59.6553 	 9.32011 	 -15.5421 	 
H 	 -58.6946 	 9.33175 	 -15.9889 	 
H 	 -60.0566 	 10.2882 	 -15.6562 	 
C 	 -60.7189 	 8.3914 	 -16.1404 	 
H 	 -61.6185 	 8.30645 	 -15.5358 	 
H 	 -60.3182 	 7.42446 	 -16.3553 	 
H 	 -61.0463 	 8.86389 	 -17.0863 	 
H 	 -58.6753 	 4.00471 	 -10.5504 	 
H 	 -62.9124 	 11.0724 	 -11.6516 	 
*
