! wB97X-D3 SP def2-SVP
%pal
nprocs 24
end

* xyz 0 1
S 	 -97.844 	 46.8872 	 -93.7699 	 
C 	 -98.3555 	 45.4175 	 -92.937 	 
C 	 -97.9788 	 44.3291 	 -93.6645 	 
C 	 -97.5184 	 44.6426 	 -94.9777 	 
C 	 -97.6256 	 46.0259 	 -95.267 	 
H 	 -97.1617 	 43.9031 	 -95.6358 	 
C 	 -98.1838 	 42.9118 	 -93.1835 	 
H 	 -98.4018 	 42.9983 	 -92.1185 	 
H 	 -97.2545 	 42.3037 	 -93.2251 	 
C 	 -99.3767 	 42.2281 	 -93.8671 	 
H 	 -100.245 	 42.847 	 -93.7222 	 
H 	 -99.2956 	 42.008 	 -94.9319 	 
C 	 -99.7443 	 40.8963 	 -93.3153 	 
H 	 -98.8775 	 40.2351 	 -93.4594 	 
H 	 -100.004 	 40.9974 	 -92.2422 	 
H 	 -100.607 	 40.4543 	 -93.7727 	 
S 	 -95.8409 	 47.8301 	 -96.4913 	 
C 	 -95.6175 	 47.8268 	 -98.1782 	 
C 	 -96.5835 	 47.0813 	 -98.7645 	 
C 	 -97.4342 	 46.399 	 -97.8493 	 
C 	 -97.1103 	 46.6111 	 -96.5222 	 
H 	 -96.7162 	 47.0522 	 -99.8367 	 
C 	 -98.4297 	 45.3773 	 -98.3642 	 
H 	 -99.0191 	 45.9135 	 -99.0949 	 
H 	 -99.1245 	 45.0141 	 -97.5776 	 
C 	 -97.8256 	 44.0558 	 -98.8104 	 
H 	 -97.5746 	 43.4216 	 -97.9326 	 
H 	 -96.9402 	 44.1522 	 -99.4353 	 
C 	 -98.7806 	 43.3034 	 -99.7623 	 
H 	 -98.2797 	 42.3882 	 -100.212 	 
H 	 -99.1374 	 43.9498 	 -100.541 	 
H 	 -99.563 	 42.9149 	 -99.0947 	 
H 	 -98.6575 	 45.2944 	 -91.8759 	 
H 	 -94.8543 	 48.5297 	 -98.6867 	 
*
