! wB97X-D3 SP def2-SVP
%pal
nprocs 24
end

* xyz 0 1
S 	 -117.752 	 17.9303 	 -112.857 	 
C 	 -119.274 	 18.368 	 -113.663 	 
C 	 -119.506 	 17.5358 	 -114.752 	 
C 	 -118.328 	 16.8103 	 -115.132 	 
C 	 -117.294 	 16.933 	 -114.285 	 
H 	 -118.161 	 16.1923 	 -116.009 	 
C 	 -120.695 	 17.5463 	 -115.654 	 
H 	 -121.542 	 17.5934 	 -114.942 	 
H 	 -120.794 	 16.6101 	 -116.24 	 
C 	 -120.917 	 18.7791 	 -116.625 	 
H 	 -121.711 	 18.5646 	 -117.395 	 
H 	 -121.336 	 19.5779 	 -115.988 	 
C 	 -119.713 	 19.2732 	 -117.407 	 
H 	 -118.867 	 19.6504 	 -116.721 	 
H 	 -119.244 	 18.4639 	 -118.024 	 
H 	 -119.989 	 20.1632 	 -118.027 	 
S 	 -115.507 	 15.2808 	 -113.176 	 
C 	 -113.96 	 14.9902 	 -113.856 	 
C 	 -113.938 	 15.5065 	 -115.173 	 
C 	 -115.097 	 16.3145 	 -115.485 	 
C 	 -115.995 	 16.3117 	 -114.453 	 
H 	 -113.016 	 15.3735 	 -115.737 	 
C 	 -115.27 	 17.0175 	 -116.824 	 
H 	 -114.59 	 17.8744 	 -116.882 	 
H 	 -116.28 	 17.4014 	 -116.981 	 
C 	 -114.988 	 16.0404 	 -118.048 	 
H 	 -115.569 	 15.1369 	 -117.815 	 
H 	 -113.925 	 15.7051 	 -118.116 	 
C 	 -115.592 	 16.4816 	 -119.362 	 
H 	 -114.833 	 17.0291 	 -119.908 	 
H 	 -116.542 	 17.0698 	 -119.25 	 
H 	 -115.869 	 15.6582 	 -119.975 	 
H 	 -119.99 	 19.0483 	 -113.154 	 
H 	 -113.199 	 14.3261 	 -113.489 	 
*
