! wB97X-D3 SP def2-SVP
%pal
nprocs 24
end

* xyz 0 1
S 	 -87.7482 	 -2.20848 	 4.67175 	 
C 	 -86.5 	 -0.941439 	 4.64542 	 
C 	 -85.4378 	 -1.27687 	 5.43815 	 
C 	 -85.7016 	 -2.42593 	 6.27461 	 
C 	 -86.9063 	 -3.01552 	 6.0291 	 
H 	 -85.0435 	 -2.74844 	 7.06531 	 
C 	 -84.0804 	 -0.582638 	 5.65078 	 
H 	 -83.7387 	 -0.552314 	 6.69332 	 
H 	 -84.0729 	 0.471368 	 5.37767 	 
C 	 -82.8778 	 -1.09836 	 4.83338 	 
H 	 -81.9126 	 -0.551334 	 5.01594 	 
H 	 -82.6796 	 -2.07875 	 5.21334 	 
C 	 -83.0856 	 -1.31097 	 3.36532 	 
H 	 -83.8932 	 -2.12844 	 3.21905 	 
H 	 -83.6178 	 -0.444766 	 2.92152 	 
H 	 -82.2482 	 -1.53275 	 2.72619 	 
S 	 -88.2967 	 -5.41526 	 6.0538 	 
C 	 -88.738 	 -6.09857 	 7.61665 	 
C 	 -88.5472 	 -5.25262 	 8.66139 	 
C 	 -87.756 	 -4.0926 	 8.28246 	 
C 	 -87.4992 	 -4.06495 	 6.89518 	 
H 	 -89.0805 	 -5.35145 	 9.53679 	 
C 	 -87.6289 	 -2.94831 	 9.22418 	 
H 	 -88.4921 	 -2.91294 	 9.85932 	 
H 	 -87.6186 	 -1.96036 	 8.65451 	 
C 	 -86.3387 	 -2.91499 	 10.0597 	 
H 	 -85.4409 	 -2.82974 	 9.3426 	 
H 	 -86.2401 	 -3.87061 	 10.5209 	 
C 	 -86.2838 	 -1.83161 	 11.0881 	 
H 	 -87.2622 	 -1.62574 	 11.7126 	 
H 	 -86.0607 	 -0.925724 	 10.6137 	 
H 	 -85.4561 	 -2.00289 	 11.7752 	 
H 	 -86.432 	 -0.143411 	 3.96229 	 
H 	 -89.5062 	 -6.82252 	 7.72346 	 
*
