! wB97X-D3 SP def2-SVP
%pal
nprocs 24
end

* xyz 0 1
S 	 -48.0522 	 8.03281 	 -23.0573 	 
C 	 -48.1719 	 7.12618 	 -21.5707 	 
C 	 -48.6487 	 7.88333 	 -20.5689 	 
C 	 -48.8961 	 9.28876 	 -20.9863 	 
C 	 -48.5476 	 9.51404 	 -22.3203 	 
H 	 -49.3851 	 10.0804 	 -20.371 	 
C 	 -48.9838 	 7.41734 	 -19.1803 	 
H 	 -49.368 	 6.39821 	 -19.1745 	 
H 	 -49.8573 	 7.97837 	 -18.8163 	 
C 	 -47.8333 	 7.44095 	 -18.1745 	 
H 	 -47.4006 	 8.45267 	 -18.1288 	 
H 	 -48.2383 	 7.29048 	 -17.1408 	 
C 	 -46.7603 	 6.34298 	 -18.4294 	 
H 	 -46.0884 	 6.17341 	 -17.5974 	 
H 	 -47.2516 	 5.34404 	 -18.6582 	 
H 	 -45.9794 	 6.7796 	 -19.1256 	 
S 	 -50.125 	 10.6996 	 -24.1741 	 
C 	 -49.7295 	 12.2801 	 -24.6717 	 
C 	 -48.4937 	 12.7685 	 -24.1677 	 
C 	 -47.9365 	 11.8102 	 -23.2752 	 
C 	 -48.7245 	 10.6656 	 -23.147 	 
H 	 -48.0926 	 13.8024 	 -24.3129 	 
C 	 -46.8086 	 12.2402 	 -22.4095 	 
H 	 -46.1131 	 12.8209 	 -23.0456 	 
H 	 -46.2226 	 11.3433 	 -22.1664 	 
C 	 -47.3067 	 12.9225 	 -21.0465 	 
H 	 -47.917 	 12.2264 	 -20.538 	 
H 	 -47.8713 	 13.7439 	 -21.4408 	 
C 	 -46.1504 	 13.4667 	 -20.1691 	 
H 	 -46.5316 	 14.0332 	 -19.3657 	 
H 	 -45.5332 	 14.2348 	 -20.6827 	 
H 	 -45.5827 	 12.6421 	 -19.7678 	 
H 	 -47.9954 	 6.02469 	 -21.4242 	 
H 	 -50.4368 	 12.7928 	 -25.2928 	 
*
