! wB97X-D3 SP def2-SVP
%pal
nprocs 24
end

* xyz 0 1
S 	 -38.4767 	 17.8949 	 14.8557 	 
C 	 -38.7502 	 17.404 	 16.5037 	 
C 	 -40.0932 	 17.3765 	 16.7592 	 
C 	 -40.9164 	 17.8117 	 15.6743 	 
C 	 -40.1854 	 18.3568 	 14.6288 	 
H 	 -42.0224 	 17.7975 	 15.5893 	 
C 	 -40.7371 	 16.9672 	 18.0641 	 
H 	 -41.2936 	 17.8084 	 18.4836 	 
H 	 -39.8978 	 16.626 	 18.6611 	 
C 	 -41.7407 	 15.8211 	 17.9882 	 
H 	 -42.5205 	 16.3082 	 17.381 	 
H 	 -41.3069 	 14.9547 	 17.5038 	 
C 	 -42.3624 	 15.3988 	 19.3616 	 
H 	 -43.0367 	 14.5507 	 19.2204 	 
H 	 -41.6194 	 15.1133 	 20.1028 	 
H 	 -42.8492 	 16.2451 	 19.7623 	 
S 	 -41.8015 	 17.7716 	 12.3923 	 
C 	 -42.1092 	 19.0125 	 11.2429 	 
C 	 -41.1626 	 20.0128 	 11.3276 	 
C 	 -40.2837 	 19.8518 	 12.4806 	 
C 	 -40.732 	 18.8204 	 13.3425 	 
H 	 -41.0772 	 20.6743 	 10.4521 	 
C 	 -39.1126 	 20.7188 	 12.7083 	 
H 	 -38.9578 	 20.7352 	 13.797 	 
H 	 -39.3129 	 21.7451 	 12.2982 	 
C 	 -37.8582 	 20.135 	 12.1022 	 
H 	 -37.6384 	 19.1043 	 12.4723 	 
H 	 -37.0279 	 20.7615 	 12.4393 	 
C 	 -37.8072 	 20.2572 	 10.5619 	 
H 	 -37.0948 	 19.5779 	 10.1012 	 
H 	 -37.5105 	 21.2859 	 10.2917 	 
H 	 -38.7895 	 20.1447 	 10.1395 	 
H 	 -37.9765 	 17.1246 	 17.2148 	 
H 	 -42.7874 	 19.0141 	 10.426 	 
*
