! wB97X-D3 SP def2-SVP
%pal
nprocs 24
end

* xyz 0 1
S 	 -124.284 	 54.9474 	 -59.3331 	 
C 	 -124.027 	 55.1536 	 -61.0513 	 
C 	 -124.782 	 56.1761 	 -61.6553 	 
C 	 -125.485 	 56.8386 	 -60.5812 	 
C 	 -125.438 	 56.2011 	 -59.3814 	 
H 	 -126.014 	 57.7205 	 -60.7934 	 
C 	 -124.905 	 56.7275 	 -63.1031 	 
H 	 -125.059 	 57.7611 	 -63.0968 	 
H 	 -125.775 	 56.3422 	 -63.5461 	 
C 	 -123.722 	 56.3755 	 -63.9938 	 
H 	 -123.618 	 55.2906 	 -64.116 	 
H 	 -123.934 	 56.6151 	 -65.0245 	 
C 	 -122.393 	 57.1691 	 -63.7047 	 
H 	 -121.686 	 57.1777 	 -64.5087 	 
H 	 -122.442 	 58.1354 	 -63.3044 	 
H 	 -121.805 	 56.5742 	 -62.9581 	 
S 	 -125.717 	 58.3267 	 -57.6195 	 
C 	 -126.804 	 58.1975 	 -56.3187 	 
C 	 -127.239 	 56.939 	 -56.0969 	 
C 	 -126.788 	 56.0487 	 -57.1204 	 
C 	 -125.989 	 56.6406 	 -58.0989 	 
H 	 -127.84 	 56.6388 	 -55.2911 	 
C 	 -127.129 	 54.608 	 -57.0423 	 
H 	 -126.793 	 54.1378 	 -57.9854 	 
H 	 -128.264 	 54.6372 	 -57.147 	 
C 	 -126.519 	 53.8284 	 -55.8087 	 
H 	 -126.724 	 54.4456 	 -54.9176 	 
H 	 -125.483 	 53.8797 	 -56.0555 	 
C 	 -127.122 	 52.4096 	 -55.6421 	 
H 	 -126.419 	 51.6348 	 -55.2413 	 
H 	 -127.434 	 52.087 	 -56.6381 	 
H 	 -128.018 	 52.5255 	 -55.064 	 
H 	 -123.421 	 54.4461 	 -61.5326 	 
H 	 -127.061 	 59.0706 	 -55.6855 	 
*
