! wB97X-D3 SP def2-SVP
%pal
nprocs 24
end

* xyz 0 1
S 	 -63.557 	 19.7361 	 -73.5196 	 
C 	 -63.7775 	 18.1504 	 -74.2203 	 
C 	 -65.0012 	 17.5835 	 -73.8459 	 
C 	 -65.736 	 18.4202 	 -72.9993 	 
C 	 -65.1333 	 19.6464 	 -72.7945 	 
H 	 -66.71 	 18.2248 	 -72.6437 	 
C 	 -65.6273 	 16.1809 	 -74.3161 	 
H 	 -65.911 	 16.3276 	 -75.3826 	 
H 	 -66.5626 	 15.8965 	 -73.8483 	 
C 	 -64.6827 	 14.9604 	 -74.1493 	 
H 	 -63.7698 	 15.0763 	 -74.7585 	 
H 	 -64.1679 	 14.9965 	 -73.2056 	 
C 	 -65.4504 	 13.6292 	 -74.3345 	 
H 	 -65.8789 	 13.5717 	 -75.3901 	 
H 	 -64.8638 	 12.8234 	 -74.0963 	 
H 	 -66.2545 	 13.4831 	 -73.6402 	 
S 	 -64.8845 	 21.0969 	 -70.5129 	 
C 	 -65.7858 	 22.6085 	 -70.4289 	 
C 	 -66.8023 	 22.6123 	 -71.3307 	 
C 	 -66.6646 	 21.5766 	 -72.2823 	 
C 	 -65.6128 	 20.7357 	 -72.0248 	 
H 	 -67.4283 	 23.4396 	 -71.2994 	 
C 	 -67.7107 	 21.363 	 -73.3426 	 
H 	 -67.7469 	 20.3132 	 -73.7193 	 
H 	 -67.4993 	 21.9975 	 -74.2291 	 
C 	 -69.1802 	 21.7782 	 -72.9919 	 
H 	 -69.8507 	 21.7162 	 -73.8169 	 
H 	 -69.0093 	 22.8704 	 -72.8485 	 
C 	 -69.867 	 21.1121 	 -71.7754 	 
H 	 -70.6348 	 21.8073 	 -71.3756 	 
H 	 -69.1384 	 21.0389 	 -71.0184 	 
H 	 -70.1996 	 20.1599 	 -72.149 	 
H 	 -63.1107 	 17.539 	 -74.8617 	 
H 	 -65.7 	 23.3567 	 -69.6488 	 
*
