! wB97X-D3 SP def2-SVP
%pal
nprocs 24
end

* xyz 0 1
S 	 -62.9646 	 -0.19274 	 -21.0032 	 
C 	 -63.1365 	 0.485039 	 -19.3627 	 
C 	 -62.7894 	 -0.447325 	 -18.3999 	 
C 	 -62.2057 	 -1.62962 	 -19.0035 	 
C 	 -62.1836 	 -1.58395 	 -20.4027 	 
H 	 -61.8392 	 -2.46208 	 -18.4378 	 
C 	 -62.8602 	 -0.23361 	 -16.8792 	 
H 	 -62.5768 	 0.752137 	 -16.7129 	 
H 	 -62.1199 	 -0.847429 	 -16.367 	 
C 	 -64.1441 	 -0.584663 	 -16.1468 	 
H 	 -64.3048 	 -1.65493 	 -16.0965 	 
H 	 -63.9305 	 -0.315345 	 -15.1004 	 
C 	 -65.4204 	 0.0457733 	 -16.7923 	 
H 	 -65.6196 	 -0.642486 	 -17.5464 	 
H 	 -66.313 	 -0.056571 	 -16.0856 	 
H 	 -65.2641 	 1.06599 	 -17.1857 	 
S 	 -60.962 	 -2.24333 	 -22.7876 	 
C 	 -60.7846 	 -3.93105 	 -23.2192 	 
C 	 -61.5308 	 -4.74777 	 -22.369 	 
C 	 -62.0768 	 -4.01714 	 -21.269 	 
C 	 -61.8542 	 -2.6515 	 -21.3473 	 
H 	 -61.581 	 -5.76572 	 -22.5225 	 
C 	 -62.7034 	 -4.65803 	 -20.0732 	 
H 	 -63.5881 	 -4.09155 	 -19.752 	 
H 	 -62.002 	 -4.359 	 -19.2707 	 
C 	 -62.8994 	 -6.23665 	 -20.1248 	 
H 	 -62.9671 	 -6.57315 	 -19.0981 	 
H 	 -61.9552 	 -6.70742 	 -20.5995 	 
C 	 -64.0787 	 -6.72362 	 -20.9506 	 
H 	 -64.0461 	 -7.80376 	 -21.0735 	 
H 	 -63.8745 	 -6.25225 	 -21.9437 	 
H 	 -65.0916 	 -6.34552 	 -20.5492 	 
H 	 -63.6491 	 1.36764 	 -19.2091 	 
H 	 -60.3095 	 -4.21276 	 -24.1519 	 
*
