! wB97X-D3 SP def2-SVP
%pal
nprocs 24
end

* xyz 0 1
S 	 -117.885 	 48.6067 	 -120.017 	 
C 	 -116.619 	 47.4107 	 -120.634 	 
C 	 -115.449 	 47.5973 	 -119.937 	 
C 	 -115.596 	 48.5486 	 -118.874 	 
C 	 -116.809 	 49.1798 	 -118.8 	 
H 	 -114.838 	 48.8415 	 -118.139 	 
C 	 -114.155 	 46.7735 	 -120.115 	 
H 	 -114.473 	 45.9525 	 -120.76 	 
H 	 -113.726 	 46.5553 	 -119.177 	 
C 	 -113.164 	 47.5851 	 -120.944 	 
H 	 -113.056 	 48.6563 	 -120.58 	 
H 	 -112.178 	 47.1984 	 -120.823 	 
C 	 -113.489 	 47.6669 	 -122.489 	 
H 	 -114.462 	 48.1415 	 -122.764 	 
H 	 -112.692 	 48.2901 	 -122.887 	 
H 	 -113.381 	 46.71 	 -122.928 	 
S 	 -116.251 	 51.8168 	 -118.087 	 
C 	 -117.285 	 52.4619 	 -116.879 	 
C 	 -118.329 	 51.6739 	 -116.435 	 
C 	 -118.204 	 50.3742 	 -117.03 	 
C 	 -117.138 	 50.2877 	 -117.928 	 
H 	 -119.005 	 51.9388 	 -115.662 	 
C 	 -119.046 	 49.1565 	 -116.703 	 
H 	 -118.722 	 48.2515 	 -117.254 	 
H 	 -120.023 	 49.4306 	 -117.047 	 
C 	 -119.175 	 48.6986 	 -115.206 	 
H 	 -119.85 	 47.812 	 -115.23 	 
H 	 -119.721 	 49.4176 	 -114.667 	 
C 	 -117.875 	 48.4784 	 -114.504 	 
H 	 -117.393 	 49.4038 	 -114.274 	 
H 	 -117.124 	 48.0105 	 -115.147 	 
H 	 -117.941 	 47.7861 	 -113.616 	 
H 	 -116.797 	 46.6754 	 -121.372 	 
H 	 -117.319 	 53.5289 	 -116.708 	 
*
