! wB97X-D3 SP def2-SVP
%pal
nprocs 24
end

* xyz 0 1
S 	 -144.653 	 18.5197 	 -3.57392 	 
C 	 -142.955 	 18.1273 	 -3.66528 	 
C 	 -142.732 	 16.7859 	 -3.47928 	 
C 	 -143.964 	 16.0781 	 -3.12193 	 
C 	 -145.059 	 16.8761 	 -3.11379 	 
H 	 -144.038 	 15.051 	 -2.71993 	 
C 	 -141.386 	 16.1298 	 -3.6868 	 
H 	 -141.087 	 15.6406 	 -2.76712 	 
H 	 -140.644 	 16.9264 	 -3.69384 	 
C 	 -141.122 	 15.1122 	 -4.83356 	 
H 	 -140.044 	 14.6868 	 -4.88355 	 
H 	 -141.772 	 14.3169 	 -4.70169 	 
C 	 -141.352 	 15.6761 	 -6.21975 	 
H 	 -140.556 	 16.3431 	 -6.56894 	 
H 	 -141.219 	 14.8152 	 -6.8695 	 
H 	 -142.323 	 16.1021 	 -6.32824 	 
S 	 -147.439 	 17.883 	 -2.11102 	 
C 	 -148.67 	 16.7175 	 -1.64014 	 
C 	 -148.501 	 15.5311 	 -2.28314 	 
C 	 -147.262 	 15.4712 	 -2.97497 	 
C 	 -146.462 	 16.5865 	 -2.85211 	 
H 	 -149.309 	 14.7229 	 -2.15209 	 
C 	 -146.915 	 14.2594 	 -3.7419 	 
H 	 -146.068 	 14.5418 	 -4.33572 	 
H 	 -147.787 	 14.0791 	 -4.40797 	 
C 	 -146.699 	 13.0048 	 -2.86409 	 
H 	 -147.541 	 12.9358 	 -2.18507 	 
H 	 -145.697 	 12.9586 	 -2.30495 	 
C 	 -146.673 	 11.7074 	 -3.69904 	 
H 	 -147.628 	 11.2965 	 -4.05424 	 
H 	 -146.235 	 10.899 	 -3.13232 	 
H 	 -146.118 	 11.8804 	 -4.57175 	 
H 	 -142.194 	 18.7805 	 -4.07398 	 
H 	 -149.569 	 17.0509 	 -1.07102 	 
*
