! wB97X-D3 SP def2-SVP
%pal
nprocs 24
end

* xyz 0 1
S 	 -114.876 	 17.5807 	 -115.333 	 
C 	 -114.627 	 18.5079 	 -116.768 	 
C 	 -114.555 	 17.6694 	 -117.862 	 
C 	 -114.401 	 16.2901 	 -117.498 	 
C 	 -114.699 	 16.06 	 -116.136 	 
H 	 -114.266 	 15.4109 	 -118.135 	 
C 	 -114.28 	 18.0205 	 -119.282 	 
H 	 -113.934 	 17.0691 	 -119.82 	 
H 	 -113.264 	 18.5106 	 -119.341 	 
C 	 -115.413 	 18.6707 	 -120.033 	 
H 	 -116.329 	 18.1003 	 -120.012 	 
H 	 -115.712 	 19.6185 	 -119.58 	 
C 	 -114.974 	 18.8809 	 -121.52 	 
H 	 -113.998 	 19.3421 	 -121.583 	 
H 	 -114.716 	 17.8879 	 -121.957 	 
H 	 -115.661 	 19.397 	 -122.133 	 
S 	 -113.08 	 13.9669 	 -115.451 	 
C 	 -113.615 	 12.7156 	 -114.331 	 
C 	 -114.898 	 12.9504 	 -113.928 	 
C 	 -115.487 	 14.1311 	 -114.522 	 
C 	 -114.619 	 14.7726 	 -115.421 	 
H 	 -115.479 	 12.3969 	 -113.216 	 
C 	 -116.911 	 14.5877 	 -114.296 	 
H 	 -117.069 	 15.2086 	 -115.156 	 
H 	 -116.821 	 15.2949 	 -113.47 	 
C 	 -118.105 	 13.5251 	 -114.298 	 
H 	 -119.133 	 13.7867 	 -114.187 	 
H 	 -118.005 	 12.8851 	 -113.481 	 
C 	 -118.135 	 12.5317 	 -115.472 	 
H 	 -117.27 	 11.904 	 -115.444 	 
H 	 -118.183 	 12.999 	 -116.447 	 
H 	 -119.014 	 11.8957 	 -115.427 	 
H 	 -114.671 	 19.5872 	 -116.812 	 
H 	 -113.029 	 11.8416 	 -114.017 	 
*
