! wB97X-D3 SP def2-SVP
%pal
nprocs 24
end

* xyz 0 1
S 	 -83.309 	 1.93238 	 -114.271 	 
C 	 -83.2658 	 3.55061 	 -114.822 	 
C 	 -84.5141 	 4.08691 	 -115.068 	 
C 	 -85.5116 	 3.06531 	 -114.978 	 
C 	 -85.0521 	 1.86648 	 -114.469 	 
H 	 -86.5579 	 3.24744 	 -115.114 	 
C 	 -84.85 	 5.54078 	 -115.377 	 
H 	 -84.0103 	 5.99066 	 -115.928 	 
H 	 -84.8942 	 6.08912 	 -114.482 	 
C 	 -86.217 	 5.93518 	 -116.063 	 
H 	 -86.1662 	 5.57445 	 -117.06 	 
H 	 -87.1097 	 5.45228 	 -115.664 	 
C 	 -86.3516 	 7.43819 	 -116.176 	 
H 	 -86.1166 	 8.10365 	 -115.287 	 
H 	 -85.5954 	 7.74564 	 -116.849 	 
H 	 -87.3157 	 7.70235 	 -116.516 	 
S 	 -85.2457 	 0.118019 	 -112.431 	 
C 	 -86.581 	 -1.04546 	 -112.427 	 
C 	 -87.4213 	 -0.886561 	 -113.502 	 
C 	 -87.0375 	 0.14414 	 -114.416 	 
C 	 -85.8078 	 0.72406 	 -113.999 	 
H 	 -88.2748 	 -1.54634 	 -113.556 	 
C 	 -87.8001 	 0.536269 	 -115.623 	 
H 	 -88.2035 	 -0.421773 	 -116.062 	 
H 	 -87.124 	 0.899963 	 -116.367 	 
C 	 -89.1634 	 1.21213 	 -115.33 	 
H 	 -88.9583 	 2.15426 	 -114.822 	 
H 	 -89.7902 	 0.686549 	 -114.612 	 
C 	 -89.8679 	 1.52588 	 -116.691 	 
H 	 -89.1902 	 1.95618 	 -117.318 	 
H 	 -90.6597 	 2.21672 	 -116.47 	 
H 	 -90.2217 	 0.605402 	 -117.206 	 
H 	 -82.4008 	 4.19212 	 -115.152 	 
H 	 -86.634 	 -1.94082 	 -111.776 	 
*
