! wB97X-D3 SP def2-SVP
%pal
nprocs 24
end

* xyz 0 1
S 	 -73.8431 	 7.36138 	 -103.598 	 
C 	 -75.3549 	 8.39679 	 -103.463 	 
C 	 -75.7464 	 8.72675 	 -104.75 	 
C 	 -74.9347 	 8.11695 	 -105.743 	 
C 	 -73.7987 	 7.51857 	 -105.275 	 
H 	 -75.0775 	 8.15859 	 -106.826 	 
C 	 -76.9074 	 9.613 	 -105.139 	 
H 	 -76.5888 	 10.3136 	 -105.956 	 
H 	 -77.1797 	 10.3212 	 -104.251 	 
C 	 -78.2199 	 8.77932 	 -105.521 	 
H 	 -78.3205 	 8.06053 	 -104.701 	 
H 	 -78.9954 	 9.54442 	 -105.415 	 
C 	 -78.1801 	 8.05798 	 -106.885 	 
H 	 -77.2951 	 7.35889 	 -106.914 	 
H 	 -79.1303 	 7.52025 	 -106.882 	 
H 	 -78.1225 	 8.75054 	 -107.737 	 
S 	 -71.8565 	 5.56479 	 -105.231 	 
C 	 -71.0061 	 5.1669 	 -106.726 	 
C 	 -71.3714 	 5.98007 	 -107.762 	 
C 	 -72.3117 	 6.9296 	 -107.384 	 
C 	 -72.762 	 6.85533 	 -106.053 	 
H 	 -70.8071 	 5.81559 	 -108.715 	 
C 	 -72.8128 	 7.86109 	 -108.486 	 
H 	 -71.9967 	 8.26846 	 -109.089 	 
H 	 -73.1988 	 8.75573 	 -107.909 	 
C 	 -74.0514 	 7.29357 	 -109.281 	 
H 	 -74.7604 	 6.62655 	 -108.795 	 
H 	 -73.7594 	 6.60457 	 -110.004 	 
C 	 -74.9292 	 8.45468 	 -109.951 	 
H 	 -74.2732 	 9.20093 	 -110.428 	 
H 	 -75.6314 	 8.97009 	 -109.294 	 
H 	 -75.5988 	 7.9392 	 -110.647 	 
H 	 -75.7935 	 8.65995 	 -102.469 	 
H 	 -70.0958 	 4.56661 	 -106.901 	 
*
