! wB97X-D3 SP def2-SVP
%pal
nprocs 24
end

* xyz 0 1
S 	 29.5943 	 -31.8634 	 -133.378 	 
C 	 30.4869 	 -30.7154 	 -134.364 	 
C 	 30.4663 	 -29.4532 	 -133.818 	 
C 	 29.6416 	 -29.4327 	 -132.655 	 
C 	 29.2636 	 -30.6635 	 -132.162 	 
H 	 29.3682 	 -28.571 	 -132.098 	 
C 	 30.972 	 -28.2205 	 -134.461 	 
H 	 30.1039 	 -27.5962 	 -134.63 	 
H 	 31.3616 	 -28.3807 	 -135.519 	 
C 	 31.8436 	 -27.374 	 -133.48 	 
H 	 31.2536 	 -27.0922 	 -132.635 	 
H 	 32.7844 	 -27.9452 	 -133.156 	 
C 	 32.2715 	 -26.0437 	 -134.167 	 
H 	 32.9865 	 -25.5273 	 -133.479 	 
H 	 32.6217 	 -26.2906 	 -135.128 	 
H 	 31.4039 	 -25.3881 	 -134.276 	 
S 	 27.1818 	 -32.1418 	 -131.32 	 
C 	 26.4602 	 -31.9637 	 -129.761 	 
C 	 26.9537 	 -30.8476 	 -129.167 	 
C 	 28.0212 	 -30.2096 	 -129.851 	 
C 	 28.3011 	 -30.8435 	 -131.089 	 
H 	 26.7209 	 -30.5629 	 -128.17 	 
C 	 28.8072 	 -29.0186 	 -129.45 	 
H 	 28.4448 	 -28.0847 	 -129.845 	 
H 	 29.8142 	 -29.0014 	 -129.924 	 
C 	 29.0146 	 -28.79 	 -127.966 	 
H 	 29.3078 	 -29.6215 	 -127.351 	 
H 	 28.0402 	 -28.4878 	 -127.544 	 
C 	 30.0405 	 -27.6675 	 -127.787 	 
H 	 30.3137 	 -27.5435 	 -126.748 	 
H 	 29.6327 	 -26.72 	 -128.103 	 
H 	 30.9393 	 -27.858 	 -128.295 	 
H 	 31.0832 	 -30.9641 	 -135.25 	 
H 	 25.7361 	 -32.577 	 -129.295 	 
*
