! wB97X-D3 SP def2-SVP
%pal
nprocs 24
end

* xyz 0 1
S 	 -116.183 	 23.3875 	 -117.753 	 
C 	 -117.792 	 23.0988 	 -118.344 	 
C 	 -118.65 	 24.1719 	 -118.258 	 
C 	 -117.869 	 25.3626 	 -117.982 	 
C 	 -116.598 	 25.0515 	 -117.612 	 
H 	 -118.228 	 26.3862 	 -117.809 	 
C 	 -120.064 	 24.1551 	 -118.718 	 
H 	 -120.227 	 23.3332 	 -119.322 	 
H 	 -120.097 	 24.9795 	 -119.384 	 
C 	 -121.131 	 24.3148 	 -117.534 	 
H 	 -120.824 	 25.1937 	 -116.962 	 
H 	 -122.09 	 24.5526 	 -117.958 	 
C 	 -121.324 	 23.1552 	 -116.579 	 
H 	 -121.439 	 22.1528 	 -117.012 	 
H 	 -120.386 	 23.1083 	 -115.999 	 
H 	 -122.156 	 23.3821 	 -115.826 	 
S 	 -114.429 	 25.3918 	 -115.971 	 
C 	 -113.455 	 26.8563 	 -116.194 	 
C 	 -114.072 	 27.8133 	 -117.014 	 
C 	 -115.268 	 27.3208 	 -117.584 	 
C 	 -115.546 	 25.9978 	 -117.199 	 
H 	 -113.526 	 28.7304 	 -117.281 	 
C 	 -115.945 	 28.1927 	 -118.721 	 
H 	 -116.715 	 27.6539 	 -119.199 	 
H 	 -115.192 	 28.2833 	 -119.548 	 
C 	 -116.401 	 29.6419 	 -118.368 	 
H 	 -116.616 	 30.2527 	 -119.285 	 
H 	 -115.545 	 30.1329 	 -117.809 	 
C 	 -117.676 	 29.6745 	 -117.576 	 
H 	 -117.512 	 29.8919 	 -116.533 	 
H 	 -118.098 	 28.6705 	 -117.612 	 
H 	 -118.575 	 30.3165 	 -117.793 	 
H 	 -118.104 	 22.1267 	 -118.679 	 
H 	 -112.492 	 26.9707 	 -115.696 	 
*
