! wB97X-D3 SP def2-SVP
%pal
nprocs 24
end

* xyz 0 1
S 	 -115.431 	 37.3148 	 -119.583 	 
C 	 -114.658 	 36.7408 	 -121.023 	 
C 	 -114.271 	 35.4099 	 -120.903 	 
C 	 -114.575 	 34.9399 	 -119.611 	 
C 	 -115.127 	 35.8367 	 -118.751 	 
H 	 -114.373 	 33.9306 	 -119.255 	 
C 	 -113.589 	 34.4981 	 -121.885 	 
H 	 -114.182 	 34.4121 	 -122.781 	 
H 	 -113.445 	 33.546 	 -121.441 	 
C 	 -112.275 	 35.0646 	 -122.362 	 
H 	 -112.435 	 36.0838 	 -122.715 	 
H 	 -111.478 	 35.0532 	 -121.599 	 
C 	 -111.865 	 34.1168 	 -123.538 	 
H 	 -110.992 	 34.4141 	 -124.083 	 
H 	 -111.445 	 33.1396 	 -123.203 	 
H 	 -112.731 	 33.9699 	 -124.23 	 
S 	 -114.52 	 36.5061 	 -116.071 	 
C 	 -115.589 	 35.8208 	 -114.838 	 
C 	 -116.506 	 34.9269 	 -115.309 	 
C 	 -116.438 	 34.8767 	 -116.75 	 
C 	 -115.428 	 35.7034 	 -117.295 	 
H 	 -117.132 	 34.4033 	 -114.578 	 
C 	 -117.584 	 34.1458 	 -117.484 	 
H 	 -117.382 	 33.0843 	 -117.424 	 
H 	 -117.552 	 34.5043 	 -118.518 	 
C 	 -119.009 	 34.5287 	 -116.916 	 
H 	 -119.172 	 35.5464 	 -116.787 	 
H 	 -118.982 	 34.008 	 -115.929 	 
C 	 -120.147 	 33.9416 	 -117.744 	 
H 	 -119.901 	 32.9719 	 -118.021 	 
H 	 -120.286 	 34.4611 	 -118.661 	 
H 	 -121.005 	 34.0431 	 -117.029 	 
H 	 -114.4 	 37.2625 	 -121.909 	 
H 	 -115.377 	 35.8849 	 -113.781 	 
*
