! wB97X-D3 SP def2-SVP
%pal
nprocs 24
end

* xyz 0 1
S 	 -55.8452 	 -49.2193 	 -83.0039 	 
C 	 -56.3502 	 -47.8477 	 -82.023 	 
C 	 -55.4483 	 -47.443 	 -81.1 	 
C 	 -54.1889 	 -48.1473 	 -81.2554 	 
C 	 -54.2799 	 -49.1781 	 -82.1924 	 
H 	 -53.3332 	 -47.9212 	 -80.6788 	 
C 	 -55.6341 	 -46.3687 	 -80.1258 	 
H 	 -55.0461 	 -46.4902 	 -79.2156 	 
H 	 -56.6775 	 -46.3801 	 -79.7285 	 
C 	 -55.2661 	 -45.0635 	 -80.6967 	 
H 	 -55.4463 	 -45.1238 	 -81.7573 	 
H 	 -55.988 	 -44.2482 	 -80.3454 	 
C 	 -53.8466 	 -44.5477 	 -80.3951 	 
H 	 -53.1489 	 -45.2335 	 -80.8843 	 
H 	 -53.7409 	 -43.6364 	 -80.9691 	 
H 	 -53.5904 	 -44.4181 	 -79.3758 	 
S 	 -52.8765 	 -50.0854 	 -84.3315 	 
C 	 -51.8208 	 -51.4406 	 -84.2352 	 
C 	 -51.5707 	 -51.7254 	 -82.8993 	 
C 	 -52.3028 	 -50.9225 	 -81.9654 	 
C 	 -53.2466 	 -50.1294 	 -82.6172 	 
H 	 -50.9682 	 -52.6166 	 -82.6714 	 
C 	 -52.2792 	 -51.202 	 -80.403 	 
H 	 -51.5032 	 -51.9879 	 -80.3214 	 
H 	 -53.1408 	 -51.6685 	 -80.1909 	 
C 	 -52.089 	 -50.2087 	 -79.225 	 
H 	 -52.0029 	 -50.734 	 -78.2335 	 
H 	 -53.0677 	 -49.675 	 -79.0894 	 
C 	 -50.9038 	 -49.1953 	 -79.4236 	 
H 	 -51.1579 	 -48.6455 	 -80.3075 	 
H 	 -49.9618 	 -49.7449 	 -79.634 	 
H 	 -50.8581 	 -48.546 	 -78.5312 	 
H 	 -57.2956 	 -47.409 	 -82.066 	 
H 	 -51.3824 	 -51.9511 	 -85.0774 	 
*
