! wB97X-D3 SP def2-SVP
%pal
nprocs 24
end

* xyz 0 1
S 	 -125.752 	 60.3432 	 -59.6761 	 
C 	 -127.038 	 60.7885 	 -60.6885 	 
C 	 -128.054 	 61.2387 	 -59.9296 	 
C 	 -127.799 	 61.3316 	 -58.5577 	 
C 	 -126.522 	 60.9341 	 -58.1989 	 
H 	 -128.501 	 61.6798 	 -57.8092 	 
C 	 -129.383 	 61.6514 	 -60.437 	 
H 	 -130.098 	 61.7003 	 -59.6026 	 
H 	 -129.65 	 60.8747 	 -61.1469 	 
C 	 -129.569 	 62.9503 	 -61.1889 	 
H 	 -130.626 	 63.049 	 -61.3166 	 
H 	 -129.184 	 63.7275 	 -60.6082 	 
C 	 -128.926 	 62.9035 	 -62.63 	 
H 	 -129.228 	 63.7602 	 -63.306 	 
H 	 -127.852 	 62.8912 	 -62.5908 	 
H 	 -129.215 	 62.0223 	 -63.218 	 
S 	 -124.456 	 61.7996 	 -56.7002 	 
C 	 -124.572 	 61.5835 	 -55.0022 	 
C 	 -125.777 	 61.171 	 -54.5374 	 
C 	 -126.599 	 60.7804 	 -55.6087 	 
C 	 -125.975 	 60.9479 	 -56.8605 	 
H 	 -126.043 	 61.2002 	 -53.4942 	 
C 	 -127.863 	 60.0029 	 -55.4273 	 
H 	 -128.662 	 60.5666 	 -55.9191 	 
H 	 -128.164 	 60.1028 	 -54.3551 	 
C 	 -127.846 	 58.5129 	 -55.9038 	 
H 	 -127.548 	 58.3967 	 -56.9828 	 
H 	 -128.838 	 58.1234 	 -55.7594 	 
C 	 -126.741 	 57.6928 	 -55.1913 	 
H 	 -125.78 	 57.846 	 -55.6399 	 
H 	 -126.933 	 56.5733 	 -55.215 	 
H 	 -126.643 	 57.9777 	 -54.1662 	 
H 	 -127.038 	 60.7852 	 -61.777 	 
H 	 -123.731 	 61.8497 	 -54.3468 	 
*
