! wB97X-D3 SP def2-SVP
%pal
nprocs 24
end

* xyz 0 1
S 	 -112.594 	 59.2285 	 -21.7186 	 
C 	 -111.717 	 60.7484 	 -21.7227 	 
C 	 -112.436 	 61.7383 	 -22.4015 	 
C 	 -113.587 	 61.2573 	 -23.0848 	 
C 	 -113.654 	 59.8738 	 -22.9184 	 
H 	 -114.295 	 61.8274 	 -23.7242 	 
C 	 -111.991 	 63.216 	 -22.5236 	 
H 	 -111.648 	 63.2705 	 -23.5244 	 
H 	 -111.132 	 63.3605 	 -21.8955 	 
C 	 -112.973 	 64.3544 	 -22.2742 	 
H 	 -113.833 	 64.296 	 -22.9247 	 
H 	 -113.375 	 64.1809 	 -21.2589 	 
C 	 -112.4 	 65.7714 	 -22.3593 	 
H 	 -113.154 	 66.5469 	 -22.3598 	 
H 	 -111.845 	 65.9047 	 -21.4731 	 
H 	 -111.801 	 65.977 	 -23.2465 	 
S 	 -115.813 	 58.3218 	 -22.1132 	 
C 	 -116.956 	 57.8188 	 -23.264 	 
C 	 -116.58 	 58.0162 	 -24.5563 	 
C 	 -115.394 	 58.851 	 -24.5639 	 
C 	 -114.805 	 59.1044 	 -23.3097 	 
H 	 -117.02 	 57.5602 	 -25.4775 	 
C 	 -114.858 	 59.232 	 -25.9197 	 
H 	 -115.211 	 58.4109 	 -26.5598 	 
H 	 -113.802 	 59.1814 	 -25.91 	 
C 	 -115.426 	 60.5263 	 -26.4627 	 
H 	 -115.227 	 61.375 	 -25.7851 	 
H 	 -116.469 	 60.3814 	 -26.5425 	 
C 	 -114.887 	 60.9194 	 -27.8601 	 
H 	 -115.575 	 61.6104 	 -28.2838 	 
H 	 -114.95 	 60.2096 	 -28.6951 	 
H 	 -113.88 	 61.3764 	 -27.9356 	 
H 	 -110.878 	 60.9556 	 -21.0834 	 
H 	 -117.854 	 57.2466 	 -23.1165 	 
*
