! wB97X-D3 SP def2-SVP
%pal
nprocs 24
end

* xyz 0 1
S 	 -123.66 	 66.914 	 -38.559 	 
C 	 -123.457 	 68.5414 	 -37.8107 	 
C 	 -123.268 	 69.4515 	 -38.8476 	 
C 	 -123.27 	 68.8783 	 -40.1969 	 
C 	 -123.519 	 67.5072 	 -40.2473 	 
H 	 -123.067 	 69.3042 	 -41.1949 	 
C 	 -122.984 	 70.9231 	 -38.6239 	 
H 	 -121.92 	 70.9544 	 -38.8407 	 
H 	 -122.931 	 71.2371 	 -37.5788 	 
C 	 -123.845 	 71.9539 	 -39.3744 	 
H 	 -123.334 	 72.894 	 -39.256 	 
H 	 -123.83 	 71.7996 	 -40.4289 	 
C 	 -125.292 	 72.2144 	 -38.8491 	 
H 	 -126.041 	 71.667 	 -39.479 	 
H 	 -125.348 	 71.9274 	 -37.831 	 
H 	 -125.511 	 73.2969 	 -38.8968 	 
S 	 -122.576 	 65.2506 	 -41.5834 	 
C 	 -123.151 	 64.8114 	 -43.2251 	 
C 	 -124.105 	 65.6529 	 -43.5919 	 
C 	 -124.478 	 66.6751 	 -42.6231 	 
C 	 -123.651 	 66.6875 	 -41.4769 	 
H 	 -124.42 	 65.4191 	 -44.5314 	 
C 	 -125.452 	 67.8151 	 -42.9072 	 
H 	 -125.454 	 67.9393 	 -43.9779 	 
H 	 -124.989 	 68.7621 	 -42.5825 	 
C 	 -126.911 	 67.5666 	 -42.585 	 
H 	 -127.037 	 67.6531 	 -41.4948 	 
H 	 -127.303 	 66.5205 	 -42.8299 	 
C 	 -127.751 	 68.7156 	 -43.2177 	 
H 	 -127.3 	 69.2261 	 -44.0699 	 
H 	 -127.969 	 69.4933 	 -42.4994 	 
H 	 -128.778 	 68.4014 	 -43.474 	 
H 	 -123.364 	 68.7782 	 -36.8007 	 
H 	 -122.907 	 63.9677 	 -43.8255 	 
*
