! wB97X-D3 SP def2-SVP
%pal
nprocs 24
end

* xyz 0 1
S 	 -41.3677 	 -48.1068 	 -78.3849 	 
C 	 -42.3339 	 -49.3083 	 -79.2255 	 
C 	 -42.2978 	 -49.067 	 -80.6079 	 
C 	 -41.7381 	 -47.7798 	 -80.893 	 
C 	 -41.1848 	 -47.1107 	 -79.8124 	 
H 	 -41.7812 	 -47.316 	 -81.8734 	 
C 	 -42.9703 	 -50.0011 	 -81.5818 	 
H 	 -43.5423 	 -49.3348 	 -82.2857 	 
H 	 -43.7043 	 -50.6251 	 -81.0343 	 
C 	 -42.0816 	 -50.8986 	 -82.425 	 
H 	 -41.6548 	 -50.3528 	 -83.2102 	 
H 	 -41.2037 	 -51.1616 	 -81.8478 	 
C 	 -42.8121 	 -52.1711 	 -82.9402 	 
H 	 -42.1047 	 -52.9585 	 -83.2913 	 
H 	 -43.3784 	 -52.6678 	 -82.203 	 
H 	 -43.571 	 -51.9657 	 -83.7949 	 
S 	 -39.0769 	 -45.435 	 -80.3734 	 
C 	 -39.2286 	 -43.6962 	 -80.1587 	 
C 	 -40.5198 	 -43.4326 	 -79.6653 	 
C 	 -41.3531 	 -44.5925 	 -79.4402 	 
C 	 -40.73 	 -45.7689 	 -79.7747 	 
H 	 -40.8107 	 -42.3866 	 -79.4117 	 
C 	 -42.7323 	 -44.4487 	 -78.8578 	 
H 	 -42.9074 	 -43.4302 	 -78.5219 	 
H 	 -42.5742 	 -44.8979 	 -77.9122 	 
C 	 -43.9155 	 -44.8797 	 -79.693 	 
H 	 -44.4093 	 -45.6243 	 -79.1166 	 
H 	 -43.6935 	 -45.3166 	 -80.6065 	 
C 	 -44.9925 	 -43.7491 	 -79.8311 	 
H 	 -45.8925 	 -44.1523 	 -80.3409 	 
H 	 -44.473 	 -43.0689 	 -80.4871 	 
H 	 -45.342 	 -43.2204 	 -79.0088 	 
H 	 -42.9375 	 -50.1282 	 -78.8772 	 
H 	 -38.5402 	 -42.9302 	 -80.3386 	 
*
