! wB97X-D3 SP def2-SVP
%pal
nprocs 24
end

* xyz 0 1
S 	 -73.2684 	 7.7743 	 -111.703 	 
C 	 -73.9427 	 7.89095 	 -110.094 	 
C 	 -73.1151 	 7.44309 	 -109.149 	 
C 	 -71.8843 	 6.94339 	 -109.637 	 
C 	 -71.8808 	 6.95851 	 -111.026 	 
H 	 -71.0744 	 6.51628 	 -108.966 	 
C 	 -73.307 	 7.55843 	 -107.621 	 
H 	 -73.0096 	 6.67631 	 -107.236 	 
H 	 -74.3752 	 7.64414 	 -107.454 	 
C 	 -72.5489 	 8.71777 	 -106.914 	 
H 	 -72.8008 	 8.53147 	 -105.861 	 
H 	 -71.4559 	 8.58359 	 -107.045 	 
C 	 -72.8502 	 10.1243 	 -107.417 	 
H 	 -73.8677 	 10.5632 	 -107.349 	 
H 	 -72.2357 	 10.8529 	 -106.848 	 
H 	 -72.539 	 10.2812 	 -108.476 	 
S 	 -70.6465 	 5.01791 	 -112.412 	 
C 	 -69.3478 	 5.48779 	 -113.561 	 
C 	 -68.8947 	 6.72559 	 -113.225 	 
C 	 -69.6492 	 7.36424 	 -112.222 	 
C 	 -70.7409 	 6.62375 	 -111.829 	 
H 	 -67.9929 	 7.12967 	 -113.695 	 
C 	 -69.3878 	 8.83293 	 -111.842 	 
H 	 -68.3068 	 9.00408 	 -111.688 	 
H 	 -69.9784 	 9.00674 	 -110.878 	 
C 	 -69.8133 	 9.97312 	 -112.762 	 
H 	 -69.7797 	 10.9099 	 -112.157 	 
H 	 -70.8866 	 9.80642 	 -113.025 	 
C 	 -69.0257 	 10.1626 	 -114.014 	 
H 	 -67.9703 	 10.4381 	 -113.746 	 
H 	 -69.4569 	 10.9344 	 -114.676 	 
H 	 -69.0842 	 9.25256 	 -114.611 	 
H 	 -74.9142 	 8.37796 	 -109.88 	 
H 	 -68.6852 	 4.85449 	 -114.148 	 
*
