! wB97X-D3 SP def2-SVP
%pal
nprocs 24
end

* xyz 0 1
S 	 37.8892 	 -24.1148 	 -114.997 	 
C 	 39.5596 	 -24.5266 	 -114.822 	 
C 	 40.0383 	 -24.3925 	 -113.478 	 
C 	 38.9694 	 -23.9601 	 -112.595 	 
C 	 37.7554 	 -23.7193 	 -113.282 	 
H 	 39.0062 	 -23.7877 	 -111.51 	 
C 	 41.479 	 -24.7982 	 -113.04 	 
H 	 41.8132 	 -24.0383 	 -112.276 	 
H 	 42.1454 	 -24.7066 	 -113.846 	 
C 	 41.6438 	 -26.3073 	 -112.568 	 
H 	 40.9449 	 -26.5615 	 -111.743 	 
H 	 41.339 	 -26.9503 	 -113.335 	 
C 	 43.0724 	 -26.7497 	 -112.111 	 
H 	 43.2871 	 -27.7823 	 -112.21 	 
H 	 43.7934 	 -26.1721 	 -112.647 	 
H 	 43.105 	 -26.5674 	 -111.02 	 
S 	 35.6294 	 -21.9487 	 -113.671 	 
C 	 34.1833 	 -22.0887 	 -112.655 	 
C 	 34.4547 	 -22.8233 	 -111.519 	 
C 	 35.7145 	 -23.5252 	 -111.572 	 
C 	 36.4744 	 -23.1772 	 -112.724 	 
H 	 33.6679 	 -22.9155 	 -110.736 	 
C 	 36.1629 	 -24.3943 	 -110.415 	 
H 	 35.8103 	 -23.9685 	 -109.513 	 
H 	 37.1818 	 -24.2734 	 -110.213 	 
C 	 35.8275 	 -25.8995 	 -110.432 	 
H 	 34.7402 	 -25.9504 	 -110.401 	 
H 	 36.1377 	 -26.2804 	 -109.48 	 
C 	 36.2667 	 -26.7184 	 -111.634 	 
H 	 37.3381 	 -26.7739 	 -111.537 	 
H 	 35.9816 	 -26.2684 	 -112.583 	 
H 	 35.7889 	 -27.6445 	 -111.559 	 
H 	 40.2197 	 -24.8818 	 -115.619 	 
H 	 33.2473 	 -21.6541 	 -112.893 	 
*
