! wB97X-D3 SP def2-SVP
%pal
nprocs 24
end

* xyz 0 1
S 	 -109.521 	 51.27 	 -107.977 	 
C 	 -108.587 	 50.8357 	 -109.312 	 
C 	 -109.357 	 50.3414 	 -110.337 	 
C 	 -110.743 	 50.3486 	 -109.985 	 
C 	 -111.068 	 50.8104 	 -108.742 	 
H 	 -111.606 	 49.918 	 -110.546 	 
C 	 -108.818 	 49.8703 	 -111.717 	 
H 	 -109.664 	 49.4489 	 -112.227 	 
H 	 -108.151 	 49.0515 	 -111.442 	 
C 	 -108.053 	 50.9553 	 -112.45 	 
H 	 -107.514 	 51.5944 	 -111.712 	 
H 	 -107.402 	 50.6713 	 -113.302 	 
C 	 -109.026 	 51.995 	 -113.03 	 
H 	 -108.479 	 52.9191 	 -113.26 	 
H 	 -109.387 	 51.5436 	 -113.982 	 
H 	 -109.994 	 52.2481 	 -112.445 	 
S 	 -112.38 	 52.6315 	 -107.211 	 
C 	 -114.162 	 52.4525 	 -107.107 	 
C 	 -114.568 	 51.3144 	 -107.785 	 
C 	 -113.56 	 50.5932 	 -108.467 	 
C 	 -112.358 	 51.2089 	 -108.248 	 
H 	 -115.611 	 51.0472 	 -107.586 	 
C 	 -113.864 	 49.2723 	 -109.183 	 
H 	 -114.547 	 48.7361 	 -108.578 	 
H 	 -112.993 	 48.6191 	 -109.011 	 
C 	 -114.417 	 49.2388 	 -110.61 	 
H 	 -114.574 	 48.1653 	 -110.732 	 
H 	 -113.609 	 49.578 	 -111.315 	 
C 	 -115.767 	 50.0195 	 -110.692 	 
H 	 -116.387 	 49.4431 	 -110.131 	 
H 	 -116.064 	 49.9562 	 -111.775 	 
H 	 -115.73 	 51.1128 	 -110.34 	 
H 	 -107.505 	 51.0442 	 -109.408 	 
H 	 -114.804 	 53.0893 	 -106.473 	 
*
