! wB97X-D3 SP def2-SVP
%pal
nprocs 24
end

* xyz 0 1
S 	 -61.2078 	 15.3294 	 -91.0847 	 
C 	 -61.3239 	 16.9085 	 -91.9431 	 
C 	 -60.9733 	 17.9067 	 -91.0414 	 
C 	 -60.6672 	 17.4394 	 -89.7137 	 
C 	 -60.8164 	 16.0777 	 -89.5588 	 
H 	 -60.3654 	 18.0394 	 -88.8314 	 
C 	 -60.9577 	 19.4088 	 -91.4041 	 
H 	 -60.8623 	 19.3959 	 -92.4753 	 
H 	 -59.9678 	 19.778 	 -91.0241 	 
C 	 -62.0866 	 20.211 	 -90.8882 	 
H 	 -62.0438 	 20.0183 	 -89.8482 	 
H 	 -61.8157 	 21.2359 	 -91.0217 	 
C 	 -63.4633 	 19.7242 	 -91.4142 	 
H 	 -63.4425 	 19.7366 	 -92.5103 	 
H 	 -63.6715 	 18.6817 	 -91.1034 	 
H 	 -64.2813 	 20.3615 	 -91.0527 	 
S 	 -62.2628 	 14.3265 	 -88.1215 	 
C 	 -61.7197 	 13.7213 	 -86.6202 	 
C 	 -60.5338 	 14.2878 	 -86.237 	 
C 	 -59.9892 	 15.216 	 -87.2191 	 
C 	 -60.8305 	 15.3641 	 -88.3044 	 
H 	 -60.0683 	 13.8621 	 -85.3809 	 
C 	 -58.6555 	 15.8871 	 -87.1881 	 
H 	 -58.6586 	 16.1709 	 -86.2123 	 
H 	 -58.6424 	 16.8123 	 -87.8488 	 
C 	 -57.4234 	 14.9362 	 -87.5031 	 
H 	 -57.5787 	 14.3072 	 -88.3329 	 
H 	 -57.2694 	 14.1463 	 -86.695 	 
C 	 -56.153 	 15.7388 	 -87.7668 	 
H 	 -56.1547 	 16.2111 	 -88.7336 	 
H 	 -55.227 	 15.0828 	 -87.6878 	 
H 	 -56.0096 	 16.522 	 -87.0522 	 
H 	 -61.938 	 17.0265 	 -92.8334 	 
H 	 -62.1545 	 12.8326 	 -86.2378 	 
*
