! wB97X-D3 SP def2-SVP
%pal
nprocs 24
end

* xyz 0 1
S 	 -149.177 	 12.8272 	 -5.32961 	 
C 	 -148.614 	 13.7702 	 -6.73237 	 
C 	 -147.499 	 14.5204 	 -6.457 	 
C 	 -147.049 	 14.2466 	 -5.1129 	 
C 	 -147.812 	 13.2765 	 -4.38197 	 
H 	 -146.291 	 14.7501 	 -4.52697 	 
C 	 -146.848 	 15.5312 	 -7.38984 	 
H 	 -146.511 	 16.383 	 -6.75963 	 
H 	 -147.622 	 15.9398 	 -8.05479 	 
C 	 -145.616 	 15.0474 	 -8.2409 	 
H 	 -145.027 	 14.608 	 -7.50274 	 
H 	 -145.889 	 14.1165 	 -8.74095 	 
C 	 -144.888 	 16.0286 	 -9.11505 	 
H 	 -144.602 	 16.9395 	 -8.67714 	 
H 	 -144.067 	 15.4708 	 -9.58289 	 
H 	 -145.542 	 16.3659 	 -9.91175 	 
S 	 -147.079 	 13.8546 	 -1.83952 	 
C 	 -146.914 	 12.544 	 -0.729434 	 
C 	 -147.116 	 11.3259 	 -1.35162 	 
C 	 -147.353 	 11.4109 	 -2.78856 	 
C 	 -147.509 	 12.7232 	 -3.06867 	 
H 	 -146.831 	 10.4523 	 -0.712305 	 
C 	 -147.52 	 10.2669 	 -3.77039 	 
H 	 -148.093 	 10.483 	 -4.65471 	 
H 	 -148.183 	 9.53334 	 -3.3336 	 
C 	 -146.233 	 9.66759 	 -4.25007 	 
H 	 -145.649 	 9.21811 	 -3.45262 	 
H 	 -145.587 	 10.4812 	 -4.63439 	 
C 	 -146.55 	 8.78463 	 -5.41127 	 
H 	 -145.675 	 8.18648 	 -5.80142 	 
H 	 -146.962 	 9.3072 	 -6.25974 	 
H 	 -147.236 	 8.08912 	 -5.147 	 
H 	 -149.018 	 13.7808 	 -7.75157 	 
H 	 -146.749 	 12.6579 	 0.354142 	 
*
