! wB97X-D3 SP def2-SVP
%pal
nprocs 24
end

* xyz 0 1
S 	 -102.094 	 -1.93626 	 -115.304 	 
C 	 -101.227 	 -3.14018 	 -116.185 	 
C 	 -100.613 	 -2.63608 	 -117.241 	 
C 	 -100.543 	 -1.21984 	 -117.153 	 
C 	 -101.414 	 -0.649579 	 -116.223 	 
H 	 -99.8818 	 -0.513618 	 -117.694 	 
C 	 -99.7627 	 -3.38423 	 -118.253 	 
H 	 -99.0751 	 -4.04736 	 -117.717 	 
H 	 -99.3258 	 -2.56266 	 -118.736 	 
C 	 -100.497 	 -4.14239 	 -119.358 	 
H 	 -101.076 	 -3.44972 	 -119.989 	 
H 	 -99.6663 	 -4.617 	 -119.976 	 
C 	 -101.239 	 -5.3062 	 -118.75 	 
H 	 -100.502 	 -5.97095 	 -118.223 	 
H 	 -102.065 	 -5.00564 	 -118.045 	 
H 	 -101.826 	 -5.88663 	 -119.524 	 
S 	 -100.518 	 1.10326 	 -114.267 	 
C 	 -101.19 	 2.68861 	 -114.113 	 
C 	 -101.931 	 2.99701 	 -115.27 	 
C 	 -102.084 	 1.91474 	 -116.184 	 
C 	 -101.404 	 0.764953 	 -115.755 	 
H 	 -102.376 	 3.95269 	 -115.456 	 
C 	 -102.985 	 1.96934 	 -117.411 	 
H 	 -102.67 	 1.22748 	 -118.185 	 
H 	 -102.894 	 2.94051 	 -117.855 	 
C 	 -104.546 	 1.64937 	 -117.19 	 
H 	 -104.846 	 2.32405 	 -116.4 	 
H 	 -104.677 	 0.714208 	 -116.616 	 
C 	 -105.555 	 1.75596 	 -118.302 	 
H 	 -105.545 	 2.7101 	 -118.739 	 
H 	 -106.518 	 1.73484 	 -117.788 	 
H 	 -105.528 	 1.026 	 -119.195 	 
H 	 -101.209 	 -4.19312 	 -115.996 	 
H 	 -100.881 	 3.493 	 -113.326 	 
*
