! wB97X-D3 SP def2-SVP
%pal
nprocs 24
end

* xyz 0 1
S 	 -64.4801 	 12.6394 	 -74.2112 	 
C 	 -63.5302 	 11.3299 	 -73.5284 	 
C 	 -64.1609 	 10.1104 	 -73.6499 	 
C 	 -65.3953 	 10.1989 	 -74.3257 	 
C 	 -65.7263 	 11.481 	 -74.6625 	 
H 	 -66.0409 	 9.34646 	 -74.5634 	 
C 	 -63.538 	 8.83254 	 -73.3007 	 
H 	 -64.2587 	 8.21773 	 -72.7578 	 
H 	 -62.8857 	 9.09637 	 -72.4828 	 
C 	 -62.7089 	 8.15332 	 -74.3973 	 
H 	 -62.3124 	 7.2468 	 -74.0049 	 
H 	 -63.403 	 7.79761 	 -75.1466 	 
C 	 -61.6624 	 8.93371 	 -75.1069 	 
H 	 -62.1087 	 9.87209 	 -75.5047 	 
H 	 -60.8876 	 9.23703 	 -74.3634 	 
H 	 -61.3133 	 8.29256 	 -75.9392 	 
S 	 -67.6989 	 13.3398 	 -74.6885 	 
C 	 -68.9547 	 13.2615 	 -75.946 	 
C 	 -68.7608 	 12.1116 	 -76.7081 	 
C 	 -67.6065 	 11.3272 	 -76.3992 	 
C 	 -66.9452 	 11.8949 	 -75.3307 	 
H 	 -69.4852 	 12.0094 	 -77.5109 	 
C 	 -67.3491 	 10.1328 	 -77.2015 	 
H 	 -66.3892 	 9.65363 	 -76.9612 	 
H 	 -67.232 	 10.4519 	 -78.2576 	 
C 	 -68.3975 	 9.02021 	 -77.0192 	 
H 	 -68.2292 	 8.34259 	 -77.8416 	 
H 	 -69.3545 	 9.45246 	 -77.2247 	 
C 	 -68.3105 	 8.13307 	 -75.8116 	 
H 	 -68.687 	 8.63098 	 -74.9348 	 
H 	 -67.3362 	 7.6947 	 -75.6787 	 
H 	 -68.9716 	 7.30723 	 -75.9347 	 
H 	 -62.4903 	 11.4737 	 -73.2101 	 
H 	 -69.7309 	 13.9485 	 -76.2411 	 
*
