! wB97X-D3 SP def2-SVP
%pal
nprocs 24
end

* xyz 0 1
S 	 -99.9449 	 -2.86343 	 -109.477 	 
C 	 -100.538 	 -3.52214 	 -110.981 	 
C 	 -101.835 	 -3.89823 	 -110.879 	 
C 	 -102.425 	 -3.77013 	 -109.567 	 
C 	 -101.555 	 -3.1018 	 -108.775 	 
H 	 -103.42 	 -4.06836 	 -109.228 	 
C 	 -102.65 	 -4.47473 	 -111.938 	 
H 	 -103.104 	 -5.42633 	 -111.546 	 
H 	 -102.051 	 -4.96984 	 -112.744 	 
C 	 -103.727 	 -3.54659 	 -112.478 	 
H 	 -104.482 	 -3.2869 	 -111.736 	 
H 	 -103.333 	 -2.49794 	 -112.656 	 
C 	 -104.426 	 -4.18118 	 -113.689 	 
H 	 -105.207 	 -3.52916 	 -114.029 	 
H 	 -103.714 	 -4.27754 	 -114.558 	 
H 	 -104.758 	 -5.12683 	 -113.426 	 
S 	 -101.236 	 -3.20159 	 -106.065 	 
C 	 -102.231 	 -2.27019 	 -105.083 	 
C 	 -102.946 	 -1.28978 	 -105.764 	 
C 	 -102.859 	 -1.55726 	 -107.183 	 
C 	 -101.929 	 -2.54044 	 -107.517 	 
H 	 -103.492 	 -0.564711 	 -105.142 	 
C 	 -103.86 	 -1.0079 	 -108.203 	 
H 	 -104.906 	 -1.25835 	 -107.868 	 
H 	 -103.717 	 -1.58433 	 -109.163 	 
C 	 -103.908 	 0.445562 	 -108.566 	 
H 	 -104.287 	 1.07392 	 -107.726 	 
H 	 -104.626 	 0.432108 	 -109.381 	 
C 	 -102.592 	 0.829006 	 -109.144 	 
H 	 -102.812 	 1.84394 	 -109.589 	 
H 	 -102.316 	 0.100831 	 -109.964 	 
H 	 -101.814 	 0.899016 	 -108.371 	 
H 	 -99.959 	 -3.74613 	 -111.875 	 
H 	 -102.197 	 -2.06424 	 -104.037 	 
*
