! wB97X-D3 SP def2-SVP
%pal
nprocs 24
end

* xyz 0 1
S 	 30.7 	 -34.4551 	 -127.361 	 
C 	 31.441 	 -33.1801 	 -126.339 	 
C 	 32.5715 	 -32.7642 	 -126.994 	 
C 	 32.8018 	 -33.4644 	 -128.174 	 
C 	 32.0099 	 -34.5084 	 -128.523 	 
H 	 33.5476 	 -33.0838 	 -128.892 	 
C 	 33.6468 	 -31.7137 	 -126.472 	 
H 	 33.1285 	 -30.7192 	 -126.457 	 
H 	 34.433 	 -31.5745 	 -127.201 	 
C 	 34.2572 	 -31.9439 	 -125.166 	 
H 	 34.5184 	 -30.9699 	 -124.691 	 
H 	 33.4523 	 -32.3096 	 -124.452 	 
C 	 35.3525 	 -32.9748 	 -125.214 	 
H 	 35.5816 	 -33.4288 	 -124.232 	 
H 	 35.2288 	 -33.836 	 -125.893 	 
H 	 36.2701 	 -32.5517 	 -125.669 	 
S 	 30.6181 	 -36.3995 	 -129.901 	 
C 	 31.1377 	 -36.92 	 -131.488 	 
C 	 32.411 	 -36.5398 	 -131.677 	 
C 	 32.933 	 -35.6354 	 -130.703 	 
C 	 31.9979 	 -35.3071 	 -129.71 	 
H 	 32.9887 	 -36.8872 	 -132.504 	 
C 	 34.3344 	 -35.0371 	 -130.813 	 
H 	 34.6392 	 -34.8394 	 -129.776 	 
H 	 34.3019 	 -34.0819 	 -131.335 	 
C 	 35.3822 	 -35.8432 	 -131.599 	 
H 	 35.1903 	 -36.0152 	 -132.622 	 
H 	 35.2988 	 -36.8663 	 -131.153 	 
C 	 36.8424 	 -35.2816 	 -131.523 	 
H 	 36.9489 	 -34.9315 	 -130.566 	 
H 	 36.9287 	 -34.3742 	 -132.17 	 
H 	 37.666 	 -35.9837 	 -131.797 	 
H 	 31.0874 	 -32.8088 	 -125.434 	 
H 	 30.6072 	 -37.7164 	 -131.994 	 
*
