! wB97X-D3 SP def2-SVP
%pal
nprocs 24
end

* xyz 0 1
S 	 -42.5864 	 -50.7782 	 -72.4071 	 
C 	 -42.7946 	 -52.1888 	 -73.4686 	 
C 	 -42.9628 	 -53.3461 	 -72.7111 	 
C 	 -43.1162 	 -53.0293 	 -71.3235 	 
C 	 -42.9515 	 -51.7402 	 -70.943 	 
H 	 -43.4733 	 -53.7597 	 -70.602 	 
C 	 -43.2766 	 -54.7344 	 -73.1982 	 
H 	 -43.8348 	 -55.1507 	 -72.3435 	 
H 	 -42.4072 	 -55.3382 	 -73.2771 	 
C 	 -44.1963 	 -55.0308 	 -74.4242 	 
H 	 -43.7762 	 -54.4872 	 -75.2338 	 
H 	 -44.0082 	 -56.0061 	 -74.7849 	 
C 	 -45.7202 	 -54.8456 	 -74.1072 	 
H 	 -46.2893 	 -55.2444 	 -74.9245 	 
H 	 -46.0358 	 -55.3313 	 -73.219 	 
H 	 -45.9643 	 -53.7875 	 -73.9469 	 
S 	 -44.8643 	 -50.4565 	 -69.3176 	 
C 	 -44.6166 	 -50.5024 	 -67.5998 	 
C 	 -43.3509 	 -50.7866 	 -67.2941 	 
C 	 -42.6003 	 -51.2717 	 -68.386 	 
C 	 -43.2529 	 -51.1842 	 -69.6112 	 
H 	 -43.0615 	 -50.8412 	 -66.2661 	 
C 	 -41.1517 	 -51.7947 	 -68.2171 	 
H 	 -40.8383 	 -52.5021 	 -69.0113 	 
H 	 -41.1619 	 -52.3977 	 -67.3048 	 
C 	 -40.0911 	 -50.7542 	 -68.1177 	 
H 	 -40.1072 	 -50.2079 	 -67.2153 	 
H 	 -40.2536 	 -50.0106 	 -68.9259 	 
C 	 -38.6327 	 -51.2614 	 -68.2906 	 
H 	 -38.538 	 -51.7402 	 -69.2876 	 
H 	 -38.4432 	 -52.0365 	 -67.5586 	 
H 	 -37.8428 	 -50.471 	 -68.3049 	 
H 	 -42.7392 	 -52.0884 	 -74.5374 	 
H 	 -45.4576 	 -50.2904 	 -66.8855 	 
*
