! wB97X-D3 SP def2-SVP
%pal
nprocs 24
end

* xyz 0 1
S 	 -57.8119 	 12.4635 	 -90.7938 	 
C 	 -56.1931 	 12.2005 	 -91.5408 	 
C 	 -55.5488 	 13.3579 	 -92.0371 	 
C 	 -56.5369 	 14.4219 	 -92.0227 	 
C 	 -57.8362 	 14.0607 	 -91.5469 	 
H 	 -56.3083 	 15.2972 	 -92.4902 	 
C 	 -54.2081 	 13.5919 	 -92.7335 	 
H 	 -53.9714 	 14.6142 	 -92.453 	 
H 	 -54.3135 	 13.691 	 -93.848 	 
C 	 -53.1105 	 12.4912 	 -92.4914 	 
H 	 -52.4839 	 12.5882 	 -91.5333 	 
H 	 -53.5912 	 11.5667 	 -92.4746 	 
C 	 -52.0338 	 12.4107 	 -93.6113 	 
H 	 -51.4074 	 13.3377 	 -93.7047 	 
H 	 -51.319 	 11.6167 	 -93.4907 	 
H 	 -52.5909 	 12.1271 	 -94.5074 	 
S 	 -60.2104 	 14.7386 	 -90.3311 	 
C 	 -61.2519 	 16.0313 	 -91.1463 	 
C 	 -60.5971 	 16.4646 	 -92.2604 	 
C 	 -59.2771 	 15.9777 	 -92.454 	 
C 	 -58.9909 	 14.9217 	 -91.6193 	 
H 	 -61.0445 	 17.2443 	 -92.8722 	 
C 	 -58.4578 	 16.4755 	 -93.6547 	 
H 	 -59.1709 	 16.8285 	 -94.4344 	 
H 	 -57.9015 	 15.68 	 -94.104 	 
C 	 -57.5156 	 17.6872 	 -93.3657 	 
H 	 -56.7545 	 17.3644 	 -92.6068 	 
H 	 -58.1901 	 18.5075 	 -93.0168 	 
C 	 -56.7177 	 18.0305 	 -94.5667 	 
H 	 -56.3292 	 17.1566 	 -94.9443 	 
H 	 -55.9617 	 18.8097 	 -94.3688 	 
H 	 -57.3411 	 18.5862 	 -95.2992 	 
H 	 -55.8137 	 11.2115 	 -91.6232 	 
H 	 -62.2681 	 16.4387 	 -90.7338 	 
*
