! wB97X-D3 SP def2-SVP
%pal
nprocs 24
end

* xyz 0 1
S 	 -91.2887 	 -5.27415 	 -114.929 	 
C 	 -90.3945 	 -3.82368 	 -114.712 	 
C 	 -91.1723 	 -2.73813 	 -115.192 	 
C 	 -92.4247 	 -3.14348 	 -115.706 	 
C 	 -92.7855 	 -4.4693 	 -115.435 	 
H 	 -93.1892 	 -2.56582 	 -116.172 	 
C 	 -90.6765 	 -1.389 	 -115.539 	 
H 	 -89.6017 	 -1.59735 	 -115.647 	 
H 	 -91.0033 	 -0.678882 	 -114.81 	 
C 	 -91.0492 	 -0.787397 	 -116.959 	 
H 	 -90.9581 	 -1.55368 	 -117.736 	 
H 	 -92.0765 	 -0.431803 	 -116.909 	 
C 	 -90.0282 	 0.335334 	 -117.476 	 
H 	 -90.6705 	 1.04023 	 -118.035 	 
H 	 -89.649 	 0.960345 	 -116.666 	 
H 	 -89.2355 	 -0.0969012 	 -117.996 	 
S 	 -93.754 	 -6.61331 	 -116.686 	 
C 	 -95.429 	 -6.57958 	 -117.257 	 
C 	 -96.1718 	 -5.71555 	 -116.508 	 
C 	 -95.384 	 -4.84914 	 -115.619 	 
C 	 -94.0638 	 -5.16442 	 -115.713 	 
H 	 -97.2999 	 -5.64369 	 -116.491 	 
C 	 -95.8857 	 -3.56662 	 -115.028 	 
H 	 -94.9997 	 -3.29058 	 -114.331 	 
H 	 -96.8083 	 -3.69135 	 -114.485 	 
C 	 -96.0502 	 -2.26935 	 -115.837 	 
H 	 -95.1722 	 -1.8039 	 -116.321 	 
H 	 -96.2313 	 -1.63255 	 -115.017 	 
C 	 -97.2826 	 -2.17496 	 -116.716 	 
H 	 -98.1184 	 -2.58904 	 -116.199 	 
H 	 -97.2699 	 -2.64897 	 -117.73 	 
H 	 -97.5334 	 -1.13777 	 -116.936 	 
H 	 -89.3398 	 -3.76952 	 -114.484 	 
H 	 -95.8395 	 -7.36233 	 -117.978 	 
*
