! wB97X-D3 SP def2-SVP
%pal
nprocs 24
end

* xyz 0 1
S 	 -26.1902 	 -32.2442 	 -95.9901 	 
C 	 -25.1192 	 -33.5603 	 -96.5929 	 
C 	 -24.7436 	 -33.2779 	 -97.8898 	 
C 	 -25.0068 	 -31.8984 	 -98.2353 	 
C 	 -25.7144 	 -31.1495 	 -97.3261 	 
H 	 -24.6671 	 -31.533 	 -99.131 	 
C 	 -24.1074 	 -34.1968 	 -98.8888 	 
H 	 -24.8217 	 -34.2138 	 -99.7696 	 
H 	 -24.0223 	 -35.3016 	 -98.5314 	 
C 	 -22.7256 	 -33.8469 	 -99.4392 	 
H 	 -22.7701 	 -32.8421 	 -99.8778 	 
H 	 -21.9848 	 -33.7144 	 -98.6701 	 
C 	 -22.1416 	 -34.9055 	 -100.433 	 
H 	 -22.6612 	 -35.0349 	 -101.371 	 
H 	 -21.059 	 -34.581 	 -100.713 	 
H 	 -21.99 	 -35.8819 	 -100.053 	 
S 	 -27.1777 	 -29.0254 	 -98.5253 	 
C 	 -26.8353 	 -27.3638 	 -97.9816 	 
C 	 -25.8723 	 -27.3716 	 -96.9601 	 
C 	 -25.392 	 -28.7023 	 -96.6701 	 
C 	 -25.9996 	 -29.7416 	 -97.3836 	 
H 	 -25.4887 	 -26.3933 	 -96.6561 	 
C 	 -24.1133 	 -28.8677 	 -95.7899 	 
H 	 -23.6492 	 -29.8384 	 -95.9245 	 
H 	 -24.4731 	 -28.739 	 -94.7603 	 
C 	 -22.9597 	 -27.9297 	 -95.9669 	 
H 	 -23.2948 	 -26.9002 	 -95.971 	 
H 	 -22.4656 	 -28.0557 	 -96.8464 	 
C 	 -21.887 	 -28.0904 	 -94.7578 	 
H 	 -22.4103 	 -27.7421 	 -93.846 	 
H 	 -21.0603 	 -27.4134 	 -94.9821 	 
H 	 -21.4302 	 -29.0837 	 -94.6147 	 
H 	 -25.1797 	 -34.533 	 -96.124 	 
H 	 -27.3604 	 -26.5223 	 -98.403 	 
*
