! wB97X-D3 SP def2-SVP
%pal
nprocs 24
end

* xyz 0 1
S 	 -76.3587 	 5.4175 	 -109.999 	 
C 	 -78.0697 	 5.21115 	 -110.043 	 
C 	 -78.7916 	 6.3648 	 -110.16 	 
C 	 -77.898 	 7.4639 	 -110.428 	 
C 	 -76.527 	 7.16233 	 -110.268 	 
H 	 -78.2471 	 8.4728 	 -110.654 	 
C 	 -80.3076 	 6.4462 	 -110.474 	 
H 	 -80.7167 	 7.481 	 -110.226 	 
H 	 -80.9182 	 5.70105 	 -109.846 	 
C 	 -80.5493 	 6.24611 	 -112.022 	 
H 	 -81.6114 	 6.57162 	 -112.263 	 
H 	 -80.0098 	 6.84182 	 -112.663 	 
C 	 -80.2896 	 4.73791 	 -112.463 	 
H 	 -79.1624 	 4.47934 	 -112.38 	 
H 	 -80.8115 	 3.99057 	 -111.778 	 
H 	 -80.7226 	 4.54667 	 -113.494 	 
S 	 -74.1237 	 7.28387 	 -111.455 	 
C 	 -73.0423 	 8.60484 	 -111.135 	 
C 	 -73.7028 	 9.65442 	 -110.549 	 
C 	 -75.1073 	 9.33197 	 -110.277 	 
C 	 -75.3818 	 8.01294 	 -110.527 	 
H 	 -73.2675 	 10.6096 	 -110.332 	 
C 	 -75.962 	 10.3369 	 -109.546 	 
H 	 -75.2643 	 10.8341 	 -108.836 	 
H 	 -76.6051 	 9.76734 	 -108.905 	 
C 	 -76.6518 	 11.371 	 -110.38 	 
H 	 -77.0766 	 10.8516 	 -111.258 	 
H 	 -76.0253 	 12.2236 	 -110.841 	 
C 	 -77.9004 	 11.9186 	 -109.671 	 
H 	 -78.4665 	 12.5433 	 -110.353 	 
H 	 -77.7272 	 12.5844 	 -108.783 	 
H 	 -78.4725 	 11.0579 	 -109.287 	 
H 	 -78.5522 	 4.26866 	 -109.91 	 
H 	 -72.0399 	 8.61924 	 -111.492 	 
*
