! wB97X-D3 SP def2-SVP
%pal
nprocs 24
end

* xyz 0 1
S 	 -47.3295 	 -3.84105 	 20.7448 	 
C 	 -47.2457 	 -2.81738 	 19.2518 	 
C 	 -46.5229 	 -3.46802 	 18.2804 	 
C 	 -45.8629 	 -4.62092 	 18.7881 	 
C 	 -46.1125 	 -4.87766 	 20.1396 	 
H 	 -45.3289 	 -5.35482 	 18.2113 	 
C 	 -46.6017 	 -2.93896 	 16.8413 	 
H 	 -46.4755 	 -3.88336 	 16.2207 	 
H 	 -45.7649 	 -2.34411 	 16.7289 	 
C 	 -47.8926 	 -2.21328 	 16.242 	 
H 	 -48.5566 	 -3.02592 	 15.739 	 
H 	 -48.4658 	 -1.74873 	 17.0343 	 
C 	 -47.4771 	 -1.26454 	 15.1152 	 
H 	 -46.8155 	 -0.453882 	 15.5027 	 
H 	 -46.9049 	 -1.78311 	 14.3449 	 
H 	 -48.3786 	 -0.932327 	 14.6596 	 
S 	 -46.689 	 -7.54769 	 20.5142 	 
C 	 -45.6786 	 -8.58211 	 21.4326 	 
C 	 -44.6904 	 -7.82794 	 22.0284 	 
C 	 -44.6559 	 -6.43355 	 21.6778 	 
C 	 -45.6843 	 -6.12609 	 20.7903 	 
H 	 -43.8988 	 -8.34183 	 22.5532 	 
C 	 -43.6274 	 -5.53021 	 22.3281 	 
H 	 -43.3381 	 -5.78915 	 23.3454 	 
H 	 -44.0148 	 -4.54678 	 22.2064 	 
C 	 -42.2107 	 -5.63455 	 21.7531 	 
H 	 -42.1715 	 -5.4571 	 20.7258 	 
H 	 -41.7969 	 -6.59531 	 22.0359 	 
C 	 -41.3256 	 -4.56748 	 22.4496 	 
H 	 -41.2698 	 -4.70012 	 23.5648 	 
H 	 -41.71 	 -3.54539 	 22.3848 	 
H 	 -40.3421 	 -4.51087 	 22.0276 	 
H 	 -47.7342 	 -1.90436 	 19.1218 	 
H 	 -45.8242 	 -9.58764 	 21.7322 	 
*
