! wB97X-D3 SP def2-SVP
%pal
nprocs 24
end

* xyz 0 1
S 	 -38.2855 	 -3.17184 	 -5.52095 	 
C 	 -36.8748 	 -3.93555 	 -4.8794 	 
C 	 -35.8374 	 -4.05141 	 -5.79082 	 
C 	 -36.1862 	 -3.44637 	 -7.0667 	 
C 	 -37.5314 	 -3.02779 	 -7.16261 	 
H 	 -35.4964 	 -3.50228 	 -7.90704 	 
C 	 -34.5459 	 -4.80479 	 -5.55054 	 
H 	 -34.6018 	 -5.13077 	 -4.50801 	 
H 	 -33.6926 	 -4.23575 	 -5.50956 	 
C 	 -34.1905 	 -5.98857 	 -6.48954 	 
H 	 -35.0052 	 -6.68717 	 -6.57723 	 
H 	 -34.1022 	 -5.65445 	 -7.51923 	 
C 	 -32.9073 	 -6.71803 	 -5.975 	 
H 	 -32.0878 	 -5.97858 	 -5.74651 	 
H 	 -33.1499 	 -7.21068 	 -4.97685 	 
H 	 -32.5424 	 -7.47971 	 -6.59659 	 
S 	 -38.9646 	 -0.947099 	 -8.28599 	 
C 	 -39.6848 	 -1.21265 	 -9.86751 	 
C 	 -39.3159 	 -2.40228 	 -10.4032 	 
C 	 -38.3497 	 -3.07797 	 -9.62025 	 
C 	 -38.1894 	 -2.54041 	 -8.34112 	 
H 	 -39.8099 	 -2.72839 	 -11.2221 	 
C 	 -37.8974 	 -4.47617 	 -10.0653 	 
H 	 -38.5384 	 -5.15514 	 -9.43445 	 
H 	 -36.8507 	 -4.36042 	 -9.67471 	 
C 	 -37.8844 	 -4.93374 	 -11.5391 	 
H 	 -37.1895 	 -4.28297 	 -12.1373 	 
H 	 -38.8871 	 -4.90101 	 -12.0541 	 
C 	 -37.5632 	 -6.46021 	 -11.6268 	 
H 	 -37.1153 	 -6.76537 	 -12.5778 	 
H 	 -38.4393 	 -7.1176 	 -11.6204 	 
H 	 -36.9774 	 -6.82182 	 -10.7865 	 
H 	 -36.9878 	 -4.38248 	 -3.86796 	 
H 	 -40.3982 	 -0.680806 	 -10.3744 	 
*
