! wB97X-D3 SP def2-SVP
%pal
nprocs 24
end

* xyz 0 1
S 	 -84.0417 	 -49.3647 	 -82.4005 	 
C 	 -85.6453 	 -49.1809 	 -81.6441 	 
C 	 -85.6257 	 -48.5138 	 -80.464 	 
C 	 -84.2955 	 -47.8813 	 -80.3742 	 
C 	 -83.2972 	 -48.2682 	 -81.2578 	 
H 	 -84.0388 	 -47.2923 	 -79.4954 	 
C 	 -86.8411 	 -48.2636 	 -79.5683 	 
H 	 -87.4211 	 -49.2376 	 -79.5288 	 
H 	 -87.451 	 -47.6147 	 -80.172 	 
C 	 -86.6268 	 -47.838 	 -78.1273 	 
H 	 -85.7362 	 -48.3127 	 -77.6969 	 
H 	 -86.1643 	 -46.8637 	 -78.2192 	 
C 	 -87.8116 	 -47.9445 	 -77.2005 	 
H 	 -87.5604 	 -47.5483 	 -76.2207 	 
H 	 -88.6444 	 -47.3135 	 -77.4538 	 
H 	 -88.1845 	 -48.9543 	 -77.082 	 
S 	 -81.2159 	 -48.1085 	 -83.0065 	 
C 	 -79.8554 	 -47.1574 	 -82.5326 	 
C 	 -79.749 	 -46.9216 	 -81.1773 	 
C 	 -80.9842 	 -47.2993 	 -80.5202 	 
C 	 -81.9148 	 -47.8756 	 -81.4381 	 
H 	 -78.8834 	 -46.5017 	 -80.6884 	 
C 	 -81.1712 	 -47.1376 	 -78.9967 	 
H 	 -81.83 	 -46.3284 	 -78.8151 	 
H 	 -80.2406 	 -46.675 	 -78.6132 	 
C 	 -81.5325 	 -48.3469 	 -78.1641 	 
H 	 -80.7554 	 -49.0961 	 -78.1567 	 
H 	 -82.3523 	 -48.9163 	 -78.6156 	 
C 	 -81.875 	 -47.8638 	 -76.7431 	 
H 	 -81.8575 	 -48.6778 	 -76.0638 	 
H 	 -82.8907 	 -47.4428 	 -76.6927 	 
H 	 -81.0002 	 -47.2074 	 -76.4225 	 
H 	 -86.6555 	 -49.6189 	 -81.9035 	 
H 	 -79.0667 	 -47.0506 	 -83.2632 	 
*
