! wB97X-D3 SP def2-SVP
%pal
nprocs 24
end

* xyz 0 1
S 	 6.87339 	 -17.5511 	 -111.413 	 
C 	 5.70297 	 -18.0219 	 -112.595 	 
C 	 4.40329 	 -18.0364 	 -112.138 	 
C 	 4.36925 	 -17.5854 	 -110.721 	 
C 	 5.60055 	 -17.2997 	 -110.209 	 
H 	 3.61975 	 -17.5313 	 -109.994 	 
C 	 3.12691 	 -18.5084 	 -112.791 	 
H 	 3.40178 	 -18.7594 	 -113.848 	 
H 	 2.53693 	 -17.6266 	 -112.914 	 
C 	 2.36322 	 -19.6052 	 -112.054 	 
H 	 3.06066 	 -20.4609 	 -111.924 	 
H 	 1.97797 	 -19.2921 	 -111.048 	 
C 	 1.20979 	 -20.1029 	 -112.968 	 
H 	 0.400317 	 -20.573 	 -112.302 	 
H 	 0.541743 	 -19.3057 	 -113.293 	 
H 	 1.45209 	 -20.8682 	 -113.783 	 
S 	 7.30776 	 -17.7002 	 -108.007 	 
C 	 6.97182 	 -16.9668 	 -106.471 	 
C 	 5.84282 	 -16.1474 	 -106.597 	 
C 	 5.18863 	 -16.2404 	 -107.868 	 
C 	 5.95369 	 -16.9206 	 -108.816 	 
H 	 5.50914 	 -15.5864 	 -105.771 	 
C 	 3.7892 	 -15.659 	 -108.077 	 
H 	 3.4974 	 -15.539 	 -109.106 	 
H 	 3.87552 	 -14.6111 	 -107.754 	 
C 	 2.61294 	 -16.1023 	 -107.173 	 
H 	 1.72133 	 -15.6216 	 -107.594 	 
H 	 2.50731 	 -15.5252 	 -106.181 	 
C 	 2.36882 	 -17.5718 	 -106.899 	 
H 	 1.57637 	 -17.8023 	 -106.179 	 
H 	 3.32424 	 -18.0304 	 -106.494 	 
H 	 2.0452 	 -18.0514 	 -107.848 	 
H 	 6.02263 	 -18.4178 	 -113.605 	 
H 	 7.53969 	 -17.0306 	 -105.577 	 
*
