! wB97X-D3 SP def2-SVP
%pal
nprocs 24
end

* xyz 0 1
S 	 -112.68 	 58.3634 	 -80.7181 	 
C 	 -113.161 	 59.0047 	 -82.2377 	 
C 	 -112.38 	 60.1456 	 -82.5332 	 
C 	 -111.379 	 60.4037 	 -81.5556 	 
C 	 -111.593 	 59.6757 	 -80.4165 	 
H 	 -110.612 	 61.1437 	 -81.5868 	 
C 	 -112.467 	 60.9384 	 -83.7768 	 
H 	 -112.323 	 62.0538 	 -83.6557 	 
H 	 -113.562 	 60.9347 	 -84.0499 	 
C 	 -111.627 	 60.3374 	 -84.9324 	 
H 	 -111.799 	 60.9227 	 -85.8136 	 
H 	 -110.563 	 60.6501 	 -84.6917 	 
C 	 -111.709 	 58.8759 	 -85.3333 	 
H 	 -110.968 	 58.5621 	 -86.0601 	 
H 	 -111.537 	 58.2973 	 -84.4297 	 
H 	 -112.709 	 58.6339 	 -85.7191 	 
S 	 -109.93 	 58.1606 	 -78.8693 	 
C 	 -108.899 	 58.9527 	 -77.6955 	 
C 	 -109.19 	 60.3137 	 -77.6263 	 
C 	 -110.333 	 60.7464 	 -78.4615 	 
C 	 -110.692 	 59.6844 	 -79.2455 	 
H 	 -108.578 	 60.9854 	 -76.9611 	 
C 	 -110.856 	 62.204 	 -78.6609 	 
H 	 -111.649 	 62.2245 	 -79.4686 	 
H 	 -109.982 	 62.705 	 -79.0514 	 
C 	 -111.365 	 62.8031 	 -77.3517 	 
H 	 -110.409 	 62.8052 	 -76.6847 	 
H 	 -112.252 	 62.2105 	 -77.0183 	 
C 	 -111.81 	 64.286 	 -77.5952 	 
H 	 -110.921 	 64.8596 	 -77.9569 	 
H 	 -112.248 	 64.8159 	 -76.7082 	 
H 	 -112.605 	 64.2414 	 -78.3563 	 
H 	 -114.069 	 58.7622 	 -82.8439 	 
H 	 -108.198 	 58.4312 	 -77.049 	 
*
