! wB97X-D3 SP def2-SVP
%pal
nprocs 24
end

* xyz 0 1
S 	 -76.1704 	 -2.67707 	 10.7376 	 
C 	 -76.2536 	 -1.16737 	 9.8002 	 
C 	 -76.0825 	 -0.0605188 	 10.5819 	 
C 	 -75.8098 	 -0.393729 	 11.9425 	 
C 	 -75.7654 	 -1.74147 	 12.2686 	 
H 	 -75.5037 	 0.321957 	 12.609 	 
C 	 -76.2556 	 1.40251 	 10.0599 	 
H 	 -75.3858 	 1.68781 	 9.48218 	 
H 	 -76.162 	 2.05859 	 10.9451 	 
C 	 -77.5698 	 1.59956 	 9.35462 	 
H 	 -77.6076 	 2.52522 	 8.78356 	 
H 	 -77.7664 	 0.895167 	 8.58038 	 
C 	 -78.8263 	 1.68244 	 10.312 	 
H 	 -78.6424 	 2.51139 	 11.0329 	 
H 	 -79.7671 	 1.93467 	 9.92805 	 
H 	 -78.9864 	 0.69287 	 10.7386 	 
S 	 -76.957 	 -3.33917 	 14.0657 	 
C 	 -76.2221 	 -3.62221 	 15.545 	 
C 	 -75.2731 	 -2.6704 	 15.8398 	 
C 	 -74.9669 	 -1.83464 	 14.6802 	 
C 	 -75.6462 	 -2.28542 	 13.5568 	 
H 	 -74.6577 	 -2.82804 	 16.736 	 
C 	 -73.7895 	 -0.911786 	 14.7409 	 
H 	 -73.648 	 -0.899555 	 15.8411 	 
H 	 -74.038 	 0.0952384 	 14.568 	 
C 	 -72.5569 	 -1.49475 	 14.0628 	 
H 	 -72.5744 	 -2.56797 	 14.0362 	 
H 	 -71.7146 	 -1.2228 	 14.7329 	 
C 	 -72.3483 	 -0.920708 	 12.6634 	 
H 	 -71.3057 	 -1.19181 	 12.3753 	 
H 	 -72.3279 	 0.128391 	 12.6422 	 
H 	 -73.1305 	 -1.32946 	 12.0919 	 
H 	 -76.4726 	 -1.11128 	 8.75228 	 
H 	 -76.7027 	 -4.21544 	 16.3183 	 
*
