! wB97X-D3 SP def2-SVP
%pal
nprocs 24
end

* xyz 0 1
S 	 18.3162 	 -14.5786 	 -119.023 	 
C 	 17.2522 	 -13.9285 	 -120.224 	 
C 	 16.2391 	 -13.31 	 -119.579 	 
C 	 16.3811 	 -13.2243 	 -118.164 	 
C 	 17.4336 	 -13.9376 	 -117.651 	 
H 	 15.7653 	 -12.7112 	 -117.463 	 
C 	 15.0094 	 -12.6804 	 -120.264 	 
H 	 15.471 	 -12.2966 	 -121.156 	 
H 	 14.4947 	 -11.8931 	 -119.705 	 
C 	 14.0172 	 -13.7657 	 -120.585 	 
H 	 14.4615 	 -14.6675 	 -120.86 	 
H 	 13.4453 	 -13.9685 	 -119.706 	 
C 	 13.0432 	 -13.2952 	 -121.694 	 
H 	 12.353 	 -14.0994 	 -121.785 	 
H 	 12.6606 	 -12.3644 	 -121.266 	 
H 	 13.6568 	 -13.0934 	 -122.573 	 
S 	 19.5209 	 -13.1756 	 -116.019 	 
C 	 19.5681 	 -13.5985 	 -114.341 	 
C 	 18.4118 	 -14.2394 	 -114.028 	 
C 	 17.4629 	 -14.3742 	 -115.03 	 
C 	 17.9502 	 -13.8707 	 -116.273 	 
H 	 18.2911 	 -14.6347 	 -113.039 	 
C 	 16.0706 	 -14.84 	 -114.83 	 
H 	 15.3417 	 -14.0318 	 -115.091 	 
H 	 15.8702 	 -14.9878 	 -113.858 	 
C 	 15.7863 	 -16.2106 	 -115.566 	 
H 	 16.2179 	 -16.9711 	 -114.996 	 
H 	 16.3327 	 -16.1165 	 -116.545 	 
C 	 14.3122 	 -16.4954 	 -115.717 	 
H 	 13.7926 	 -16.1969 	 -114.843 	 
H 	 13.9956 	 -17.5123 	 -115.81 	 
H 	 13.9203 	 -15.9677 	 -116.542 	 
H 	 17.1533 	 -14.3818 	 -121.231 	 
H 	 20.5074 	 -13.4221 	 -113.717 	 
*
