! wB97X-D3 SP def2-SVP
%pal
nprocs 24
end

* xyz 0 1
S 	 -88.4396 	 -32.4523 	 -61.3263 	 
C 	 -87.4449 	 -33.9441 	 -61.4478 	 
C 	 -86.964 	 -34.4233 	 -60.2512 	 
C 	 -87.4518 	 -33.5369 	 -59.1645 	 
C 	 -88.3281 	 -32.5732 	 -59.5928 	 
H 	 -87.233 	 -33.7063 	 -58.1369 	 
C 	 -86.022 	 -35.6074 	 -60.0784 	 
H 	 -85.0633 	 -35.2328 	 -59.7643 	 
H 	 -85.8931 	 -36.0097 	 -61.0164 	 
C 	 -86.5157 	 -36.6098 	 -59.0041 	 
H 	 -86.3194 	 -36.179 	 -57.9825 	 
H 	 -87.5964 	 -36.9552 	 -59.0346 	 
C 	 -85.7564 	 -37.9316 	 -59.0561 	 
H 	 -86.3378 	 -38.6627 	 -58.5072 	 
H 	 -85.5258 	 -38.2414 	 -60.0617 	 
H 	 -84.8191 	 -37.718 	 -58.5046 	 
S 	 -88.6764 	 -29.8803 	 -58.8879 	 
C 	 -89.5863 	 -29.4787 	 -57.4522 	 
C 	 -89.8945 	 -30.5925 	 -56.7894 	 
C 	 -89.5801 	 -31.819 	 -57.4703 	 
C 	 -88.9938 	 -31.6422 	 -58.6955 	 
H 	 -90.3787 	 -30.6472 	 -55.8156 	 
C 	 -89.9944 	 -33.1329 	 -56.8374 	 
H 	 -89.8965 	 -33.8844 	 -57.6405 	 
H 	 -91.1077 	 -33.1495 	 -56.4905 	 
C 	 -89.1651 	 -33.5789 	 -55.663 	 
H 	 -88.9513 	 -32.9036 	 -54.9226 	 
H 	 -88.1641 	 -33.8275 	 -56.0278 	 
C 	 -89.7581 	 -34.8354 	 -54.9133 	 
H 	 -90.7083 	 -34.6266 	 -54.4224 	 
H 	 -89.0994 	 -35.0595 	 -54.0453 	 
H 	 -90.0423 	 -35.7318 	 -55.5787 	 
H 	 -87.1255 	 -34.3438 	 -62.4236 	 
H 	 -89.5928 	 -28.4382 	 -56.9547 	 
*
