! wB97X-D3 SP def2-SVP
%pal
nprocs 24
end

* xyz 0 1
S 	 -146.86 	 2.64821 	 13.9978 	 
C 	 -146.813 	 2.60636 	 12.299 	 
C 	 -145.533 	 2.80263 	 11.7756 	 
C 	 -144.638 	 3.09493 	 12.8541 	 
C 	 -145.206 	 3.21105 	 14.106 	 
H 	 -143.577 	 3.20771 	 12.6929 	 
C 	 -145.181 	 2.8341 	 10.3485 	 
H 	 -144.384 	 3.53784 	 10.1443 	 
H 	 -146.031 	 3.28196 	 9.86987 	 
C 	 -144.989 	 1.46942 	 9.62848 	 
H 	 -145.921 	 0.879358 	 9.39626 	 
H 	 -144.626 	 1.70779 	 8.65058 	 
C 	 -143.767 	 0.661862 	 10.0665 	 
H 	 -143.862 	 0.257386 	 11.068 	 
H 	 -143.609 	 -0.235199 	 9.48505 	 
H 	 -142.889 	 1.31279 	 9.99883 	 
S 	 -142.831 	 3.27177 	 15.5352 	 
C 	 -142.865 	 3.76321 	 17.1118 	 
C 	 -144 	 4.45551 	 17.375 	 
C 	 -144.997 	 4.5063 	 16.3519 	 
C 	 -144.561 	 3.73726 	 15.2793 	 
H 	 -144.069 	 5.04175 	 18.3261 	 
C 	 -146.298 	 5.33237 	 16.5489 	 
H 	 -146.564 	 5.35127 	 17.6304 	 
H 	 -147.129 	 4.73982 	 15.9767 	 
C 	 -146.192 	 6.85723 	 16.102 	 
H 	 -145.941 	 6.88002 	 15.0376 	 
H 	 -145.426 	 7.40918 	 16.6578 	 
C 	 -147.463 	 7.73577 	 16.2935 	 
H 	 -147.612 	 7.96569 	 17.2777 	 
H 	 -148.331 	 7.28685 	 15.8048 	 
H 	 -147.369 	 8.67275 	 15.7854 	 
H 	 -147.652 	 2.23104 	 11.8088 	 
H 	 -142.105 	 3.71611 	 17.8544 	 
*
