! wB97X-D3 SP def2-SVP
%pal
nprocs 24
end

* xyz 0 1
S 	 -82.3676 	 -1.76937 	 -58.7448 	 
C 	 -80.8793 	 -0.851831 	 -58.4613 	 
C 	 -79.7711 	 -1.23365 	 -59.1033 	 
C 	 -80.0544 	 -2.46729 	 -59.806 	 
C 	 -81.4133 	 -2.77148 	 -59.9019 	 
H 	 -79.3248 	 -3.01239 	 -60.3779 	 
C 	 -78.4531 	 -0.57689 	 -58.984 	 
H 	 -78.4016 	 0.427456 	 -59.2979 	 
H 	 -77.8053 	 -1.029 	 -59.7548 	 
C 	 -77.7853 	 -0.580115 	 -57.6274 	 
H 	 -78.4533 	 0.0423748 	 -56.953 	 
H 	 -77.8453 	 -1.55729 	 -57.2963 	 
C 	 -76.2727 	 -0.114217 	 -57.5863 	 
H 	 -75.8478 	 -0.60346 	 -56.687 	 
H 	 -75.6628 	 -0.423442 	 -58.5115 	 
H 	 -76.3655 	 0.997025 	 -57.6527 	 
S 	 -83.2661 	 -4.75654 	 -59.6762 	 
C 	 -83.7125 	 -5.7209 	 -61.0237 	 
C 	 -82.8851 	 -5.46048 	 -62.0775 	 
C 	 -81.9451 	 -4.39323 	 -61.8981 	 
C 	 -82.1283 	 -3.81953 	 -60.6026 	 
H 	 -83.0254 	 -6.02126 	 -62.9821 	 
C 	 -81.0802 	 -3.83423 	 -62.9925 	 
H 	 -80.6295 	 -4.56325 	 -63.7048 	 
H 	 -80.2444 	 -3.22891 	 -62.5994 	 
C 	 -81.9224 	 -2.94992 	 -63.9477 	 
H 	 -82.6001 	 -3.64625 	 -64.523 	 
H 	 -81.292 	 -2.57908 	 -64.7781 	 
C 	 -82.5952 	 -1.76367 	 -63.2128 	 
H 	 -81.7964 	 -1.22148 	 -62.7315 	 
H 	 -83.1903 	 -2.14431 	 -62.4074 	 
H 	 -83.2111 	 -1.17611 	 -63.8743 	 
H 	 -80.8667 	 -0.0101532 	 -57.6961 	 
H 	 -84.3385 	 -6.60358 	 -61.0181 	 
*
