! wB97X-D3 SP def2-SVP
%pal
nprocs 24
end

* xyz 0 1
S 	 -119.443 	 53.0506 	 -33.878 	 
C 	 -118.817 	 53.2659 	 -35.4357 	 
C 	 -119.823 	 52.9852 	 -36.3676 	 
C 	 -121.086 	 52.5633 	 -35.8138 	 
C 	 -121.057 	 52.5069 	 -34.4436 	 
H 	 -122.03 	 52.3128 	 -36.2868 	 
C 	 -119.657 	 53.1451 	 -37.8515 	 
H 	 -119.627 	 52.0718 	 -38.1993 	 
H 	 -118.617 	 53.3755 	 -38.0251 	 
C 	 -120.696 	 54.0337 	 -38.5559 	 
H 	 -120.561 	 53.9059 	 -39.6225 	 
H 	 -121.683 	 53.6773 	 -38.2657 	 
C 	 -120.478 	 55.4176 	 -38.1787 	 
H 	 -120.593 	 55.4684 	 -37.1233 	 
H 	 -119.453 	 55.7549 	 -38.27 	 
H 	 -120.961 	 56.1575 	 -38.7864 	 
S 	 -121.796 	 52.0135 	 -31.8724 	 
C 	 -123.461 	 51.7938 	 -31.434 	 
C 	 -124.252 	 51.6412 	 -32.6 	 
C 	 -123.571 	 51.8568 	 -33.7962 	 
C 	 -122.186 	 52.056 	 -33.5983 	 
H 	 -125.282 	 51.404 	 -32.6897 	 
C 	 -124.226 	 51.7717 	 -35.171 	 
H 	 -125.267 	 51.4031 	 -35.0801 	 
H 	 -123.648 	 51.0798 	 -35.7602 	 
C 	 -124.481 	 53.1487 	 -35.8722 	 
H 	 -123.605 	 53.7354 	 -36.0303 	 
H 	 -125.212 	 53.739 	 -35.2223 	 
C 	 -125.23 	 52.9763 	 -37.1957 	 
H 	 -125.523 	 54.0443 	 -37.3813 	 
H 	 -126.035 	 52.3136 	 -37.0738 	 
H 	 -124.664 	 52.5573 	 -38.0002 	 
H 	 -117.802 	 53.4085 	 -35.7776 	 
H 	 -123.759 	 51.5867 	 -30.4242 	 
*
