! wB97X-D3 SP def2-SVP
%pal
nprocs 24
end

* xyz 0 1
S 	 36.7857 	 -5.95058 	 -108.879 	 
C 	 38.0205 	 -5.62371 	 -110.081 	 
C 	 37.4437 	 -5.33712 	 -111.327 	 
C 	 36.0629 	 -5.25383 	 -111.319 	 
C 	 35.559 	 -5.52418 	 -110.072 	 
H 	 35.362 	 -5.03795 	 -112.111 	 
C 	 38.2769 	 -5.05139 	 -112.582 	 
H 	 39.3428 	 -5.14773 	 -112.319 	 
H 	 38.4626 	 -3.94678 	 -112.886 	 
C 	 37.819 	 -5.97263 	 -113.685 	 
H 	 37.8304 	 -7.01337 	 -113.318 	 
H 	 36.8403 	 -5.8044 	 -114.044 	 
C 	 38.6082 	 -5.84444 	 -115.018 	 
H 	 39.6825 	 -6.16167 	 -114.878 	 
H 	 38.0907 	 -6.46088 	 -115.768 	 
H 	 38.5804 	 -4.8408 	 -115.467 	 
S 	 33.4902 	 -7.30518 	 -109.67 	 
C 	 31.991 	 -6.78227 	 -109.046 	 
C 	 31.9954 	 -5.46377 	 -108.831 	 
C 	 33.181 	 -4.79422 	 -109.204 	 
C 	 34.1444 	 -5.64578 	 -109.724 	 
H 	 31.1602 	 -5.14373 	 -108.329 	 
C 	 33.4059 	 -3.32102 	 -108.871 	 
H 	 32.5436 	 -2.69448 	 -108.894 	 
H 	 33.9867 	 -2.92257 	 -109.737 	 
C 	 34.0523 	 -3.04174 	 -107.482 	 
H 	 34.1846 	 -1.9929 	 -107.353 	 
H 	 35.0981 	 -3.46881 	 -107.418 	 
C 	 33.0491 	 -3.52913 	 -106.428 	 
H 	 32.8439 	 -4.54544 	 -106.446 	 
H 	 32.0595 	 -3.05976 	 -106.466 	 
H 	 33.5209 	 -3.53454 	 -105.424 	 
H 	 39.0601 	 -5.57411 	 -109.859 	 
H 	 31.1406 	 -7.34052 	 -108.896 	 
*
