! wB97X-D3 SP def2-SVP
%pal
nprocs 24
end

* xyz 0 1
S 	 43.0122 	 -14.2829 	 -119.598 	 
C 	 44.0036 	 -13.5068 	 -118.382 	 
C 	 45.3275 	 -13.3982 	 -118.795 	 
C 	 45.4526 	 -13.9332 	 -120.097 	 
C 	 44.3719 	 -14.5297 	 -120.665 	 
H 	 46.3925 	 -14.0731 	 -120.684 	 
C 	 46.3971 	 -12.7029 	 -117.976 	 
H 	 47.3978 	 -13.09 	 -117.919 	 
H 	 46.0369 	 -12.76 	 -116.98 	 
C 	 46.5266 	 -11.1797 	 -118.286 	 
H 	 45.5976 	 -10.6472 	 -118.03 	 
H 	 47.3011 	 -10.7776 	 -117.647 	 
C 	 47.0055 	 -10.968 	 -119.696 	 
H 	 46.165 	 -11.0444 	 -120.438 	 
H 	 47.5291 	 -10.0403 	 -119.932 	 
H 	 47.6802 	 -11.7866 	 -119.959 	 
S 	 42.7171 	 -16.4051 	 -121.863 	 
C 	 43.2896 	 -17.1807 	 -123.257 	 
C 	 44.4041 	 -16.5829 	 -123.828 	 
C 	 45.0101 	 -15.6604 	 -122.93 	 
C 	 44.2077 	 -15.4257 	 -121.798 	 
H 	 44.7254 	 -16.9239 	 -124.796 	 
C 	 46.3614 	 -15.0759 	 -123.211 	 
H 	 46.7702 	 -15.6668 	 -124.091 	 
H 	 47.0093 	 -15.3211 	 -122.378 	 
C 	 46.4438 	 -13.6359 	 -123.677 	 
H 	 45.8243 	 -12.9515 	 -123.078 	 
H 	 46.0562 	 -13.4955 	 -124.736 	 
C 	 47.8738 	 -13.0851 	 -123.642 	 
H 	 48.3397 	 -13.2874 	 -122.624 	 
H 	 47.9137 	 -12.0668 	 -123.965 	 
H 	 48.5056 	 -13.5898 	 -124.33 	 
H 	 43.5671 	 -13.1819 	 -117.438 	 
H 	 42.6673 	 -17.7861 	 -123.957 	 
*
