! wB97X-D3 SP def2-SVP
%pal
nprocs 24
end

* xyz 0 1
S 	 -135.967 	 67.6708 	 -62.086 	 
C 	 -134.846 	 66.8161 	 -63.1164 	 
C 	 -135.458 	 66.2122 	 -64.1938 	 
C 	 -136.873 	 66.4152 	 -64.1614 	 
C 	 -137.309 	 67.2443 	 -63.1443 	 
H 	 -137.471 	 65.961 	 -64.9509 	 
C 	 -134.864 	 65.2546 	 -65.167 	 
H 	 -133.805 	 65.2669 	 -64.9533 	 
H 	 -134.895 	 65.6242 	 -66.2117 	 
C 	 -135.377 	 63.7877 	 -65.2328 	 
H 	 -136.485 	 63.7033 	 -65.3537 	 
H 	 -134.751 	 63.2286 	 -65.9419 	 
C 	 -135.031 	 63.0978 	 -63.8885 	 
H 	 -135.483 	 63.6223 	 -63.0654 	 
H 	 -135.243 	 62.052 	 -63.9117 	 
H 	 -134 	 63.1588 	 -63.6478 	 
S 	 -139.049 	 67.796 	 -61.0931 	 
C 	 -140.697 	 68.2062 	 -61.3605 	 
C 	 -140.994 	 68.0158 	 -62.6866 	 
C 	 -139.868 	 67.8218 	 -63.6057 	 
C 	 -138.724 	 67.596 	 -62.8629 	 
H 	 -142.035 	 68.0207 	 -63.0464 	 
C 	 -139.894 	 67.9547 	 -65.108 	 
H 	 -138.928 	 68.1194 	 -65.5482 	 
H 	 -140.425 	 68.8922 	 -65.2445 	 
C 	 -140.594 	 66.8295 	 -65.9236 	 
H 	 -141.568 	 66.606 	 -65.5862 	 
H 	 -140.019 	 65.8636 	 -65.7805 	 
C 	 -140.738 	 67.2328 	 -67.4535 	 
H 	 -141.298 	 68.171 	 -67.6022 	 
H 	 -141.1 	 66.4088 	 -68.0756 	 
H 	 -139.757 	 67.5944 	 -67.8009 	 
H 	 -133.781 	 66.8273 	 -63.0139 	 
H 	 -141.523 	 68.2727 	 -60.6614 	 
*
