! wB97X-D3 SP def2-SVP
%pal
nprocs 24
end

* xyz 0 1
S 	 -42.6983 	 9.06211 	 28.4472 	 
C 	 -42.4505 	 10.6402 	 27.7175 	 
C 	 -43.6152 	 11.1556 	 27.1549 	 
C 	 -44.7127 	 10.1959 	 27.2286 	 
C 	 -44.3679 	 9.00722 	 27.9154 	 
H 	 -45.6665 	 10.3959 	 26.7875 	 
C 	 -43.7201 	 12.5459 	 26.5645 	 
H 	 -42.8173 	 12.7511 	 25.8739 	 
H 	 -43.7242 	 13.2847 	 27.3466 	 
C 	 -44.949 	 12.8373 	 25.6828 	 
H 	 -45.8794 	 12.5917 	 26.1719 	 
H 	 -44.943 	 13.9119 	 25.5009 	 
C 	 -45.0375 	 12.0963 	 24.3413 	 
H 	 -44.04 	 11.9412 	 23.8734 	 
H 	 -45.4243 	 11.0839 	 24.5122 	 
H 	 -45.7866 	 12.5441 	 23.6682 	 
S 	 -45.117 	 6.46048 	 27.2613 	 
C 	 -46.4387 	 5.66396 	 28.0068 	 
C 	 -47.0981 	 6.61086 	 28.8527 	 
C 	 -46.4569 	 7.89608 	 28.9224 	 
C 	 -45.3052 	 7.93054 	 28.1581 	 
H 	 -47.8995 	 6.27803 	 29.3497 	 
C 	 -46.9218 	 9.008 	 29.9408 	 
H 	 -47.9374 	 9.12886 	 29.8867 	 
H 	 -46.454 	 9.92844 	 29.643 	 
C 	 -46.444 	 8.91158 	 31.3978 	 
H 	 -46.9465 	 9.72586 	 31.8736 	 
H 	 -45.3827 	 9.21235 	 31.504 	 
C 	 -46.8385 	 7.62769 	 32.2045 	 
H 	 -46.4635 	 7.66699 	 33.2216 	 
H 	 -46.5226 	 6.71035 	 31.6744 	 
H 	 -47.9493 	 7.54447 	 32.2683 	 
H 	 -41.527 	 11.1509 	 27.7754 	 
H 	 -46.8677 	 4.66584 	 27.8083 	 
*
