! wB97X-D3 SP def2-SVP
%pal
nprocs 24
end

* xyz 0 1
S 	 -101.748 	 15.528 	 -119.848 	 
C 	 -101.534 	 16.836 	 -118.764 	 
C 	 -100.152 	 17.1372 	 -118.684 	 
C 	 -99.3425 	 16.0971 	 -119.231 	 
C 	 -100.04 	 15.1187 	 -119.947 	 
H 	 -98.2965 	 16.1373 	 -119.236 	 
C 	 -99.3801 	 18.2689 	 -118.006 	 
H 	 -98.6502 	 17.7403 	 -117.388 	 
H 	 -100.071 	 18.7506 	 -117.329 	 
C 	 -98.8438 	 19.3489 	 -118.969 	 
H 	 -97.9504 	 18.911 	 -119.491 	 
H 	 -99.6244 	 19.4191 	 -119.758 	 
C 	 -98.5367 	 20.7125 	 -118.373 	 
H 	 -97.6968 	 21.2342 	 -118.916 	 
H 	 -99.3327 	 21.4173 	 -118.213 	 
H 	 -98.1089 	 20.5994 	 -117.348 	 
S 	 -100.155 	 12.5158 	 -120.866 	 
C 	 -98.929 	 11.8805 	 -121.872 	 
C 	 -98.1724 	 12.884 	 -122.388 	 
C 	 -98.5852 	 14.1965 	 -121.975 	 
C 	 -99.5764 	 14.1855 	 -121.012 	 
H 	 -97.3865 	 12.6935 	 -123.038 	 
C 	 -97.7409 	 15.3199 	 -122.444 	 
H 	 -96.9509 	 14.9247 	 -123.075 	 
H 	 -97.1359 	 15.5331 	 -121.569 	 
C 	 -98.5375 	 16.5735 	 -122.848 	 
H 	 -99.0338 	 16.9438 	 -122 	 
H 	 -99.3046 	 16.3586 	 -123.583 	 
C 	 -97.6114 	 17.5666 	 -123.536 	 
H 	 -96.7852 	 17.802 	 -122.897 	 
H 	 -98.1694 	 18.5085 	 -123.691 	 
H 	 -97.1615 	 17.2284 	 -124.497 	 
H 	 -102.303 	 17.4448 	 -118.388 	 
H 	 -98.6961 	 10.8585 	 -122.012 	 
*
