! wB97X-D3 SP def2-SVP
%pal
nprocs 24
end

* xyz 0 1
S 	 -84.3869 	 -39.3241 	 -73.4927 	 
C 	 -85.74 	 -39.2238 	 -74.562 	 
C 	 -85.703 	 -40.2174 	 -75.5445 	 
C 	 -84.6687 	 -41.1359 	 -75.2685 	 
C 	 -83.8401 	 -40.8462 	 -74.1853 	 
H 	 -84.4507 	 -42.0067 	 -75.8453 	 
C 	 -86.6809 	 -40.3861 	 -76.6722 	 
H 	 -86.0219 	 -40.6071 	 -77.4647 	 
H 	 -87.071 	 -39.3927 	 -76.8281 	 
C 	 -87.7596 	 -41.3867 	 -76.5131 	 
H 	 -88.4298 	 -41.5334 	 -77.3422 	 
H 	 -87.305 	 -42.367 	 -76.4318 	 
C 	 -88.6531 	 -41.1014 	 -75.2965 	 
H 	 -89.3736 	 -40.3122 	 -75.5486 	 
H 	 -89.1153 	 -41.9956 	 -74.8253 	 
H 	 -88.0301 	 -40.8002 	 -74.3929 	 
S 	 -81.5139 	 -40.9594 	 -72.7224 	 
C 	 -80.7247 	 -42.4848 	 -72.3818 	 
C 	 -81.5025 	 -43.4703 	 -72.8977 	 
C 	 -82.6423 	 -43.0783 	 -73.6577 	 
C 	 -82.8534 	 -41.738 	 -73.5759 	 
H 	 -80.9782 	 -44.4076 	 -72.8201 	 
C 	 -83.5452 	 -44.1317 	 -74.3429 	 
H 	 -84.5492 	 -43.7545 	 -74.5941 	 
H 	 -83.7744 	 -44.729 	 -73.4532 	 
C 	 -82.9188 	 -44.9906 	 -75.479 	 
H 	 -83.5343 	 -45.8294 	 -75.6198 	 
H 	 -81.9557 	 -45.4303 	 -75.1386 	 
C 	 -82.7322 	 -44.2044 	 -76.8251 	 
H 	 -82.2573 	 -44.8018 	 -77.5669 	 
H 	 -82.0586 	 -43.3621 	 -76.6979 	 
H 	 -83.6604 	 -43.9467 	 -77.2529 	 
H 	 -86.5107 	 -38.5602 	 -74.5341 	 
H 	 -79.8888 	 -42.6902 	 -71.8046 	 
*
