! wB97X-D3 SP def2-SVP
%pal
nprocs 24
end

* xyz 0 1
S 	 -53.5602 	 -50.3308 	 -77.9522 	 
C 	 -53.2276 	 -52.0211 	 -77.5561 	 
C 	 -54.1927 	 -52.8587 	 -78.1208 	 
C 	 -55.0396 	 -52.1613 	 -79.086 	 
C 	 -54.7898 	 -50.8199 	 -79.147 	 
H 	 -55.8515 	 -52.7194 	 -79.5842 	 
C 	 -54.3165 	 -54.3259 	 -77.988 	 
H 	 -53.3293 	 -54.7698 	 -77.6602 	 
H 	 -54.5419 	 -54.7455 	 -78.9468 	 
C 	 -55.3647 	 -54.8105 	 -76.9235 	 
H 	 -55.1279 	 -55.8116 	 -76.5153 	 
H 	 -55.2618 	 -54.1504 	 -76.1279 	 
C 	 -56.799 	 -54.7987 	 -77.4795 	 
H 	 -57.1068 	 -53.9011 	 -77.9962 	 
H 	 -56.8066 	 -55.6398 	 -78.0577 	 
H 	 -57.5772 	 -55.0919 	 -76.7829 	 
S 	 -55.6548 	 -48.2447 	 -79.2699 	 
C 	 -56.1569 	 -47.6855 	 -80.8469 	 
C 	 -56.2976 	 -48.6718 	 -81.8144 	 
C 	 -55.8418 	 -49.9303 	 -81.2735 	 
C 	 -55.4527 	 -49.818 	 -79.9308 	 
H 	 -56.7786 	 -48.5381 	 -82.7794 	 
C 	 -55.7149 	 -51.1445 	 -82.1961 	 
H 	 -56.5614 	 -51.0045 	 -82.9908 	 
H 	 -55.8864 	 -52.0816 	 -81.6761 	 
C 	 -54.4009 	 -51.2731 	 -83.0602 	 
H 	 -53.5841 	 -51.2173 	 -82.3028 	 
H 	 -54.421 	 -50.3238 	 -83.6164 	 
C 	 -54.4778 	 -52.5716 	 -83.8563 	 
H 	 -54.5709 	 -53.4404 	 -83.1831 	 
H 	 -53.6469 	 -52.6282 	 -84.5457 	 
H 	 -55.3952 	 -52.5724 	 -84.4677 	 
H 	 -52.4983 	 -52.3703 	 -76.941 	 
H 	 -56.5383 	 -46.717 	 -80.901 	 
*
