! wB97X-D3 SP def2-SVP
%pal
nprocs 24
end

* xyz 0 1
S 	 -104.15 	 21.9146 	 -120.38 	 
C 	 -102.412 	 21.7849 	 -120.012 	 
C 	 -101.851 	 20.8586 	 -120.88 	 
C 	 -102.816 	 20.0221 	 -121.549 	 
C 	 -104.082 	 20.3853 	 -121.287 	 
H 	 -102.573 	 19.2201 	 -122.136 	 
C 	 -100.37 	 20.7413 	 -121.202 	 
H 	 -99.9474 	 21.6686 	 -120.741 	 
H 	 -100.106 	 20.8098 	 -122.208 	 
C 	 -99.6055 	 19.4672 	 -120.555 	 
H 	 -100.022 	 18.6044 	 -120.877 	 
H 	 -98.6023 	 19.3864 	 -121.02 	 
C 	 -99.4371 	 19.6808 	 -119.004 	 
H 	 -100.391 	 19.9837 	 -118.552 	 
H 	 -99.1921 	 18.7458 	 -118.476 	 
H 	 -98.7741 	 20.4795 	 -118.749 	 
S 	 -106.082 	 20.8507 	 -123.14 	 
C 	 -107.155 	 19.3868 	 -123.613 	 
C 	 -106.652 	 18.2592 	 -123.022 	 
C 	 -105.613 	 18.512 	 -122.121 	 
C 	 -105.239 	 19.8186 	 -121.988 	 
H 	 -107.084 	 17.2735 	 -123.15 	 
C 	 -104.891 	 17.3536 	 -121.446 	 
H 	 -103.837 	 17.5754 	 -121.522 	 
H 	 -104.996 	 16.4816 	 -122.063 	 
C 	 -105.234 	 17.1158 	 -119.964 	 
H 	 -106.256 	 16.8424 	 -119.869 	 
H 	 -105.157 	 18.0835 	 -119.492 	 
C 	 -104.431 	 16.0495 	 -119.198 	 
H 	 -104.883 	 15.9355 	 -118.224 	 
H 	 -103.434 	 16.4033 	 -118.931 	 
H 	 -104.471 	 15.0692 	 -119.618 	 
H 	 -101.868 	 22.504 	 -119.388 	 
H 	 -107.996 	 19.4145 	 -124.169 	 
*
