! wB97X-D3 SP def2-SVP
%pal
nprocs 24
end

* xyz 0 1
S 	 -49.1118 	 14.6745 	 -105.535 	 
C 	 -50.4559 	 13.5488 	 -105.272 	 
C 	 -50.4054 	 12.904 	 -104.055 	 
C 	 -49.1731 	 13.2944 	 -103.353 	 
C 	 -48.39 	 14.2323 	 -103.998 	 
H 	 -48.9954 	 13.0469 	 -102.282 	 
C 	 -51.4793 	 11.9374 	 -103.483 	 
H 	 -52.4276 	 12.3037 	 -103.99 	 
H 	 -51.55 	 12.1095 	 -102.388 	 
C 	 -51.3305 	 10.4738 	 -103.72 	 
H 	 -50.7964 	 10.1454 	 -102.895 	 
H 	 -52.3406 	 9.98231 	 -103.708 	 
C 	 -50.6355 	 10.0772 	 -105.058 	 
H 	 -50.9316 	 9.13738 	 -105.553 	 
H 	 -50.7097 	 10.85 	 -105.83 	 
H 	 -49.6085 	 9.99271 	 -104.99 	 
S 	 -45.8393 	 14.3359 	 -105.01 	 
C 	 -44.4452 	 14.6781 	 -103.994 	 
C 	 -44.9018 	 14.8067 	 -102.704 	 
C 	 -46.343 	 14.8297 	 -102.527 	 
C 	 -46.9909 	 14.5937 	 -103.717 	 
H 	 -44.1953 	 15.024 	 -101.921 	 
C 	 -46.912 	 14.9379 	 -101.121 	 
H 	 -46.2122 	 14.3971 	 -100.52 	 
H 	 -47.8134 	 14.349 	 -101.081 	 
C 	 -47.0727 	 16.3236 	 -100.514 	 
H 	 -47.9126 	 16.8527 	 -100.917 	 
H 	 -46.1559 	 16.7869 	 -100.79 	 
C 	 -47.1888 	 16.3273 	 -98.9503 	 
H 	 -46.7388 	 15.5362 	 -98.4098 	 
H 	 -48.2106 	 16.2892 	 -98.6671 	 
H 	 -46.9483 	 17.3002 	 -98.5692 	 
H 	 -51.215 	 13.3714 	 -106.065 	 
H 	 -43.4126 	 14.5821 	 -104.324 	 
*
