! wB97X-D3 SP def2-SVP
%pal
nprocs 24
end

* xyz 0 1
S 	 -76.7095 	 -1.2817 	 -64.8359 	 
C 	 -75.6151 	 -0.780466 	 -66.1184 	 
C 	 -75.5052 	 0.554994 	 -66.1762 	 
C 	 -76.2941 	 1.24594 	 -65.1921 	 
C 	 -77.0905 	 0.35256 	 -64.4459 	 
H 	 -76.3765 	 2.2813 	 -64.9385 	 
C 	 -74.5985 	 1.17679 	 -67.2619 	 
H 	 -73.8908 	 0.407624 	 -67.6233 	 
H 	 -73.9806 	 1.87972 	 -66.7178 	 
C 	 -75.2418 	 1.94347 	 -68.4378 	 
H 	 -75.9668 	 1.30327 	 -68.9534 	 
H 	 -75.6953 	 2.84895 	 -68.059 	 
C 	 -74.279 	 2.32416 	 -69.5769 	 
H 	 -74.7249 	 2.57328 	 -70.5264 	 
H 	 -73.6399 	 3.1263 	 -69.2394 	 
H 	 -73.7861 	 1.41982 	 -69.8301 	 
S 	 -76.91 	 1.66394 	 -62.0825 	 
C 	 -78.3157 	 1.80189 	 -61.0643 	 
C 	 -79.4299 	 1.18618 	 -61.6128 	 
C 	 -79.1394 	 0.504108 	 -62.8176 	 
C 	 -77.8723 	 0.788249 	 -63.2731 	 
H 	 -80.4532 	 1.30887 	 -61.1685 	 
C 	 -80.0932 	 -0.375638 	 -63.5924 	 
H 	 -80.8678 	 -0.733294 	 -62.8456 	 
H 	 -79.4354 	 -1.25949 	 -63.8292 	 
C 	 -80.7624 	 0.205154 	 -64.8157 	 
H 	 -81.1016 	 -0.587989 	 -65.4851 	 
H 	 -79.8746 	 0.67357 	 -65.3382 	 
C 	 -81.9512 	 1.15396 	 -64.4992 	 
H 	 -81.6171 	 1.94723 	 -63.8512 	 
H 	 -82.8091 	 0.689935 	 -64.1275 	 
H 	 -82.3375 	 1.59032 	 -65.4344 	 
H 	 -75.0629 	 -1.55315 	 -66.7014 	 
H 	 -78.3454 	 2.42888 	 -60.2044 	 
*
