! wB97X-D3 SP def2-SVP
%pal
nprocs 24
end

* xyz 0 1
S 	 -85.5393 	 -30.5596 	 -60.2461 	 
C 	 -86.8184 	 -29.3827 	 -60.5295 	 
C 	 -88.0239 	 -29.7862 	 -59.9916 	 
C 	 -87.8724 	 -30.9712 	 -59.2869 	 
C 	 -86.5564 	 -31.5664 	 -59.3187 	 
H 	 -88.6612 	 -31.4132 	 -58.6611 	 
C 	 -89.2755 	 -28.998 	 -60.1682 	 
H 	 -89.3722 	 -28.0189 	 -59.6721 	 
H 	 -89.9825 	 -29.516 	 -59.5877 	 
C 	 -89.7315 	 -28.8692 	 -61.6028 	 
H 	 -90.5516 	 -28.1847 	 -61.7164 	 
H 	 -88.9135 	 -28.4584 	 -62.1769 	 
C 	 -90.1077 	 -30.2027 	 -62.1948 	 
H 	 -89.9547 	 -30.1427 	 -63.2564 	 
H 	 -89.4412 	 -31.0514 	 -61.9554 	 
H 	 -91.0589 	 -30.5368 	 -61.9451 	 
S 	 -87.221 	 -34.1071 	 -58.8145 	 
C 	 -86.3608 	 -35.1104 	 -57.8333 	 
C 	 -85.2185 	 -34.5334 	 -57.3211 	 
C 	 -85.0536 	 -33.1707 	 -57.8709 	 
C 	 -86.1216 	 -32.7878 	 -58.6135 	 
H 	 -84.4997 	 -35.2011 	 -56.8004 	 
C 	 -83.7195 	 -32.4375 	 -57.6319 	 
H 	 -83.4823 	 -31.8926 	 -58.5704 	 
H 	 -82.9977 	 -33.254 	 -57.482 	 
C 	 -83.7753 	 -31.4479 	 -56.382 	 
H 	 -82.7085 	 -31.1807 	 -56.1876 	 
H 	 -84.2208 	 -31.9668 	 -55.5625 	 
C 	 -84.7234 	 -30.2044 	 -56.6529 	 
H 	 -84.7109 	 -29.7808 	 -57.6162 	 
H 	 -84.6779 	 -29.5056 	 -55.7711 	 
H 	 -85.7324 	 -30.6008 	 -56.6766 	 
H 	 -86.7378 	 -28.5031 	 -61.1477 	 
H 	 -86.655 	 -36.1023 	 -57.6657 	 
*
