! wB97X-D3 SP def2-SVP
%pal
nprocs 24
end

* xyz 0 1
S 	 -103.167 	 2.02445 	 -107.199 	 
C 	 -104.184 	 0.771713 	 -106.567 	 
C 	 -103.417 	 -0.373144 	 -106.288 	 
C 	 -102.019 	 -0.122823 	 -106.452 	 
C 	 -101.716 	 1.20128 	 -106.735 	 
H 	 -101.143 	 -0.860601 	 -106.303 	 
C 	 -103.968 	 -1.67787 	 -105.766 	 
H 	 -104.627 	 -2.09813 	 -106.558 	 
H 	 -104.716 	 -1.47772 	 -105.08 	 
C 	 -102.847 	 -2.69356 	 -105.26 	 
H 	 -102.171 	 -2.99751 	 -106.018 	 
H 	 -102.268 	 -2.12438 	 -104.503 	 
C 	 -103.41 	 -4.02461 	 -104.641 	 
H 	 -104.165 	 -4.31965 	 -105.338 	 
H 	 -102.679 	 -4.80004 	 -104.507 	 
H 	 -103.849 	 -3.83787 	 -103.672 	 
S 	 -100.067 	 2.52695 	 -108.578 	 
C 	 -98.3937 	 2.77736 	 -108.184 	 
C 	 -98.0551 	 2.07959 	 -107.049 	 
C 	 -99.1782 	 1.53814 	 -106.313 	 
C 	 -100.366 	 1.72564 	 -107.029 	 
H 	 -97.0337 	 2.0667 	 -106.752 	 
C 	 -99.1788 	 0.959541 	 -104.904 	 
H 	 -98.1552 	 0.490564 	 -104.896 	 
H 	 -99.8698 	 0.168767 	 -104.816 	 
C 	 -99.379 	 1.95123 	 -103.735 	 
H 	 -100.419 	 2.32815 	 -103.843 	 
H 	 -98.7298 	 2.79292 	 -103.74 	 
C 	 -99.2984 	 1.27877 	 -102.421 	 
H 	 -99.3435 	 1.93964 	 -101.562 	 
H 	 -98.3447 	 0.797461 	 -102.345 	 
H 	 -100.122 	 0.537656 	 -102.386 	 
H 	 -105.233 	 0.871655 	 -106.479 	 
H 	 -97.6581 	 3.26166 	 -108.732 	 
*
