! wB97X-D3 SP def2-SVP
%pal
nprocs 24
end

* xyz 0 1
S 	 -120.767 	 62.2421 	 -38.3403 	 
C 	 -122.542 	 62.051 	 -38.5559 	 
C 	 -123.02 	 61.0537 	 -37.7159 	 
C 	 -121.995 	 60.4603 	 -36.8871 	 
C 	 -120.715 	 60.9739 	 -37.0937 	 
H 	 -122.126 	 59.709 	 -36.1898 	 
C 	 -124.525 	 60.6925 	 -37.6432 	 
H 	 -124.982 	 61.6595 	 -37.8162 	 
H 	 -124.742 	 60.4782 	 -36.59 	 
C 	 -125.061 	 59.6772 	 -38.6795 	 
H 	 -126.025 	 59.8795 	 -39.1077 	 
H 	 -124.51 	 59.8266 	 -39.6073 	 
C 	 -124.965 	 58.2655 	 -38.182 	 
H 	 -125.677 	 58.1013 	 -37.3795 	 
H 	 -125.189 	 57.4947 	 -38.8999 	 
H 	 -123.879 	 58.0501 	 -37.881 	 
S 	 -118.237 	 61.7795 	 -36.3742 	 
C 	 -117.284 	 60.7844 	 -35.3132 	 
C 	 -117.755 	 59.4795 	 -35.3571 	 
C 	 -119.09 	 59.3489 	 -35.865 	 
C 	 -119.495 	 60.5511 	 -36.4107 	 
H 	 -117.173 	 58.7321 	 -34.9307 	 
C 	 -119.698 	 58.0104 	 -36.0806 	 
H 	 -120.639 	 58.1001 	 -36.4679 	 
H 	 -119.802 	 57.5483 	 -35.0516 	 
C 	 -118.963 	 57.1207 	 -37.0478 	 
H 	 -119.294 	 56.0971 	 -36.9694 	 
H 	 -117.929 	 57.0974 	 -36.8072 	 
C 	 -119.155 	 57.5727 	 -38.4694 	 
H 	 -120.141 	 57.3044 	 -38.8788 	 
H 	 -118.37 	 57.1241 	 -39.0794 	 
H 	 -119.123 	 58.6587 	 -38.5219 	 
H 	 -123.213 	 62.4517 	 -39.3117 	 
H 	 -116.276 	 61.0026 	 -34.9851 	 
*
