! wB97X-D3 SP def2-SVP
%pal
nprocs 24
end

* xyz 0 1
S 	 -101.221 	 -1.64272 	 -114.704 	 
C 	 -100.805 	 -2.75945 	 -115.988 	 
C 	 -100.029 	 -2.20143 	 -116.963 	 
C 	 -99.7957 	 -0.788913 	 -116.692 	 
C 	 -100.479 	 -0.251757 	 -115.57 	 
H 	 -99.1725 	 -0.164608 	 -117.426 	 
C 	 -99.5814 	 -2.88239 	 -118.234 	 
H 	 -99.4385 	 -3.95233 	 -117.963 	 
H 	 -98.5695 	 -2.52083 	 -118.356 	 
C 	 -100.536 	 -2.67097 	 -119.439 	 
H 	 -100.649 	 -1.66785 	 -119.748 	 
H 	 -100.091 	 -3.14254 	 -120.328 	 
C 	 -101.941 	 -3.21935 	 -119.246 	 
H 	 -102.053 	 -4.19386 	 -118.831 	 
H 	 -102.396 	 -2.60436 	 -118.529 	 
H 	 -102.409 	 -3.15705 	 -120.153 	 
S 	 -98.7924 	 1.41758 	 -114.189 	 
C 	 -99.1928 	 3.19066 	 -114.161 	 
C 	 -100.322 	 3.43885 	 -114.865 	 
C 	 -100.97 	 2.27298 	 -115.354 	 
C 	 -100.293 	 1.09947 	 -115.064 	 
H 	 -100.617 	 4.49201 	 -115.042 	 
C 	 -102.222 	 2.29351 	 -116.125 	 
H 	 -102.941 	 1.72534 	 -115.552 	 
H 	 -102.09 	 1.61142 	 -116.991 	 
C 	 -102.81 	 3.6246 	 -116.65 	 
H 	 -102.026 	 4.10123 	 -117.305 	 
H 	 -103.065 	 4.26149 	 -115.8 	 
C 	 -103.963 	 3.45185 	 -117.623 	 
H 	 -104.492 	 4.49328 	 -117.845 	 
H 	 -104.819 	 2.78714 	 -117.303 	 
H 	 -103.579 	 3.08152 	 -118.572 	 
H 	 -101.246 	 -3.72184 	 -115.891 	 
H 	 -98.4528 	 3.91419 	 -113.862 	 
*
