! wB97X-D3 SP def2-SVP
%pal
nprocs 24
end

* xyz 0 1
S 	 -122.851 	 59.7059 	 -36.5005 	 
C 	 -121.985 	 58.202 	 -36.3089 	 
C 	 -121.542 	 58.0664 	 -35.0012 	 
C 	 -121.964 	 59.1292 	 -34.1924 	 
C 	 -122.741 	 60.1129 	 -34.8033 	 
H 	 -121.802 	 59.1283 	 -33.101 	 
C 	 -120.719 	 56.9074 	 -34.469 	 
H 	 -119.948 	 57.3547 	 -33.7986 	 
H 	 -120.046 	 56.5926 	 -35.2885 	 
C 	 -121.407 	 55.7168 	 -33.7632 	 
H 	 -121.863 	 55.0822 	 -34.492 	 
H 	 -120.653 	 55.1343 	 -33.1919 	 
C 	 -122.587 	 56.0794 	 -32.7504 	 
H 	 -123.121 	 55.2632 	 -32.2829 	 
H 	 -122.314 	 56.8078 	 -31.9893 	 
H 	 -123.349 	 56.6092 	 -33.2687 	 
S 	 -123.083 	 62.8793 	 -35.2394 	 
C 	 -123.932 	 63.9405 	 -34.1201 	 
C 	 -124.247 	 63.2204 	 -32.9616 	 
C 	 -123.952 	 61.8147 	 -33.0612 	 
C 	 -123.271 	 61.4061 	 -34.2714 	 
H 	 -124.874 	 63.6287 	 -32.1548 	 
C 	 -124.173 	 60.83 	 -31.9268 	 
H 	 -124.228 	 59.8312 	 -32.3018 	 
H 	 -125.115 	 61.0668 	 -31.427 	 
C 	 -123.081 	 60.8016 	 -30.8619 	 
H 	 -122.916 	 61.8559 	 -30.4723 	 
H 	 -122.2 	 60.4576 	 -31.4602 	 
C 	 -123.315 	 59.7912 	 -29.7348 	 
H 	 -122.54 	 59.6669 	 -29.047 	 
H 	 -123.431 	 58.789 	 -29.9658 	 
H 	 -124.194 	 60.1295 	 -29.2047 	 
H 	 -121.861 	 57.5297 	 -37.0742 	 
H 	 -124.152 	 64.9258 	 -34.3555 	 
*
