! wB97X-D3 SP def2-SVP
%pal
nprocs 24
end

* xyz 0 1
S 	 -106.039 	 34.96 	 -14.5636 	 
C 	 -106.902 	 35.629 	 -15.9481 	 
C 	 -108.192 	 35.961 	 -15.4974 	 
C 	 -108.456 	 35.6248 	 -14.1101 	 
C 	 -107.412 	 34.9555 	 -13.4998 	 
H 	 -109.277 	 35.9733 	 -13.5521 	 
C 	 -109.314 	 36.6363 	 -16.279 	 
H 	 -108.951 	 37.0652 	 -17.3237 	 
H 	 -109.645 	 37.4628 	 -15.6879 	 
C 	 -110.464 	 35.6318 	 -16.7057 	 
H 	 -110.187 	 34.9063 	 -17.4723 	 
H 	 -110.696 	 35.0574 	 -15.8198 	 
C 	 -111.764 	 36.2962 	 -17.2081 	 
H 	 -112.042 	 37.095 	 -16.5143 	 
H 	 -111.56 	 36.6782 	 -18.2135 	 
H 	 -112.603 	 35.5859 	 -17.2311 	 
S 	 -106.619 	 35.5499 	 -11.0094 	 
C 	 -106.733 	 34.3314 	 -9.72039 	 
C 	 -107.122 	 33.0849 	 -10.1475 	 
C 	 -107.458 	 33.1359 	 -11.5576 	 
C 	 -107.365 	 34.4237 	 -12.1324 	 
H 	 -107.121 	 32.2772 	 -9.47402 	 
C 	 -107.833 	 31.9169 	 -12.3599 	 
H 	 -108.659 	 32.1876 	 -12.9492 	 
H 	 -108.341 	 31.2088 	 -11.7018 	 
C 	 -106.667 	 31.3098 	 -13.2775 	 
H 	 -106.074 	 30.4703 	 -12.8323 	 
H 	 -105.909 	 32.1468 	 -13.3855 	 
C 	 -106.956 	 30.9497 	 -14.7698 	 
H 	 -106.078 	 30.5925 	 -15.3754 	 
H 	 -107.472 	 31.7154 	 -15.2944 	 
H 	 -107.659 	 30.0867 	 -14.9102 	 
H 	 -106.486 	 35.8096 	 -16.9329 	 
H 	 -106.328 	 34.4682 	 -8.72703 	 
*
