! wB97X-D3 SP def2-SVP
%pal
nprocs 24
end

* xyz 0 1
S 	 -108.408 	 60.8494 	 -101.937 	 
C 	 -108.438 	 59.8014 	 -100.556 	 
C 	 -108.583 	 60.5076 	 -99.4173 	 
C 	 -108.235 	 61.9064 	 -99.5659 	 
C 	 -108.225 	 62.2714 	 -100.902 	 
H 	 -108.212 	 62.6631 	 -98.7639 	 
C 	 -109.017 	 59.9211 	 -98.1054 	 
H 	 -109.585 	 59.0658 	 -98.3229 	 
H 	 -109.75 	 60.5641 	 -97.6635 	 
C 	 -107.907 	 59.5728 	 -97.0458 	 
H 	 -107.52 	 58.6052 	 -97.4931 	 
H 	 -107.133 	 60.2945 	 -96.9064 	 
C 	 -108.583 	 59.2868 	 -95.6708 	 
H 	 -109.084 	 58.3104 	 -95.5168 	 
H 	 -107.791 	 59.1107 	 -94.8806 	 
H 	 -109.252 	 60.0036 	 -95.3765 	 
S 	 -106.656 	 64.6101 	 -100.926 	 
C 	 -107.065 	 65.8835 	 -101.955 	 
C 	 -108.257 	 65.6614 	 -102.564 	 
C 	 -108.857 	 64.3371 	 -102.325 	 
C 	 -108.092 	 63.6371 	 -101.427 	 
H 	 -108.592 	 66.433 	 -103.278 	 
C 	 -110.167 	 63.9609 	 -103.02 	 
H 	 -110.106 	 62.9224 	 -103.445 	 
H 	 -110.27 	 64.6636 	 -103.843 	 
C 	 -111.354 	 64.1072 	 -102.037 	 
H 	 -111.676 	 65.13 	 -101.78 	 
H 	 -111.187 	 63.5048 	 -101.198 	 
C 	 -112.584 	 63.4026 	 -102.578 	 
H 	 -113.063 	 64.0088 	 -103.321 	 
H 	 -113.319 	 63.2493 	 -101.845 	 
H 	 -112.297 	 62.4604 	 -103.076 	 
H 	 -108.557 	 58.7203 	 -100.599 	 
H 	 -106.507 	 66.8378 	 -101.98 	 
*
