! wB97X-D3 SP def2-SVP
%pal
nprocs 24
end

* xyz 0 1
S 	 -54.1032 	 21.3611 	 24.2498 	 
C 	 -54.2235 	 20.1297 	 25.5529 	 
C 	 -55.5508 	 19.8142 	 25.7236 	 
C 	 -56.4704 	 20.5444 	 24.8649 	 
C 	 -55.8312 	 21.353 	 23.937 	 
H 	 -57.5856 	 20.419 	 24.9264 	 
C 	 -56.0366 	 18.9937 	 26.9145 	 
H 	 -56.6079 	 19.5785 	 27.6499 	 
H 	 -55.1115 	 18.6506 	 27.4301 	 
C 	 -56.8258 	 17.7766 	 26.5858 	 
H 	 -57.8188 	 17.9546 	 26.1831 	 
H 	 -56.1746 	 17.2253 	 25.8654 	 
C 	 -56.8144 	 16.8718 	 27.8738 	 
H 	 -57.4204 	 15.9258 	 27.927 	 
H 	 -55.8608 	 16.7181 	 28.3175 	 
H 	 -57.3927 	 17.4478 	 28.6129 	 
S 	 -56.4315 	 23.8146 	 22.8393 	 
C 	 -57.576 	 23.96 	 21.5204 	 
C 	 -58.0202 	 22.6804 	 21.1415 	 
C 	 -57.458 	 21.5846 	 21.9018 	 
C 	 -56.5596 	 22.0554 	 22.8647 	 
H 	 -58.6643 	 22.7033 	 20.2859 	 
C 	 -57.9787 	 20.1242 	 21.8289 	 
H 	 -59.0502 	 20.1645 	 22.0104 	 
H 	 -57.6999 	 19.5412 	 22.7202 	 
C 	 -57.486 	 19.2795 	 20.6629 	 
H 	 -57.8852 	 19.7095 	 19.7798 	 
H 	 -57.9405 	 18.313 	 20.707 	 
C 	 -55.972 	 19.112 	 20.6721 	 
H 	 -55.5966 	 18.4965 	 19.8472 	 
H 	 -55.5191 	 18.7267 	 21.5854 	 
H 	 -55.3957 	 20.0257 	 20.4412 	 
H 	 -53.5704 	 19.9879 	 26.4141 	 
H 	 -57.9326 	 24.8584 	 21.0764 	 
*
