! wB97X-D3 SP def2-SVP
%pal
nprocs 24
end

* xyz 0 1
S 	 -111.107 	 59.3145 	 -20.3859 	 
C 	 -111.067 	 60.5711 	 -19.1789 	 
C 	 -112.347 	 60.9381 	 -18.9008 	 
C 	 -113.329 	 60.082 	 -19.5433 	 
C 	 -112.766 	 59.0112 	 -20.2764 	 
H 	 -114.382 	 60.1152 	 -19.4171 	 
C 	 -112.798 	 62.2103 	 -18.1055 	 
H 	 -111.974 	 62.5203 	 -17.4446 	 
H 	 -113.619 	 62.0766 	 -17.4097 	 
C 	 -113.239 	 63.4405 	 -18.971 	 
H 	 -112.394 	 63.4901 	 -19.6304 	 
H 	 -114.141 	 63.399 	 -19.6218 	 
C 	 -113.259 	 64.7658 	 -18.1164 	 
H 	 -112.344 	 64.8582 	 -17.5386 	 
H 	 -113.401 	 65.6903 	 -18.6859 	 
H 	 -114.046 	 64.873 	 -17.3892 	 
S 	 -114.981 	 57.4255 	 -20.4824 	 
C 	 -115.091 	 56.3307 	 -21.8066 	 
C 	 -114.048 	 56.5204 	 -22.6845 	 
C 	 -113.071 	 57.4428 	 -22.2659 	 
C 	 -113.434 	 58.0249 	 -21.08 	 
H 	 -113.961 	 56.05 	 -23.6644 	 
C 	 -111.8 	 57.6099 	 -23.0738 	 
H 	 -111.481 	 56.615 	 -23.5281 	 
H 	 -111.003 	 57.8088 	 -22.4212 	 
C 	 -111.9 	 58.6431 	 -24.2358 	 
H 	 -112.089 	 59.5981 	 -23.8825 	 
H 	 -112.917 	 58.3969 	 -24.7313 	 
C 	 -110.667 	 58.6184 	 -25.1036 	 
H 	 -110.864 	 59.2502 	 -25.9467 	 
H 	 -110.585 	 57.6235 	 -25.5299 	 
H 	 -109.795 	 58.9761 	 -24.482 	 
H 	 -110.185 	 60.9867 	 -18.7551 	 
H 	 -115.928 	 55.666 	 -22.0137 	 
*
