! wB97X-D3 SP def2-SVP
%pal
nprocs 24
end

* xyz 0 1
S 	 -40.669 	 -48.1552 	 -69.633 	 
C 	 -39.1786 	 -47.4156 	 -69.0125 	 
C 	 -38.0532 	 -47.9577 	 -69.5379 	 
C 	 -38.3638 	 -49.1647 	 -70.2098 	 
C 	 -39.7334 	 -49.5115 	 -70.2025 	 
H 	 -37.6966 	 -49.9046 	 -70.6163 	 
C 	 -36.589 	 -47.5625 	 -69.3247 	 
H 	 -36.6528 	 -46.6806 	 -68.6549 	 
H 	 -36.1989 	 -47.128 	 -70.2834 	 
C 	 -35.582 	 -48.5934 	 -68.9673 	 
H 	 -35.7152 	 -49.0049 	 -67.9771 	 
H 	 -35.5946 	 -49.3532 	 -69.7169 	 
C 	 -34.1827 	 -47.9812 	 -69.069 	 
H 	 -33.984 	 -47.4113 	 -69.9598 	 
H 	 -33.9479 	 -47.3737 	 -68.23 	 
H 	 -33.3869 	 -48.6655 	 -68.948 	 
S 	 -40.6712 	 -50.6683 	 -72.4819 	 
C 	 -40.8865 	 -52.4786 	 -72.5167 	 
C 	 -40.6662 	 -53.0179 	 -71.2515 	 
C 	 -40.2842 	 -52.0865 	 -70.2946 	 
C 	 -40.2824 	 -50.7451 	 -70.7672 	 
H 	 -40.6621 	 -54.1274 	 -71.1563 	 
C 	 -39.8205 	 -52.5596 	 -68.928 	 
H 	 -40.321 	 -53.5079 	 -68.7787 	 
H 	 -40.2019 	 -51.8406 	 -68.3053 	 
C 	 -38.3527 	 -52.8067 	 -68.7559 	 
H 	 -37.7781 	 -51.9078 	 -68.7751 	 
H 	 -37.9003 	 -53.3491 	 -69.6032 	 
C 	 -37.9497 	 -53.5512 	 -67.458 	 
H 	 -38.3552 	 -52.9564 	 -66.5992 	 
H 	 -36.9102 	 -53.7563 	 -67.2923 	 
H 	 -38.5187 	 -54.4569 	 -67.3553 	 
H 	 -39.1526 	 -46.5594 	 -68.3166 	 
H 	 -41.1574 	 -52.9635 	 -73.4204 	 
*
