! wB97X-D3 SP def2-SVP
%pal
nprocs 24
end

* xyz 0 1
S 	 -121.301 	 49.8418 	 -27.7065 	 
C 	 -121.1 	 48.3652 	 -28.654 	 
C 	 -120.842 	 48.7163 	 -29.9319 	 
C 	 -120.736 	 50.1253 	 -30.1947 	 
C 	 -120.925 	 50.864 	 -29.0506 	 
H 	 -120.519 	 50.5594 	 -31.1477 	 
C 	 -120.332 	 47.68 	 -30.9108 	 
H 	 -120.373 	 46.717 	 -30.3535 	 
H 	 -119.233 	 47.8988 	 -31.1124 	 
C 	 -121.209 	 47.6682 	 -32.1711 	 
H 	 -121.238 	 48.5509 	 -32.7593 	 
H 	 -120.785 	 47.0387 	 -32.908 	 
C 	 -122.662 	 47.1398 	 -31.9338 	 
H 	 -123.211 	 48.0014 	 -31.7163 	 
H 	 -123.068 	 46.7473 	 -32.8459 	 
H 	 -122.849 	 46.4103 	 -31.1629 	 
S 	 -119.158 	 52.9952 	 -28.9256 	 
C 	 -119.746 	 54.6332 	 -28.7463 	 
C 	 -121.095 	 54.6492 	 -28.8947 	 
C 	 -121.67 	 53.3347 	 -28.9567 	 
C 	 -120.761 	 52.3358 	 -29.0639 	 
H 	 -121.719 	 55.5717 	 -28.7683 	 
C 	 -123.154 	 53.1312 	 -28.8508 	 
H 	 -123.34 	 53.6261 	 -27.8854 	 
H 	 -123.251 	 52.0664 	 -28.6846 	 
C 	 -124.006 	 53.7668 	 -29.9455 	 
H 	 -123.903 	 54.8213 	 -29.9503 	 
H 	 -125.02 	 53.4794 	 -29.8226 	 
C 	 -123.645 	 53.3672 	 -31.3427 	 
H 	 -123.415 	 52.2876 	 -31.3643 	 
H 	 -122.73 	 53.7435 	 -31.664 	 
H 	 -124.462 	 53.6815 	 -31.9652 	 
H 	 -121.053 	 47.3771 	 -28.1439 	 
H 	 -119.155 	 55.4024 	 -28.4683 	 
*
