! wB97X-D3 SP def2-SVP
%pal
nprocs 24
end

* xyz 0 1
S 	 -35.2661 	 -10.7246 	 5.57436 	 
C 	 -34.0441 	 -10.3548 	 6.74367 	 
C 	 -33.9985 	 -8.94452 	 6.97647 	 
C 	 -34.98 	 -8.20721 	 6.24008 	 
C 	 -35.7201 	 -9.04005 	 5.42647 	 
H 	 -35.2179 	 -7.15909 	 6.21524 	 
C 	 -33.0006 	 -8.24962 	 7.91707 	 
H 	 -32.3024 	 -9.0221 	 8.15471 	 
H 	 -33.3552 	 -7.97425 	 8.85089 	 
C 	 -32.3298 	 -7.06598 	 7.21666 	 
H 	 -33.0921 	 -6.3145 	 6.97759 	 
H 	 -31.8081 	 -6.42545 	 7.97545 	 
C 	 -31.5151 	 -7.38775 	 6.00904 	 
H 	 -30.5606 	 -7.99321 	 6.19807 	 
H 	 -32.0864 	 -8.09008 	 5.35837 	 
H 	 -31.1665 	 -6.39673 	 5.63732 	 
S 	 -36.8894 	 -9.57511 	 2.9176 	 
C 	 -38.1204 	 -8.57967 	 2.34152 	 
C 	 -38.2608 	 -7.50237 	 3.12834 	 
C 	 -37.6505 	 -7.6496 	 4.40482 	 
C 	 -36.8142 	 -8.74819 	 4.48239 	 
H 	 -38.897 	 -6.62696 	 2.92088 	 
C 	 -37.8557 	 -6.65115 	 5.47865 	 
H 	 -37.5145 	 -7.07085 	 6.44675 	 
H 	 -38.9238 	 -6.51454 	 5.55976 	 
C 	 -37.3404 	 -5.23867 	 5.09746 	 
H 	 -37.8702 	 -4.93741 	 4.16533 	 
H 	 -36.2364 	 -5.20559 	 4.89651 	 
C 	 -37.6551 	 -4.21053 	 6.17881 	 
H 	 -37.5478 	 -3.23109 	 5.70101 	 
H 	 -37.0564 	 -4.29994 	 7.06052 	 
H 	 -38.6787 	 -4.15656 	 6.40533 	 
H 	 -33.4058 	 -11.1082 	 7.04195 	 
H 	 -38.582 	 -8.72564 	 1.31165 	 
*
