! wB97X-D3 SP def2-SVP
%pal
nprocs 24
end

* xyz 0 1
S 	 -109.702 	 54.0435 	 -71.2092 	 
C 	 -109.984 	 52.9988 	 -72.6591 	 
C 	 -108.927 	 53.0407 	 -73.5305 	 
C 	 -107.919 	 53.8994 	 -73.0194 	 
C 	 -108.121 	 54.405 	 -71.7499 	 
H 	 -107.024 	 54.1076 	 -73.6187 	 
C 	 -108.764 	 52.2484 	 -74.8123 	 
H 	 -109.32 	 51.32 	 -74.7332 	 
H 	 -107.746 	 51.9604 	 -74.9231 	 
C 	 -109.071 	 52.9428 	 -76.1654 	 
H 	 -110.004 	 53.436 	 -76.0996 	 
H 	 -108.299 	 53.6976 	 -76.2826 	 
C 	 -108.903 	 51.9666 	 -77.3091 	 
H 	 -109.447 	 50.971 	 -77.3032 	 
H 	 -109.077 	 52.4158 	 -78.2519 	 
H 	 -107.798 	 51.7658 	 -77.4269 	 
S 	 -105.549 	 54.9651 	 -70.8453 	 
C 	 -105.314 	 56.2913 	 -69.7678 	 
C 	 -106.394 	 57.1373 	 -69.8365 	 
C 	 -107.535 	 56.6483 	 -70.4972 	 
C 	 -107.278 	 55.4009 	 -71.0926 	 
H 	 -106.38 	 58.0837 	 -69.3251 	 
C 	 -108.699 	 57.5351 	 -70.7178 	 
H 	 -109.552 	 57.0316 	 -71.2578 	 
H 	 -108.25 	 58.2678 	 -71.3662 	 
C 	 -109.327 	 58.2091 	 -69.5244 	 
H 	 -108.606 	 58.8064 	 -68.9635 	 
H 	 -109.69 	 57.5215 	 -68.856 	 
C 	 -110.589 	 59.1293 	 -69.9746 	 
H 	 -111.541 	 58.5026 	 -69.9403 	 
H 	 -110.384 	 59.5934 	 -70.8868 	 
H 	 -110.827 	 59.8692 	 -69.2075 	 
H 	 -110.822 	 52.3786 	 -72.742 	 
H 	 -104.411 	 56.6014 	 -69.287 	 
*
