! wB97X-D3 SP def2-SVP
%pal
nprocs 24
end

* xyz 0 1
S 	 -30.5142 	 -38.1371 	 -91.5956 	 
C 	 -29.8393 	 -36.7446 	 -92.3354 	 
C 	 -30.8397 	 -35.9323 	 -92.8116 	 
C 	 -32.1289 	 -36.4608 	 -92.6062 	 
C 	 -32.1284 	 -37.6789 	 -91.9965 	 
H 	 -33.0643 	 -35.8778 	 -92.7985 	 
C 	 -30.7818 	 -34.6609 	 -93.554 	 
H 	 -31.3263 	 -34.932 	 -94.551 	 
H 	 -29.7452 	 -34.5066 	 -93.8416 	 
C 	 -31.2772 	 -33.3569 	 -92.9491 	 
H 	 -31.0218 	 -32.4666 	 -93.5759 	 
H 	 -32.3357 	 -33.3317 	 -92.7103 	 
C 	 -30.465 	 -33.1 	 -91.6841 	 
H 	 -30.827 	 -33.8275 	 -90.904 	 
H 	 -29.3776 	 -33.2562 	 -91.8046 	 
H 	 -30.5259 	 -32.0639 	 -91.3293 	 
S 	 -33.4271 	 -40.1673 	 -91.5611 	 
C 	 -34.8987 	 -40.1909 	 -90.6695 	 
C 	 -35.348 	 -38.9996 	 -90.3875 	 
C 	 -34.4519 	 -37.9722 	 -90.7955 	 
C 	 -33.2774 	 -38.4493 	 -91.4465 	 
H 	 -36.1734 	 -38.7964 	 -89.836 	 
C 	 -34.7713 	 -36.5172 	 -90.3938 	 
H 	 -33.884 	 -36.0153 	 -89.9894 	 
H 	 -35.5446 	 -36.6872 	 -89.626 	 
C 	 -35.4512 	 -35.58 	 -91.4293 	 
H 	 -34.7193 	 -34.7971 	 -91.7065 	 
H 	 -36.0911 	 -34.9494 	 -90.8286 	 
C 	 -36.1974 	 -36.1609 	 -92.6328 	 
H 	 -35.6822 	 -36.9692 	 -93.1294 	 
H 	 -36.4812 	 -35.2961 	 -93.3101 	 
H 	 -37.1192 	 -36.7511 	 -92.44 	 
H 	 -28.8344 	 -36.4516 	 -92.3009 	 
H 	 -35.564 	 -41.0516 	 -90.5522 	 
*
