! wB97X-D3 SP def2-SVP
%pal
nprocs 24
end

* xyz 0 1
S 	 -72.4353 	 8.34602 	 -110.84 	 
C 	 -73.5495 	 7.98776 	 -109.51 	 
C 	 -73.267 	 6.82196 	 -108.874 	 
C 	 -72.0281 	 6.31299 	 -109.403 	 
C 	 -71.4664 	 7.02712 	 -110.438 	 
H 	 -71.5644 	 5.4012 	 -109.064 	 
C 	 -74.0564 	 6.22898 	 -107.747 	 
H 	 -74.9007 	 6.96336 	 -107.643 	 
H 	 -73.4876 	 6.39586 	 -106.884 	 
C 	 -74.3252 	 4.73033 	 -107.892 	 
H 	 -74.5779 	 4.41943 	 -108.94 	 
H 	 -73.4136 	 4.21226 	 -107.769 	 
C 	 -75.5038 	 4.23293 	 -107.074 	 
H 	 -76.3732 	 4.90764 	 -107.318 	 
H 	 -75.7803 	 3.21321 	 -107.279 	 
H 	 -75.4206 	 4.34065 	 -106.022 	 
S 	 -70.4564 	 6.34019 	 -112.976 	 
C 	 -68.6951 	 6.18435 	 -113.167 	 
C 	 -68.0262 	 6.37676 	 -112.009 	 
C 	 -68.8995 	 6.65583 	 -110.875 	 
C 	 -70.2475 	 6.84228 	 -111.244 	 
H 	 -66.9146 	 6.34169 	 -112.006 	 
C 	 -68.3478 	 6.77653 	 -109.431 	 
H 	 -67.2622 	 6.71629 	 -109.518 	 
H 	 -68.5394 	 5.91155 	 -108.793 	 
C 	 -68.589 	 8.06588 	 -108.7 	 
H 	 -69.6393 	 8.29109 	 -108.559 	 
H 	 -68.1588 	 8.83191 	 -109.215 	 
C 	 -67.9486 	 8.25859 	 -107.338 	 
H 	 -66.8915 	 8.38171 	 -107.369 	 
H 	 -68.3055 	 7.47682 	 -106.738 	 
H 	 -68.4461 	 9.15287 	 -106.906 	 
H 	 -74.3936 	 8.62759 	 -109.301 	 
H 	 -68.103 	 5.94557 	 -114.057 	 
*
