! wB97X-D3 SP def2-SVP
%pal
nprocs 24
end

* xyz 0 1
S 	 -36.2607 	 3.16265 	 11.5209 	 
C 	 -35.0365 	 2.32226 	 12.3701 	 
C 	 -35.2086 	 0.93032 	 12.2925 	 
C 	 -36.4719 	 0.592709 	 11.7477 	 
C 	 -37.1914 	 1.68299 	 11.338 	 
H 	 -36.9567 	 -0.393648 	 11.796 	 
C 	 -34.2343 	 -0.111431 	 12.8048 	 
H 	 -33.3103 	 0.0987281 	 12.336 	 
H 	 -34.5798 	 -1.07996 	 12.4002 	 
C 	 -33.9825 	 -0.113941 	 14.358 	 
H 	 -33.2438 	 -0.974974 	 14.5401 	 
H 	 -33.3003 	 0.684723 	 14.5536 	 
C 	 -35.1165 	 0.0191853 	 15.2911 	 
H 	 -35.9343 	 -0.646807 	 15.1743 	 
H 	 -34.6763 	 -0.125127 	 16.3224 	 
H 	 -35.4848 	 1.00721 	 15.3254 	 
S 	 -38.8349 	 1.13357 	 9.2299 	 
C 	 -40.4925 	 1.70203 	 9.33136 	 
C 	 -40.8605 	 2.00315 	 10.633 	 
C 	 -39.6983 	 2.06143 	 11.4437 	 
C 	 -38.5397 	 1.70328 	 10.8463 	 
H 	 -41.8365 	 2.33994 	 10.9267 	 
C 	 -39.8196 	 2.33606 	 12.9302 	 
H 	 -40.5483 	 3.11937 	 13.2023 	 
H 	 -38.9737 	 2.86508 	 13.3459 	 
C 	 -40.0693 	 1.10365 	 13.7283 	 
H 	 -39.2287 	 0.462477 	 13.4884 	 
H 	 -41.0059 	 0.605813 	 13.2748 	 
C 	 -40.2974 	 1.34128 	 15.2394 	 
H 	 -40.2883 	 0.297623 	 15.631 	 
H 	 -41.2939 	 1.71216 	 15.3921 	 
H 	 -39.5379 	 1.96218 	 15.732 	 
H 	 -34.164 	 2.83549 	 12.7986 	 
H 	 -41.2465 	 1.64818 	 8.61891 	 
*
