! wB97X-D3 SP def2-SVP
%pal
nprocs 24
end

* xyz 0 1
S 	 -122.421 	 51.5085 	 -27.0893 	 
C 	 -123.144 	 49.9893 	 -27.5598 	 
C 	 -122.705 	 49.663 	 -28.8363 	 
C 	 -121.805 	 50.6426 	 -29.4175 	 
C 	 -121.778 	 51.8203 	 -28.7338 	 
H 	 -121.254 	 50.6212 	 -30.358 	 
C 	 -122.876 	 48.3604 	 -29.6242 	 
H 	 -123.786 	 47.9848 	 -29.0922 	 
H 	 -122.135 	 47.6708 	 -29.3036 	 
C 	 -123.02 	 48.495 	 -31.1748 	 
H 	 -122.113 	 48.9002 	 -31.6393 	 
H 	 -123.187 	 47.5267 	 -31.619 	 
C 	 -124.252 	 49.4172 	 -31.5447 	 
H 	 -124.302 	 50.3588 	 -31.0272 	 
H 	 -124.278 	 49.681 	 -32.6093 	 
H 	 -125.087 	 48.9307 	 -31.1826 	 
S 	 -119.444 	 52.8314 	 -29.9481 	 
C 	 -119.335 	 54.5263 	 -30.2507 	 
C 	 -120.538 	 55.1672 	 -29.8395 	 
C 	 -121.528 	 54.3289 	 -29.1547 	 
C 	 -121.092 	 53.0241 	 -29.1769 	 
H 	 -120.579 	 56.2286 	 -29.9818 	 
C 	 -123.024 	 54.7072 	 -29.0302 	 
H 	 -122.974 	 55.6396 	 -28.5293 	 
H 	 -123.527 	 53.9471 	 -28.3934 	 
C 	 -123.761 	 54.8524 	 -30.4005 	 
H 	 -123.335 	 55.6711 	 -30.9604 	 
H 	 -124.724 	 55.2164 	 -30.1918 	 
C 	 -123.701 	 53.5728 	 -31.2057 	 
H 	 -124.261 	 52.7224 	 -30.8057 	 
H 	 -122.652 	 53.3755 	 -31.3727 	 
H 	 -124.207 	 53.7043 	 -32.1627 	 
H 	 -123.676 	 49.3473 	 -26.8934 	 
H 	 -118.49 	 55.0347 	 -30.6917 	 
*
