! wB97X-D3 SP def2-SVP
%pal
nprocs 24
end

* xyz 0 1
S 	 -131.288 	 3.82278 	 8.02323 	 
C 	 -130.054 	 4.38465 	 6.95962 	 
C 	 -129.121 	 3.36353 	 6.7298 	 
C 	 -129.243 	 2.30208 	 7.67263 	 
C 	 -130.414 	 2.3961 	 8.39818 	 
H 	 -128.691 	 1.37569 	 7.69208 	 
C 	 -128.053 	 3.2637 	 5.61263 	 
H 	 -127.774 	 2.25906 	 5.45899 	 
H 	 -127.128 	 3.84542 	 5.73764 	 
C 	 -128.407 	 3.79596 	 4.23028 	 
H 	 -129.436 	 3.44408 	 4.08067 	 
H 	 -128.478 	 4.86322 	 4.21165 	 
C 	 -127.398 	 3.38949 	 3.15741 	 
H 	 -127.808 	 3.68329 	 2.23319 	 
H 	 -126.477 	 3.88764 	 3.13247 	 
H 	 -127.251 	 2.29386 	 3.19166 	 
S 	 -130.684 	 1.70854 	 11.0382 	 
C 	 -131.489 	 0.221466 	 11.4385 	 
C 	 -132.107 	 -0.35193 	 10.3322 	 
C 	 -131.722 	 0.291388 	 9.14997 	 
C 	 -130.965 	 1.41056 	 9.33915 	 
H 	 -132.684 	 -1.18075 	 10.5346 	 
C 	 -132.198 	 -0.162309 	 7.79116 	 
H 	 -132.219 	 0.53314 	 7.00573 	 
H 	 -133.18 	 -0.552865 	 7.96854 	 
C 	 -131.37 	 -1.38689 	 7.27352 	 
H 	 -131.757 	 -1.6576 	 6.31421 	 
H 	 -131.577 	 -2.26118 	 7.918 	 
C 	 -129.911 	 -1.16903 	 6.90842 	 
H 	 -129.507 	 -1.93362 	 6.30502 	 
H 	 -129.297 	 -1.02936 	 7.78736 	 
H 	 -129.778 	 -0.223853 	 6.36663 	 
H 	 -130.147 	 5.33443 	 6.40464 	 
H 	 -131.779 	 -0.10315 	 12.4407 	 
*
