! wB97X-D3 SP def2-SVP
%pal
nprocs 24
end

* xyz 0 1
S 	 -107.291 	 57.1582 	 -95.8395 	 
C 	 -106.67 	 56.4578 	 -94.3786 	 
C 	 -106.624 	 55.0574 	 -94.3368 	 
C 	 -106.868 	 54.5616 	 -95.6681 	 
C 	 -107.204 	 55.5465 	 -96.5982 	 
H 	 -106.732 	 53.5888 	 -95.9791 	 
C 	 -106.064 	 54.3305 	 -93.1163 	 
H 	 -106.858 	 53.8634 	 -92.5535 	 
H 	 -105.679 	 55.0313 	 -92.3904 	 
C 	 -104.971 	 53.2349 	 -93.4783 	 
H 	 -104.56 	 52.775 	 -92.5674 	 
H 	 -105.373 	 52.4748 	 -94.052 	 
C 	 -103.859 	 53.8325 	 -94.3378 	 
H 	 -103.456 	 54.7166 	 -93.7948 	 
H 	 -103.078 	 53.1558 	 -94.5647 	 
H 	 -104.219 	 54.0938 	 -95.2606 	 
S 	 -106.427 	 56.4197 	 -99.0256 	 
C 	 -107.174 	 55.8688 	 -100.5 	 
C 	 -107.912 	 54.741 	 -100.198 	 
C 	 -107.951 	 54.3843 	 -98.8423 	 
C 	 -107.446 	 55.4237 	 -98.0537 	 
H 	 -108.401 	 54.1087 	 -100.923 	 
C 	 -108.697 	 53.1584 	 -98.2379 	 
H 	 -109.66 	 53.0363 	 -98.6818 	 
H 	 -108.952 	 53.3432 	 -97.2156 	 
C 	 -108.006 	 51.7456 	 -98.4358 	 
H 	 -106.997 	 51.6387 	 -98.0398 	 
H 	 -107.874 	 51.6162 	 -99.5395 	 
C 	 -108.889 	 50.528 	 -98.1374 	 
H 	 -108.35 	 49.5383 	 -98.2263 	 
H 	 -109.792 	 50.51 	 -98.785 	 
H 	 -109.246 	 50.6257 	 -97.0938 	 
H 	 -106.452 	 57.0121 	 -93.5216 	 
H 	 -107.087 	 56.3938 	 -101.547 	 
*
