! wB97X-D3 SP def2-SVP
%pal
nprocs 24
end

* xyz 0 1
S 	 37.7769 	 -35.1205 	 -114.926 	 
C 	 36.4669 	 -35.7296 	 -115.873 	 
C 	 36.7823 	 -35.8774 	 -117.255 	 
C 	 38.0921 	 -35.3253 	 -117.503 	 
C 	 38.7868 	 -34.901 	 -116.382 	 
H 	 38.6373 	 -35.3581 	 -118.51 	 
C 	 35.8123 	 -36.3707 	 -118.231 	 
H 	 35.264 	 -37.0422 	 -117.642 	 
H 	 36.3551 	 -36.9379 	 -119.066 	 
C 	 34.9661 	 -35.1836 	 -118.824 	 
H 	 34.1987 	 -35.6791 	 -119.376 	 
H 	 34.5652 	 -34.6219 	 -117.957 	 
C 	 35.7273 	 -34.2497 	 -119.867 	 
H 	 36.0258 	 -34.8562 	 -120.701 	 
H 	 34.9925 	 -33.419 	 -120.155 	 
H 	 36.638 	 -33.709 	 -119.371 	 
S 	 40.7394 	 -32.9132 	 -116.435 	 
C 	 42.2911 	 -33.233 	 -115.811 	 
C 	 42.4086 	 -34.5083 	 -115.311 	 
C 	 41.214 	 -35.2738 	 -115.558 	 
C 	 40.214 	 -34.511 	 -116.143 	 
H 	 43.3245 	 -34.8122 	 -114.84 	 
C 	 41.0485 	 -36.6746 	 -114.95 	 
H 	 40.1097 	 -36.651 	 -114.425 	 
H 	 41.8606 	 -36.906 	 -114.238 	 
C 	 41.0172 	 -37.8116 	 -115.939 	 
H 	 40.1741 	 -37.5703 	 -116.603 	 
H 	 40.8011 	 -38.712 	 -115.3 	 
C 	 42.3139 	 -37.9283 	 -116.754 	 
H 	 42.3764 	 -37.1668 	 -117.536 	 
H 	 42.1934 	 -38.7943 	 -117.348 	 
H 	 43.2414 	 -37.8642 	 -116.2 	 
H 	 35.5878 	 -36.1751 	 -115.541 	 
H 	 43.0918 	 -32.524 	 -115.813 	 
*
