! wB97X-D3 SP def2-SVP
%pal
nprocs 24
end

* xyz 0 1
S 	 -99.5729 	 46.6298 	 -85.4935 	 
C 	 -99.2823 	 44.9329 	 -85.4753 	 
C 	 -100.041 	 44.2134 	 -86.3644 	 
C 	 -100.978 	 45.1193 	 -86.9527 	 
C 	 -100.993 	 46.4201 	 -86.47 	 
H 	 -101.769 	 44.812 	 -87.5645 	 
C 	 -100.195 	 42.7046 	 -86.4545 	 
H 	 -99.427 	 42.324 	 -87.1533 	 
H 	 -101.118 	 42.533 	 -87.0395 	 
C 	 -100.239 	 41.8988 	 -85.0705 	 
H 	 -100.344 	 40.8342 	 -85.2904 	 
H 	 -99.2463 	 42.0203 	 -84.6622 	 
C 	 -101.275 	 42.4594 	 -84.0333 	 
H 	 -101.128 	 43.5401 	 -83.8918 	 
H 	 -102.234 	 42.1719 	 -84.1963 	 
H 	 -101.111 	 42.0598 	 -83.0337 	 
S 	 -101.16 	 49.084 	 -87.3427 	 
C 	 -102.773 	 49.6325 	 -87.7563 	 
C 	 -103.821 	 48.8339 	 -87.3493 	 
C 	 -103.268 	 47.5201 	 -86.9755 	 
C 	 -101.871 	 47.5019 	 -86.9003 	 
H 	 -104.831 	 49.1183 	 -87.6316 	 
C 	 -104.126 	 46.3441 	 -86.7223 	 
H 	 -103.978 	 45.6746 	 -87.5345 	 
H 	 -105.162 	 46.7092 	 -86.9798 	 
C 	 -104.07 	 45.7068 	 -85.2032 	 
H 	 -104.223 	 46.5818 	 -84.546 	 
H 	 -103.034 	 45.4105 	 -85.0146 	 
C 	 -105.007 	 44.6213 	 -84.8851 	 
H 	 -106.05 	 44.9382 	 -84.8128 	 
H 	 -104.71 	 44.1354 	 -83.9452 	 
H 	 -104.89 	 43.8673 	 -85.7325 	 
H 	 -98.5211 	 44.3908 	 -84.9388 	 
H 	 -102.969 	 50.5536 	 -88.3071 	 
*
