! wB97X-D3 SP def2-SVP
%pal
nprocs 24
end

* xyz 0 1
S 	 -62.5626 	 10.5705 	 -92.5406 	 
C 	 -64.1639 	 11.1582 	 -92.8633 	 
C 	 -64.5663 	 12.1854 	 -92.0253 	 
C 	 -63.5112 	 12.4881 	 -91.1356 	 
C 	 -62.3223 	 11.8383 	 -91.352 	 
H 	 -63.488 	 13.1325 	 -90.2631 	 
C 	 -65.9517 	 12.8223 	 -91.8694 	 
H 	 -65.9935 	 13.1394 	 -90.8908 	 
H 	 -66.7569 	 12.0875 	 -91.9237 	 
C 	 -66.3123 	 13.9885 	 -92.7756 	 
H 	 -66.1799 	 13.5909 	 -93.8295 	 
H 	 -67.3771 	 14.2178 	 -92.6258 	 
C 	 -65.5326 	 15.2258 	 -92.4327 	 
H 	 -65.7752 	 16.0299 	 -93.1541 	 
H 	 -65.9197 	 15.4773 	 -91.3886 	 
H 	 -64.4842 	 14.9448 	 -92.2422 	 
S 	 -60.0981 	 10.6449 	 -89.9949 	 
C 	 -58.8524 	 11.6759 	 -89.411 	 
C 	 -59.21 	 12.9658 	 -89.6296 	 
C 	 -60.3502 	 13.1845 	 -90.4333 	 
C 	 -61.0246 	 12.0221 	 -90.6549 	 
H 	 -58.6147 	 13.7809 	 -89.2401 	 
C 	 -60.7894 	 14.5477 	 -90.9917 	 
H 	 -60.1791 	 15.2329 	 -90.3755 	 
H 	 -61.7609 	 14.8505 	 -90.802 	 
C 	 -60.4483 	 14.6236 	 -92.4441 	 
H 	 -61.0802 	 14.052 	 -93.0321 	 
H 	 -59.484 	 14.1387 	 -92.7272 	 
C 	 -60.3127 	 16.1418 	 -92.7623 	 
H 	 -59.5037 	 16.6137 	 -92.2121 	 
H 	 -61.2606 	 16.5862 	 -92.5286 	 
H 	 -60.0756 	 16.2509 	 -93.8263 	 
H 	 -64.9051 	 10.4712 	 -93.3119 	 
H 	 -58.0536 	 11.4269 	 -88.7847 	 
*
