! wB97X-D3 SP def2-SVP
%pal
nprocs 24
end

* xyz 0 1
S 	 -127.564 	 29.9711 	 -19.3746 	 
C 	 -128.648 	 31.319 	 -19.8386 	 
C 	 -129.696 	 30.8404 	 -20.6632 	 
C 	 -129.782 	 29.4331 	 -20.5233 	 
C 	 -128.761 	 28.81 	 -19.8525 	 
H 	 -130.502 	 28.7128 	 -20.9559 	 
C 	 -130.779 	 31.7539 	 -21.4466 	 
H 	 -131.186 	 31.0966 	 -22.2637 	 
H 	 -130.083 	 32.4763 	 -21.7727 	 
C 	 -131.914 	 32.2951 	 -20.6106 	 
H 	 -132.522 	 32.8865 	 -21.2507 	 
H 	 -132.562 	 31.5573 	 -20.1277 	 
C 	 -131.484 	 33.3566 	 -19.6049 	 
H 	 -130.803 	 32.9202 	 -18.7929 	 
H 	 -130.974 	 34.1667 	 -20.1076 	 
H 	 -132.351 	 33.6124 	 -18.9733 	 
S 	 -127.575 	 26.3316 	 -19.9782 	 
C 	 -128.079 	 25.2182 	 -18.8319 	 
C 	 -129.227 	 25.5693 	 -18.1188 	 
C 	 -129.509 	 26.9101 	 -18.302 	 
C 	 -128.737 	 27.4388 	 -19.3238 	 
H 	 -129.622 	 24.9253 	 -17.3442 	 
C 	 -130.504 	 27.7413 	 -17.5373 	 
H 	 -130.148 	 28.7282 	 -17.3822 	 
H 	 -130.581 	 27.4756 	 -16.4421 	 
C 	 -131.996 	 27.8129 	 -18.0133 	 
H 	 -132.369 	 26.8013 	 -17.9947 	 
H 	 -132.114 	 28.1424 	 -19.0316 	 
C 	 -132.878 	 28.8648 	 -17.2094 	 
H 	 -132.338 	 29.8061 	 -17.1657 	 
H 	 -132.992 	 28.3888 	 -16.1687 	 
H 	 -133.827 	 28.9748 	 -17.6379 	 
H 	 -128.346 	 32.3902 	 -19.7822 	 
H 	 -127.612 	 24.2048 	 -18.7481 	 
*
