! wB97X-D3 SP def2-SVP
%pal
nprocs 24
end

* xyz 0 1
S 	 44.788 	 -16.7031 	 -106.567 	 
C 	 43.9991 	 -17.2226 	 -108.033 	 
C 	 44.198 	 -16.3391 	 -109.089 	 
C 	 44.8702 	 -15.2113 	 -108.673 	 
C 	 45.2427 	 -15.1712 	 -107.379 	 
H 	 45.0563 	 -14.2661 	 -109.203 	 
C 	 43.8212 	 -16.549 	 -110.534 	 
H 	 42.9566 	 -17.1868 	 -110.552 	 
H 	 44.4516 	 -17.1269 	 -111.134 	 
C 	 43.3969 	 -15.3057 	 -111.334 	 
H 	 42.716 	 -14.5974 	 -110.796 	 
H 	 44.2735 	 -14.7121 	 -111.431 	 
C 	 42.7601 	 -15.6744 	 -112.661 	 
H 	 41.9179 	 -16.2991 	 -112.456 	 
H 	 42.3591 	 -14.7838 	 -113.188 	 
H 	 43.4017 	 -16.2207 	 -113.329 	 
S 	 44.7437 	 -13.4553 	 -105.452 	 
C 	 45.8461 	 -12.116 	 -105.139 	 
C 	 46.8981 	 -12.1265 	 -105.988 	 
C 	 46.8671 	 -13.2092 	 -106.939 	 
C 	 45.7664 	 -14.0684 	 -106.668 	 
H 	 47.649 	 -11.3285 	 -106.027 	 
C 	 48.0237 	 -13.3821 	 -107.847 	 
H 	 48.3573 	 -14.4458 	 -107.775 	 
H 	 48.8431 	 -12.8295 	 -107.412 	 
C 	 47.889 	 -12.8609 	 -109.278 	 
H 	 47.6658 	 -13.6641 	 -109.951 	 
H 	 48.9142 	 -12.407 	 -109.447 	 
C 	 46.8633 	 -11.78 	 -109.504 	 
H 	 45.9063 	 -12.0892 	 -109.097 	 
H 	 46.5673 	 -11.6269 	 -110.559 	 
H 	 47.2728 	 -10.8067 	 -109.196 	 
H 	 43.5293 	 -18.2041 	 -108.099 	 
H 	 45.5708 	 -11.2351 	 -104.609 	 
*
