! wB97X-D3 SP def2-SVP
%pal
nprocs 24
end

* xyz 0 1
S 	 -115.554 	 60.9944 	 -67.0438 	 
C 	 -116.924 	 60.8332 	 -65.9036 	 
C 	 -116.867 	 61.767 	 -64.839 	 
C 	 -115.781 	 62.7108 	 -64.9922 	 
C 	 -115.046 	 62.4636 	 -66.1673 	 
H 	 -115.655 	 63.5211 	 -64.2931 	 
C 	 -117.744 	 61.8366 	 -63.613 	 
H 	 -117.173 	 61.6318 	 -62.7303 	 
H 	 -118.286 	 60.9967 	 -63.7841 	 
C 	 -118.691 	 63.0638 	 -63.5814 	 
H 	 -118.12 	 63.9585 	 -63.631 	 
H 	 -119.195 	 62.8172 	 -64.5607 	 
C 	 -119.47 	 63.1772 	 -62.2405 	 
H 	 -118.882 	 63.4751 	 -61.3942 	 
H 	 -120.262 	 63.8705 	 -62.3253 	 
H 	 -119.864 	 62.2464 	 -61.994 	 
S 	 -112.596 	 62.8776 	 -67.1897 	 
C 	 -112.042 	 64.5629 	 -67.4293 	 
C 	 -113.113 	 65.4253 	 -67.3994 	 
C 	 -114.308 	 64.7786 	 -67.0432 	 
C 	 -114.179 	 63.4315 	 -66.8181 	 
H 	 -113.044 	 66.4929 	 -67.5165 	 
C 	 -115.564 	 65.5968 	 -66.7006 	 
H 	 -116.428 	 64.89 	 -66.6355 	 
H 	 -115.697 	 66.363 	 -67.5363 	 
C 	 -115.547 	 66.3216 	 -65.3994 	 
H 	 -115.294 	 65.7273 	 -64.5494 	 
H 	 -116.644 	 66.578 	 -65.2142 	 
C 	 -114.587 	 67.5732 	 -65.3378 	 
H 	 -114.742 	 68.1697 	 -66.2461 	 
H 	 -113.584 	 67.2058 	 -65.392 	 
H 	 -114.803 	 68.1186 	 -64.5113 	 
H 	 -117.662 	 60.0995 	 -66.0265 	 
H 	 -110.97 	 64.8349 	 -67.7215 	 
*
