! wB97X-D3 SP def2-SVP
%pal
nprocs 24
end

* xyz 0 1
S 	 -122.137 	 34.877 	 -112.304 	 
C 	 -120.36 	 35.0804 	 -112.281 	 
C 	 -119.746 	 33.8477 	 -112.066 	 
C 	 -120.696 	 32.7609 	 -112.055 	 
C 	 -122.007 	 33.122 	 -112.109 	 
H 	 -120.426 	 31.8324 	 -111.789 	 
C 	 -118.273 	 33.629 	 -111.755 	 
H 	 -117.967 	 33.0878 	 -110.835 	 
H 	 -117.798 	 34.6031 	 -111.601 	 
C 	 -117.49 	 32.7802 	 -112.834 	 
H 	 -117.755 	 33.0715 	 -113.883 	 
H 	 -116.396 	 32.9565 	 -112.663 	 
C 	 -117.614 	 31.2119 	 -112.587 	 
H 	 -117.316 	 31.0316 	 -111.568 	 
H 	 -118.71 	 30.9479 	 -112.781 	 
H 	 -116.962 	 30.6477 	 -113.231 	 
S 	 -124.391 	 32.6998 	 -110.726 	 
C 	 -125.302 	 31.254 	 -111.043 	 
C 	 -124.68 	 30.4542 	 -111.997 	 
C 	 -123.406 	 30.9814 	 -112.479 	 
C 	 -123.114 	 32.2186 	 -111.836 	 
H 	 -125.09 	 29.4906 	 -112.379 	 
C 	 -122.631 	 30.4394 	 -113.694 	 
H 	 -122.757 	 29.3212 	 -113.704 	 
H 	 -121.548 	 30.6964 	 -113.739 	 
C 	 -123.312 	 30.8816 	 -115.045 	 
H 	 -122.575 	 30.6428 	 -115.8 	 
H 	 -123.397 	 32.0326 	 -114.92 	 
C 	 -124.634 	 30.3163 	 -115.494 	 
H 	 -125.394 	 30.4564 	 -114.74 	 
H 	 -124.391 	 29.3136 	 -115.612 	 
H 	 -125.011 	 30.7615 	 -116.423 	 
H 	 -119.707 	 35.9603 	 -112.165 	 
H 	 -126.097 	 30.8572 	 -110.505 	 
*
