! wB97X-D3 SP def2-SVP
%pal
nprocs 24
end

* xyz 0 1
S 	 -147.991 	 5.71066 	 10.9641 	 
C 	 -148.57 	 6.28692 	 9.42657 	 
C 	 -148.75 	 7.68228 	 9.47363 	 
C 	 -148.437 	 8.16976 	 10.7592 	 
C 	 -148.022 	 7.26265 	 11.719 	 
H 	 -148.618 	 9.19298 	 11.083 	 
C 	 -149.236 	 8.62919 	 8.38214 	 
H 	 -148.651 	 9.58653 	 8.50692 	 
H 	 -150.288 	 8.79324 	 8.53386 	 
C 	 -148.931 	 8.22953 	 6.96887 	 
H 	 -147.818 	 8.19726 	 6.87549 	 
H 	 -149.239 	 7.18367 	 6.89104 	 
C 	 -149.481 	 9.23861 	 5.93249 	 
H 	 -149.277 	 10.2448 	 6.32094 	 
H 	 -149.143 	 9.10869 	 4.90366 	 
H 	 -150.562 	 9.17442 	 5.92982 	 
S 	 -147.763 	 6.20545 	 14.1331 	 
C 	 -146.873 	 6.97655 	 15.411 	 
C 	 -146.438 	 8.25426 	 15.0407 	 
C 	 -146.778 	 8.47224 	 13.6674 	 
C 	 -147.456 	 7.471 	 13.0273 	 
H 	 -145.927 	 8.93784 	 15.6863 	 
C 	 -146.528 	 9.79697 	 13.0424 	 
H 	 -146.313 	 9.78734 	 11.9994 	 
H 	 -145.54 	 10.1172 	 13.3362 	 
C 	 -147.486 	 10.932 	 13.3665 	 
H 	 -147.57 	 11.1155 	 14.4375 	 
H 	 -148.521 	 10.714 	 13.0596 	 
C 	 -146.951 	 12.2133 	 12.6085 	 
H 	 -147.484 	 13.1607 	 12.9021 	 
H 	 -146.989 	 12.1983 	 11.5884 	 
H 	 -145.9 	 12.5207 	 12.7746 	 
H 	 -148.767 	 5.69665 	 8.48816 	 
H 	 -146.692 	 6.55068 	 16.4251 	 
*
