! wB97X-D3 SP def2-SVP
%pal
nprocs 24
end

* xyz 0 1
S 	 -40.0669 	 18.4314 	 11.4602 	 
C 	 -39.6985 	 16.9831 	 12.3047 	 
C 	 -38.725 	 17.2111 	 13.287 	 
C 	 -38.148 	 18.5363 	 13.2077 	 
C 	 -38.713 	 19.2542 	 12.1868 	 
H 	 -37.2955 	 18.9744 	 13.7273 	 
C 	 -38.1916 	 16.0584 	 14.1605 	 
H 	 -37.1015 	 16.1314 	 14.0918 	 
H 	 -38.335 	 15.1239 	 13.6212 	 
C 	 -38.6997 	 16.1147 	 15.6377 	 
H 	 -38.4407 	 17.0796 	 16.0902 	 
H 	 -39.7424 	 16.0784 	 15.6203 	 
C 	 -38.2867 	 14.9398 	 16.489 	 
H 	 -38.9203 	 14.0976 	 16.13 	 
H 	 -37.2146 	 14.8085 	 16.6244 	 
H 	 -38.6397 	 15.0654 	 17.5112 	 
S 	 -39.2738 	 21.9287 	 11.7216 	 
C 	 -38.0056 	 22.8798 	 11.0415 	 
C 	 -36.8767 	 22.1973 	 10.7496 	 
C 	 -36.9354 	 20.7809 	 11.1441 	 
C 	 -38.2101 	 20.5 	 11.6688 	 
H 	 -36.083 	 22.7309 	 10.209 	 
C 	 -35.7875 	 19.787 	 10.9659 	 
H 	 -35.7632 	 19.422 	 9.94327 	 
H 	 -35.9684 	 18.8586 	 11.5504 	 
C 	 -34.4314 	 20.3368 	 11.4216 	 
H 	 -34.1978 	 21.2039 	 10.85 	 
H 	 -33.617 	 19.7237 	 11.097 	 
C 	 -34.2048 	 20.6571 	 12.9327 	 
H 	 -34.9448 	 21.4081 	 13.2714 	 
H 	 -33.1759 	 21.0565 	 13.1344 	 
H 	 -34.4784 	 19.7613 	 13.4707 	 
H 	 -40.2988 	 16.1053 	 12.2105 	 
H 	 -37.9666 	 23.8945 	 10.5865 	 
*
