! wB97X-D3 SP def2-SVP
%pal
nprocs 24
end

* xyz 0 1
S 	 -125.031 	 65.4607 	 -50.822 	 
C 	 -123.533 	 66.3296 	 -51.0118 	 
C 	 -123.822 	 67.6101 	 -51.393 	 
C 	 -125.186 	 67.9294 	 -51.2492 	 
C 	 -126.015 	 66.8288 	 -51.0167 	 
H 	 -125.59 	 68.934 	 -51.3491 	 
C 	 -122.861 	 68.7115 	 -51.8622 	 
H 	 -122.079 	 68.6197 	 -51.1585 	 
H 	 -123.307 	 69.711 	 -51.6601 	 
C 	 -122.47 	 68.5676 	 -53.3058 	 
H 	 -122.017 	 67.6263 	 -53.5243 	 
H 	 -123.403 	 68.5575 	 -53.9163 	 
C 	 -121.548 	 69.6714 	 -53.831 	 
H 	 -122.028 	 70.6207 	 -53.9493 	 
H 	 -120.727 	 69.7343 	 -53.111 	 
H 	 -121.092 	 69.4197 	 -54.7875 	 
S 	 -128.145 	 65.3476 	 -51.8874 	 
C 	 -129.716 	 65.9184 	 -51.6257 	 
C 	 -129.747 	 67.0574 	 -50.8451 	 
C 	 -128.465 	 67.6307 	 -50.6294 	 
C 	 -127.46 	 66.7811 	 -51.0929 	 
H 	 -130.708 	 67.4336 	 -50.5592 	 
C 	 -128.278 	 69.0519 	 -50.0371 	 
H 	 -129.273 	 69.4423 	 -50.1733 	 
H 	 -127.647 	 69.5546 	 -50.7103 	 
C 	 -127.916 	 69.124 	 -48.6241 	 
H 	 -126.867 	 68.8809 	 -48.5162 	 
H 	 -128.431 	 68.3196 	 -48.0435 	 
C 	 -128.236 	 70.4167 	 -47.893 	 
H 	 -127.678 	 71.3034 	 -48.2899 	 
H 	 -127.95 	 70.3117 	 -46.8847 	 
H 	 -129.309 	 70.5991 	 -47.9616 	 
H 	 -122.562 	 65.9548 	 -50.8959 	 
H 	 -130.514 	 65.3284 	 -51.9011 	 
*
