! wB97X-D3 SP def2-SVP
%pal
nprocs 24
end

* xyz 0 1
S 	 -100.384 	 36.7942 	 -81.8338 	 
C 	 -100.091 	 35.0732 	 -81.9098 	 
C 	 -101.013 	 34.3438 	 -82.7136 	 
C 	 -101.871 	 35.2972 	 -83.4318 	 
C 	 -101.576 	 36.6079 	 -83.1092 	 
H 	 -102.698 	 35.0313 	 -83.9613 	 
C 	 -101.098 	 32.8529 	 -82.6093 	 
H 	 -102.115 	 32.6127 	 -82.9498 	 
H 	 -101.051 	 32.6064 	 -81.5705 	 
C 	 -99.9513 	 32.1182 	 -83.344 	 
H 	 -99.8124 	 32.3552 	 -84.3927 	 
H 	 -99.025 	 32.3761 	 -82.9493 	 
C 	 -100.16 	 30.6196 	 -83.3731 	 
H 	 -100.078 	 30.1229 	 -82.3955 	 
H 	 -101.145 	 30.3723 	 -83.7662 	 
H 	 -99.47 	 30.0418 	 -84.0209 	 
S 	 -103.317 	 38.6533 	 -82.4413 	 
C 	 -104.053 	 39.6463 	 -83.6583 	 
C 	 -103.517 	 39.2536 	 -84.8766 	 
C 	 -102.569 	 38.1685 	 -84.8602 	 
C 	 -102.355 	 37.7359 	 -83.5723 	 
H 	 -103.944 	 39.6656 	 -85.7717 	 
C 	 -102.031 	 37.5336 	 -86.1085 	 
H 	 -102.568 	 38.0366 	 -86.9127 	 
H 	 -102.428 	 36.5163 	 -86.243 	 
C 	 -100.515 	 37.6296 	 -86.3148 	 
H 	 -100.135 	 37.0608 	 -87.0965 	 
H 	 -99.9742 	 37.1793 	 -85.5619 	 
C 	 -100.022 	 39.0038 	 -86.6191 	 
H 	 -99.9254 	 39.6568 	 -85.7415 	 
H 	 -100.495 	 39.3439 	 -87.5341 	 
H 	 -98.9874 	 38.9288 	 -86.9383 	 
H 	 -99.5055 	 34.5914 	 -81.1933 	 
H 	 -104.869 	 40.2805 	 -83.6299 	 
*
