! wB97X-D3 SP def2-SVP
%pal
nprocs 24
end

* xyz 0 1
S 	 -109.907 	 -0.627123 	 -108.844 	 
C 	 -109.652 	 1.06199 	 -108.443 	 
C 	 -108.459 	 1.52977 	 -108.95 	 
C 	 -107.728 	 0.557378 	 -109.732 	 
C 	 -108.29 	 -0.721789 	 -109.596 	 
H 	 -106.904 	 0.78738 	 -110.316 	 
C 	 -107.994 	 2.96784 	 -108.83 	 
H 	 -106.928 	 3.01072 	 -108.466 	 
H 	 -108.549 	 3.28514 	 -107.92 	 
C 	 -108.144 	 3.9397 	 -110.023 	 
H 	 -108.03 	 5.00698 	 -109.653 	 
H 	 -107.292 	 3.68377 	 -110.628 	 
C 	 -109.513 	 3.86195 	 -110.789 	 
H 	 -109.396 	 4.32002 	 -111.746 	 
H 	 -109.927 	 2.87381 	 -111.186 	 
H 	 -110.316 	 4.35263 	 -110.197 	 
S 	 -106.183 	 -2.4595 	 -109.507 	 
C 	 -105.959 	 -3.60029 	 -110.816 	 
C 	 -107.099 	 -3.68628 	 -111.575 	 
C 	 -108.159 	 -2.76669 	 -111.19 	 
C 	 -107.756 	 -1.92694 	 -110.11 	 
H 	 -107.172 	 -4.34714 	 -112.422 	 
C 	 -109.402 	 -2.6888 	 -112.047 	 
H 	 -110.342 	 -2.39727 	 -111.505 	 
H 	 -109.652 	 -3.58136 	 -112.527 	 
C 	 -109.242 	 -1.64756 	 -113.151 	 
H 	 -109.915 	 -1.97242 	 -113.969 	 
H 	 -108.231 	 -1.53716 	 -113.552 	 
C 	 -109.817 	 -0.188437 	 -112.821 	 
H 	 -109.658 	 0.555239 	 -113.619 	 
H 	 -109.176 	 0.261764 	 -112.098 	 
H 	 -110.858 	 -0.201441 	 -112.495 	 
H 	 -110.295 	 1.63594 	 -107.857 	 
H 	 -105.18 	 -4.1817 	 -111.081 	 
*
