! wB97X-D3 SP def2-SVP
%pal
nprocs 24
end

* xyz 0 1
S 	 -116.336 	 54.3257 	 -37.4925 	 
C 	 -116.102 	 52.8546 	 -38.3417 	 
C 	 -116.898 	 52.6776 	 -39.4394 	 
C 	 -117.653 	 53.8547 	 -39.6838 	 
C 	 -117.474 	 54.8364 	 -38.6924 	 
H 	 -118.2 	 54.0507 	 -40.5774 	 
C 	 -116.784 	 51.5303 	 -40.5091 	 
H 	 -117.54 	 50.7773 	 -40.2996 	 
H 	 -115.799 	 51.1639 	 -40.3071 	 
C 	 -117.059 	 51.9337 	 -41.9603 	 
H 	 -116.76 	 51.1432 	 -42.5988 	 
H 	 -118.103 	 52.1212 	 -42.1128 	 
C 	 -116.103 	 53.0289 	 -42.5042 	 
H 	 -116.222 	 53.933 	 -41.9765 	 
H 	 -115.087 	 52.8077 	 -42.5046 	 
H 	 -116.381 	 53.208 	 -43.5225 	 
S 	 -119.645 	 56.2409 	 -37.7976 	 
C 	 -119.651 	 57.9911 	 -37.8712 	 
C 	 -118.432 	 58.4472 	 -38.335 	 
C 	 -117.58 	 57.4317 	 -38.8356 	 
C 	 -118.083 	 56.1766 	 -38.5838 	 
H 	 -118.275 	 59.5368 	 -38.3309 	 
C 	 -116.156 	 57.7689 	 -39.2952 	 
H 	 -116.389 	 58.6883 	 -39.9511 	 
H 	 -115.664 	 56.9972 	 -39.8205 	 
C 	 -115.144 	 57.9886 	 -38.1182 	 
H 	 -114.981 	 57.013 	 -37.6274 	 
H 	 -115.645 	 58.4628 	 -37.2721 	 
C 	 -113.796 	 58.6328 	 -38.4227 	 
H 	 -113.219 	 58.7755 	 -37.5372 	 
H 	 -113.962 	 59.6767 	 -38.7947 	 
H 	 -113.216 	 57.9856 	 -39.1656 	 
H 	 -115.351 	 52.0677 	 -38.109 	 
H 	 -120.399 	 58.6715 	 -37.4134 	 
*
