! wB97X-D3 SP def2-SVP
%pal
nprocs 24
end

* xyz 0 1
S 	 -11.3653 	 -31.3407 	 -106.612 	 
C 	 -11.4085 	 -30.8062 	 -104.913 	 
C 	 -11.426 	 -31.8568 	 -104.039 	 
C 	 -11.1389 	 -33.0965 	 -104.715 	 
C 	 -11.0666 	 -32.9717 	 -106.122 	 
H 	 -11.1553 	 -34.0658 	 -104.206 	 
C 	 -11.6902 	 -31.8399 	 -102.548 	 
H 	 -11.8782 	 -32.8479 	 -102.211 	 
H 	 -12.697 	 -31.2872 	 -102.404 	 
C 	 -10.6059 	 -31.2916 	 -101.552 	 
H 	 -10.9169 	 -31.351 	 -100.528 	 
H 	 -9.65943 	 -31.8474 	 -101.638 	 
C 	 -10.3599 	 -29.8663 	 -102.016 	 
H 	 -11.222 	 -29.2255 	 -102.002 	 
H 	 -9.88457 	 -29.3689 	 -101.286 	 
H 	 -9.75579 	 -29.9149 	 -102.939 	 
S 	 -12.0793 	 -33.7459 	 -108.555 	 
C 	 -11.5686 	 -35.3039 	 -109.228 	 
C 	 -10.6028 	 -35.8444 	 -108.405 	 
C 	 -10.2873 	 -35.0885 	 -107.275 	 
C 	 -11.0858 	 -34.0073 	 -107.138 	 
H 	 -10.0381 	 -36.7106 	 -108.656 	 
C 	 -9.10268 	 -35.4517 	 -106.365 	 
H 	 -9.31311 	 -36.5248 	 -106.098 	 
H 	 -9.14103 	 -34.9054 	 -105.388 	 
C 	 -7.68332 	 -35.3085 	 -106.909 	 
H 	 -7.54202 	 -35.7235 	 -107.913 	 
H 	 -7.04186 	 -35.9165 	 -106.301 	 
C 	 -7.31111 	 -33.8029 	 -106.915 	 
H 	 -8.16608 	 -33.1379 	 -107.04 	 
H 	 -6.68824 	 -33.5608 	 -107.729 	 
H 	 -6.8237 	 -33.4424 	 -105.968 	 
H 	 -11.6552 	 -29.7846 	 -104.692 	 
H 	 -11.8154 	 -35.8106 	 -110.139 	 
*
