! wB97X-D3 SP def2-SVP
%pal
nprocs 24
end

* xyz 0 1
S 	 -121.395 	 62.3474 	 -62.2506 	 
C 	 -122.232 	 61.0319 	 -63.0853 	 
C 	 -122.907 	 60.2504 	 -62.136 	 
C 	 -122.829 	 60.7782 	 -60.7924 	 
C 	 -121.955 	 61.8816 	 -60.6806 	 
H 	 -123.375 	 60.2969 	 -60.0123 	 
C 	 -123.792 	 59.0503 	 -62.5775 	 
H 	 -123.444 	 58.136 	 -62.0472 	 
H 	 -123.711 	 58.8819 	 -63.6058 	 
C 	 -125.326 	 59.3085 	 -62.2496 	 
H 	 -125.475 	 59.6081 	 -61.2096 	 
H 	 -125.494 	 60.1565 	 -62.8302 	 
C 	 -126.433 	 58.2856 	 -62.6677 	 
H 	 -126.488 	 57.2899 	 -62.1695 	 
H 	 -127.46 	 58.6781 	 -62.5306 	 
H 	 -126.434 	 58.1892 	 -63.7715 	 
S 	 -121.434 	 64.1649 	 -59.0855 	 
C 	 -120.787 	 63.8286 	 -57.4526 	 
C 	 -120.575 	 62.5054 	 -57.2336 	 
C 	 -120.789 	 61.7121 	 -58.3987 	 
C 	 -121.335 	 62.4287 	 -59.4791 	 
H 	 -120.162 	 62.1578 	 -56.236 	 
C 	 -120.571 	 60.2351 	 -58.3758 	 
H 	 -121.531 	 59.7273 	 -58.3726 	 
H 	 -120.157 	 59.9036 	 -57.4269 	 
C 	 -119.648 	 59.6044 	 -59.5407 	 
H 	 -120.071 	 59.6771 	 -60.523 	 
H 	 -119.558 	 58.5364 	 -59.4906 	 
C 	 -118.282 	 60.2934 	 -59.4867 	 
H 	 -118.32 	 61.3935 	 -59.4636 	 
H 	 -117.732 	 59.9563 	 -60.3518 	 
H 	 -117.76 	 60.0093 	 -58.6046 	 
H 	 -122.25 	 60.8088 	 -64.185 	 
H 	 -120.429 	 64.5184 	 -56.6653 	 
*
