! wB97X-D3 SP def2-SVP
%pal
nprocs 24
end

* xyz 0 1
S 	 -112.611 	 20.7652 	 -110.378 	 
C 	 -111.728 	 21.967 	 -111.36 	 
C 	 -111.854 	 21.7311 	 -112.714 	 
C 	 -112.786 	 20.6635 	 -112.983 	 
C 	 -113.317 	 20.0983 	 -111.811 	 
H 	 -113.168 	 20.4105 	 -113.941 	 
C 	 -111.291 	 22.4469 	 -113.799 	 
H 	 -110.696 	 23.3182 	 -113.597 	 
H 	 -111.993 	 22.7781 	 -114.462 	 
C 	 -110.309 	 21.6601 	 -114.608 	 
H 	 -109.737 	 21.0212 	 -113.984 	 
H 	 -110.89 	 20.9987 	 -115.205 	 
C 	 -109.383 	 22.4734 	 -115.562 	 
H 	 -108.779 	 21.8407 	 -116.175 	 
H 	 -109.841 	 23.2535 	 -116.174 	 
H 	 -108.688 	 23.0812 	 -114.989 	 
S 	 -115.949 	 19.5663 	 -111.25 	 
C 	 -116.548 	 17.9144 	 -111.499 	 
C 	 -115.583 	 17.1002 	 -111.985 	 
C 	 -114.291 	 17.7869 	 -112.194 	 
C 	 -114.341 	 19.0199 	 -111.674 	 
H 	 -115.912 	 16.0684 	 -112.204 	 
C 	 -113.142 	 17.0023 	 -112.805 	 
H 	 -112.474 	 17.7214 	 -113.352 	 
H 	 -113.519 	 16.5086 	 -113.619 	 
C 	 -112.247 	 16.1447 	 -111.861 	 
H 	 -111.431 	 15.5632 	 -112.365 	 
H 	 -112.884 	 15.3146 	 -111.387 	 
C 	 -111.551 	 17.0546 	 -110.865 	 
H 	 -110.979 	 17.9047 	 -111.262 	 
H 	 -110.97 	 16.3841 	 -110.189 	 
H 	 -112.34 	 17.5162 	 -110.369 	 
H 	 -111.005 	 22.6868 	 -110.917 	 
H 	 -117.526 	 17.5495 	 -111.285 	 
*
