! wB97X-D3 SP def2-SVP
%pal
nprocs 24
end

* xyz 0 1
S 	 -55.5978 	 -54.0894 	 -77.3312 	 
C 	 -55.388 	 -52.5265 	 -76.4357 	 
C 	 -55.0539 	 -51.5262 	 -77.295 	 
C 	 -54.9971 	 -51.9556 	 -78.7155 	 
C 	 -55.3642 	 -53.3262 	 -78.898 	 
H 	 -54.6449 	 -51.324 	 -79.58 	 
C 	 -54.6931 	 -50.1585 	 -76.9117 	 
H 	 -53.6738 	 -50.0006 	 -77.2137 	 
H 	 -54.5754 	 -50.0524 	 -75.7964 	 
C 	 -55.5966 	 -49.0227 	 -77.4609 	 
H 	 -55.6666 	 -49.113 	 -78.5769 	 
H 	 -56.6187 	 -49.2216 	 -77.104 	 
C 	 -55.1082 	 -47.6937 	 -76.9674 	 
H 	 -55.2492 	 -47.4931 	 -75.897 	 
H 	 -54.1154 	 -47.5421 	 -77.1724 	 
H 	 -55.4922 	 -46.8465 	 -77.5164 	 
S 	 -54.6884 	 -55.4918 	 -80.3737 	 
C 	 -55.0103 	 -55.4975 	 -82.0564 	 
C 	 -55.7707 	 -54.4538 	 -82.4547 	 
C 	 -56.1341 	 -53.6442 	 -81.3416 	 
C 	 -55.5455 	 -54.0394 	 -80.1549 	 
H 	 -56.0513 	 -54.3811 	 -83.5069 	 
C 	 -56.9842 	 -52.4435 	 -81.5265 	 
H 	 -56.9323 	 -52.3721 	 -82.638 	 
H 	 -56.5078 	 -51.6249 	 -81.1111 	 
C 	 -58.3468 	 -52.3874 	 -80.778 	 
H 	 -58.7917 	 -51.4152 	 -80.8804 	 
H 	 -58.2255 	 -52.5073 	 -79.74 	 
C 	 -59.3536 	 -53.4439 	 -81.1335 	 
H 	 -58.9474 	 -54.4146 	 -80.9507 	 
H 	 -59.7862 	 -53.3357 	 -82.1745 	 
H 	 -60.1843 	 -53.3797 	 -80.4471 	 
H 	 -55.472 	 -52.3745 	 -75.37 	 
H 	 -54.5764 	 -56.1952 	 -82.7914 	 
*
