! wB97X-D3 SP def2-SVP
%pal
nprocs 24
end

* xyz 0 1
S 	 -102.235 	 -0.376585 	 -119.796 	 
C 	 -103.748 	 -1.15023 	 -120.107 	 
C 	 -103.59 	 -2.24075 	 -121.008 	 
C 	 -102.244 	 -2.3504 	 -121.419 	 
C 	 -101.402 	 -1.33448 	 -120.967 	 
H 	 -101.856 	 -3.09856 	 -122.1 	 
C 	 -104.599 	 -3.25645 	 -121.519 	 
H 	 -104.722 	 -2.99292 	 -122.573 	 
H 	 -105.497 	 -3.09084 	 -121.066 	 
C 	 -104.308 	 -4.81162 	 -121.692 	 
H 	 -104.849 	 -5.26428 	 -122.453 	 
H 	 -103.289 	 -5.03048 	 -121.922 	 
C 	 -104.717 	 -5.63079 	 -120.385 	 
H 	 -104.361 	 -5.34752 	 -119.404 	 
H 	 -105.792 	 -5.72388 	 -120.235 	 
H 	 -104.495 	 -6.72706 	 -120.467 	 
S 	 -99.9838 	 0.646989 	 -121.994 	 
C 	 -98.2669 	 0.473579 	 -122.433 	 
C 	 -97.8707 	 -0.813009 	 -122.142 	 
C 	 -98.8412 	 -1.57052 	 -121.455 	 
C 	 -100.064 	 -0.966721 	 -121.432 	 
H 	 -96.7896 	 -1.03675 	 -122.204 	 
C 	 -98.5639 	 -2.91805 	 -120.844 	 
H 	 -97.7039 	 -3.32953 	 -121.33 	 
H 	 -99.3196 	 -3.63815 	 -121.201 	 
C 	 -98.407 	 -3.00887 	 -119.27 	 
H 	 -98.1893 	 -4.02895 	 -119.096 	 
H 	 -99.257 	 -2.65085 	 -118.714 	 
C 	 -97.27 	 -2.10566 	 -118.74 	 
H 	 -97.5136 	 -1.01904 	 -118.539 	 
H 	 -96.2806 	 -2.31259 	 -119.184 	 
H 	 -97.1543 	 -2.35358 	 -117.657 	 
H 	 -104.664 	 -0.830785 	 -119.625 	 
H 	 -97.6613 	 1.24081 	 -122.85 	 
*
