! wB97X-D3 SP def2-SVP
%pal
nprocs 24
end

* xyz 0 1
S 	 -87.6377 	 -31.7086 	 -65.4974 	 
C 	 -86.7955 	 -32.5696 	 -66.7881 	 
C 	 -86.5616 	 -33.8826 	 -66.4557 	 
C 	 -87.2426 	 -34.2591 	 -65.2875 	 
C 	 -87.9746 	 -33.2399 	 -64.7564 	 
H 	 -87.2757 	 -35.2392 	 -64.8314 	 
C 	 -85.7171 	 -34.8151 	 -67.3318 	 
H 	 -85.1934 	 -35.4708 	 -66.6364 	 
H 	 -84.9361 	 -34.2045 	 -67.787 	 
C 	 -86.3216 	 -35.6446 	 -68.452 	 
H 	 -86.8674 	 -34.9535 	 -69.173 	 
H 	 -85.577 	 -36.0355 	 -69.132 	 
C 	 -87.3756 	 -36.7492 	 -67.9107 	 
H 	 -87.0317 	 -37.4741 	 -67.2917 	 
H 	 -88.2165 	 -36.2247 	 -67.5102 	 
H 	 -87.8133 	 -37.3499 	 -68.761 	 
S 	 -88.0323 	 -32.9517 	 -62.0321 	 
C 	 -89.518 	 -33.394 	 -61.2039 	 
C 	 -90.4443 	 -33.9851 	 -62.0475 	 
C 	 -90.0067 	 -33.9332 	 -63.3917 	 
C 	 -88.7532 	 -33.3702 	 -63.5961 	 
H 	 -91.3157 	 -34.4321 	 -61.6378 	 
C 	 -90.8585 	 -34.5062 	 -64.4292 	 
H 	 -91.1743 	 -35.5283 	 -64.2192 	 
H 	 -90.4133 	 -34.6331 	 -65.3673 	 
C 	 -92.1416 	 -33.7726 	 -64.7994 	 
H 	 -92.7768 	 -33.7558 	 -63.9094 	 
H 	 -92.6281 	 -34.406 	 -65.5456 	 
C 	 -91.8517 	 -32.3854 	 -65.3514 	 
H 	 -92.7161 	 -31.8167 	 -65.5366 	 
H 	 -91.3394 	 -32.4814 	 -66.2446 	 
H 	 -91.1858 	 -31.8795 	 -64.6225 	 
H 	 -86.2548 	 -32.043 	 -67.5727 	 
H 	 -89.6745 	 -33.2404 	 -60.0808 	 
*
