! wB97X-D3 SP def2-SVP
%pal
nprocs 24
end

* xyz 0 1
S 	 -81.5353 	 -15.0405 	 -53.9871 	 
C 	 -82.9831 	 -14.521 	 -53.2101 	 
C 	 -84.0113 	 -15.3981 	 -53.5387 	 
C 	 -83.6166 	 -16.4185 	 -54.3895 	 
C 	 -82.3296 	 -16.2841 	 -54.8137 	 
H 	 -84.2866 	 -17.2323 	 -54.7096 	 
C 	 -85.4884 	 -15.3868 	 -53.051 	 
H 	 -85.598 	 -14.5818 	 -52.4475 	 
H 	 -85.7264 	 -16.1895 	 -52.2796 	 
C 	 -86.6404 	 -15.5997 	 -54.0478 	 
H 	 -86.4852 	 -14.8845 	 -54.8871 	 
H 	 -86.5653 	 -16.6064 	 -54.4613 	 
C 	 -88.022 	 -15.3992 	 -53.4258 	 
H 	 -88.2677 	 -16.2478 	 -52.7766 	 
H 	 -88.0832 	 -14.5642 	 -52.8346 	 
H 	 -88.8569 	 -15.2613 	 -54.1196 	 
S 	 -80.7199 	 -16.5243 	 -57.1795 	 
C 	 -80.4033 	 -18.0663 	 -57.851 	 
C 	 -80.884 	 -19.0285 	 -57.0569 	 
C 	 -81.5883 	 -18.5198 	 -55.9188 	 
C 	 -81.5488 	 -17.132 	 -55.7531 	 
H 	 -80.7278 	 -20.0459 	 -57.2605 	 
C 	 -82.3976 	 -19.446 	 -55.0679 	 
H 	 -83.3498 	 -19.3109 	 -55.5672 	 
H 	 -82.5541 	 -19.1168 	 -54.0119 	 
C 	 -81.9345 	 -20.9371 	 -55.038 	 
H 	 -81.951 	 -21.4042 	 -56.001 	 
H 	 -82.7156 	 -21.5236 	 -54.4674 	 
C 	 -80.6068 	 -21.2032 	 -54.3809 	 
H 	 -79.8349 	 -20.6313 	 -54.9015 	 
H 	 -80.3411 	 -22.3083 	 -54.4453 	 
H 	 -80.4556 	 -20.8258 	 -53.3712 	 
H 	 -83.1141 	 -13.6989 	 -52.552 	 
H 	 -79.958 	 -18.2087 	 -58.8372 	 
*
