! wB97X-D3 SP def2-SVP
%pal
nprocs 24
end

* xyz 0 1
S 	 -33.5304 	 -48.0654 	 -77.1874 	 
C 	 -33.2573 	 -46.7594 	 -78.2466 	 
C 	 -32.2189 	 -45.9523 	 -77.7453 	 
C 	 -31.7431 	 -46.4041 	 -76.4444 	 
C 	 -32.4263 	 -47.5433 	 -75.9016 	 
H 	 -30.9089 	 -45.9969 	 -75.9177 	 
C 	 -31.6553 	 -44.7213 	 -78.4997 	 
H 	 -32.4821 	 -44.4152 	 -79.1561 	 
H 	 -30.8556 	 -45.2168 	 -79.1144 	 
C 	 -31.191 	 -43.4307 	 -77.8237 	 
H 	 -30.2821 	 -43.6656 	 -77.3075 	 
H 	 -30.9513 	 -42.65 	 -78.5353 	 
C 	 -32.2234 	 -42.8515 	 -76.8581 	 
H 	 -32.4658 	 -43.5291 	 -76.0579 	 
H 	 -31.9595 	 -41.9482 	 -76.4215 	 
H 	 -33.1599 	 -42.6683 	 -77.3368 	 
S 	 -31.7578 	 -49.8055 	 -74.6337 	 
C 	 -31.584 	 -49.8043 	 -72.892 	 
C 	 -31.7094 	 -48.5296 	 -72.3452 	 
C 	 -32.1447 	 -47.5635 	 -73.3095 	 
C 	 -32.2317 	 -48.1396 	 -74.5601 	 
H 	 -31.4727 	 -48.4431 	 -71.2824 	 
C 	 -32.2682 	 -46.0221 	 -72.9893 	 
H 	 -32.1901 	 -45.6525 	 -73.9795 	 
H 	 -31.4558 	 -45.6659 	 -72.4283 	 
C 	 -33.6839 	 -45.6095 	 -72.4974 	 
H 	 -33.7199 	 -45.8913 	 -71.459 	 
H 	 -34.4309 	 -46.2004 	 -73.0231 	 
C 	 -34.0466 	 -44.1168 	 -72.587 	 
H 	 -35.1125 	 -43.9 	 -72.342 	 
H 	 -33.8963 	 -43.8994 	 -73.6351 	 
H 	 -33.3279 	 -43.4744 	 -72.0175 	 
H 	 -33.6147 	 -46.5503 	 -79.2513 	 
H 	 -31.1529 	 -50.6362 	 -72.3972 	 
*
