! wB97X-D3 SP def2-SVP
%pal
nprocs 24
end

* xyz 0 1
S 	 -93.9638 	 -7.46109 	 -119.16 	 
C 	 -95.1137 	 -6.5171 	 -120.096 	 
C 	 -96.3542 	 -6.67603 	 -119.59 	 
C 	 -96.4018 	 -7.51839 	 -118.449 	 
C 	 -95.1986 	 -8.0817 	 -118.179 	 
H 	 -97.2707 	 -7.74875 	 -117.895 	 
C 	 -97.5435 	 -6.02556 	 -120.262 	 
H 	 -97.2278 	 -5.78919 	 -121.307 	 
H 	 -97.6488 	 -5.08196 	 -119.835 	 
C 	 -98.8622 	 -6.80162 	 -120.062 	 
H 	 -98.9697 	 -7.5767 	 -120.831 	 
H 	 -98.9719 	 -7.21971 	 -119.027 	 
C 	 -99.9976 	 -5.8311 	 -120.344 	 
H 	 -100.07 	 -5.04931 	 -119.616 	 
H 	 -99.8634 	 -5.24601 	 -121.277 	 
H 	 -100.963 	 -6.2789 	 -120.452 	 
S 	 -93.6143 	 -8.83256 	 -116.095 	 
C 	 -93.7886 	 -10.3763 	 -115.285 	 
C 	 -94.8759 	 -11.1218 	 -115.778 	 
C 	 -95.4756 	 -10.3986 	 -116.898 	 
C 	 -94.9046 	 -9.13951 	 -117.21 	 
H 	 -95.1951 	 -12.1147 	 -115.47 	 
C 	 -96.5967 	 -11.0521 	 -117.768 	 
H 	 -97.4317 	 -10.3687 	 -117.963 	 
H 	 -96.9051 	 -11.8286 	 -117.034 	 
C 	 -96.1146 	 -11.6494 	 -119.051 	 
H 	 -95.6355 	 -10.8846 	 -119.596 	 
H 	 -96.9826 	 -11.9318 	 -119.606 	 
C 	 -95.3031 	 -12.9041 	 -118.848 	 
H 	 -95.6734 	 -13.5601 	 -118.034 	 
H 	 -94.274 	 -12.6833 	 -118.672 	 
H 	 -95.4586 	 -13.4611 	 -119.683 	 
H 	 -94.8166 	 -5.96857 	 -120.942 	 
H 	 -93.029 	 -10.7129 	 -114.587 	 
*
