! wB97X-D3 SP def2-SVP
%pal
nprocs 24
end

* xyz 0 1
S 	 35.2987 	 -2.81116 	 -123.281 	 
C 	 34.7432 	 -4.5895 	 -123.445 	 
C 	 35.0712 	 -5.22132 	 -122.278 	 
C 	 35.8168 	 -4.42623 	 -121.297 	 
C 	 35.9431 	 -3.06412 	 -121.64 	 
H 	 36.2148 	 -4.80585 	 -120.354 	 
C 	 34.9609 	 -6.70104 	 -122.087 	 
H 	 33.8621 	 -6.92862 	 -122.31 	 
H 	 35.0602 	 -7.02933 	 -121.011 	 
C 	 35.95 	 -7.60345 	 -122.88 	 
H 	 36.0266 	 -7.2488 	 -123.891 	 
H 	 37.0418 	 -7.32759 	 -122.61 	 
C 	 35.4799 	 -9.08158 	 -122.779 	 
H 	 34.436 	 -9.26936 	 -123.094 	 
H 	 36.1517 	 -9.80485 	 -123.301 	 
H 	 35.5146 	 -9.54693 	 -121.756 	 
S 	 37.9432 	 -1.0873 	 -121.546 	 
C 	 37.8245 	 0.090243 	 -120.248 	 
C 	 36.7118 	 -0.156378 	 -119.412 	 
C 	 35.93 	 -1.26456 	 -119.773 	 
C 	 36.4901 	 -1.9226 	 -120.912 	 
H 	 36.4423 	 0.601976 	 -118.668 	 
C 	 34.5767 	 -1.62453 	 -119.098 	 
H 	 34.1311 	 -2.28551 	 -119.815 	 
H 	 34.02 	 -0.720083 	 -119.06 	 
C 	 34.6564 	 -2.21587 	 -117.723 	 
H 	 35.2671 	 -1.55184 	 -117.081 	 
H 	 35.0801 	 -3.14833 	 -117.753 	 
C 	 33.3162 	 -2.43749 	 -117.049 	 
H 	 33.3341 	 -2.79577 	 -116.07 	 
H 	 32.7492 	 -3.13756 	 -117.7 	 
H 	 32.8487 	 -1.45184 	 -117.139 	 
H 	 34.4814 	 -5.06816 	 -124.342 	 
H 	 38.4326 	 0.96134 	 -120.115 	 
*
