! wB97X-D3 SP def2-SVP
%pal
nprocs 24
end

* xyz 0 1
S 	 -111.491 	 53.6892 	 -92.5269 	 
C 	 -111.088 	 54.5899 	 -93.9784 	 
C 	 -112.108 	 55.5079 	 -94.2936 	 
C 	 -113.19 	 55.504 	 -93.3658 	 
C 	 -112.974 	 54.6045 	 -92.3421 	 
H 	 -114.139 	 56.0564 	 -93.3698 	 
C 	 -112.134 	 56.4397 	 -95.4792 	 
H 	 -113.201 	 56.2231 	 -95.9442 	 
H 	 -111.499 	 56.0297 	 -96.3245 	 
C 	 -111.954 	 57.9296 	 -95.1548 	 
H 	 -112.555 	 58.1837 	 -94.2567 	 
H 	 -110.968 	 58.086 	 -94.8446 	 
C 	 -112.416 	 58.889 	 -96.2654 	 
H 	 -113.458 	 58.7694 	 -96.2947 	 
H 	 -112.222 	 59.9378 	 -96.0213 	 
H 	 -111.92 	 58.6618 	 -97.1759 	 
S 	 -114.639 	 52.8271 	 -90.9942 	 
C 	 -115.191 	 53.3052 	 -89.3871 	 
C 	 -114.994 	 54.6641 	 -89.292 	 
C 	 -114.344 	 55.2965 	 -90.3785 	 
C 	 -113.866 	 54.3766 	 -91.2698 	 
H 	 -115.404 	 55.1976 	 -88.4597 	 
C 	 -114.244 	 56.7565 	 -90.4277 	 
H 	 -115.072 	 57.1651 	 -89.8234 	 
H 	 -114.345 	 57.0231 	 -91.4972 	 
C 	 -112.836 	 57.3144 	 -90.023 	 
H 	 -112.169 	 56.8337 	 -90.7673 	 
H 	 -112.51 	 56.8446 	 -89.0105 	 
C 	 -112.937 	 58.8875 	 -90.1301 	 
H 	 -112.963 	 59.2599 	 -91.2056 	 
H 	 -111.985 	 59.393 	 -89.9124 	 
H 	 -113.785 	 59.2682 	 -89.5687 	 
H 	 -110.227 	 54.3306 	 -94.5406 	 
H 	 -115.552 	 52.6726 	 -88.6029 	 
*
