! wB97X-D3 SP def2-SVP
%pal
nprocs 24
end

* xyz 0 1
S 	 -126.453 	 28.9783 	 -113.984 	 
C 	 -125.865 	 27.7351 	 -115.115 	 
C 	 -124.501 	 27.7884 	 -115.175 	 
C 	 -123.91 	 28.7133 	 -114.275 	 
C 	 -124.802 	 29.4888 	 -113.565 	 
H 	 -122.834 	 28.867 	 -114.144 	 
C 	 -123.624 	 26.8156 	 -115.987 	 
H 	 -124.207 	 26.4267 	 -116.801 	 
H 	 -123.409 	 25.9253 	 -115.344 	 
C 	 -122.236 	 27.2283 	 -116.502 	 
H 	 -121.667 	 27.4523 	 -115.586 	 
H 	 -121.845 	 26.3525 	 -117.062 	 
C 	 -122.106 	 28.3944 	 -117.458 	 
H 	 -122.686 	 28.2881 	 -118.392 	 
H 	 -122.381 	 29.3767 	 -117.018 	 
H 	 -121.086 	 28.4437 	 -117.84 	 
S 	 -123.942 	 32.0833 	 -113.113 	 
C 	 -123.877 	 32.6319 	 -111.437 	 
C 	 -124.411 	 31.6615 	 -110.584 	 
C 	 -124.893 	 30.514 	 -111.242 	 
C 	 -124.539 	 30.5456 	 -112.612 	 
H 	 -124.424 	 31.8972 	 -109.546 	 
C 	 -125.432 	 29.2547 	 -110.555 	 
H 	 -126.227 	 28.7969 	 -111.19 	 
H 	 -125.878 	 29.63 	 -109.617 	 
C 	 -124.314 	 28.227 	 -110.43 	 
H 	 -123.596 	 28.6156 	 -109.761 	 
H 	 -123.804 	 27.9988 	 -111.329 	 
C 	 -124.871 	 26.9058 	 -109.808 	 
H 	 -125.74 	 26.5657 	 -110.32 	 
H 	 -125.241 	 26.9908 	 -108.735 	 
H 	 -124.079 	 26.1645 	 -109.819 	 
H 	 -126.43 	 27.2001 	 -115.849 	 
H 	 -123.454 	 33.6192 	 -111.134 	 
*
