! wB97X-D3 SP def2-SVP
%pal
nprocs 24
end

* xyz 0 1
S 	 -118.449 	 42.5144 	 -112.264 	 
C 	 -118.943 	 41.9556 	 -113.822 	 
C 	 -117.9 	 41.5375 	 -114.626 	 
C 	 -116.612 	 41.8015 	 -113.981 	 
C 	 -116.792 	 42.254 	 -112.737 	 
H 	 -115.579 	 41.6551 	 -114.377 	 
C 	 -118.034 	 41.0633 	 -116.054 	 
H 	 -117.111 	 41.0651 	 -116.525 	 
H 	 -118.618 	 41.7801 	 -116.553 	 
C 	 -118.696 	 39.6717 	 -116.113 	 
H 	 -118.381 	 38.9883 	 -115.335 	 
H 	 -119.821 	 39.8933 	 -116.013 	 
C 	 -118.386 	 38.9581 	 -117.384 	 
H 	 -117.343 	 38.9416 	 -117.519 	 
H 	 -118.659 	 37.9114 	 -117.154 	 
H 	 -118.867 	 39.2995 	 -118.318 	 
S 	 -115.262 	 44.3732 	 -112.162 	 
C 	 -113.823 	 44.0826 	 -111.258 	 
C 	 -113.796 	 42.8611 	 -110.605 	 
C 	 -114.855 	 42.0359 	 -111.095 	 
C 	 -115.66 	 42.697 	 -112.003 	 
H 	 -112.958 	 42.6933 	 -109.888 	 
C 	 -114.947 	 40.5699 	 -110.706 	 
H 	 -116.045 	 40.4972 	 -110.749 	 
H 	 -114.745 	 40.3749 	 -109.641 	 
C 	 -114.306 	 39.5914 	 -111.717 	 
H 	 -113.214 	 39.675 	 -111.619 	 
H 	 -114.519 	 39.7817 	 -112.748 	 
C 	 -114.609 	 38.0508 	 -111.387 	 
H 	 -114.278 	 37.4596 	 -112.242 	 
H 	 -115.728 	 37.936 	 -111.312 	 
H 	 -114.18 	 37.594 	 -110.439 	 
H 	 -119.914 	 41.8186 	 -114.182 	 
H 	 -113.177 	 44.8545 	 -110.946 	 
*
