! wB97X-D3 SP def2-SVP
%pal
nprocs 24
end

* xyz 0 1
S 	 46.534 	 -24.2182 	 -118.721 	 
C 	 44.8815 	 -24.583 	 -118.47 	 
C 	 44.1872 	 -23.5092 	 -117.857 	 
C 	 45.0934 	 -22.4241 	 -117.507 	 
C 	 46.3778 	 -22.679 	 -117.924 	 
H 	 44.8731 	 -21.4145 	 -117.048 	 
C 	 42.7605 	 -23.5158 	 -117.437 	 
H 	 42.4556 	 -24.367 	 -116.831 	 
H 	 42.2477 	 -23.57 	 -118.361 	 
C 	 42.0441 	 -22.2997 	 -116.815 	 
H 	 42.3698 	 -21.3551 	 -117.158 	 
H 	 40.9879 	 -22.307 	 -117.127 	 
C 	 42.0465 	 -22.2825 	 -115.337 	 
H 	 43.0149 	 -22.5581 	 -114.949 	 
H 	 41.6894 	 -21.3154 	 -114.927 	 
H 	 41.4395 	 -23.0865 	 -114.945 	 
S 	 47.7371 	 -20.7778 	 -119.357 	 
C 	 49.1796 	 -20.0612 	 -118.639 	 
C 	 49.4211 	 -20.5123 	 -117.342 	 
C 	 48.4906 	 -21.4966 	 -116.943 	 
C 	 47.4842 	 -21.7443 	 -117.895 	 
H 	 50.3333 	 -20.2801 	 -116.788 	 
C 	 48.6841 	 -22.1237 	 -115.609 	 
H 	 49.7174 	 -22.0736 	 -115.589 	 
H 	 48.282 	 -23.1277 	 -115.549 	 
C 	 48.112 	 -21.4041 	 -114.356 	 
H 	 46.993 	 -21.3905 	 -114.449 	 
H 	 48.4339 	 -20.3537 	 -114.305 	 
C 	 48.6362 	 -21.962 	 -113.012 	 
H 	 49.7543 	 -22.1912 	 -112.996 	 
H 	 48.1023 	 -22.91 	 -112.797 	 
H 	 48.4999 	 -21.201 	 -112.182 	 
H 	 44.3163 	 -25.3963 	 -118.874 	 
H 	 49.7636 	 -19.3094 	 -119.059 	 
*
