! wB97X-D3 SP def2-SVP
%pal
nprocs 24
end

* xyz 0 1
S 	 -85.7814 	 -33.0645 	 -73.3589 	 
C 	 -84.2843 	 -33.0276 	 -74.2136 	 
C 	 -84.3912 	 -32.5217 	 -75.5356 	 
C 	 -85.6566 	 -31.926 	 -75.7073 	 
C 	 -86.5439 	 -32.1329 	 -74.6508 	 
H 	 -85.9825 	 -31.2442 	 -76.4981 	 
C 	 -83.228 	 -32.3672 	 -76.4746 	 
H 	 -83.4186 	 -33.207 	 -77.0573 	 
H 	 -82.3585 	 -32.5841 	 -75.9181 	 
C 	 -83.0996 	 -31.1386 	 -77.4072 	 
H 	 -82.3862 	 -31.2017 	 -78.1254 	 
H 	 -83.9634 	 -30.9913 	 -77.9766 	 
C 	 -83.1006 	 -29.7377 	 -76.79 	 
H 	 -83.9136 	 -29.5254 	 -76.1161 	 
H 	 -82.1428 	 -29.4131 	 -76.3381 	 
H 	 -83.1002 	 -29.1047 	 -77.6933 	 
S 	 -87.9558 	 -30.3479 	 -73.0217 	 
C 	 -89.6462 	 -30.3336 	 -73.2718 	 
C 	 -90.0097 	 -30.7054 	 -74.5563 	 
C 	 -88.9514 	 -31.3988 	 -75.1642 	 
C 	 -87.8008 	 -31.3909 	 -74.3945 	 
H 	 -91.0381 	 -30.5722 	 -74.8709 	 
C 	 -89.1711 	 -32.0828 	 -76.4678 	 
H 	 -88.1941 	 -32.4085 	 -76.8781 	 
H 	 -89.7625 	 -31.4452 	 -77.1082 	 
C 	 -89.7995 	 -33.4985 	 -76.3503 	 
H 	 -90.7635 	 -33.369 	 -75.9227 	 
H 	 -89.3105 	 -34.0288 	 -75.6236 	 
C 	 -89.8076 	 -34.3323 	 -77.6516 	 
H 	 -90.5014 	 -35.1766 	 -77.4703 	 
H 	 -88.8561 	 -34.5743 	 -78.0402 	 
H 	 -90.3345 	 -33.8115 	 -78.413 	 
H 	 -83.3894 	 -33.4455 	 -73.9144 	 
H 	 -90.3678 	 -29.8857 	 -72.5623 	 
*
