! wB97X-D3 SP def2-SVP
%pal
nprocs 24
end

* xyz 0 1
S 	 -68.526 	 -44.8593 	 -92.4753 	 
C 	 -68.3203 	 -43.2076 	 -92.0467 	 
C 	 -68.8462 	 -42.3682 	 -93.0174 	 
C 	 -69.5848 	 -43.0809 	 -94.0469 	 
C 	 -69.5452 	 -44.4602 	 -93.7985 	 
H 	 -69.9245 	 -42.651 	 -94.9326 	 
C 	 -68.7187 	 -40.8765 	 -93.1554 	 
H 	 -68.8206 	 -40.428 	 -92.151 	 
H 	 -69.723 	 -40.6141 	 -93.593 	 
C 	 -67.4463 	 -40.2324 	 -93.8218 	 
H 	 -67.3597 	 -39.201 	 -93.8591 	 
H 	 -66.6127 	 -40.5453 	 -93.1382 	 
C 	 -67.2609 	 -40.7478 	 -95.2702 	 
H 	 -66.4723 	 -40.2396 	 -95.7011 	 
H 	 -67.0478 	 -41.7741 	 -95.362 	 
H 	 -68.1523 	 -40.5324 	 -95.963 	 
S 	 -69.1066 	 -46.4678 	 -95.6189 	 
C 	 -70.386 	 -47.3023 	 -96.4264 	 
C 	 -71.573 	 -46.6857 	 -96.098 	 
C 	 -71.4679 	 -45.6234 	 -95.1596 	 
C 	 -70.1477 	 -45.4796 	 -94.6635 	 
H 	 -72.4919 	 -47.0644 	 -96.5425 	 
C 	 -72.6281 	 -44.7728 	 -94.6432 	 
H 	 -73.2624 	 -44.4753 	 -95.4408 	 
H 	 -72.2808 	 -43.8329 	 -94.3044 	 
C 	 -73.4889 	 -45.3458 	 -93.5034 	 
H 	 -74.009 	 -44.5196 	 -92.9833 	 
H 	 -72.8493 	 -45.7462 	 -92.6932 	 
C 	 -74.4385 	 -46.4774 	 -93.7763 	 
H 	 -75.3393 	 -46.4949 	 -93.1879 	 
H 	 -73.9527 	 -47.4293 	 -93.6085 	 
H 	 -74.7749 	 -46.5407 	 -94.8847 	 
H 	 -67.842 	 -42.8396 	 -91.1972 	 
H 	 -70.3631 	 -48.1544 	 -96.9848 	 
*
