! wB97X-D3 SP def2-SVP
%pal
nprocs 24
end

* xyz 0 1
S 	 -62.9727 	 14.2309 	 -103.818 	 
C 	 -62.941 	 14.5597 	 -102.056 	 
C 	 -62.3689 	 13.4697 	 -101.329 	 
C 	 -62.0147 	 12.4258 	 -102.242 	 
C 	 -62.2192 	 12.6977 	 -103.598 	 
H 	 -61.6566 	 11.4308 	 -101.964 	 
C 	 -62.4552 	 13.2615 	 -99.7754 	 
H 	 -62.0447 	 14.1984 	 -99.4756 	 
H 	 -61.9878 	 12.4064 	 -99.3122 	 
C 	 -63.8821 	 13.1961 	 -99.218 	 
H 	 -64.5189 	 13.8902 	 -99.7966 	 
H 	 -64.3104 	 12.1504 	 -99.3874 	 
C 	 -63.956 	 13.5043 	 -97.6464 	 
H 	 -64.9228 	 13.5311 	 -97.1504 	 
H 	 -63.3421 	 12.7212 	 -97.1148 	 
H 	 -63.4347 	 14.4162 	 -97.5723 	 
S 	 -60.9433 	 12.4806 	 -106 	 
C 	 -61.1182 	 10.9393 	 -106.889 	 
C 	 -61.5853 	 9.95757 	 -106.085 	 
C 	 -62.0122 	 10.4689 	 -104.842 	 
C 	 -61.825 	 11.8 	 -104.7 	 
H 	 -61.6779 	 8.94512 	 -106.433 	 
C 	 -62.8646 	 9.64001 	 -103.873 	 
H 	 -62.7661 	 9.96563 	 -102.841 	 
H 	 -62.5682 	 8.59986 	 -103.954 	 
C 	 -64.3741 	 9.87335 	 -103.97 	 
H 	 -64.5913 	 10.898 	 -103.609 	 
H 	 -64.9816 	 9.12216 	 -103.316 	 
C 	 -65.0065 	 9.72123 	 -105.369 	 
H 	 -66.0606 	 10.1375 	 -105.317 	 
H 	 -65.1414 	 8.65785 	 -105.585 	 
H 	 -64.5351 	 10.3339 	 -106.1 	 
H 	 -63.3697 	 15.3826 	 -101.533 	 
H 	 -60.6955 	 10.7745 	 -107.896 	 
*
