! wB97X-D3 SP def2-SVP
%pal
nprocs 24
end

* xyz 0 1
S 	 -110.616 	 60.284 	 -75.1842 	 
C 	 -111.016 	 61.2276 	 -76.6151 	 
C 	 -112.292 	 61.6936 	 -76.5823 	 
C 	 -113.004 	 61.3218 	 -75.4565 	 
C 	 -112.267 	 60.5739 	 -74.5005 	 
H 	 -113.967 	 61.6406 	 -75.2584 	 
C 	 -112.96 	 62.6118 	 -77.5952 	 
H 	 -112.296 	 63.257 	 -78.0703 	 
H 	 -113.555 	 63.2875 	 -76.9513 	 
C 	 -113.836 	 61.9093 	 -78.6603 	 
H 	 -114.08 	 62.6568 	 -79.4011 	 
H 	 -113.293 	 61.1962 	 -79.2972 	 
C 	 -115.111 	 61.2758 	 -78.133 	 
H 	 -115.016 	 60.4704 	 -77.4681 	 
H 	 -115.726 	 62.0242 	 -77.6285 	 
H 	 -115.722 	 60.8073 	 -78.9789 	 
S 	 -111.606 	 60.2516 	 -71.8837 	 
C 	 -112.692 	 59.4635 	 -70.7897 	 
C 	 -113.939 	 59.2409 	 -71.4043 	 
C 	 -113.927 	 59.5398 	 -72.7856 	 
C 	 -112.726 	 60.0917 	 -73.2222 	 
H 	 -114.736 	 58.8443 	 -70.7696 	 
C 	 -115.094 	 59.1912 	 -73.6619 	 
H 	 -115.035 	 59.8005 	 -74.5872 	 
H 	 -115.951 	 59.6825 	 -73.2054 	 
C 	 -115.264 	 57.7026 	 -73.9607 	 
H 	 -115.351 	 57.1413 	 -73.04 	 
H 	 -114.265 	 57.4067 	 -74.3623 	 
C 	 -116.241 	 57.3542 	 -75.0489 	 
H 	 -116.284 	 56.307 	 -75.3215 	 
H 	 -115.79 	 57.8021 	 -75.9522 	 
H 	 -117.24 	 57.6492 	 -74.7667 	 
H 	 -110.391 	 61.3822 	 -77.5142 	 
H 	 -112.437 	 59.3145 	 -69.7183 	 
*
