! wB97X-D3 SP def2-SVP
%pal
nprocs 24
end

* xyz 0 1
S 	 -48.3917 	 15.405 	 23.4848 	 
C 	 -49.6611 	 15.0901 	 24.6951 	 
C 	 -50.2597 	 13.8406 	 24.4843 	 
C 	 -49.7402 	 13.2342 	 23.3051 	 
C 	 -48.6522 	 13.9196 	 22.761 	 
H 	 -50.1413 	 12.3494 	 22.9017 	 
C 	 -51.2958 	 13.2624 	 25.3384 	 
H 	 -52.0476 	 12.6704 	 24.8637 	 
H 	 -51.7873 	 14.1929 	 25.8386 	 
C 	 -50.5903 	 12.4319 	 26.4264 	 
H 	 -49.6796 	 12.9367 	 26.7421 	 
H 	 -51.2143 	 12.3867 	 27.3427 	 
C 	 -50.2633 	 11.0183 	 25.9811 	 
H 	 -50.3646 	 10.3451 	 26.7745 	 
H 	 -50.9621 	 10.6819 	 25.2146 	 
H 	 -49.2971 	 10.952 	 25.4775 	 
S 	 -47.0208 	 12.1265 	 21.4325 	 
C 	 -46.7667 	 12.3923 	 19.7817 	 
C 	 -47.3943 	 13.4952 	 19.2906 	 
C 	 -48.2394 	 14.2014 	 20.2162 	 
C 	 -48.0484 	 13.5903 	 21.4571 	 
H 	 -47.2909 	 13.7772 	 18.2081 	 
C 	 -48.9887 	 15.5231 	 19.9003 	 
H 	 -49.4872 	 15.7982 	 20.8078 	 
H 	 -49.7237 	 15.3294 	 19.0609 	 
C 	 -48.1461 	 16.632 	 19.3674 	 
H 	 -47.6247 	 16.3611 	 18.4831 	 
H 	 -47.4194 	 16.6597 	 20.2159 	 
C 	 -48.8662 	 18.0037 	 19.092 	 
H 	 -48.1591 	 18.8486 	 19.0142 	 
H 	 -49.5902 	 18.2836 	 19.8194 	 
H 	 -49.499 	 18.0127 	 18.1943 	 
H 	 -49.8097 	 15.6747 	 25.6553 	 
H 	 -45.998 	 11.8384 	 19.2234 	 
*
