! wB97X-D3 SP def2-SVP
%pal
nprocs 24
end

* xyz 0 1
S 	 -110.217 	 56.9834 	 -96.1094 	 
C 	 -108.549 	 57.5729 	 -95.9556 	 
C 	 -107.642 	 56.5514 	 -96.1048 	 
C 	 -108.296 	 55.266 	 -96.1833 	 
C 	 -109.684 	 55.3211 	 -96.0561 	 
H 	 -107.865 	 54.2856 	 -96.1761 	 
C 	 -106.158 	 56.8571 	 -96.2684 	 
H 	 -105.87 	 57.2134 	 -95.2915 	 
H 	 -105.993 	 57.774 	 -96.9178 	 
C 	 -105.226 	 55.7005 	 -96.7086 	 
H 	 -104.19 	 55.9813 	 -96.5552 	 
H 	 -105.452 	 54.854 	 -96.0395 	 
C 	 -105.383 	 55.1703 	 -98.1611 	 
H 	 -105.148 	 55.8431 	 -98.9681 	 
H 	 -104.767 	 54.2799 	 -98.3461 	 
H 	 -106.406 	 54.8441 	 -98.2357 	 
S 	 -111.99 	 54.53 	 -97.1784 	 
C 	 -112.455 	 52.9027 	 -97.2617 	 
C 	 -111.674 	 52.14 	 -96.4423 	 
C 	 -110.6 	 52.846 	 -95.8058 	 
C 	 -110.601 	 54.1815 	 -96.257 	 
H 	 -111.846 	 51.0364 	 -96.4037 	 
C 	 -109.506 	 52.2411 	 -94.9353 	 
H 	 -110.016 	 51.7713 	 -94.1007 	 
H 	 -109.012 	 53.1835 	 -94.5094 	 
C 	 -108.41 	 51.3251 	 -95.5723 	 
H 	 -107.89 	 51.8146 	 -96.4326 	 
H 	 -108.85 	 50.3841 	 -95.9597 	 
C 	 -107.351 	 50.8873 	 -94.6155 	 
H 	 -106.95 	 51.783 	 -94.1799 	 
H 	 -106.641 	 50.2587 	 -95.088 	 
H 	 -107.669 	 50.2386 	 -93.795 	 
H 	 -108.239 	 58.5372 	 -96.0545 	 
H 	 -113.374 	 52.6285 	 -97.7802 	 
*
