! wB97X-D3 SP def2-SVP
%pal
nprocs 24
end

* xyz 0 1
S 	 -105.523 	 2.77729 	 -106.481 	 
C 	 -105.006 	 4.07299 	 -105.477 	 
C 	 -103.821 	 3.79161 	 -104.853 	 
C 	 -103.39 	 2.5099 	 -105.198 	 
C 	 -104.035 	 1.88194 	 -106.221 	 
H 	 -102.401 	 2.16052 	 -104.854 	 
C 	 -103.136 	 4.64947 	 -103.771 	 
H 	 -103.923 	 5.17221 	 -103.252 	 
H 	 -102.549 	 5.40978 	 -104.319 	 
C 	 -102.301 	 3.94352 	 -102.807 	 
H 	 -102.785 	 3.04601 	 -102.356 	 
H 	 -101.413 	 3.59001 	 -103.333 	 
C 	 -101.982 	 4.84765 	 -101.597 	 
H 	 -101.518 	 4.19079 	 -100.867 	 
H 	 -101.346 	 5.69499 	 -101.944 	 
H 	 -102.843 	 5.40456 	 -101.187 	 
S 	 -104.925 	 -0.355934 	 -107.673 	 
C 	 -103.843 	 -1.54168 	 -108.169 	 
C 	 -102.533 	 -1.19498 	 -107.833 	 
C 	 -102.406 	 0.0284236 	 -107.129 	 
C 	 -103.66 	 0.616022 	 -106.871 	 
H 	 -101.677 	 -1.93588 	 -108.018 	 
C 	 -101.015 	 0.556026 	 -106.716 	 
H 	 -101.139 	 1.63835 	 -106.683 	 
H 	 -100.401 	 0.269197 	 -107.499 	 
C 	 -100.53 	 0.00156598 	 -105.448 	 
H 	 -100.333 	 -1.10774 	 -105.553 	 
H 	 -101.271 	 0.0956488 	 -104.638 	 
C 	 -99.3207 	 0.700423 	 -104.795 	 
H 	 -99.5643 	 1.72058 	 -104.664 	 
H 	 -98.3513 	 0.807442 	 -105.373 	 
H 	 -99.0226 	 0.19342 	 -103.916 	 
H 	 -105.582 	 5.02173 	 -105.356 	 
H 	 -104.044 	 -2.48383 	 -108.695 	 
*
