! wB97X-D3 SP def2-SVP
%pal
nprocs 24
end

* xyz 0 1
S 	 -71.5197 	 12.2735 	 -75.5025 	 
C 	 -70.3698 	 13.4447 	 -76.174 	 
C 	 -69.4791 	 13.8524 	 -75.1516 	 
C 	 -69.8635 	 13.4307 	 -73.8835 	 
C 	 -70.9395 	 12.562 	 -73.8937 	 
H 	 -69.2716 	 13.6029 	 -73.0674 	 
C 	 -68.3153 	 14.8256 	 -75.5055 	 
H 	 -68.4489 	 15.2422 	 -76.531 	 
H 	 -67.4153 	 14.2954 	 -75.5121 	 
C 	 -68.3471 	 16.1591 	 -74.7386 	 
H 	 -68.2862 	 16.0054 	 -73.642 	 
H 	 -67.4901 	 16.8071 	 -75.0078 	 
C 	 -69.7096 	 16.8124 	 -75.2335 	 
H 	 -70.5997 	 16.3925 	 -74.7511 	 
H 	 -69.7163 	 17.8777 	 -75.0076 	 
H 	 -69.8773 	 16.798 	 -76.3012 	 
S 	 -71.2061 	 10.1141 	 -72.6119 	 
C 	 -72.4487 	 10.0332 	 -71.2711 	 
C 	 -73.1775 	 11.1945 	 -71.1905 	 
C 	 -72.6706 	 12.2728 	 -71.9857 	 
C 	 -71.5712 	 11.8794 	 -72.7742 	 
H 	 -73.9636 	 11.2591 	 -70.458 	 
C 	 -73.1951 	 13.7229 	 -72.0446 	 
H 	 -74.2508 	 13.6809 	 -72.1591 	 
H 	 -72.7916 	 14.2453 	 -72.8388 	 
C 	 -72.9365 	 14.6262 	 -70.853 	 
H 	 -71.8694 	 14.8237 	 -70.6627 	 
H 	 -73.3649 	 14.1937 	 -69.9188 	 
C 	 -73.5796 	 15.9408 	 -70.9607 	 
H 	 -73.2021 	 16.6855 	 -70.2497 	 
H 	 -74.6289 	 15.8958 	 -71.0125 	 
H 	 -73.322 	 16.3626 	 -71.9525 	 
H 	 -70.167 	 13.7018 	 -77.1721 	 
H 	 -72.6477 	 9.16577 	 -70.6341 	 
*
