! wB97X-D3 SP def2-SVP
%pal
nprocs 24
end

* xyz 0 1
S 	 -62.0808 	 8.94823 	 21.114 	 
C 	 -60.5244 	 9.04784 	 20.3171 	 
C 	 -59.5003 	 8.89269 	 21.2453 	 
C 	 -60.0496 	 8.27991 	 22.4576 	 
C 	 -61.4036 	 8.09037 	 22.4591 	 
H 	 -59.4722 	 8.0495 	 23.3379 	 
C 	 -58.0491 	 9.14673 	 20.9816 	 
H 	 -57.6424 	 10.104 	 21.356 	 
H 	 -57.9599 	 9.25881 	 19.9659 	 
C 	 -57.0172 	 7.96401 	 21.2576 	 
H 	 -56.9888 	 7.80677 	 22.3045 	 
H 	 -57.3778 	 7.03581 	 20.809 	 
C 	 -55.6448 	 8.24921 	 20.6234 	 
H 	 -54.7863 	 7.59399 	 20.8842 	 
H 	 -55.7308 	 8.10561 	 19.5365 	 
H 	 -55.3035 	 9.31667 	 20.8033 	 
S 	 -63.1323 	 8.98015 	 24.3794 	 
C 	 -63.7238 	 7.87893 	 25.6209 	 
C 	 -63.0351 	 6.70528 	 25.5924 	 
C 	 -62.1475 	 6.59172 	 24.4804 	 
C 	 -62.2126 	 7.70903 	 23.6033 	 
H 	 -63.208 	 5.91489 	 26.2756 	 
C 	 -61.419 	 5.31402 	 24.3716 	 
H 	 -60.9588 	 5.24723 	 23.368 	 
H 	 -62.1364 	 4.48059 	 24.5281 	 
C 	 -60.3483 	 5.32166 	 25.3986 	 
H 	 -60.7269 	 5.65372 	 26.327 	 
H 	 -59.6618 	 6.1626 	 25.2249 	 
C 	 -59.5126 	 4.0311 	 25.5188 	 
H 	 -59.1122 	 3.74051 	 24.5339 	 
H 	 -60.0997 	 3.15122 	 25.8388 	 
H 	 -58.6238 	 4.23331 	 26.1768 	 
H 	 -60.3847 	 9.56995 	 19.462 	 
H 	 -64.592 	 8.12172 	 26.3021 	 
*
