! wB97X-D3 SP def2-SVP
%pal
nprocs 24
end

* xyz 0 1
S 	 -91.3446 	 -28.1823 	 -61.8134 	 
C 	 -90.4437 	 -26.72 	 -61.6571 	 
C 	 -89.8846 	 -26.5762 	 -60.3628 	 
C 	 -90.1909 	 -27.6972 	 -59.4949 	 
C 	 -90.9878 	 -28.612 	 -60.1539 	 
H 	 -89.8492 	 -27.7666 	 -58.4767 	 
C 	 -88.9652 	 -25.4464 	 -60.0405 	 
H 	 -89.0265 	 -24.8541 	 -60.9793 	 
H 	 -87.9077 	 -25.8232 	 -59.8967 	 
C 	 -89.3791 	 -24.4616 	 -58.8648 	 
H 	 -88.6318 	 -23.7557 	 -58.6699 	 
H 	 -90.2717 	 -23.9444 	 -59.2612 	 
C 	 -89.7468 	 -25.023 	 -57.493 	 
H 	 -89.015 	 -25.7262 	 -57.098 	 
H 	 -90.031 	 -24.2807 	 -56.7689 	 
H 	 -90.6495 	 -25.6245 	 -57.604 	 
S 	 -91.7883 	 -31.1394 	 -60.7327 	 
C 	 -92.352 	 -32.1621 	 -59.472 	 
C 	 -92.3861 	 -31.4844 	 -58.2275 	 
C 	 -91.8706 	 -30.1501 	 -58.2801 	 
C 	 -91.588 	 -29.7975 	 -59.5949 	 
H 	 -92.5571 	 -32.0938 	 -57.3013 	 
C 	 -91.6223 	 -29.3642 	 -57.0141 	 
H 	 -91.6403 	 -28.3083 	 -57.3362 	 
H 	 -90.5386 	 -29.6286 	 -56.6407 	 
C 	 -92.6113 	 -29.5051 	 -55.7942 	 
H 	 -92.2205 	 -29.078 	 -54.8224 	 
H 	 -92.5973 	 -30.5533 	 -55.5285 	 
C 	 -94.0809 	 -29.1962 	 -56.0932 	 
H 	 -94.2191 	 -28.1362 	 -56.0791 	 
H 	 -94.7082 	 -29.5526 	 -55.1967 	 
H 	 -94.3893 	 -29.7341 	 -57.0196 	 
H 	 -90.2822 	 -26.0254 	 -62.4936 	 
H 	 -92.4474 	 -33.2103 	 -59.5155 	 
*
