! wB97X-D3 SP def2-SVP
%pal
nprocs 24
end

* xyz 0 1
S 	 -103.333 	 9.79236 	 -5.83246 	 
C 	 -101.912 	 10.7811 	 -6.17698 	 
C 	 -102.177 	 12.1351 	 -6.16076 	 
C 	 -103.555 	 12.3591 	 -5.81754 	 
C 	 -104.314 	 11.2086 	 -5.53899 	 
H 	 -104.006 	 13.3148 	 -5.66119 	 
C 	 -101.112 	 13.2211 	 -6.30496 	 
H 	 -101.397 	 13.9918 	 -6.96433 	 
H 	 -100.224 	 12.7367 	 -6.72211 	 
C 	 -100.579 	 13.8104 	 -4.97161 	 
H 	 -100.114 	 13.1098 	 -4.18769 	 
H 	 -99.65 	 14.4006 	 -5.24627 	 
C 	 -101.589 	 14.7118 	 -4.25122 	 
H 	 -102.352 	 14.2154 	 -3.77322 	 
H 	 -101.164 	 15.3279 	 -3.6046 	 
H 	 -102.065 	 15.3899 	 -5.03826 	 
S 	 -106.887 	 10.2228 	 -6.03751 	 
C 	 -108.116 	 10.478 	 -4.85888 	 
C 	 -107.638 	 11.2041 	 -3.76956 	 
C 	 -106.263 	 11.5527 	 -3.88182 	 
C 	 -105.707 	 11.108 	 -5.08535 	 
H 	 -108.283 	 11.3595 	 -2.88848 	 
C 	 -105.542 	 12.4091 	 -2.77022 	 
H 	 -106.345 	 13.0961 	 -2.43301 	 
H 	 -104.662 	 12.9539 	 -3.17051 	 
C 	 -105.032 	 11.673 	 -1.50761 	 
H 	 -104.099 	 11.2704 	 -1.7313 	 
H 	 -105.678 	 10.8889 	 -0.982681 	 
C 	 -104.726 	 12.6625 	 -0.424079 	 
H 	 -105.631 	 13.0872 	 -0.0841169 	 
H 	 -104.174 	 13.495 	 -0.883703 	 
H 	 -104.194 	 12.2762 	 0.455464 	 
H 	 -100.906 	 10.4486 	 -6.23018 	 
H 	 -109.036 	 9.89743 	 -4.86223 	 
*
