! wB97X-D3 SP def2-SVP
%pal
nprocs 24
end

* xyz 0 1
S 	 -64.7185 	 14.3298 	 -75.7305 	 
C 	 -65.8489 	 13.5917 	 -74.5737 	 
C 	 -65.3983 	 13.8429 	 -73.3028 	 
C 	 -64.0432 	 14.3582 	 -73.2619 	 
C 	 -63.5204 	 14.6149 	 -74.5419 	 
H 	 -63.4633 	 14.6134 	 -72.3788 	 
C 	 -66.2107 	 13.464 	 -72.1166 	 
H 	 -65.5742 	 12.9506 	 -71.3642 	 
H 	 -66.9732 	 12.7569 	 -72.4382 	 
C 	 -66.9926 	 14.6164 	 -71.4686 	 
H 	 -67.3187 	 14.292 	 -70.3962 	 
H 	 -66.419 	 15.491 	 -71.3237 	 
C 	 -68.2935 	 14.9558 	 -72.2447 	 
H 	 -68.7333 	 15.7786 	 -71.7634 	 
H 	 -67.8796 	 15.3694 	 -73.1935 	 
H 	 -68.9787 	 14.1299 	 -72.4664 	 
S 	 -61.1995 	 14.0548 	 -75.7959 	 
C 	 -59.7588 	 14.8873 	 -75.4824 	 
C 	 -60.0384 	 15.995 	 -74.7497 	 
C 	 -61.3962 	 16.0213 	 -74.2574 	 
C 	 -62.1683 	 15.0074 	 -74.8235 	 
H 	 -59.2975 	 16.7462 	 -74.4602 	 
C 	 -61.9236 	 17.0504 	 -73.2833 	 
H 	 -61.0703 	 17.5355 	 -72.7581 	 
H 	 -62.221 	 16.5188 	 -72.4377 	 
C 	 -62.9159 	 18.1851 	 -73.6943 	 
H 	 -63.8082 	 17.7974 	 -74.1324 	 
H 	 -62.3217 	 18.7891 	 -74.3797 	 
C 	 -63.3189 	 19.0066 	 -72.4978 	 
H 	 -64.0009 	 19.8508 	 -72.8444 	 
H 	 -62.4303 	 19.4127 	 -71.9105 	 
H 	 -63.9414 	 18.441 	 -71.8764 	 
H 	 -66.8108 	 13.301 	 -74.714 	 
H 	 -58.7355 	 14.6727 	 -75.7691 	 
*
