! wB97X-D3 SP def2-SVP
%pal
nprocs 24
end

* xyz 0 1
S 	 -37.3447 	 -9.67337 	 19.158 	 
C 	 -38.1508 	 -10.6102 	 20.3997 	 
C 	 -39.0307 	 -11.5875 	 19.9098 	 
C 	 -38.8779 	 -11.6371 	 18.4731 	 
C 	 -37.949 	 -10.76 	 17.928 	 
H 	 -39.4875 	 -12.3365 	 17.8905 	 
C 	 -39.8944 	 -12.5534 	 20.7055 	 
H 	 -40.9244 	 -12.2951 	 20.5839 	 
H 	 -39.7236 	 -12.3842 	 21.8489 	 
C 	 -39.6728 	 -14.0923 	 20.4634 	 
H 	 -40.5861 	 -14.5739 	 20.9712 	 
H 	 -39.7665 	 -14.3989 	 19.4038 	 
C 	 -38.3366 	 -14.5701 	 20.9675 	 
H 	 -38.224 	 -14.3914 	 22.0587 	 
H 	 -38.304 	 -15.5793 	 20.761 	 
H 	 -37.6006 	 -14.0476 	 20.3325 	 
S 	 -38.7581 	 -10.9434 	 15.2809 	 
C 	 -37.5945 	 -10.956 	 14.0305 	 
C 	 -36.3577 	 -10.567 	 14.5574 	 
C 	 -36.2803 	 -10.3903 	 15.9625 	 
C 	 -37.4777 	 -10.7661 	 16.5105 	 
H 	 -35.5905 	 -10.3608 	 13.7942 	 
C 	 -34.9898 	 -10.2285 	 16.6974 	 
H 	 -34.3339 	 -11.0668 	 16.3201 	 
H 	 -35.0948 	 -10.4323 	 17.7534 	 
C 	 -34.2041 	 -8.96125 	 16.5144 	 
H 	 -33.93 	 -8.98687 	 15.5022 	 
H 	 -33.3927 	 -8.86753 	 17.2031 	 
C 	 -34.9461 	 -7.67007 	 16.8079 	 
H 	 -35.7567 	 -7.48356 	 16.1224 	 
H 	 -34.117 	 -6.87688 	 16.6379 	 
H 	 -35.1961 	 -7.6221 	 17.7994 	 
H 	 -37.869 	 -10.3766 	 21.4152 	 
H 	 -37.8588 	 -11.0623 	 13.0176 	 
*
