! wB97X-D3 SP def2-SVP
%pal
nprocs 24
end

* xyz 0 1
S 	 -36.7248 	 -8.31966 	 18.5524 	 
C 	 -35.2365 	 -9.2324 	 18.5099 	 
C 	 -35.3698 	 -10.2107 	 17.5008 	 
C 	 -36.5568 	 -10.1601 	 16.6868 	 
C 	 -37.3846 	 -9.13045 	 17.0764 	 
H 	 -36.7995 	 -10.8272 	 15.8463 	 
C 	 -34.2481 	 -11.2693 	 17.3058 	 
H 	 -34.2266 	 -11.9674 	 18.1767 	 
H 	 -33.3622 	 -10.6143 	 17.3006 	 
C 	 -34.3326 	 -12.1392 	 16.0774 	 
H 	 -33.6351 	 -12.926 	 16.1409 	 
H 	 -35.2505 	 -12.6529 	 16.1712 	 
C 	 -34.0555 	 -11.3913 	 14.7277 	 
H 	 -33.0013 	 -11.1344 	 14.6579 	 
H 	 -34.1839 	 -11.9762 	 13.8819 	 
H 	 -34.717 	 -10.5403 	 14.5925 	 
S 	 -40.0908 	 -8.58027 	 17.5052 	 
C 	 -41.0929 	 -8.4494 	 16.1115 	 
C 	 -40.4056 	 -8.43114 	 14.9634 	 
C 	 -38.9964 	 -8.56343 	 15.1368 	 
C 	 -38.6051 	 -8.72139 	 16.4472 	 
H 	 -40.9351 	 -8.41279 	 14.0303 	 
C 	 -38.0542 	 -8.73752 	 13.9224 	 
H 	 -38.6549 	 -9.11702 	 13.1743 	 
H 	 -37.3528 	 -9.57459 	 14.0561 	 
C 	 -37.3631 	 -7.46649 	 13.4557 	 
H 	 -36.6424 	 -7.11258 	 14.2588 	 
H 	 -38.1091 	 -6.64892 	 13.3155 	 
C 	 -36.6367 	 -7.66735 	 12.1279 	 
H 	 -37.2125 	 -8.0794 	 11.39 	 
H 	 -35.8254 	 -8.29638 	 12.3855 	 
H 	 -36.1073 	 -6.76631 	 11.8571 	 
H 	 -34.364 	 -9.1705 	 19.1774 	 
H 	 -42.1947 	 -8.38843 	 16.1181 	 
*
