! wB97X-D3 SP def2-SVP
%pal
nprocs 24
end

* xyz 0 1
S 	 -52.2021 	 12.4204 	 -98.5546 	 
C 	 -51.9814 	 10.8245 	 -99.3079 	 
C 	 -50.7534 	 10.7796 	 -99.9515 	 
C 	 -49.9405 	 11.8898 	 -99.6906 	 
C 	 -50.4677 	 12.7322 	 -98.6908 	 
H 	 -48.9554 	 12.0062 	 -100.122 	 
C 	 -50.2787 	 9.60824 	 -100.776 	 
H 	 -50.6821 	 8.61016 	 -100.383 	 
H 	 -49.2188 	 9.5151 	 -100.67 	 
C 	 -50.5545 	 9.69343 	 -102.301 	 
H 	 -50.1685 	 10.617 	 -102.777 	 
H 	 -50.0099 	 8.81935 	 -102.793 	 
C 	 -52.0565 	 9.79978 	 -102.742 	 
H 	 -52.2529 	 9.77341 	 -103.741 	 
H 	 -52.5539 	 8.95094 	 -102.353 	 
H 	 -52.4923 	 10.724 	 -102.381 	 
S 	 -51.2567 	 15.3694 	 -98.0572 	 
C 	 -49.9948 	 16.52 	 -97.7786 	 
C 	 -48.6894 	 15.9787 	 -97.898 	 
C 	 -48.7079 	 14.6244 	 -98.2042 	 
C 	 -50.0154 	 14.132 	 -98.3458 	 
H 	 -47.847 	 16.626 	 -97.7796 	 
C 	 -47.453 	 13.7584 	 -98.3104 	 
H 	 -47.2354 	 13.5045 	 -99.3399 	 
H 	 -47.6691 	 12.8287 	 -97.8415 	 
C 	 -46.2491 	 14.2873 	 -97.6248 	 
H 	 -46.6116 	 14.4552 	 -96.5499 	 
H 	 -45.9956 	 15.3367 	 -98.0333 	 
C 	 -45.1298 	 13.3378 	 -97.6921 	 
H 	 -44.3379 	 13.6324 	 -97.0092 	 
H 	 -44.7918 	 13.1967 	 -98.7043 	 
H 	 -45.3783 	 12.3399 	 -97.3711 	 
H 	 -52.8447 	 10.2149 	 -99.4223 	 
H 	 -50.1911 	 17.399 	 -97.1506 	 
*
