! wB97X-D3 SP def2-SVP
%pal
nprocs 24
end

* xyz 0 1
S 	 -107.582 	 31.0498 	 -19.6719 	 
C 	 -105.866 	 31.2895 	 -19.0846 	 
C 	 -105.376 	 32.5652 	 -19.338 	 
C 	 -106.364 	 33.3668 	 -20.0574 	 
C 	 -107.566 	 32.7197 	 -20.3505 	 
H 	 -106.309 	 34.4663 	 -20.4003 	 
C 	 -103.993 	 33.0487 	 -19.0354 	 
H 	 -103.912 	 34.1158 	 -19.1855 	 
H 	 -103.39 	 32.4768 	 -19.7017 	 
C 	 -103.333 	 32.8265 	 -17.6581 	 
H 	 -103.804 	 33.2844 	 -16.7862 	 
H 	 -103.396 	 31.7796 	 -17.3765 	 
C 	 -101.924 	 33.3822 	 -17.6203 	 
H 	 -102.054 	 34.4589 	 -17.5537 	 
H 	 -101.353 	 33.2174 	 -16.6623 	 
H 	 -101.195 	 33.1856 	 -18.4318 	 
S 	 -109.485 	 34.5575 	 -20.0192 	 
C 	 -110.69 	 34.8145 	 -21.2833 	 
C 	 -110.517 	 33.9481 	 -22.3365 	 
C 	 -109.489 	 32.9566 	 -22.0396 	 
C 	 -108.717 	 33.2854 	 -20.9222 	 
H 	 -111.252 	 33.9757 	 -23.1192 	 
C 	 -109.21 	 31.8909 	 -23.0213 	 
H 	 -108.127 	 31.6356 	 -22.9597 	 
H 	 -109.319 	 32.2244 	 -24.0169 	 
C 	 -110.049 	 30.6472 	 -22.9103 	 
H 	 -110.023 	 30.2815 	 -21.9101 	 
H 	 -109.538 	 29.8527 	 -23.4543 	 
C 	 -111.581 	 30.8725 	 -23.3599 	 
H 	 -112.041 	 29.9169 	 -23.4901 	 
H 	 -111.686 	 31.5534 	 -24.209 	 
H 	 -112.08 	 31.3751 	 -22.5677 	 
H 	 -105.218 	 30.4233 	 -18.6109 	 
H 	 -111.476 	 35.5808 	 -21.2976 	 
*
