! wB97X-D3 SP def2-SVP
%pal
nprocs 24
end

* xyz 0 1
S 	 -56.8786 	 -3.15624 	 -19.2637 	 
C 	 -57.116 	 -2.48659 	 -17.6772 	 
C 	 -57.5226 	 -3.44688 	 -16.8001 	 
C 	 -57.7797 	 -4.66785 	 -17.4539 	 
C 	 -57.4466 	 -4.68219 	 -18.7979 	 
H 	 -58.1527 	 -5.59588 	 -17.0156 	 
C 	 -57.7891 	 -3.083 	 -15.2856 	 
H 	 -57.4904 	 -1.99806 	 -15.1355 	 
H 	 -57.1566 	 -3.7391 	 -14.6758 	 
C 	 -59.225 	 -3.28876 	 -14.8962 	 
H 	 -59.9133 	 -2.88144 	 -15.7645 	 
H 	 -59.38 	 -4.34518 	 -14.8511 	 
C 	 -59.4417 	 -2.57354 	 -13.5744 	 
H 	 -60.3864 	 -2.74656 	 -13.1685 	 
H 	 -58.7676 	 -3.09604 	 -12.9686 	 
H 	 -59.2334 	 -1.48782 	 -13.7169 	 
S 	 -56.2633 	 -6.71282 	 -20.2561 	 
C 	 -57.312 	 -7.92422 	 -20.919 	 
C 	 -58.5319 	 -7.37945 	 -21.1235 	 
C 	 -58.7924 	 -6.18956 	 -20.3159 	 
C 	 -57.6537 	 -5.72044 	 -19.7731 	 
H 	 -59.2956 	 -7.9704 	 -21.5738 	 
C 	 -60.2327 	 -5.60178 	 -20.1271 	 
H 	 -60.9175 	 -5.858 	 -20.9564 	 
H 	 -60.3462 	 -4.43975 	 -20.0996 	 
C 	 -60.9079 	 -6.15785 	 -18.8668 	 
H 	 -61.9138 	 -5.74634 	 -18.6468 	 
H 	 -60.2847 	 -5.89432 	 -17.9944 	 
C 	 -60.944 	 -7.71354 	 -18.9457 	 
H 	 -61.3449 	 -8.1121 	 -17.9339 	 
H 	 -59.9609 	 -8.18962 	 -19.0947 	 
H 	 -61.6709 	 -8.00028 	 -19.683 	 
H 	 -56.7047 	 -1.53469 	 -17.3863 	 
H 	 -56.9758 	 -8.81032 	 -21.3914 	 
*
