! wB97X-D3 SP def2-SVP
%pal
nprocs 24
end

* xyz 0 1
S 	 -67.1243 	 6.99257 	 -76.0238 	 
C 	 -66.7039 	 5.25095 	 -76.3352 	 
C 	 -67.2787 	 4.81638 	 -77.5005 	 
C 	 -68.1873 	 5.75858 	 -78.0426 	 
C 	 -68.2454 	 7.00598 	 -77.407 	 
H 	 -68.7228 	 5.7096 	 -78.9494 	 
C 	 -67.2451 	 3.34181 	 -78.005 	 
H 	 -68.1993 	 3.1355 	 -78.4132 	 
H 	 -67.1611 	 2.71903 	 -77.1052 	 
C 	 -66.0253 	 3.1938 	 -78.9489 	 
H 	 -66.0779 	 3.97031 	 -79.7801 	 
H 	 -65.0925 	 3.39723 	 -78.3835 	 
C 	 -65.882 	 1.82544 	 -79.6177 	 
H 	 -66.8613 	 1.55294 	 -80.0602 	 
H 	 -64.9934 	 1.78735 	 -80.2878 	 
H 	 -65.8043 	 1.13161 	 -78.8398 	 
S 	 -68.0377 	 9.67217 	 -78.0433 	 
C 	 -69.4444 	 10.6261 	 -78.4319 	 
C 	 -70.5088 	 9.80756 	 -78.6305 	 
C 	 -70.2572 	 8.4015 	 -78.2457 	 
C 	 -68.9612 	 8.21369 	 -77.7839 	 
H 	 -71.4685 	 10.2438 	 -79.0483 	 
C 	 -71.259 	 7.34487 	 -78.6525 	 
H 	 -70.9248 	 6.30466 	 -78.6034 	 
H 	 -71.3386 	 7.43458 	 -79.747 	 
C 	 -72.6473 	 7.47414 	 -77.9229 	 
H 	 -73.1181 	 8.41778 	 -78.2205 	 
H 	 -72.5162 	 7.39256 	 -76.8655 	 
C 	 -73.6576 	 6.32373 	 -78.2721 	 
H 	 -73.3401 	 5.48648 	 -77.6259 	 
H 	 -73.6823 	 6.06193 	 -79.3229 	 
H 	 -74.7566 	 6.61558 	 -78.0031 	 
H 	 -66.2085 	 4.56789 	 -75.6394 	 
H 	 -69.4031 	 11.5936 	 -78.8407 	 
*
