! wB97X-D3 SP def2-SVP
%pal
nprocs 24
end

* xyz 0 1
S 	 -109.01 	 58.7166 	 -98.5814 	 
C 	 -108.114 	 59.0006 	 -97.113 	 
C 	 -106.795 	 59.1387 	 -97.3296 	 
C 	 -106.462 	 59.0903 	 -98.7278 	 
C 	 -107.521 	 58.8854 	 -99.5921 	 
H 	 -105.431 	 59.1912 	 -99.0892 	 
C 	 -105.809 	 59.3734 	 -96.221 	 
H 	 -104.827 	 59.0038 	 -96.5913 	 
H 	 -106.071 	 58.8157 	 -95.3047 	 
C 	 -105.662 	 60.8562 	 -95.8816 	 
H 	 -105.702 	 61.3857 	 -96.8584 	 
H 	 -106.547 	 61.0857 	 -95.3141 	 
C 	 -104.397 	 61.2549 	 -95.173 	 
H 	 -104.346 	 62.2372 	 -94.7734 	 
H 	 -104.248 	 60.7728 	 -94.2925 	 
H 	 -103.486 	 61.0579 	 -95.6798 	 
S 	 -107.741 	 57.5782 	 -101.912 	 
C 	 -108.205 	 58.4265 	 -103.356 	 
C 	 -108.136 	 59.8186 	 -103.199 	 
C 	 -108.023 	 60.2035 	 -101.85 	 
C 	 -107.693 	 59.0779 	 -101.033 	 
H 	 -108.229 	 60.4018 	 -104.102 	 
C 	 -108.273 	 61.6339 	 -101.346 	 
H 	 -108.221 	 61.6045 	 -100.24 	 
H 	 -109.319 	 61.9849 	 -101.563 	 
C 	 -107.303 	 62.6353 	 -101.832 	 
H 	 -107.328 	 62.7208 	 -102.913 	 
H 	 -106.292 	 62.2182 	 -101.627 	 
C 	 -107.718 	 63.9874 	 -101.256 	 
H 	 -107.781 	 64.0365 	 -100.209 	 
H 	 -108.698 	 64.3951 	 -101.63 	 
H 	 -106.9 	 64.6799 	 -101.47 	 
H 	 -108.506 	 59.0108 	 -96.1344 	 
H 	 -108.175 	 58.0563 	 -104.364 	 
*
