! wB97X-D3 SP def2-SVP
%pal
nprocs 24
end

* xyz 0 1
S 	 -132.157 	 26.123 	 -17.7809 	 
C 	 -130.805 	 25.2892 	 -18.5965 	 
C 	 -129.776 	 26.1438 	 -18.8339 	 
C 	 -130.091 	 27.4654 	 -18.3825 	 
C 	 -131.422 	 27.6938 	 -18.0056 	 
H 	 -129.445 	 28.3519 	 -18.4501 	 
C 	 -128.367 	 25.8091 	 -19.3178 	 
H 	 -128.095 	 26.5672 	 -20.0684 	 
H 	 -128.483 	 24.8908 	 -19.9022 	 
C 	 -127.259 	 25.6393 	 -18.2625 	 
H 	 -126.377 	 25.6279 	 -18.8621 	 
H 	 -127.284 	 26.4804 	 -17.5167 	 
C 	 -127.243 	 24.3484 	 -17.47 	 
H 	 -128.124 	 24.3016 	 -16.9174 	 
H 	 -127.283 	 23.4701 	 -18.1972 	 
H 	 -126.32 	 24.3056 	 -16.8155 	 
S 	 -131.512 	 29.4154 	 -15.8403 	 
C 	 -132.621 	 30.7522 	 -15.9221 	 
C 	 -133.213 	 30.7823 	 -17.1445 	 
C 	 -132.714 	 29.845 	 -18.1007 	 
C 	 -131.944 	 28.8583 	 -17.455 	 
H 	 -133.944 	 31.5607 	 -17.3328 	 
C 	 -133.309 	 29.8042 	 -19.4808 	 
H 	 -132.672 	 29.103 	 -20.027 	 
H 	 -133.312 	 30.8522 	 -19.9125 	 
C 	 -134.747 	 29.2448 	 -19.5594 	 
H 	 -135.437 	 29.9789 	 -18.9859 	 
H 	 -134.858 	 28.345 	 -18.9792 	 
C 	 -135.298 	 29.0873 	 -20.9833 	 
H 	 -134.783 	 28.2833 	 -21.4722 	 
H 	 -135.144 	 29.9645 	 -21.5956 	 
H 	 -136.315 	 28.7757 	 -20.9547 	 
H 	 -130.7 	 24.223 	 -18.8098 	 
H 	 -132.873 	 31.4007 	 -15.081 	 
*
