! wB97X-D3 SP def2-SVP
%pal
nprocs 24
end

* xyz 0 1
S 	 -65.37 	 6.99519 	 -85.5644 	 
C 	 -66.6492 	 5.79539 	 -85.364 	 
C 	 -66.655 	 5.24254 	 -84.1181 	 
C 	 -65.652 	 5.80055 	 -83.2971 	 
C 	 -64.8613 	 6.75959 	 -83.9424 	 
H 	 -65.3956 	 5.52344 	 -82.2607 	 
C 	 -67.6431 	 4.21609 	 -83.6397 	 
H 	 -67.157 	 3.54859 	 -82.9174 	 
H 	 -67.7979 	 3.5632 	 -84.4447 	 
C 	 -68.8862 	 4.8694 	 -83.0629 	 
H 	 -69.3035 	 4.19535 	 -82.3019 	 
H 	 -68.5719 	 5.72912 	 -82.353 	 
C 	 -69.8354 	 5.38306 	 -84.1076 	 
H 	 -70.7059 	 5.78858 	 -83.5946 	 
H 	 -69.3342 	 6.22588 	 -84.649 	 
H 	 -70.2326 	 4.63428 	 -84.8676 	 
S 	 -63.5717 	 9.26155 	 -83.9799 	 
C 	 -62.1994 	 9.54514 	 -82.9275 	 
C 	 -61.9768 	 8.41889 	 -82.1592 	 
C 	 -62.8215 	 7.33238 	 -82.4321 	 
C 	 -63.7949 	 7.58012 	 -83.4027 	 
H 	 -61.1058 	 8.31988 	 -81.4465 	 
C 	 -62.6811 	 6.06763 	 -81.6555 	 
H 	 -61.6167 	 5.94404 	 -81.4537 	 
H 	 -63.0397 	 5.09467 	 -82.1558 	 
C 	 -63.4027 	 6.14136 	 -80.2303 	 
H 	 -64.448 	 6.46758 	 -80.3824 	 
H 	 -63.0648 	 7.02616 	 -79.7542 	 
C 	 -63.2497 	 4.91501 	 -79.3516 	 
H 	 -64.0364 	 4.20262 	 -79.5036 	 
H 	 -63.286 	 5.26342 	 -78.3534 	 
H 	 -62.1882 	 4.54136 	 -79.3466 	 
H 	 -67.2384 	 5.3894 	 -86.2174 	 
H 	 -61.6039 	 10.4092 	 -82.9326 	 
*
