! wB97X-D3 SP def2-SVP
%pal
nprocs 24
end

* xyz 0 1
S 	 -127.336 	 67.8361 	 -47.2602 	 
C 	 -127.058 	 69.5672 	 -47.0102 	 
C 	 -127.967 	 70.3122 	 -47.7251 	 
C 	 -128.677 	 69.5079 	 -48.6857 	 
C 	 -128.439 	 68.159 	 -48.541 	 
H 	 -129.371 	 69.8811 	 -49.4776 	 
C 	 -128.198 	 71.8574 	 -47.7056 	 
H 	 -127.808 	 72.1816 	 -46.6887 	 
H 	 -129.255 	 72.1369 	 -47.6871 	 
C 	 -127.44 	 72.7259 	 -48.8585 	 
H 	 -126.409 	 72.5361 	 -48.7497 	 
H 	 -127.908 	 72.3759 	 -49.7874 	 
C 	 -127.692 	 74.2034 	 -48.6831 	 
H 	 -126.922 	 74.6109 	 -47.9548 	 
H 	 -127.425 	 74.8376 	 -49.529 	 
H 	 -128.708 	 74.5471 	 -48.334 	 
S 	 -128.332 	 66.5341 	 -50.727 	 
C 	 -129.708 	 65.4471 	 -50.9764 	 
C 	 -130.72 	 65.6075 	 -50.0535 	 
C 	 -130.309 	 66.4576 	 -49.0216 	 
C 	 -129.141 	 67.1528 	 -49.3068 	 
H 	 -131.693 	 65.0998 	 -50.1867 	 
C 	 -131.184 	 66.6457 	 -47.7783 	 
H 	 -132.226 	 66.5508 	 -48.073 	 
H 	 -131.106 	 67.6364 	 -47.3713 	 
C 	 -130.891 	 65.5966 	 -46.7288 	 
H 	 -129.969 	 65.66 	 -46.1593 	 
H 	 -130.829 	 64.6346 	 -47.2585 	 
C 	 -131.953 	 65.6698 	 -45.5762 	 
H 	 -132.91 	 65.9554 	 -46.029 	 
H 	 -131.745 	 66.5736 	 -44.9545 	 
H 	 -131.984 	 64.7449 	 -44.9959 	 
H 	 -126.466 	 70.0396 	 -46.2164 	 
H 	 -129.808 	 64.8411 	 -51.8777 	 
*
