! wB97X-D3 SP def2-SVP
%pal
nprocs 24
end

* xyz 0 1
S 	 -119.201 	 24.453 	 -20.0824 	 
C 	 -118.365 	 24.1231 	 -21.5537 	 
C 	 -117.156 	 24.8215 	 -21.6537 	 
C 	 -116.908 	 25.5747 	 -20.4185 	 
C 	 -117.948 	 25.5137 	 -19.5039 	 
H 	 -115.98 	 26.1315 	 -20.2342 	 
C 	 -116.141 	 24.8164 	 -22.7529 	 
H 	 -115.207 	 25.1153 	 -22.3142 	 
H 	 -116.439 	 25.5915 	 -23.4766 	 
C 	 -115.856 	 23.4089 	 -23.3816 	 
H 	 -115.778 	 22.756 	 -22.6076 	 
H 	 -116.669 	 23.1392 	 -24.0195 	 
C 	 -114.624 	 23.3566 	 -24.2704 	 
H 	 -113.712 	 23.5622 	 -23.8108 	 
H 	 -114.402 	 22.3692 	 -24.6843 	 
H 	 -114.808 	 24.1452 	 -24.9932 	 
S 	 -118.527 	 25.3609 	 -16.7401 	 
C 	 -118.436 	 26.7262 	 -15.7265 	 
C 	 -117.98 	 27.8216 	 -16.457 	 
C 	 -117.704 	 27.5819 	 -17.8691 	 
C 	 -118.027 	 26.305 	 -18.2274 	 
H 	 -117.759 	 28.6295 	 -15.7982 	 
C 	 -117.246 	 28.7168 	 -18.8394 	 
H 	 -116.73 	 28.1711 	 -19.6806 	 
H 	 -116.402 	 29.3012 	 -18.3604 	 
C 	 -118.271 	 29.6142 	 -19.5517 	 
H 	 -117.792 	 30.2927 	 -20.3465 	 
H 	 -118.73 	 30.2547 	 -18.8004 	 
C 	 -119.476 	 28.8283 	 -20.2348 	 
H 	 -119.129 	 28.3656 	 -21.1918 	 
H 	 -120.386 	 29.3259 	 -20.3638 	 
H 	 -119.774 	 27.947 	 -19.6704 	 
H 	 -118.717 	 23.5345 	 -22.4288 	 
H 	 -118.59 	 26.7986 	 -14.6213 	 
*
