! wB97X-D3 SP def2-SVP
%pal
nprocs 24
end

* xyz 0 1
S 	 -149.812 	 28.076 	 -14.8355 	 
C 	 -148.79 	 27.6548 	 -16.1605 	 
C 	 -147.784 	 28.5652 	 -16.4729 	 
C 	 -147.622 	 29.4128 	 -15.3421 	 
C 	 -148.668 	 29.3432 	 -14.4791 	 
H 	 -146.909 	 30.2961 	 -15.3391 	 
C 	 -146.771 	 28.5509 	 -17.6207 	 
H 	 -146.884 	 29.5357 	 -18.1786 	 
H 	 -147.115 	 27.8356 	 -18.3616 	 
C 	 -145.381 	 28.2241 	 -17.1462 	 
H 	 -145.285 	 28.8502 	 -16.2962 	 
H 	 -145.13 	 27.2224 	 -16.851 	 
C 	 -144.183 	 28.6508 	 -18.0755 	 
H 	 -143.235 	 28.2701 	 -17.7411 	 
H 	 -144.369 	 28.3714 	 -19.1188 	 
H 	 -143.941 	 29.6701 	 -18.0811 	 
S 	 -148.631 	 28.8154 	 -11.6826 	 
C 	 -148.861 	 30.2466 	 -10.5863 	 
C 	 -148.747 	 31.4108 	 -11.3199 	 
C 	 -148.608 	 31.2634 	 -12.7057 	 
C 	 -148.607 	 29.9191 	 -13.0819 	 
H 	 -148.675 	 32.3003 	 -10.7676 	 
C 	 -148.675 	 32.4274 	 -13.6692 	 
H 	 -149.59 	 33.071 	 -13.4743 	 
H 	 -149.136 	 32.0539 	 -14.5959 	 
C 	 -147.419 	 33.1669 	 -14.1124 	 
H 	 -147.563 	 33.882 	 -14.8818 	 
H 	 -146.689 	 32.4581 	 -14.5176 	 
C 	 -146.73 	 33.9234 	 -12.9406 	 
H 	 -145.835 	 34.2717 	 -13.3652 	 
H 	 -146.565 	 33.1262 	 -12.2173 	 
H 	 -147.286 	 34.7106 	 -12.4872 	 
H 	 -149.05 	 26.8271 	 -16.7759 	 
H 	 -149.004 	 30.2954 	 -9.55575 	 
*
