! wB97X-D3 SP def2-SVP
%pal
nprocs 24
end

* xyz 0 1
S 	 30.695 	 -30.2736 	 -133.452 	 
C 	 30.9697 	 -28.5501 	 -133.694 	 
C 	 31.873 	 -28.0911 	 -132.768 	 
C 	 32.3009 	 -29.0506 	 -131.805 	 
C 	 31.547 	 -30.1729 	 -131.841 	 
H 	 32.9918 	 -28.9043 	 -131.049 	 
C 	 32.4171 	 -26.6883 	 -132.814 	 
H 	 31.9746 	 -26.0735 	 -132.035 	 
H 	 32.0379 	 -26.1376 	 -133.734 	 
C 	 33.9256 	 -26.6378 	 -132.658 	 
H 	 34.2815 	 -27.3095 	 -131.852 	 
H 	 34.3683 	 -26.9178 	 -133.629 	 
C 	 34.5562 	 -25.2084 	 -132.444 	 
H 	 34.0887 	 -24.6681 	 -133.219 	 
H 	 34.3962 	 -24.8195 	 -131.458 	 
H 	 35.585 	 -25.2635 	 -132.578 	 
S 	 31.98 	 -32.7901 	 -131.424 	 
C 	 31.9015 	 -33.534 	 -129.889 	 
C 	 31.7013 	 -32.5556 	 -128.96 	 
C 	 31.6321 	 -31.2348 	 -129.519 	 
C 	 31.5947 	 -31.2591 	 -130.881 	 
H 	 31.67 	 -32.8303 	 -127.882 	 
C 	 31.5585 	 -30.0242 	 -128.625 	 
H 	 30.7429 	 -30.2291 	 -127.92 	 
H 	 31.2083 	 -29.091 	 -129.011 	 
C 	 32.7477 	 -29.7293 	 -127.789 	 
H 	 33.3446 	 -29.0112 	 -128.282 	 
H 	 33.4102 	 -30.637 	 -127.753 	 
C 	 32.3838 	 -29.3621 	 -126.401 	 
H 	 33.3013 	 -29.289 	 -125.864 	 
H 	 31.7457 	 -30.1425 	 -125.983 	 
H 	 32.0349 	 -28.3407 	 -126.191 	 
H 	 30.5582 	 -27.8383 	 -134.479 	 
H 	 31.9875 	 -34.6071 	 -129.754 	 
*
