! wB97X-D3 SP def2-SVP
%pal
nprocs 24
end

* xyz 0 1
S 	 -143.389 	 6.90085 	 11.2002 	 
C 	 -144.563 	 7.72379 	 10.1782 	 
C 	 -145.881 	 7.64555 	 10.5638 	 
C 	 -145.938 	 6.92317 	 11.7964 	 
C 	 -144.706 	 6.41916 	 12.2753 	 
H 	 -146.796 	 6.93777 	 12.4723 	 
C 	 -147.163 	 8.24507 	 9.91659 	 
H 	 -146.721 	 9.15006 	 9.45583 	 
H 	 -147.803 	 8.57815 	 10.7668 	 
C 	 -147.858 	 7.27064 	 8.91004 	 
H 	 -147.292 	 7.11244 	 8.02783 	 
H 	 -147.982 	 6.30906 	 9.38658 	 
C 	 -149.211 	 7.81476 	 8.37231 	 
H 	 -149.884 	 7.87006 	 9.23839 	 
H 	 -149.153 	 8.82317 	 7.82713 	 
H 	 -149.437 	 7.01088 	 7.70632 	 
S 	 -144.845 	 3.92284 	 13.4294 	 
C 	 -144.367 	 3.68292 	 15.0716 	 
C 	 -143.786 	 4.7963 	 15.5884 	 
C 	 -143.953 	 5.95042 	 14.7365 	 
C 	 -144.479 	 5.63254 	 13.4791 	 
H 	 -143.302 	 4.88732 	 16.5662 	 
C 	 -143.395 	 7.1891 	 15.1858 	 
H 	 -142.903 	 7.63776 	 14.3447 	 
H 	 -142.701 	 6.87716 	 15.9941 	 
C 	 -144.453 	 8.23164 	 15.7013 	 
H 	 -145.141 	 7.75233 	 16.467 	 
H 	 -145.185 	 8.4747 	 14.8765 	 
C 	 -143.826 	 9.59372 	 16.1759 	 
H 	 -143.344 	 10.0012 	 15.2532 	 
H 	 -143.144 	 9.44748 	 17.0242 	 
H 	 -144.625 	 10.354 	 16.4842 	 
H 	 -144.339 	 8.25107 	 9.25746 	 
H 	 -144.229 	 2.65859 	 15.4495 	 
*
