! wB97X-D3 SP def2-SVP
%pal
nprocs 24
end

* xyz 0 1
S 	 -133.814 	 67.7503 	 -62.6229 	 
C 	 -135.493 	 68.03 	 -62.8503 	 
C 	 -136.129 	 67.6889 	 -61.6666 	 
C 	 -135.253 	 67.2523 	 -60.6044 	 
C 	 -133.911 	 67.3047 	 -60.9454 	 
H 	 -135.505 	 66.8902 	 -59.6398 	 
C 	 -137.631 	 67.6828 	 -61.5482 	 
H 	 -138.004 	 66.8249 	 -61.0262 	 
H 	 -138.046 	 67.5231 	 -62.5169 	 
C 	 -138.205 	 68.8694 	 -60.7288 	 
H 	 -138.14 	 69.8496 	 -61.3026 	 
H 	 -139.289 	 68.8126 	 -60.5713 	 
C 	 -137.622 	 68.9728 	 -59.3217 	 
H 	 -138.216 	 69.6815 	 -58.6631 	 
H 	 -137.528 	 67.9213 	 -58.8857 	 
H 	 -136.593 	 69.2876 	 -59.2966 	 
S 	 -131.668 	 65.9015 	 -61.1831 	 
C 	 -130.737 	 65.4576 	 -59.7748 	 
C 	 -131.124 	 66.0855 	 -58.6497 	 
C 	 -132.373 	 66.7945 	 -58.8684 	 
C 	 -132.801 	 66.7444 	 -60.2116 	 
H 	 -130.62 	 66.0319 	 -57.6524 	 
C 	 -133.083 	 67.5833 	 -57.788 	 
H 	 -134.006 	 67.9398 	 -58.2246 	 
H 	 -132.491 	 68.4668 	 -57.4668 	 
C 	 -133.351 	 66.7339 	 -56.5254 	 
H 	 -134.005 	 67.2845 	 -55.8412 	 
H 	 -132.392 	 66.5278 	 -55.9472 	 
C 	 -134.093 	 65.4497 	 -56.6618 	 
H 	 -134.974 	 65.5892 	 -57.3374 	 
H 	 -134.391 	 65.0392 	 -55.7752 	 
H 	 -133.464 	 64.7817 	 -57.2343 	 
H 	 -136.04 	 68.3259 	 -63.758 	 
H 	 -129.809 	 64.8491 	 -59.8887 	 
*
