! wB97X-D3 SP def2-SVP
%pal
nprocs 24
end

* xyz 0 1
S 	 -34.22 	 -5.07414 	 7.46523 	 
C 	 -33.6974 	 -3.71304 	 8.4243 	 
C 	 -33.9797 	 -3.87638 	 9.74268 	 
C 	 -34.5976 	 -5.16104 	 9.98701 	 
C 	 -34.7989 	 -5.97042 	 8.90633 	 
H 	 -34.8669 	 -5.59644 	 11.0163 	 
C 	 -33.6293 	 -2.84015 	 10.8405 	 
H 	 -34.5069 	 -2.90801 	 11.502 	 
H 	 -33.5738 	 -1.89445 	 10.2886 	 
C 	 -32.3101 	 -3.00372 	 11.6243 	 
H 	 -32.2804 	 -3.95329 	 12.075 	 
H 	 -31.4891 	 -2.95907 	 10.8526 	 
C 	 -32.2494 	 -1.84849 	 12.5861 	 
H 	 -32.0999 	 -0.865409 	 12.1947 	 
H 	 -33.0408 	 -1.69746 	 13.3624 	 
H 	 -31.3771 	 -1.97546 	 13.1284 	 
S 	 -34.4748 	 -8.58576 	 9.31544 	 
C 	 -35.7299 	 -9.75845 	 9.02843 	 
C 	 -36.8889 	 -9.1562 	 8.58159 	 
C 	 -36.6989 	 -7.71031 	 8.44004 	 
C 	 -35.4756 	 -7.23448 	 8.85864 	 
H 	 -37.7859 	 -9.75785 	 8.30466 	 
C 	 -37.8379 	 -6.85412 	 7.85715 	 
H 	 -37.924 	 -7.16647 	 6.79477 	 
H 	 -37.4796 	 -5.92161 	 7.96108 	 
C 	 -39.1885 	 -6.99996 	 8.50324 	 
H 	 -39.1476 	 -6.93268 	 9.60121 	 
H 	 -39.6708 	 -7.87907 	 8.31238 	 
C 	 -40.149 	 -5.91832 	 8.00829 	 
H 	 -41.1904 	 -5.89805 	 8.46211 	 
H 	 -40.239 	 -5.93245 	 6.93988 	 
H 	 -39.7923 	 -4.85655 	 8.10886 	 
H 	 -33.1785 	 -2.86501 	 7.9923 	 
H 	 -35.5735 	 -10.8088 	 9.08984 	 
*
