! wB97X-D3 SP def2-SVP
%pal
nprocs 24
end

* xyz 0 1
S 	 -144.304 	 30.0574 	 -13.073 	 
C 	 -144.108 	 29.5918 	 -14.7431 	 
C 	 -145.361 	 29.3999 	 -15.3069 	 
C 	 -146.494 	 29.7041 	 -14.3935 	 
C 	 -146.037 	 30.0897 	 -13.1375 	 
H 	 -147.556 	 29.7197 	 -14.7327 	 
C 	 -145.547 	 28.988 	 -16.713 	 
H 	 -144.643 	 28.6122 	 -17.1703 	 
H 	 -145.746 	 29.8309 	 -17.3571 	 
C 	 -146.523 	 27.8316 	 -16.946 	 
H 	 -146.335 	 26.9775 	 -16.2776 	 
H 	 -147.491 	 28.1721 	 -16.6893 	 
C 	 -146.525 	 27.3556 	 -18.4713 	 
H 	 -145.553 	 27.2637 	 -18.8776 	 
H 	 -146.976 	 26.4225 	 -18.7376 	 
H 	 -147.012 	 28.1034 	 -19.1243 	 
S 	 -146.129 	 29.9171 	 -10.3627 	 
C 	 -147.299 	 30.7469 	 -9.44029 	 
C 	 -148.077 	 31.5532 	 -10.2286 	 
C 	 -147.795 	 31.4259 	 -11.6684 	 
C 	 -146.743 	 30.5441 	 -11.9195 	 
H 	 -148.782 	 32.2124 	 -9.82547 	 
C 	 -148.543 	 32.1979 	 -12.6389 	 
H 	 -149.6 	 32.2084 	 -12.2755 	 
H 	 -148.603 	 31.5666 	 -13.4929 	 
C 	 -148.019 	 33.6508 	 -12.9589 	 
H 	 -148.783 	 34.0795 	 -13.6724 	 
H 	 -147.036 	 33.6944 	 -13.4619 	 
C 	 -148.1 	 34.6196 	 -11.75 	 
H 	 -148.072 	 35.5781 	 -12.2478 	 
H 	 -147.152 	 34.5381 	 -11.2519 	 
H 	 -148.957 	 34.4124 	 -11.1059 	 
H 	 -143.218 	 29.6132 	 -15.3287 	 
H 	 -147.487 	 30.4985 	 -8.41804 	 
*
