! wB97X-D3 SP def2-SVP
%pal
nprocs 24
end

* xyz 0 1
S 	 -104.311 	 35.8222 	 -12.0206 	 
C 	 -104.698 	 36.2765 	 -13.6836 	 
C 	 -105.68 	 35.5181 	 -14.2349 	 
C 	 -106.282 	 34.5929 	 -13.2631 	 
C 	 -105.542 	 34.6236 	 -12.0433 	 
H 	 -107.199 	 33.9863 	 -13.3672 	 
C 	 -106.223 	 35.5441 	 -15.684 	 
H 	 -106.664 	 34.6355 	 -15.8832 	 
H 	 -105.541 	 35.6991 	 -16.4454 	 
C 	 -107.258 	 36.6139 	 -15.878 	 
H 	 -107.955 	 36.7336 	 -15.027 	 
H 	 -106.747 	 37.4894 	 -15.7186 	 
C 	 -108.11 	 36.4662 	 -17.1906 	 
H 	 -108.569 	 35.4734 	 -17.1353 	 
H 	 -108.904 	 37.177 	 -17.2013 	 
H 	 -107.52 	 36.4699 	 -18.0795 	 
S 	 -105.695 	 34.6064 	 -9.24003 	 
C 	 -106.345 	 33.2379 	 -8.48043 	 
C 	 -106.694 	 32.1772 	 -9.36468 	 
C 	 -106.404 	 32.5457 	 -10.7342 	 
C 	 -105.939 	 33.8803 	 -10.8652 	 
H 	 -106.837 	 31.2239 	 -8.88303 	 
C 	 -106.722 	 31.5286 	 -11.9231 	 
H 	 -106.07 	 31.9422 	 -12.7515 	 
H 	 -107.771 	 31.7274 	 -12.1328 	 
C 	 -106.617 	 29.9695 	 -11.6909 	 
H 	 -107.27 	 29.6076 	 -10.9002 	 
H 	 -105.697 	 29.8073 	 -11.2402 	 
C 	 -106.941 	 29.143 	 -12.9338 	 
H 	 -107.925 	 29.3536 	 -13.297 	 
H 	 -106.749 	 28.1012 	 -12.7612 	 
H 	 -106.306 	 29.3915 	 -13.8123 	 
H 	 -104.179 	 36.988 	 -14.3687 	 
H 	 -106.312 	 33.091 	 -7.39934 	 
*
