! wB97X-D3 SP def2-SVP
%pal
nprocs 24
end

* xyz 0 1
S 	 -98.4036 	 48.6244 	 -92.2204 	 
C 	 -97.7512 	 47.1617 	 -91.5365 	 
C 	 -96.5682 	 46.7975 	 -92.1725 	 
C 	 -96.2437 	 47.62 	 -93.2896 	 
C 	 -97.1619 	 48.6359 	 -93.5178 	 
H 	 -95.3589 	 47.422 	 -93.9194 	 
C 	 -95.7471 	 45.6083 	 -91.7523 	 
H 	 -95.9237 	 45.4908 	 -90.6791 	 
H 	 -94.7217 	 45.8584 	 -91.8622 	 
C 	 -95.9774 	 44.3974 	 -92.6856 	 
H 	 -96.9413 	 44.0862 	 -92.8086 	 
H 	 -95.7145 	 44.7364 	 -93.7059 	 
C 	 -95.0216 	 43.2655 	 -92.2685 	 
H 	 -94.0028 	 43.5986 	 -92.2073 	 
H 	 -95.3321 	 42.7503 	 -91.3602 	 
H 	 -95.0534 	 42.6125 	 -93.1769 	 
S 	 -97.4923 	 51.2687 	 -94.1282 	 
C 	 -97.5994 	 51.7641 	 -95.8091 	 
C 	 -97.3858 	 50.6698 	 -96.6261 	 
C 	 -97.0967 	 49.4512 	 -95.9224 	 
C 	 -97.2084 	 49.6315 	 -94.5574 	 
H 	 -97.3694 	 50.7514 	 -97.6879 	 
C 	 -96.8623 	 48.1603 	 -96.6561 	 
H 	 -96.0849 	 47.5583 	 -96.1649 	 
H 	 -96.6373 	 48.4453 	 -97.6994 	 
C 	 -98.0905 	 47.3105 	 -96.7823 	 
H 	 -99.0065 	 47.769 	 -97.1922 	 
H 	 -98.3164 	 47.0771 	 -95.8083 	 
C 	 -97.713 	 46.1095 	 -97.5717 	 
H 	 -98.0745 	 46.2771 	 -98.5854 	 
H 	 -98.2689 	 45.267 	 -97.2345 	 
H 	 -96.6262 	 45.8708 	 -97.6506 	 
H 	 -98.0582 	 46.6549 	 -90.6337 	 
H 	 -97.91 	 52.695 	 -96.2221 	 
*
