! wB97X-D3 SP def2-SVP
%pal
nprocs 24
end

* xyz 0 1
S 	 16.1427 	 -11.6419 	 -121.592 	 
C 	 14.4349 	 -11.7165 	 -121.934 	 
C 	 13.699 	 -12.3658 	 -120.935 	 
C 	 14.5533 	 -12.7565 	 -119.809 	 
C 	 15.8674 	 -12.3843 	 -119.968 	 
H 	 14.1435 	 -13.272 	 -118.919 	 
C 	 12.2307 	 -12.5087 	 -120.996 	 
H 	 11.9171 	 -12.1255 	 -121.929 	 
H 	 11.851 	 -11.7302 	 -120.276 	 
C 	 11.6888 	 -13.9575 	 -120.801 	 
H 	 11.6314 	 -14.516 	 -121.776 	 
H 	 12.2741 	 -14.6563 	 -120.219 	 
C 	 10.2532 	 -13.8637 	 -120.234 	 
H 	 9.50884 	 -13.4879 	 -120.96 	 
H 	 9.93964 	 -14.8913 	 -119.904 	 
H 	 10.231 	 -13.1485 	 -119.448 	 
S 	 17.8747 	 -11.4749 	 -118.408 	 
C 	 18.8343 	 -12.6125 	 -117.481 	 
C 	 18.5222 	 -13.9095 	 -117.822 	 
C 	 17.5398 	 -13.9838 	 -118.795 	 
C 	 17.0319 	 -12.7425 	 -119.177 	 
H 	 18.9114 	 -14.8369 	 -117.329 	 
C 	 16.79 	 -15.347 	 -119.124 	 
H 	 15.8244 	 -15.3842 	 -118.603 	 
H 	 17.3885 	 -16.1093 	 -118.604 	 
C 	 16.8106 	 -15.8121 	 -120.571 	 
H 	 17.7363 	 -15.6549 	 -121.087 	 
H 	 16.2384 	 -15.1816 	 -121.206 	 
C 	 16.4493 	 -17.2738 	 -120.797 	 
H 	 16.1884 	 -17.4785 	 -121.783 	 
H 	 15.6479 	 -17.6143 	 -120.219 	 
H 	 17.3153 	 -17.8046 	 -120.479 	 
H 	 14.0756 	 -11.3617 	 -122.883 	 
H 	 19.4672 	 -12.3043 	 -116.621 	 
*
