! wB97X-D3 SP def2-SVP
%pal
nprocs 24
end

* xyz 0 1
S 	 -109.769 	 59.7538 	 -13.9095 	 
C 	 -109.538 	 60.3501 	 -12.3047 	 
C 	 -108.26 	 60.081 	 -11.8203 	 
C 	 -107.48 	 59.3133 	 -12.7679 	 
C 	 -108.118 	 59.0887 	 -13.9855 	 
H 	 -106.497 	 58.9634 	 -12.5948 	 
C 	 -107.715 	 60.5126 	 -10.4639 	 
H 	 -107.412 	 59.4705 	 -10.0033 	 
H 	 -108.506 	 60.9117 	 -9.80327 	 
C 	 -106.451 	 61.394 	 -10.5219 	 
H 	 -105.637 	 60.9924 	 -11.1025 	 
H 	 -106.752 	 62.2816 	 -10.9661 	 
C 	 -105.768 	 61.671 	 -9.08865 	 
H 	 -104.957 	 62.3317 	 -9.22399 	 
H 	 -106.576 	 62.1055 	 -8.45489 	 
H 	 -105.386 	 60.8447 	 -8.54443 	 
S 	 -108.248 	 59.0474 	 -16.755 	 
C 	 -107.248 	 57.9171 	 -17.6394 	 
C 	 -106.503 	 57.1565 	 -16.7773 	 
C 	 -106.697 	 57.4872 	 -15.3922 	 
C 	 -107.623 	 58.4721 	 -15.2169 	 
H 	 -105.876 	 56.3645 	 -17.1595 	 
C 	 -106.163 	 56.5255 	 -14.3108 	 
H 	 -106.528 	 55.5504 	 -14.4752 	 
H 	 -106.47 	 56.8556 	 -13.2969 	 
C 	 -104.646 	 56.4448 	 -14.4149 	 
H 	 -104.281 	 57.3601 	 -14.9375 	 
H 	 -104.294 	 55.6677 	 -15.0645 	 
C 	 -103.923 	 56.3506 	 -13.0665 	 
H 	 -102.861 	 56.1627 	 -13.2538 	 
H 	 -104.165 	 55.4035 	 -12.5536 	 
H 	 -104.1 	 57.1545 	 -12.4164 	 
H 	 -110.26 	 60.8102 	 -11.6065 	 
H 	 -107.219 	 57.9023 	 -18.6997 	 
*
