! wB97X-D3 SP def2-SVP
%pal
nprocs 24
end

* xyz 0 1
S 	 -40.1519 	 -50.0228 	 -73.6938 	 
C 	 -40.5795 	 -49.0233 	 -75.1284 	 
C 	 -39.4467 	 -48.8596 	 -75.9522 	 
C 	 -38.3488 	 -49.6847 	 -75.4608 	 
C 	 -38.5225 	 -50.2384 	 -74.2252 	 
H 	 -37.3889 	 -49.7692 	 -75.9933 	 
C 	 -39.5271 	 -48.1053 	 -77.299 	 
H 	 -40.5454 	 -48.2093 	 -77.6745 	 
H 	 -38.9235 	 -48.7323 	 -77.9317 	 
C 	 -38.9229 	 -46.6756 	 -77.5592 	 
H 	 -37.8677 	 -46.6245 	 -77.235 	 
H 	 -38.8523 	 -46.586 	 -78.6387 	 
C 	 -39.7368 	 -45.5656 	 -76.8927 	 
H 	 -39.705 	 -45.5758 	 -75.7784 	 
H 	 -39.4011 	 -44.5686 	 -77.257 	 
H 	 -40.8081 	 -45.6655 	 -77.0003 	 
S 	 -38.2191 	 -52.4856 	 -72.7004 	 
C 	 -36.609 	 -52.8933 	 -72.2401 	 
C 	 -35.7629 	 -51.8267 	 -72.3801 	 
C 	 -36.3582 	 -50.7234 	 -73.0323 	 
C 	 -37.6162 	 -51.0266 	 -73.4001 	 
H 	 -34.7856 	 -51.9456 	 -72.0417 	 
C 	 -35.7451 	 -49.3633 	 -73.1267 	 
H 	 -35.5709 	 -49.1576 	 -72.1154 	 
H 	 -36.4065 	 -48.5513 	 -73.4295 	 
C 	 -34.4784 	 -49.2501 	 -73.9837 	 
H 	 -33.9089 	 -50.165 	 -73.8124 	 
H 	 -33.906 	 -48.3758 	 -73.6794 	 
C 	 -34.6849 	 -49.334 	 -75.4879 	 
H 	 -33.7748 	 -49.0797 	 -76.0563 	 
H 	 -35.5464 	 -48.6546 	 -75.7853 	 
H 	 -35.0196 	 -50.3219 	 -75.8033 	 
H 	 -41.5826 	 -48.5778 	 -75.1511 	 
H 	 -36.3004 	 -53.806 	 -71.8007 	 
*
