! wB97X-D3 SP def2-SVP
%pal
nprocs 24
end

* xyz 0 1
S 	 -67.067 	 16.2394 	 -75.841 	 
C 	 -65.4896 	 16.5344 	 -76.3052 	 
C 	 -64.5609 	 16.3046 	 -75.3217 	 
C 	 -65.1316 	 16.0822 	 -74.1064 	 
C 	 -66.5591 	 16.0711 	 -74.1901 	 
H 	 -64.6262 	 15.8574 	 -73.2076 	 
C 	 -63.0667 	 16.3264 	 -75.562 	 
H 	 -62.663 	 15.557 	 -76.1682 	 
H 	 -62.656 	 15.9634 	 -74.6849 	 
C 	 -62.5202 	 17.6739 	 -76.0407 	 
H 	 -61.4408 	 17.4526 	 -76.1289 	 
H 	 -62.8419 	 17.9241 	 -77.0693 	 
C 	 -62.7469 	 18.8607 	 -75.1178 	 
H 	 -63.7907 	 19.1069 	 -74.9623 	 
H 	 -62.2714 	 18.8158 	 -74.1433 	 
H 	 -62.372 	 19.8158 	 -75.5744 	 
S 	 -68.8431 	 14.8235 	 -73.3751 	 
C 	 -69.4739 	 14.8861 	 -71.7209 	 
C 	 -68.6673 	 15.7254 	 -71.0205 	 
C 	 -67.4821 	 16.2527 	 -71.7136 	 
C 	 -67.4625 	 15.8248 	 -73.0653 	 
H 	 -68.9466 	 15.9729 	 -70.0322 	 
C 	 -66.3648 	 17.1118 	 -71.0901 	 
H 	 -66.8338 	 17.8806 	 -70.3982 	 
H 	 -65.9403 	 17.6584 	 -71.9383 	 
C 	 -65.2854 	 16.2879 	 -70.3778 	 
H 	 -65.1388 	 15.3391 	 -70.9152 	 
H 	 -65.5538 	 16.0818 	 -69.3379 	 
C 	 -63.8537 	 17.0582 	 -70.2522 	 
H 	 -64.0214 	 18.0735 	 -69.9356 	 
H 	 -63.3304 	 17.0346 	 -71.2046 	 
H 	 -63.2553 	 16.5735 	 -69.4009 	 
H 	 -65.2163 	 16.7538 	 -77.3787 	 
H 	 -70.397 	 14.5919 	 -71.3595 	 
*
