! wB97X-D3 SP def2-SVP
%pal
nprocs 24
end

* xyz 0 1
S 	 -109.466 	 35.7654 	 -16.9491 	 
C 	 -109.863 	 34.8657 	 -15.4999 	 
C 	 -109.577 	 33.5387 	 -15.6327 	 
C 	 -108.968 	 33.227 	 -16.8941 	 
C 	 -108.875 	 34.3231 	 -17.7323 	 
H 	 -108.645 	 32.2918 	 -17.34 	 
C 	 -109.658 	 32.4225 	 -14.6364 	 
H 	 -110.107 	 32.7359 	 -13.6485 	 
H 	 -108.663 	 31.9773 	 -14.5669 	 
C 	 -110.568 	 31.2644 	 -15.0642 	 
H 	 -111.55 	 31.628 	 -15.3395 	 
H 	 -110.09 	 30.8509 	 -15.9537 	 
C 	 -110.809 	 30.057 	 -14.071 	 
H 	 -111.242 	 29.2234 	 -14.6322 	 
H 	 -109.798 	 29.8316 	 -13.6923 	 
H 	 -111.614 	 30.2717 	 -13.3053 	 
S 	 -107.231 	 35.5375 	 -19.5435 	 
C 	 -107.163 	 34.8841 	 -21.2381 	 
C 	 -107.953 	 33.7921 	 -21.3681 	 
C 	 -108.592 	 33.448 	 -20.1702 	 
C 	 -108.348 	 34.2797 	 -19.0895 	 
H 	 -108.066 	 33.4128 	 -22.3756 	 
C 	 -109.574 	 32.27 	 -20.1586 	 
H 	 -110.366 	 32.5202 	 -20.8518 	 
H 	 -110.082 	 32.2525 	 -19.1635 	 
C 	 -109.106 	 30.8853 	 -20.5799 	 
H 	 -108.147 	 30.5308 	 -20.0439 	 
H 	 -109.004 	 30.8786 	 -21.6964 	 
C 	 -110.173 	 29.7905 	 -20.4948 	 
H 	 -110.422 	 29.6312 	 -19.4753 	 
H 	 -109.712 	 28.8219 	 -20.7788 	 
H 	 -110.972 	 30.0231 	 -21.2113 	 
H 	 -110.282 	 35.3462 	 -14.6314 	 
H 	 -106.787 	 35.4444 	 -22.0762 	 
*
