! wB97X-D3 SP def2-SVP
%pal
nprocs 24
end

* xyz 0 1
S 	 -37.8595 	 -3.67699 	 10.719 	 
C 	 -38.0219 	 -2.61285 	 12.1837 	 
C 	 -38.4225 	 -3.28537 	 13.3403 	 
C 	 -38.4955 	 -4.71196 	 13.0451 	 
C 	 -38.3318 	 -5.06509 	 11.7082 	 
H 	 -38.5546 	 -5.49254 	 13.8055 	 
C 	 -38.5376 	 -2.69053 	 14.8152 	 
H 	 -39.5825 	 -2.91895 	 15.143 	 
H 	 -38.4732 	 -1.58251 	 14.7132 	 
C 	 -37.5282 	 -3.26567 	 15.8095 	 
H 	 -37.7904 	 -2.74326 	 16.7106 	 
H 	 -37.6888 	 -4.37559 	 15.9894 	 
C 	 -36.1258 	 -2.80429 	 15.361 	 
H 	 -35.8535 	 -3.1384 	 14.3549 	 
H 	 -36.1842 	 -1.70198 	 15.266 	 
H 	 -35.3056 	 -3.1645 	 16.0156 	 
S 	 -36.8791 	 -7.27357 	 10.9353 	 
C 	 -37.62 	 -8.81184 	 10.5441 	 
C 	 -38.9657 	 -8.69063 	 10.669 	 
C 	 -39.3786 	 -7.35626 	 11.031 	 
C 	 -38.3239 	 -6.47156 	 11.1503 	 
H 	 -39.5924 	 -9.52915 	 10.5579 	 
C 	 -40.8093 	 -6.94051 	 11.2192 	 
H 	 -41.0322 	 -5.95237 	 11.6547 	 
H 	 -41.1639 	 -7.53486 	 12.0998 	 
C 	 -41.7899 	 -7.07104 	 9.98801 	 
H 	 -41.7363 	 -8.1311 	 9.69683 	 
H 	 -41.425 	 -6.42677 	 9.17366 	 
C 	 -43.2744 	 -6.81758 	 10.4495 	 
H 	 -43.5101 	 -7.25932 	 11.3908 	 
H 	 -43.9723 	 -7.24788 	 9.72823 	 
H 	 -43.5172 	 -5.7509 	 10.4532 	 
H 	 -37.9007 	 -1.55212 	 12.2072 	 
H 	 -37.078 	 -9.78289 	 10.4615 	 
*
