! wB97X-D3 SP def2-SVP
%pal
nprocs 24
end

* xyz 0 1
S 	 -66.7169 	 12.0152 	 -73.1506 	 
C 	 -66.9283 	 11.0496 	 -71.6566 	 
C 	 -66.2838 	 11.5832 	 -70.5518 	 
C 	 -65.71 	 12.8644 	 -70.867 	 
C 	 -65.9832 	 13.303 	 -72.1614 	 
H 	 -65.0083 	 13.3797 	 -70.249 	 
C 	 -66.078 	 10.8658 	 -69.2091 	 
H 	 -65.2449 	 10.2133 	 -69.4751 	 
H 	 -66.8894 	 10.165 	 -69.0646 	 
C 	 -65.6676 	 11.6205 	 -67.9641 	 
H 	 -65.3089 	 10.9647 	 -67.2336 	 
H 	 -64.8094 	 12.187 	 -68.2567 	 
C 	 -66.7677 	 12.5334 	 -67.3635 	 
H 	 -67.0674 	 13.3006 	 -68.0953 	 
H 	 -67.6936 	 11.9096 	 -67.1945 	 
H 	 -66.5263 	 12.9141 	 -66.4137 	 
S 	 -63.8132 	 13.9342 	 -73.7187 	 
C 	 -63.6466 	 15.6051 	 -74.2103 	 
C 	 -64.6502 	 16.4094 	 -73.6775 	 
C 	 -65.6304 	 15.6987 	 -72.9466 	 
C 	 -65.2864 	 14.3645 	 -72.8467 	 
H 	 -64.6489 	 17.4786 	 -73.7535 	 
C 	 -66.8505 	 16.3631 	 -72.3339 	 
H 	 -66.5416 	 17.2459 	 -71.8248 	 
H 	 -67.258 	 15.7345 	 -71.5497 	 
C 	 -68.0835 	 16.6491 	 -73.1987 	 
H 	 -68.0595 	 15.7342 	 -73.8248 	 
H 	 -68.0403 	 17.4789 	 -73.9076 	 
C 	 -69.4529 	 16.8366 	 -72.5006 	 
H 	 -69.7661 	 15.9381 	 -71.9445 	 
H 	 -70.2606 	 16.9455 	 -73.193 	 
H 	 -69.4251 	 17.6412 	 -71.761 	 
H 	 -67.4015 	 10.0374 	 -71.646 	 
H 	 -62.8051 	 15.9583 	 -74.8203 	 
*
