! wB97X-D3 SP def2-SVP
%pal
nprocs 24
end

* xyz 0 1
S 	 -109.871 	 30.5836 	 -17.445 	 
C 	 -110.168 	 28.9038 	 -17.5643 	 
C 	 -109.083 	 28.1508 	 -18.0809 	 
C 	 -107.972 	 29.0177 	 -18.3279 	 
C 	 -108.229 	 30.3648 	 -18.1285 	 
H 	 -107.006 	 28.6934 	 -18.6948 	 
C 	 -109.107 	 26.6532 	 -18.2764 	 
H 	 -110.002 	 26.1853 	 -17.719 	 
H 	 -108.176 	 26.1877 	 -17.8215 	 
C 	 -109.183 	 26.2601 	 -19.7625 	 
H 	 -110.135 	 26.607 	 -20.1165 	 
H 	 -108.426 	 26.7319 	 -20.4054 	 
C 	 -109.133 	 24.7639 	 -19.9036 	 
H 	 -109.958 	 24.3758 	 -19.2611 	 
H 	 -109.279 	 24.4511 	 -20.9565 	 
H 	 -108.146 	 24.4631 	 -19.6397 	 
S 	 -107.135 	 32.7263 	 -17.0917 	 
C 	 -105.903 	 33.5057 	 -18.0624 	 
C 	 -105.814 	 32.9499 	 -19.3119 	 
C 	 -106.51 	 31.7067 	 -19.4728 	 
C 	 -107.242 	 31.4399 	 -18.3247 	 
H 	 -105.244 	 33.5162 	 -20.0294 	 
C 	 -106.43 	 30.8303 	 -20.798 	 
H 	 -107.213 	 31.1732 	 -21.3406 	 
H 	 -106.688 	 29.7757 	 -20.6157 	 
C 	 -105.11 	 31.0062 	 -21.4984 	 
H 	 -104.363 	 30.6427 	 -20.8086 	 
H 	 -104.943 	 32.0856 	 -21.8227 	 
C 	 -104.968 	 29.9537 	 -22.6447 	 
H 	 -105.764 	 30.1662 	 -23.3692 	 
H 	 -105.046 	 28.8897 	 -22.416 	 
H 	 -104.046 	 30.0997 	 -23.2504 	 
H 	 -111.223 	 28.5888 	 -17.3647 	 
H 	 -105.249 	 34.3406 	 -17.8888 	 
*
