! wB97X-D3 SP def2-SVP
%pal
nprocs 24
end

* xyz 0 1
S 	 -101.65 	 -4.71371 	 -103.427 	 
C 	 -100.907 	 -3.82335 	 -104.642 	 
C 	 -101.787 	 -2.98908 	 -105.364 	 
C 	 -103.087 	 -3.12126 	 -104.797 	 
C 	 -103.168 	 -3.97667 	 -103.712 	 
H 	 -104 	 -2.5811 	 -105.116 	 
C 	 -101.449 	 -2.09601 	 -106.562 	 
H 	 -100.827 	 -1.33363 	 -106.148 	 
H 	 -102.324 	 -1.61042 	 -106.891 	 
C 	 -100.788 	 -2.8498 	 -107.763 	 
H 	 -99.7641 	 -3.22223 	 -107.571 	 
H 	 -101.376 	 -3.77474 	 -107.871 	 
C 	 -100.944 	 -1.9525 	 -108.987 	 
H 	 -101.939 	 -1.45605 	 -108.957 	 
H 	 -100.251 	 -1.13952 	 -109.152 	 
H 	 -100.928 	 -2.64253 	 -109.835 	 
S 	 -104.192 	 -3.76508 	 -101.168 	 
C 	 -105.922 	 -4.09566 	 -100.876 	 
C 	 -106.559 	 -4.48059 	 -102.039 	 
C 	 -105.684 	 -4.47077 	 -103.179 	 
C 	 -104.397 	 -4.13897 	 -102.879 	 
H 	 -107.608 	 -4.62682 	 -102.012 	 
C 	 -106.241 	 -4.44155 	 -104.621 	 
H 	 -106.855 	 -5.34999 	 -104.82 	 
H 	 -105.279 	 -4.50881 	 -105.199 	 
C 	 -107.186 	 -3.29282 	 -104.99 	 
H 	 -106.728 	 -2.32468 	 -104.668 	 
H 	 -107.991 	 -3.39699 	 -104.223 	 
C 	 -107.488 	 -3.21471 	 -106.481 	 
H 	 -108.081 	 -2.38948 	 -106.703 	 
H 	 -108.001 	 -4.09834 	 -106.855 	 
H 	 -106.556 	 -3.0228 	 -106.941 	 
H 	 -99.8427 	 -4.06679 	 -104.952 	 
H 	 -106.405 	 -3.74353 	 -99.9276 	 
*
