! wB97X-D3 SP def2-SVP
%pal
nprocs 24
end

* xyz 0 1
S 	 -40.3915 	 -6.81859 	 4.29593 	 
C 	 -40.7614 	 -8.39679 	 4.99092 	 
C 	 -41.4348 	 -8.2313 	 6.20384 	 
C 	 -41.4692 	 -6.8891 	 6.65548 	 
C 	 -40.7352 	 -6.05333 	 5.81238 	 
H 	 -42.0699 	 -6.55058 	 7.50166 	 
C 	 -42.1436 	 -9.35023 	 6.89488 	 
H 	 -42.3341 	 -10.0771 	 6.03827 	 
H 	 -43.1028 	 -8.98578 	 7.2056 	 
C 	 -41.5313 	 -9.88954 	 8.21224 	 
H 	 -42.065 	 -10.8275 	 8.53617 	 
H 	 -40.5071 	 -10.0876 	 7.95436 	 
C 	 -41.4278 	 -9.03627 	 9.51997 	 
H 	 -42.3037 	 -8.89805 	 10.1441 	 
H 	 -40.8488 	 -9.47088 	 10.2837 	 
H 	 -41.0012 	 -8.04726 	 9.33955 	 
S 	 -40.8839 	 -3.55039 	 4.73319 	 
C 	 -40.6235 	 -2.25083 	 5.79192 	 
C 	 -40.094 	 -2.62828 	 7.05731 	 
C 	 -40.2052 	 -4.02815 	 7.21238 	 
C 	 -40.6327 	 -4.63061 	 6.05102 	 
H 	 -39.9232 	 -1.91645 	 7.81962 	 
C 	 -39.8361 	 -4.66659 	 8.58031 	 
H 	 -38.8249 	 -4.37072 	 8.91283 	 
H 	 -39.8501 	 -5.69588 	 8.45536 	 
C 	 -40.7998 	 -4.4771 	 9.72258 	 
H 	 -41.7705 	 -4.79928 	 9.4376 	 
H 	 -40.8977 	 -3.38551 	 9.79936 	 
C 	 -40.5643 	 -4.94488 	 11.1404 	 
H 	 -41.4168 	 -4.60055 	 11.7641 	 
H 	 -39.6073 	 -4.57851 	 11.6439 	 
H 	 -40.3698 	 -5.99005 	 11.2269 	 
H 	 -40.6622 	 -9.31279 	 4.43126 	 
H 	 -40.7042 	 -1.29349 	 5.36325 	 
*
