! wB97X-D3 SP def2-SVP
%pal
nprocs 24
end

* xyz 0 1
S 	 -81.7495 	 -16.1155 	 -54.7098 	 
C 	 -83.3787 	 -15.3733 	 -54.4629 	 
C 	 -84.1577 	 -15.665 	 -55.6005 	 
C 	 -83.5441 	 -16.598 	 -56.4688 	 
C 	 -82.2584 	 -17.0093 	 -56.1288 	 
H 	 -84.0062 	 -16.8254 	 -57.4139 	 
C 	 -85.5306 	 -15.0435 	 -55.8445 	 
H 	 -85.8097 	 -15.5024 	 -56.8361 	 
H 	 -85.6033 	 -14.0225 	 -56.1165 	 
C 	 -86.5513 	 -15.2772 	 -54.7031 	 
H 	 -86.3304 	 -16.3443 	 -54.4102 	 
H 	 -86.257 	 -14.7071 	 -53.8193 	 
C 	 -87.9347 	 -14.9196 	 -55.2421 	 
H 	 -88.3404 	 -15.5388 	 -56.0924 	 
H 	 -88.64 	 -14.9898 	 -54.43 	 
H 	 -87.9347 	 -13.8363 	 -55.532 	 
S 	 -79.7147 	 -17.6822 	 -56.9609 	 
C 	 -79.468 	 -18.8229 	 -58.2756 	 
C 	 -80.6286 	 -19.5682 	 -58.4027 	 
C 	 -81.7711 	 -19.1106 	 -57.6101 	 
C 	 -81.4344 	 -18.0039 	 -56.8679 	 
H 	 -80.7292 	 -20.4168 	 -59.1203 	 
C 	 -83.1495 	 -19.7006 	 -57.8375 	 
H 	 -83.6576 	 -19.2128 	 -58.6274 	 
H 	 -83.7537 	 -19.4211 	 -57.0058 	 
C 	 -83.2547 	 -21.2271 	 -58.0019 	 
H 	 -82.8743 	 -21.4872 	 -58.998 	 
H 	 -84.2969 	 -21.5037 	 -58.0206 	 
C 	 -82.6368 	 -21.9838 	 -56.876 	 
H 	 -81.5033 	 -22.1215 	 -56.949 	 
H 	 -83.0711 	 -23.0138 	 -56.9257 	 
H 	 -83.0385 	 -21.5813 	 -55.9778 	 
H 	 -83.6505 	 -14.7371 	 -53.6587 	 
H 	 -78.4539 	 -19.1827 	 -58.6074 	 
*
