! wB97X-D3 SP def2-SVP
%pal
nprocs 24
end

* xyz 0 1
S 	 -116.545 	 36.3261 	 -116.958 	 
C 	 -114.925 	 36.3543 	 -117.651 	 
C 	 -113.99 	 36.4742 	 -116.647 	 
C 	 -114.552 	 36.6269 	 -115.332 	 
C 	 -115.936 	 36.4383 	 -115.297 	 
H 	 -114.023 	 36.743 	 -114.432 	 
C 	 -112.563 	 36.7539 	 -116.894 	 
H 	 -112.37 	 36.7059 	 -117.919 	 
H 	 -111.956 	 35.9538 	 -116.46 	 
C 	 -112.043 	 38.0924 	 -116.447 	 
H 	 -112.562 	 38.8511 	 -117.031 	 
H 	 -112.312 	 38.2597 	 -115.397 	 
C 	 -110.499 	 38.2893 	 -116.411 	 
H 	 -109.862 	 37.4253 	 -116.041 	 
H 	 -110.038 	 38.4139 	 -117.41 	 
H 	 -110.167 	 39.1951 	 -115.827 	 
S 	 -118.07 	 37.7316 	 -114.181 	 
C 	 -118.459 	 37.3919 	 -112.471 	 
C 	 -117.703 	 36.3707 	 -111.933 	 
C 	 -116.768 	 35.8587 	 -112.87 	 
C 	 -116.839 	 36.4837 	 -114.148 	 
H 	 -117.767 	 36.1859 	 -110.905 	 
C 	 -115.754 	 34.8101 	 -112.47 	 
H 	 -115.039 	 34.5549 	 -113.203 	 
H 	 -116.265 	 33.8532 	 -112.326 	 
C 	 -114.992 	 35.1463 	 -111.167 	 
H 	 -115.76 	 35.5366 	 -110.621 	 
H 	 -114.386 	 36.0109 	 -111.398 	 
C 	 -114.115 	 34.0841 	 -110.537 	 
H 	 -113.721 	 34.468 	 -109.561 	 
H 	 -113.188 	 33.8442 	 -111.031 	 
H 	 -114.576 	 33.112 	 -110.224 	 
H 	 -114.812 	 36.1499 	 -118.697 	 
H 	 -119.218 	 37.8304 	 -111.887 	 
*
