! wB97X-D3 SP def2-SVP
%pal
nprocs 24
end

* xyz 0 1
S 	 -77.0353 	 -0.558248 	 -61.201 	 
C 	 -76.2019 	 0.852545 	 -61.8493 	 
C 	 -76.7499 	 1.36778 	 -62.9987 	 
C 	 -77.8269 	 0.517146 	 -63.4065 	 
C 	 -78.2417 	 -0.446975 	 -62.5032 	 
H 	 -78.4377 	 0.622157 	 -64.233 	 
C 	 -76.4349 	 2.58815 	 -63.7194 	 
H 	 -76.3187 	 2.3621 	 -64.8324 	 
H 	 -75.5152 	 3.09993 	 -63.4222 	 
C 	 -77.5387 	 3.65848 	 -63.608 	 
H 	 -78.4907 	 3.12578 	 -63.42 	 
H 	 -77.3801 	 4.32072 	 -62.7205 	 
C 	 -77.6348 	 4.7437 	 -64.7011 	 
H 	 -77.687 	 4.32396 	 -65.7098 	 
H 	 -78.4627 	 5.36897 	 -64.5898 	 
H 	 -76.7911 	 5.43802 	 -64.6191 	 
S 	 -79.5417 	 -2.8451 	 -62.1827 	 
C 	 -81.2037 	 -2.96183 	 -62.3348 	 
C 	 -81.7714 	 -1.67698 	 -62.4567 	 
C 	 -80.8084 	 -0.609347 	 -62.5873 	 
C 	 -79.5371 	 -1.14692 	 -62.4209 	 
H 	 -82.8203 	 -1.58986 	 -62.6152 	 
C 	 -81.1942 	 0.790958 	 -62.9775 	 
H 	 -80.2498 	 1.29594 	 -63.2125 	 
H 	 -81.6244 	 1.3896 	 -62.1132 	 
C 	 -82.1854 	 0.87606 	 -64.1824 	 
H 	 -82.1964 	 1.9259 	 -64.4714 	 
H 	 -83.1279 	 0.455642 	 -63.8983 	 
C 	 -81.8213 	 0.103217 	 -65.5155 	 
H 	 -81.8332 	 -0.944973 	 -65.4055 	 
H 	 -80.7911 	 0.297066 	 -65.9306 	 
H 	 -82.5431 	 0.356567 	 -66.2795 	 
H 	 -75.3768 	 1.19911 	 -61.2986 	 
H 	 -81.7211 	 -3.94355 	 -62.3949 	 
*
