! wB97X-D3 SP def2-SVP
%pal
nprocs 24
end

* xyz 0 1
S 	 -117.789 	 16.9028 	 -113.062 	 
C 	 -119.45 	 17.2533 	 -113.485 	 
C 	 -119.73 	 16.9641 	 -114.779 	 
C 	 -118.623 	 16.489 	 -115.537 	 
C 	 -117.457 	 16.39 	 -114.781 	 
H 	 -118.527 	 16.0641 	 -116.487 	 
C 	 -121.1 	 16.9852 	 -115.377 	 
H 	 -121.875 	 17.0737 	 -114.597 	 
H 	 -121.279 	 16.0664 	 -115.9 	 
C 	 -121.246 	 18.166 	 -116.415 	 
H 	 -122.273 	 18.5187 	 -116.375 	 
H 	 -120.693 	 19.0781 	 -115.976 	 
C 	 -120.726 	 17.8385 	 -117.8 	 
H 	 -119.671 	 17.9632 	 -117.722 	 
H 	 -121.02 	 16.8091 	 -118.067 	 
H 	 -121.2 	 18.4532 	 -118.567 	 
S 	 -115.747 	 14.2348 	 -114.394 	 
C 	 -114.137 	 14.3303 	 -115.023 	 
C 	 -114.08 	 15.2987 	 -116.052 	 
C 	 -115.169 	 16.1997 	 -115.987 	 
C 	 -116.156 	 15.7754 	 -115.13 	 
H 	 -113.168 	 15.495 	 -116.634 	 
C 	 -115.313 	 17.3873 	 -116.905 	 
H 	 -114.408 	 18.0016 	 -117.022 	 
H 	 -115.99 	 18.0704 	 -116.328 	 
C 	 -115.885 	 17.1055 	 -118.3 	 
H 	 -116.738 	 16.4255 	 -118.271 	 
H 	 -115.139 	 16.4447 	 -118.716 	 
C 	 -116.354 	 18.2883 	 -119.135 	 
H 	 -115.551 	 19.0781 	 -119.348 	 
H 	 -117.183 	 18.7926 	 -118.599 	 
H 	 -116.721 	 17.9306 	 -120.073 	 
H 	 -120.196 	 17.5462 	 -112.83 	 
H 	 -113.417 	 13.4937 	 -114.874 	 
*
