! wB97X-D3 SP def2-SVP
%pal
nprocs 24
end

* xyz 0 1
S 	 -71.2929 	 0.360484 	 13.0909 	 
C 	 -72.2413 	 1.6961 	 12.5878 	 
C 	 -73.2818 	 1.97539 	 13.4384 	 
C 	 -73.1492 	 1.22074 	 14.6632 	 
C 	 -72.1198 	 0.253325 	 14.6537 	 
H 	 -73.6954 	 1.2034 	 15.5811 	 
C 	 -74.325 	 3.05837 	 13.2001 	 
H 	 -74.9178 	 3.13144 	 14.1212 	 
H 	 -75.0527 	 2.65398 	 12.519 	 
C 	 -73.7513 	 4.3909 	 12.6381 	 
H 	 -74.0107 	 5.15597 	 13.389 	 
H 	 -72.6774 	 4.37747 	 12.6271 	 
C 	 -74.3343 	 4.81911 	 11.2464 	 
H 	 -74.2546 	 3.9021 	 10.6569 	 
H 	 -75.4003 	 5.07805 	 11.3308 	 
H 	 -73.8001 	 5.69529 	 10.8921 	 
S 	 -72.0821 	 -2.52842 	 14.9914 	 
C 	 -71.6488 	 -3.11425 	 16.5868 	 
C 	 -71.4041 	 -2.13631 	 17.5151 	 
C 	 -71.6031 	 -0.807897 	 16.964 	 
C 	 -71.8713 	 -0.840868 	 15.5728 	 
H 	 -71.0711 	 -2.29282 	 18.5171 	 
C 	 -71.4634 	 0.487338 	 17.7281 	 
H 	 -71.542 	 0.38069 	 18.808 	 
H 	 -72.2828 	 1.2377 	 17.489 	 
C 	 -70.0789 	 1.16282 	 17.4758 	 
H 	 -69.9011 	 1.00355 	 16.4399 	 
H 	 -69.1956 	 0.751295 	 18.0015 	 
C 	 -70.1285 	 2.74805 	 17.8093 	 
H 	 -70.4015 	 2.93729 	 18.8938 	 
H 	 -70.7856 	 3.39105 	 17.2229 	 
H 	 -69.1718 	 3.10647 	 17.7275 	 
H 	 -72.2572 	 2.18572 	 11.5644 	 
H 	 -71.4628 	 -4.09587 	 16.8454 	 
*
