! wB97X-D3 SP def2-SVP
%pal
nprocs 24
end

* xyz 0 1
S 	 -50.3882 	 13.3138 	 -103.299 	 
C 	 -50.612 	 11.6729 	 -103.202 	 
C 	 -51.9073 	 11.3716 	 -103.557 	 
C 	 -52.5533 	 12.454 	 -104.21 	 
C 	 -51.8634 	 13.6659 	 -104.171 	 
H 	 -53.4511 	 12.4295 	 -104.789 	 
C 	 -52.5715 	 10.0221 	 -103.478 	 
H 	 -51.8319 	 9.36592 	 -103.008 	 
H 	 -52.5909 	 9.79841 	 -104.55 	 
C 	 -53.9195 	 9.85186 	 -102.664 	 
H 	 -54.6886 	 10.4609 	 -103.059 	 
H 	 -54.2061 	 8.80287 	 -102.684 	 
C 	 -53.7763 	 10.0297 	 -101.106 	 
H 	 -53.892 	 11.1077 	 -100.854 	 
H 	 -54.697 	 9.67575 	 -100.595 	 
H 	 -52.8987 	 9.67795 	 -100.682 	 
S 	 -53.4684 	 15.7396 	 -104.644 	 
C 	 -53.0271 	 17.0031 	 -105.75 	 
C 	 -51.8378 	 16.756 	 -106.37 	 
C 	 -51.3098 	 15.4951 	 -106.028 	 
C 	 -52.1081 	 14.8201 	 -105.067 	 
H 	 -51.3724 	 17.5145 	 -107.032 	 
C 	 -49.902 	 15.1677 	 -106.535 	 
H 	 -49.3727 	 14.5727 	 -105.828 	 
H 	 -49.4333 	 16.1339 	 -106.889 	 
C 	 -49.8834 	 14.3904 	 -107.785 	 
H 	 -50.3273 	 15.0357 	 -108.484 	 
H 	 -50.4956 	 13.4986 	 -107.805 	 
C 	 -48.4321 	 14.1187 	 -108.196 	 
H 	 -48.3227 	 13.5971 	 -109.118 	 
H 	 -48.0094 	 13.4618 	 -107.373 	 
H 	 -47.915 	 15.1244 	 -108.199 	 
H 	 -49.9789 	 11.0009 	 -102.705 	 
H 	 -53.4639 	 17.9685 	 -105.747 	 
*
