! wB97X-D3 SP def2-SVP
%pal
nprocs 24
end

* xyz 0 1
S 	 -147.879 	 18.5422 	 -4.75047 	 
C 	 -147.136 	 17.9606 	 -6.17967 	 
C 	 -146.958 	 16.5978 	 -6.20161 	 
C 	 -147.148 	 16.0261 	 -4.88787 	 
C 	 -147.702 	 16.9243 	 -3.9672 	 
H 	 -147.183 	 14.9695 	 -4.70437 	 
C 	 -146.428 	 15.8608 	 -7.36609 	 
H 	 -146.834 	 16.0895 	 -8.31971 	 
H 	 -146.701 	 14.865 	 -7.17467 	 
C 	 -144.869 	 15.8232 	 -7.36117 	 
H 	 -144.461 	 15.4343 	 -8.3623 	 
H 	 -144.513 	 16.8624 	 -7.23614 	 
C 	 -144.368 	 14.9641 	 -6.14021 	 
H 	 -144.41 	 13.8795 	 -6.34907 	 
H 	 -143.383 	 15.2594 	 -6.09426 	 
H 	 -144.898 	 15.1345 	 -5.19784 	 
S 	 -148.465 	 18.2326 	 -1.5734 	 
C 	 -148.942 	 17.224 	 -0.244366 	 
C 	 -148.73 	 15.8811 	 -0.475377 	 
C 	 -148.305 	 15.6204 	 -1.82075 	 
C 	 -148.144 	 16.7366 	 -2.58139 	 
H 	 -148.989 	 15.1534 	 0.307906 	 
C 	 -147.925 	 14.1691 	 -2.2678 	 
H 	 -148.582 	 13.9741 	 -3.11988 	 
H 	 -148.295 	 13.4321 	 -1.52737 	 
C 	 -146.466 	 13.7763 	 -2.50472 	 
H 	 -145.968 	 13.8081 	 -1.55532 	 
H 	 -145.913 	 14.5353 	 -3.02481 	 
C 	 -146.472 	 12.4822 	 -3.23887 	 
H 	 -146.602 	 11.6354 	 -2.55309 	 
H 	 -145.456 	 12.3018 	 -3.68478 	 
H 	 -147.119 	 12.4533 	 -4.0974 	 
H 	 -147.299 	 18.431 	 -7.11207 	 
H 	 -149.335 	 17.5585 	 0.72007 	 
*
