! wB97X-D3 SP def2-SVP
%pal
nprocs 24
end

* xyz 0 1
S 	 -92.1936 	 15.2894 	 -115.466 	 
C 	 -90.5882 	 15.7058 	 -114.811 	 
C 	 -89.6237 	 15.4747 	 -115.759 	 
C 	 -90.1235 	 14.9315 	 -116.966 	 
C 	 -91.4977 	 14.7853 	 -117.008 	 
H 	 -89.507 	 14.7503 	 -117.812 	 
C 	 -88.1573 	 15.8894 	 -115.543 	 
H 	 -88.0886 	 16.5219 	 -114.641 	 
H 	 -87.9089 	 16.6115 	 -116.408 	 
C 	 -87.1387 	 14.7689 	 -115.513 	 
H 	 -86.1537 	 15.1722 	 -115.222 	 
H 	 -87.427 	 14.0087 	 -114.804 	 
C 	 -86.9703 	 14.1189 	 -116.835 	 
H 	 -85.9793 	 13.5159 	 -116.781 	 
H 	 -87.7144 	 13.3175 	 -116.999 	 
H 	 -87.0992 	 14.7985 	 -117.718 	 
S 	 -93.9028 	 13.5694 	 -117.896 	 
C 	 -94.4111 	 13.7932 	 -119.58 	 
C 	 -93.4998 	 14.5484 	 -120.276 	 
C 	 -92.3849 	 14.9842 	 -119.435 	 
C 	 -92.3639 	 14.4591 	 -118.161 	 
H 	 -93.8151 	 14.7836 	 -121.266 	 
C 	 -91.4418 	 16.0195 	 -120.029 	 
H 	 -91.5202 	 16.0057 	 -121.116 	 
H 	 -90.5058 	 15.5495 	 -119.777 	 
C 	 -91.3785 	 17.3963 	 -119.377 	 
H 	 -90.9101 	 17.2798 	 -118.415 	 
H 	 -92.3853 	 17.9263 	 -119.287 	 
C 	 -90.4872 	 18.3801 	 -120.101 	 
H 	 -89.5543 	 17.9887 	 -120.429 	 
H 	 -90.349 	 19.267 	 -119.475 	 
H 	 -90.9833 	 18.7451 	 -121.022 	 
H 	 -90.3517 	 16.1151 	 -113.828 	 
H 	 -95.2573 	 13.3588 	 -120.033 	 
*
