! wB97X-D3 SP def2-SVP
%pal
nprocs 24
end

* xyz 0 1
S 	 -91.3503 	 -35.6583 	 -64.9325 	 
C 	 -93.0128 	 -36.0166 	 -65.1517 	 
C 	 -93.5605 	 -35.1704 	 -66.14 	 
C 	 -92.5273 	 -34.4219 	 -66.8015 	 
C 	 -91.2601 	 -34.5947 	 -66.3154 	 
H 	 -92.7073 	 -33.83 	 -67.7154 	 
C 	 -95.0288 	 -35.1087 	 -66.5603 	 
H 	 -95.3686 	 -34.1138 	 -66.8071 	 
H 	 -95.6117 	 -35.5494 	 -65.6611 	 
C 	 -95.4503 	 -35.9096 	 -67.7681 	 
H 	 -95.4758 	 -36.9399 	 -67.7478 	 
H 	 -96.5355 	 -35.6833 	 -67.9029 	 
C 	 -94.7451 	 -35.5092 	 -69.1186 	 
H 	 -94.8491 	 -34.4111 	 -69.1803 	 
H 	 -93.6898 	 -35.8027 	 -69.0253 	 
H 	 -95.114 	 -35.9083 	 -70.0685 	 
S 	 -89.1765 	 -32.8596 	 -65.7066 	 
C 	 -87.9544 	 -32.7008 	 -66.9202 	 
C 	 -88.1991 	 -33.3517 	 -68.1149 	 
C 	 -89.2858 	 -34.2082 	 -68.0108 	 
C 	 -89.991 	 -34.0659 	 -66.8261 	 
H 	 -87.3955 	 -33.2389 	 -68.8072 	 
C 	 -89.606 	 -35.1241 	 -69.2035 	 
H 	 -89.4252 	 -34.7317 	 -70.1634 	 
H 	 -90.6804 	 -35.2854 	 -69.2662 	 
C 	 -88.8744 	 -36.4883 	 -69.1075 	 
H 	 -89.0119 	 -36.923 	 -68.0868 	 
H 	 -87.7931 	 -36.3731 	 -69.1492 	 
C 	 -89.5452 	 -37.5013 	 -70.097 	 
H 	 -89.3375 	 -37.2832 	 -71.1592 	 
H 	 -90.6111 	 -37.6158 	 -69.9127 	 
H 	 -89.3096 	 -38.5157 	 -69.8441 	 
H 	 -93.6776 	 -36.7503 	 -64.6838 	 
H 	 -87.0127 	 -32.2198 	 -66.8439 	 
*
