! wB97X-D3 SP def2-SVP
%pal
nprocs 24
end

* xyz 0 1
S 	 -51.8289 	 19.3773 	 23.2154 	 
C 	 -52.4238 	 19.7575 	 24.7804 	 
C 	 -53.6737 	 19.1301 	 24.9709 	 
C 	 -54.1113 	 18.3354 	 23.8541 	 
C 	 -53.1009 	 18.2503 	 22.9053 	 
H 	 -55.0797 	 17.8955 	 23.7275 	 
C 	 -54.5453 	 19.3059 	 26.1714 	 
H 	 -55.5312 	 19.2758 	 25.8079 	 
H 	 -54.339 	 20.365 	 26.4269 	 
C 	 -54.471 	 18.3359 	 27.3345 	 
H 	 -54.4096 	 17.284 	 26.9984 	 
H 	 -53.5237 	 18.4386 	 27.8476 	 
C 	 -55.6486 	 18.4329 	 28.308 	 
H 	 -55.2728 	 18.1435 	 29.2196 	 
H 	 -55.9494 	 19.506 	 28.3676 	 
H 	 -56.4629 	 17.7534 	 28.0372 	 
S 	 -52.3196 	 17.9761 	 20.3174 	 
C 	 -52.5854 	 16.5337 	 19.4097 	 
C 	 -53.1142 	 15.5339 	 20.2546 	 
C 	 -53.4928 	 16.0615 	 21.5631 	 
C 	 -52.9663 	 17.316 	 21.8172 	 
H 	 -53.1943 	 14.556 	 19.952 	 
C 	 -54.2817 	 15.1963 	 22.5035 	 
H 	 -55.239 	 15.5105 	 22.2211 	 
H 	 -54.0803 	 15.5005 	 23.5829 	 
C 	 -54.2674 	 13.712 	 22.3566 	 
H 	 -54.369 	 13.3671 	 21.2659 	 
H 	 -55.0374 	 13.2238 	 22.9279 	 
C 	 -52.973 	 13.0525 	 22.9156 	 
H 	 -53.0873 	 11.9717 	 23.1497 	 
H 	 -52.693 	 13.5177 	 23.8506 	 
H 	 -52.1602 	 13.1724 	 22.2467 	 
H 	 -51.8501 	 20.2158 	 25.5692 	 
H 	 -52.3404 	 16.2974 	 18.3654 	 
*
