! wB97X-D3 SP def2-SVP
%pal
nprocs 24
end

* xyz 0 1
S 	 -40.0962 	 -8.00982 	 8.68592 	 
C 	 -39.4379 	 -8.50589 	 7.15872 	 
C 	 -39.4088 	 -7.42695 	 6.28217 	 
C 	 -39.513 	 -6.15701 	 6.94035 	 
C 	 -39.9659 	 -6.28435 	 8.24509 	 
H 	 -39.3705 	 -5.21394 	 6.41224 	 
C 	 -39.1687 	 -7.53712 	 4.77863 	 
H 	 -38.3028 	 -8.17445 	 4.64024 	 
H 	 -38.8401 	 -6.63328 	 4.22396 	 
C 	 -40.27 	 -8.08944 	 3.84672 	 
H 	 -39.9424 	 -8.42954 	 2.89373 	 
H 	 -40.7032 	 -8.94616 	 4.43208 	 
C 	 -41.3239 	 -7.03077 	 3.72042 	 
H 	 -40.9254 	 -6.03646 	 3.4289 	 
H 	 -42.1408 	 -7.38787 	 3.0452 	 
H 	 -41.86 	 -6.89473 	 4.74192 	 
S 	 -39.4048 	 -5.30251 	 10.7816 	 
C 	 -39.8176 	 -3.70229 	 11.3473 	 
C 	 -40.5906 	 -3.11265 	 10.3453 	 
C 	 -40.7316 	 -3.87938 	 9.13082 	 
C 	 -40.2084 	 -5.16671 	 9.18242 	 
H 	 -40.9615 	 -2.07591 	 10.5405 	 
C 	 -41.548 	 -3.30538 	 7.9879 	 
H 	 -42.5941 	 -3.03544 	 8.29169 	 
H 	 -41.6832 	 -4.22447 	 7.35075 	 
C 	 -40.7644 	 -2.23506 	 7.15912 	 
H 	 -39.8687 	 -2.61807 	 6.72931 	 
H 	 -40.5132 	 -1.39457 	 7.79178 	 
C 	 -41.6079 	 -1.64698 	 6.03135 	 
H 	 -41.1001 	 -0.783822 	 5.59805 	 
H 	 -42.5631 	 -1.23623 	 6.28364 	 
H 	 -41.854 	 -2.41767 	 5.27434 	 
H 	 -39.1704 	 -9.49611 	 6.84358 	 
H 	 -39.5463 	 -3.24011 	 12.3136 	 
*
