! wB97X-D3 SP def2-SVP
%pal
nprocs 24
end

* xyz 0 1
S 	 -132.134 	 57.5164 	 -65.247 	 
C 	 -131.084 	 57.6947 	 -66.6218 	 
C 	 -129.719 	 57.7408 	 -66.3276 	 
C 	 -129.548 	 57.6428 	 -64.9456 	 
C 	 -130.688 	 57.362 	 -64.2748 	 
H 	 -128.552 	 57.6481 	 -64.4809 	 
C 	 -128.583 	 57.7232 	 -67.362 	 
H 	 -127.749 	 57.9004 	 -66.7025 	 
H 	 -128.748 	 58.5694 	 -67.9824 	 
C 	 -128.28 	 56.4083 	 -68.1309 	 
H 	 -129.128 	 56.1426 	 -68.7415 	 
H 	 -127.523 	 56.71 	 -68.8722 	 
C 	 -127.7 	 55.2751 	 -67.2372 	 
H 	 -127.055 	 54.6756 	 -67.8349 	 
H 	 -127.032 	 55.7178 	 -66.5597 	 
H 	 -128.523 	 54.7811 	 -66.6971 	 
S 	 -130.694 	 58.3819 	 -61.7548 	 
C 	 -130.803 	 57.2288 	 -60.4252 	 
C 	 -130.896 	 55.8957 	 -60.8389 	 
C 	 -130.781 	 55.7223 	 -62.2907 	 
C 	 -130.852 	 57.0067 	 -62.9191 	 
H 	 -130.976 	 55.1458 	 -60.0654 	 
C 	 -130.679 	 54.4805 	 -63.0717 	 
H 	 -130.293 	 53.7984 	 -62.3189 	 
H 	 -129.802 	 54.5605 	 -63.806 	 
C 	 -132.089 	 54.097 	 -63.7351 	 
H 	 -132.496 	 54.9781 	 -64.3055 	 
H 	 -132.723 	 53.8496 	 -62.8996 	 
C 	 -131.978 	 52.9084 	 -64.7397 	 
H 	 -132.792 	 52.8981 	 -65.466 	 
H 	 -131.771 	 52.0104 	 -64.198 	 
H 	 -131.173 	 53.0504 	 -65.3414 	 
H 	 -131.539 	 57.6513 	 -67.6108 	 
H 	 -131.013 	 57.4239 	 -59.3833 	 
*
