! wB97X-D3 SP def2-SVP
%pal
nprocs 24
end

* xyz 0 1
S 	 -46.8983 	 -3.75011 	 -12.4686 	 
C 	 -46.854 	 -2.21298 	 -11.6209 	 
C 	 -46.5791 	 -1.10599 	 -12.4601 	 
C 	 -46.5123 	 -1.45733 	 -13.8456 	 
C 	 -46.4685 	 -2.85078 	 -13.9777 	 
H 	 -46.5955 	 -0.767321 	 -14.7321 	 
C 	 -46.5468 	 0.320778 	 -12.1379 	 
H 	 -46.0183 	 0.84971 	 -13.0233 	 
H 	 -45.8916 	 0.40447 	 -11.254 	 
C 	 -47.8489 	 0.989261 	 -11.6975 	 
H 	 -48.3528 	 0.532376 	 -10.8046 	 
H 	 -47.6625 	 1.95584 	 -11.3952 	 
C 	 -48.8293 	 0.988462 	 -12.9551 	 
H 	 -49.0036 	 -0.0710796 	 -13.2962 	 
H 	 -49.8094 	 1.47428 	 -12.6266 	 
H 	 -48.3523 	 1.61152 	 -13.7654 	 
S 	 -44.6817 	 -2.82634 	 -16.0448 	 
C 	 -44.5483 	 -4.14551 	 -17.1205 	 
C 	 -45.6087 	 -5.05632 	 -16.8981 	 
C 	 -46.5979 	 -4.65229 	 -15.9268 	 
C 	 -46.1254 	 -3.51185 	 -15.2533 	 
H 	 -45.6749 	 -5.87301 	 -17.4785 	 
C 	 -47.7963 	 -5.39302 	 -15.5357 	 
H 	 -47.8151 	 -5.46726 	 -14.408 	 
H 	 -47.6367 	 -6.40281 	 -15.9891 	 
C 	 -49.1517 	 -4.88501 	 -15.9316 	 
H 	 -48.9811 	 -3.80983 	 -16.1857 	 
H 	 -49.8009 	 -4.84925 	 -15.0283 	 
C 	 -49.7987 	 -5.53021 	 -17.1462 	 
H 	 -50.8641 	 -5.6872 	 -17.1595 	 
H 	 -49.4259 	 -6.59669 	 -17.3157 	 
H 	 -49.62 	 -4.92279 	 -18.0533 	 
H 	 -46.8512 	 -2.20872 	 -10.5618 	 
H 	 -43.9294 	 -4.11601 	 -18.0304 	 
*
