! wB97X-D3 SP def2-SVP
%pal
nprocs 24
end

* xyz 0 1
S 	 -103.831 	 -1.17569 	 -109.924 	 
C 	 -104.882 	 -1.36234 	 -111.373 	 
C 	 -106.218 	 -1.58517 	 -110.995 	 
C 	 -106.407 	 -1.51998 	 -109.58 	 
C 	 -105.252 	 -1.2241 	 -108.838 	 
H 	 -107.297 	 -1.78435 	 -109.096 	 
C 	 -107.378 	 -1.90586 	 -111.851 	 
H 	 -107.635 	 -3.01828 	 -111.841 	 
H 	 -107.095 	 -1.70003 	 -112.88 	 
C 	 -108.712 	 -1.26635 	 -111.457 	 
H 	 -109.078 	 -1.63168 	 -110.523 	 
H 	 -108.451 	 -0.256304 	 -111.328 	 
C 	 -109.822 	 -1.44344 	 -112.576 	 
H 	 -110.757 	 -0.827432 	 -112.474 	 
H 	 -109.304 	 -1.16144 	 -113.515 	 
H 	 -110.085 	 -2.49031 	 -112.857 	 
S 	 -104.506 	 -2.91507 	 -106.805 	 
C 	 -105.031 	 -2.55201 	 -105.161 	 
C 	 -105.813 	 -1.43749 	 -105.14 	 
C 	 -105.874 	 -0.741699 	 -106.367 	 
C 	 -105.212 	 -1.45012 	 -107.381 	 
H 	 -106.426 	 -1.18876 	 -104.277 	 
C 	 -106.618 	 0.587843 	 -106.585 	 
H 	 -107.647 	 0.618991 	 -106.264 	 
H 	 -106.763 	 0.760443 	 -107.675 	 
C 	 -105.898 	 1.8282 	 -105.953 	 
H 	 -105.747 	 1.61007 	 -104.939 	 
H 	 -106.56 	 2.6799 	 -105.913 	 
C 	 -104.508 	 2.133 	 -106.573 	 
H 	 -103.987 	 1.17146 	 -106.666 	 
H 	 -104.024 	 2.92511 	 -106.013 	 
H 	 -104.634 	 2.33456 	 -107.635 	 
H 	 -104.497 	 -1.44473 	 -112.376 	 
H 	 -104.901 	 -3.24279 	 -104.328 	 
*
