! wB97X-D3 SP def2-SVP
%pal
nprocs 24
end

* xyz 0 1
S 	 -137.212 	 4.25963 	 -0.179865 	 
C 	 -136.528 	 5.24772 	 -1.44396 	 
C 	 -135.364 	 5.85191 	 -0.997491 	 
C 	 -135.169 	 5.61399 	 0.387783 	 
C 	 -136.07 	 4.80811 	 1.03667 	 
H 	 -134.335 	 5.94989 	 0.897497 	 
C 	 -134.401 	 6.62998 	 -1.90813 	 
H 	 -134.302 	 6.0441 	 -2.84687 	 
H 	 -133.462 	 6.54305 	 -1.37144 	 
C 	 -134.755 	 8.11714 	 -2.14226 	 
H 	 -134.058 	 8.53656 	 -2.86616 	 
H 	 -135.746 	 8.13132 	 -2.55157 	 
C 	 -134.795 	 9.02888 	 -0.878068 	 
H 	 -135.744 	 8.94464 	 -0.396128 	 
H 	 -134.033 	 8.75056 	 -0.192147 	 
H 	 -134.615 	 10.0852 	 -1.11588 	 
S 	 -135.469 	 5.25662 	 3.75514 	 
C 	 -135.652 	 3.90183 	 4.81828 	 
C 	 -136.142 	 2.83553 	 4.19339 	 
C 	 -136.088 	 2.9614 	 2.80119 	 
C 	 -136.032 	 4.29809 	 2.38153 	 
H 	 -136.358 	 1.86609 	 4.66944 	 
C 	 -136.417 	 1.82369 	 1.93816 	 
H 	 -135.98 	 2.04579 	 0.979993 	 
H 	 -137.525 	 1.87462 	 1.69427 	 
C 	 -136.009 	 0.383047 	 2.37932 	 
H 	 -136.698 	 -0.288596 	 1.76939 	 
H 	 -136.255 	 0.0391873 	 3.47461 	 
C 	 -134.565 	 -0.139049 	 2.15271 	 
H 	 -134.178 	 0.307102 	 1.2251 	 
H 	 -134.643 	 -1.18508 	 2.02879 	 
H 	 -133.788 	 0.0256686 	 2.92303 	 
H 	 -137.024 	 5.35772 	 -2.41298 	 
H 	 -135.692 	 3.92637 	 5.90721 	 
*
