! wB97X-D3 SP def2-SVP
%pal
nprocs 24
end

* xyz 0 1
S 	 -121.06 	 58.473 	 -37.1315 	 
C 	 -120.33 	 57.0858 	 -36.3744 	 
C 	 -120.275 	 57.2878 	 -35.0211 	 
C 	 -121.123 	 58.3884 	 -34.5385 	 
C 	 -121.845 	 58.9906 	 -35.5603 	 
H 	 -121.236 	 58.7775 	 -33.57 	 
C 	 -119.583 	 56.4067 	 -34.0507 	 
H 	 -119.3 	 56.9534 	 -33.1808 	 
H 	 -118.549 	 56.1956 	 -34.4181 	 
C 	 -120.439 	 55.0514 	 -33.8 	 
H 	 -120.563 	 54.5049 	 -34.7259 	 
H 	 -119.848 	 54.4166 	 -33.1635 	 
C 	 -121.817 	 55.305 	 -33.1157 	 
H 	 -122.21 	 54.3661 	 -32.6744 	 
H 	 -121.663 	 55.7716 	 -32.1578 	 
H 	 -122.456 	 55.9516 	 -33.6521 	 
S 	 -122.494 	 61.4953 	 -36.6073 	 
C 	 -123.286 	 62.6534 	 -35.5755 	 
C 	 -123.907 	 62.0046 	 -34.5791 	 
C 	 -123.63 	 60.5999 	 -34.4924 	 
C 	 -122.666 	 60.2069 	 -35.423 	 
H 	 -124.578 	 62.4725 	 -33.814 	 
C 	 -124.096 	 59.6606 	 -33.3878 	 
H 	 -123.843 	 58.5954 	 -33.6216 	 
H 	 -125.19 	 59.6684 	 -33.5222 	 
C 	 -123.707 	 59.909 	 -31.9617 	 
H 	 -123.966 	 60.9654 	 -31.6157 	 
H 	 -122.628 	 59.8912 	 -31.9336 	 
C 	 -124.336 	 58.8372 	 -31.0373 	 
H 	 -124.164 	 59.0996 	 -30.0114 	 
H 	 -124.098 	 57.7898 	 -31.1089 	 
H 	 -125.374 	 58.8848 	 -31.1805 	 
H 	 -119.891 	 56.257 	 -36.9711 	 
H 	 -123.508 	 63.7282 	 -35.7571 	 
*
