! wB97X-D3 SP def2-SVP
%pal
nprocs 24
end

* xyz 0 1
S 	 -68.3388 	 8.99101 	 -74.3836 	 
C 	 -67.9536 	 8.9815 	 -72.6531 	 
C 	 -68.8548 	 9.69788 	 -71.8731 	 
C 	 -69.8625 	 10.3043 	 -72.6934 	 
C 	 -69.7007 	 10.0191 	 -74.0708 	 
H 	 -70.6784 	 10.9147 	 -72.3231 	 
C 	 -68.8559 	 9.72582 	 -70.353 	 
H 	 -68.8715 	 10.7946 	 -70.1112 	 
H 	 -67.9147 	 9.28893 	 -69.9774 	 
C 	 -70.0808 	 9.09452 	 -69.7524 	 
H 	 -70.0466 	 9.39067 	 -68.72 	 
H 	 -70.8773 	 9.62298 	 -70.2292 	 
C 	 -70.2745 	 7.56033 	 -69.985 	 
H 	 -69.3352 	 7.00884 	 -69.8179 	 
H 	 -71.0225 	 7.10378 	 -69.2684 	 
H 	 -70.6091 	 7.29666 	 -70.9791 	 
S 	 -69.5207 	 10.9743 	 -76.5628 	 
C 	 -70.9646 	 11.5155 	 -77.3611 	 
C 	 -72.0979 	 11.3889 	 -76.5918 	 
C 	 -71.8015 	 10.7052 	 -75.4186 	 
C 	 -70.4108 	 10.5631 	 -75.1943 	 
H 	 -73.0302 	 11.5984 	 -77.0842 	 
C 	 -72.8931 	 10.1954 	 -74.5411 	 
H 	 -73.6842 	 10.8755 	 -74.3605 	 
H 	 -72.5328 	 10.0252 	 -73.5762 	 
C 	 -73.5029 	 8.88567 	 -75.0407 	 
H 	 -72.7289 	 8.25229 	 -75.4403 	 
H 	 -74.1008 	 9.21486 	 -75.9348 	 
C 	 -74.298 	 8.17366 	 -73.9612 	 
H 	 -75.0368 	 7.46345 	 -74.3061 	 
H 	 -74.8335 	 8.83718 	 -73.2868 	 
H 	 -73.7266 	 7.53361 	 -73.3553 	 
H 	 -67.1935 	 8.3633 	 -72.2253 	 
H 	 -70.8463 	 11.9113 	 -78.3716 	 
*
