! wB97X-D3 SP def2-SVP
%pal
nprocs 24
end

* xyz 0 1
S 	 -65.0514 	 9.89784 	 -74.5885 	 
C 	 -64.6157 	 8.15353 	 -74.4475 	 
C 	 -65.7078 	 7.41134 	 -74.7884 	 
C 	 -66.8867 	 8.1442 	 -74.8734 	 
C 	 -66.7101 	 9.50284 	 -74.7825 	 
H 	 -67.8528 	 7.65326 	 -75.1808 	 
C 	 -65.6893 	 5.85746 	 -74.8553 	 
H 	 -66.6397 	 5.62751 	 -74.5254 	 
H 	 -65.042 	 5.29663 	 -74.1347 	 
C 	 -65.4538 	 5.32333 	 -76.2378 	 
H 	 -65.7926 	 4.32126 	 -76.427 	 
H 	 -65.9916 	 5.86602 	 -77.0189 	 
C 	 -64.0171 	 5.35919 	 -76.5566 	 
H 	 -63.8722 	 5.11881 	 -77.6631 	 
H 	 -63.606 	 6.36109 	 -76.3817 	 
H 	 -63.3639 	 4.75353 	 -75.9771 	 
S 	 -67.3837 	 11.2707 	 -76.748 	 
C 	 -68.967 	 12.1088 	 -76.6304 	 
C 	 -69.6562 	 11.7521 	 -75.4847 	 
C 	 -68.8245 	 10.9833 	 -74.5599 	 
C 	 -67.6541 	 10.5419 	 -75.152 	 
H 	 -70.6531 	 12.1444 	 -75.3002 	 
C 	 -69.3709 	 10.7529 	 -73.1894 	 
H 	 -69.7793 	 9.72076 	 -73.0848 	 
H 	 -70.218 	 11.5185 	 -72.9995 	 
C 	 -68.5214 	 10.8359 	 -71.9339 	 
H 	 -67.8515 	 11.6718 	 -71.925 	 
H 	 -67.8885 	 9.98059 	 -71.9946 	 
C 	 -69.3527 	 10.8101 	 -70.6407 	 
H 	 -69.8544 	 11.7763 	 -70.5244 	 
H 	 -68.854 	 10.5111 	 -69.7611 	 
H 	 -70.1551 	 10.1048 	 -70.5955 	 
H 	 -63.6161 	 7.76717 	 -74.2681 	 
H 	 -69.3714 	 12.6172 	 -77.4355 	 
*
