! wB97X-D3 SP def2-SVP
%pal
nprocs 24
end

* xyz 0 1
S 	 -96.3902 	 16.2464 	 -119.666 	 
C 	 -96.2269 	 15.4528 	 -118.138 	 
C 	 -97.4429 	 15.175 	 -117.528 	 
C 	 -98.541 	 15.7001 	 -118.194 	 
C 	 -98.1331 	 16.3313 	 -119.403 	 
H 	 -99.529 	 15.8208 	 -117.869 	 
C 	 -97.4562 	 14.5452 	 -116.17 	 
H 	 -96.4023 	 14.376 	 -115.871 	 
H 	 -97.8158 	 13.5727 	 -116.197 	 
C 	 -98.218 	 15.5021 	 -115.131 	 
H 	 -97.9023 	 16.4938 	 -115.218 	 
H 	 -99.337 	 15.5666 	 -115.401 	 
C 	 -98.2046 	 15.1022 	 -113.665 	 
H 	 -98.7764 	 15.8142 	 -113.017 	 
H 	 -98.6644 	 14.1117 	 -113.647 	 
H 	 -97.174 	 15.0413 	 -113.302 	 
S 	 -98.587 	 18.8098 	 -120.52 	 
C 	 -100.075 	 19.0716 	 -121.288 	 
C 	 -100.896 	 18.0038 	 -121.325 	 
C 	 -100.303 	 16.8525 	 -120.803 	 
C 	 -99.0079 	 17.0799 	 -120.302 	 
H 	 -101.874 	 18.0454 	 -121.706 	 
C 	 -101.144 	 15.5744 	 -120.491 	 
H 	 -100.754 	 14.8919 	 -119.749 	 
H 	 -100.961 	 15.0016 	 -121.406 	 
C 	 -102.67 	 15.6452 	 -119.999 	 
H 	 -103.031 	 14.6595 	 -119.64 	 
H 	 -103.218 	 15.9696 	 -120.855 	 
C 	 -102.973 	 16.7677 	 -118.971 	 
H 	 -102.714 	 17.7256 	 -119.326 	 
H 	 -102.414 	 16.8163 	 -118.03 	 
H 	 -104.072 	 16.8607 	 -118.75 	 
H 	 -95.3103 	 15.2813 	 -117.623 	 
H 	 -100.382 	 20.0779 	 -121.637 	 
*
