! wB97X-D3 SP def2-SVP
%pal
nprocs 24
end

* xyz 0 1
S 	 -57.1779 	 -3.19315 	 -17.9666 	 
C 	 -57.9398 	 -1.96436 	 -16.9711 	 
C 	 -58.3232 	 -2.4339 	 -15.7039 	 
C 	 -57.6802 	 -3.68907 	 -15.4689 	 
C 	 -56.9158 	 -4.18513 	 -16.4984 	 
H 	 -57.6024 	 -4.12875 	 -14.5193 	 
C 	 -58.9949 	 -1.67956 	 -14.59 	 
H 	 -59.4706 	 -2.38859 	 -13.992 	 
H 	 -59.6806 	 -1.0269 	 -15.0613 	 
C 	 -57.9676 	 -0.96265 	 -13.5953 	 
H 	 -57.4026 	 -1.80735 	 -13.2787 	 
H 	 -57.2502 	 -0.280804 	 -14.1964 	 
C 	 -58.5421 	 -0.253222 	 -12.4751 	 
H 	 -57.7805 	 0.246554 	 -11.8499 	 
H 	 -59.2501 	 0.424699 	 -12.8126 	 
H 	 -59.0168 	 -1.04598 	 -11.8645 	 
S 	 -54.1852 	 -4.50597 	 -16.4678 	 
C 	 -53.4869 	 -5.82542 	 -15.5786 	 
C 	 -54.4144 	 -6.73171 	 -15.2197 	 
C 	 -55.7488 	 -6.36933 	 -15.6503 	 
C 	 -55.7958 	 -5.11432 	 -16.2602 	 
H 	 -54.0641 	 -7.663 	 -14.7691 	 
C 	 -56.8714 	 -7.26476 	 -15.4115 	 
H 	 -57.6526 	 -6.50323 	 -15.2628 	 
H 	 -56.7001 	 -7.70103 	 -14.4668 	 
C 	 -57.4359 	 -8.1908 	 -16.4874 	 
H 	 -58.4757 	 -8.42319 	 -16.2344 	 
H 	 -57.0149 	 -9.20935 	 -16.4122 	 
C 	 -57.365 	 -7.77811 	 -17.9291 	 
H 	 -57.8952 	 -6.90219 	 -18.1656 	 
H 	 -57.8396 	 -8.57552 	 -18.533 	 
H 	 -56.3161 	 -7.74425 	 -18.3051 	 
H 	 -58.269 	 -1.01737 	 -17.3749 	 
H 	 -52.4354 	 -5.81761 	 -15.323 	 
*
