! wB97X-D3 SP def2-SVP
%pal
nprocs 24
end

* xyz 0 1
S 	 -93.0971 	 -30.2448 	 -63.0794 	 
C 	 -94.0059 	 -30.3741 	 -64.5672 	 
C 	 -94.6551 	 -29.1897 	 -64.8351 	 
C 	 -94.3759 	 -28.1305 	 -63.8978 	 
C 	 -93.5532 	 -28.5118 	 -62.9022 	 
H 	 -94.8265 	 -27.1666 	 -63.9531 	 
C 	 -95.6437 	 -28.9251 	 -65.9154 	 
H 	 -96.2321 	 -28.0576 	 -65.7658 	 
H 	 -96.2811 	 -29.7713 	 -66.0021 	 
C 	 -94.9965 	 -28.7146 	 -67.3066 	 
H 	 -94.4332 	 -27.8005 	 -67.5059 	 
H 	 -94.3803 	 -29.5512 	 -67.5719 	 
C 	 -96.0086 	 -28.6979 	 -68.4839 	 
H 	 -95.3744 	 -28.5541 	 -69.3544 	 
H 	 -96.3823 	 -29.6918 	 -68.6746 	 
H 	 -96.8138 	 -27.9637 	 -68.369 	 
S 	 -92.8332 	 -28.4117 	 -60.1581 	 
C 	 -92.4352 	 -26.9474 	 -59.3622 	 
C 	 -92.586 	 -25.9727 	 -60.318 	 
C 	 -92.9326 	 -26.3543 	 -61.6508 	 
C 	 -93.1264 	 -27.6871 	 -61.7677 	 
H 	 -92.2711 	 -24.9756 	 -60.0723 	 
C 	 -92.9308 	 -25.2355 	 -62.7352 	 
H 	 -92.298 	 -24.4515 	 -62.2902 	 
H 	 -93.9027 	 -24.8141 	 -62.8678 	 
C 	 -92.2024 	 -25.593 	 -63.9789 	 
H 	 -92.6863 	 -26.3178 	 -64.6152 	 
H 	 -91.1386 	 -25.8506 	 -63.6788 	 
C 	 -92.1585 	 -24.4202 	 -64.9751 	 
H 	 -91.4951 	 -23.664 	 -64.5786 	 
H 	 -93.1515 	 -23.9138 	 -64.9195 	 
H 	 -91.8904 	 -24.7191 	 -65.9733 	 
H 	 -94.1638 	 -31.3174 	 -65.1493 	 
H 	 -92.3048 	 -26.7814 	 -58.2957 	 
*
