! wB97X-D3 SP def2-SVP
%pal
nprocs 24
end

* xyz 0 1
S 	 -61.8596 	 13.6619 	 -98.8953 	 
C 	 -61.3285 	 15.2966 	 -98.4459 	 
C 	 -59.9213 	 15.306 	 -98.4141 	 
C 	 -59.4223 	 14.0052 	 -98.8283 	 
C 	 -60.3108 	 13.0106 	 -99.1528 	 
H 	 -58.4135 	 13.7152 	 -98.9963 	 
C 	 -59.034 	 16.5071 	 -98.054 	 
H 	 -58.536 	 16.1298 	 -97.167 	 
H 	 -59.7987 	 17.2804 	 -97.7217 	 
C 	 -57.9568 	 17.0058 	 -99.1147 	 
H 	 -58.412 	 17.2584 	 -100.043 	 
H 	 -57.6233 	 17.9867 	 -98.7723 	 
C 	 -56.7719 	 16.0848 	 -99.3099 	 
H 	 -57.0714 	 15.2836 	 -99.9975 	 
H 	 -55.9308 	 16.5545 	 -99.7174 	 
H 	 -56.4736 	 15.687 	 -98.344 	 
S 	 -60.5907 	 10.39 	 -98.3748 	 
C 	 -60.3473 	 9.07341 	 -99.4917 	 
C 	 -59.5539 	 9.55202 	 -100.511 	 
C 	 -59.4898 	 10.936 	 -100.652 	 
C 	 -60.148 	 11.6441 	 -99.5755 	 
H 	 -59.0998 	 8.79243 	 -101.145 	 
C 	 -58.843 	 11.4287 	 -101.932 	 
H 	 -58.5938 	 12.4985 	 -101.811 	 
H 	 -59.5524 	 11.4445 	 -102.723 	 
C 	 -57.6667 	 10.625 	 -102.592 	 
H 	 -57.4244 	 11.3161 	 -103.357 	 
H 	 -57.83 	 9.6447 	 -103.023 	 
C 	 -56.4736 	 10.4695 	 -101.648 	 
H 	 -56.7967 	 10 	 -100.839 	 
H 	 -55.9993 	 11.3821 	 -101.356 	 
H 	 -55.5618 	 9.97089 	 -102.044 	 
H 	 -61.9573 	 16.1548 	 -98.1817 	 
H 	 -60.6938 	 8.04595 	 -99.2399 	 
*
