! wB97X-D3 SP def2-SVP
%pal
nprocs 24
end

* xyz 0 1
S 	 -132.354 	 30.5493 	 -15.1221 	 
C 	 -130.859 	 29.7577 	 -15.4885 	 
C 	 -130.791 	 29.3479 	 -16.8217 	 
C 	 -132.038 	 29.5128 	 -17.5351 	 
C 	 -132.995 	 30.0864 	 -16.7288 	 
H 	 -132.244 	 29.2677 	 -18.5996 	 
C 	 -129.568 	 28.7272 	 -17.5269 	 
H 	 -128.71 	 29.1496 	 -17.0483 	 
H 	 -129.475 	 29.1322 	 -18.55 	 
C 	 -129.525 	 27.1854 	 -17.6497 	 
H 	 -130.387 	 26.8908 	 -18.2991 	 
H 	 -128.619 	 26.9017 	 -18.0388 	 
C 	 -129.784 	 26.5552 	 -16.3036 	 
H 	 -130.846 	 26.6104 	 -15.8853 	 
H 	 -129.546 	 25.5452 	 -16.3246 	 
H 	 -129.087 	 26.8693 	 -15.4978 	 
S 	 -134.877 	 32.1244 	 -16.409 	 
C 	 -136.446 	 31.9324 	 -17.1497 	 
C 	 -136.586 	 30.7044 	 -17.704 	 
C 	 -135.39 	 29.8865 	 -17.7181 	 
C 	 -134.37 	 30.5081 	 -17.007 	 
H 	 -137.534 	 30.4122 	 -18.2076 	 
C 	 -135.469 	 28.4085 	 -18.2509 	 
H 	 -134.605 	 28.3943 	 -18.8937 	 
H 	 -136.388 	 28.3025 	 -18.8352 	 
C 	 -135.498 	 27.2854 	 -17.1853 	 
H 	 -136.433 	 27.3683 	 -16.6359 	 
H 	 -134.68 	 27.3671 	 -16.4829 	 
C 	 -135.506 	 25.8791 	 -17.8815 	 
H 	 -134.601 	 25.7709 	 -18.6021 	 
H 	 -136.343 	 25.9138 	 -18.5106 	 
H 	 -135.54 	 25.0619 	 -17.2103 	 
H 	 -130.06 	 29.7344 	 -14.7279 	 
H 	 -137.15 	 32.7328 	 -17.1008 	 
*
