! wB97X-D3 SP def2-SVP
%pal
nprocs 24
end

* xyz 0 1
S 	 -109.533 	 66.5361 	 -76.5705 	 
C 	 -108.173 	 66.2417 	 -75.5679 	 
C 	 -108.323 	 65.1001 	 -74.757 	 
C 	 -109.616 	 64.4818 	 -75.0054 	 
C 	 -110.296 	 65.122 	 -76.028 	 
H 	 -109.971 	 63.5847 	 -74.4585 	 
C 	 -107.453 	 64.5517 	 -73.5486 	 
H 	 -108.242 	 64.5888 	 -72.8054 	 
H 	 -106.638 	 65.2138 	 -73.3126 	 
C 	 -107.027 	 63.0754 	 -73.8102 	 
H 	 -106.628 	 62.5638 	 -72.9591 	 
H 	 -107.876 	 62.5003 	 -74.0972 	 
C 	 -105.823 	 62.8041 	 -74.7676 	 
H 	 -105.756 	 61.785 	 -75.1956 	 
H 	 -105.877 	 63.4653 	 -75.6281 	 
H 	 -104.842 	 63.0832 	 -74.3159 	 
S 	 -112.621 	 66.0583 	 -77.1378 	 
C 	 -113.778 	 64.9527 	 -77.764 	 
C 	 -113.416 	 63.6443 	 -77.4957 	 
C 	 -112.128 	 63.4955 	 -76.8762 	 
C 	 -111.578 	 64.7478 	 -76.6277 	 
H 	 -114.069 	 62.8354 	 -77.9123 	 
C 	 -111.353 	 62.1619 	 -76.8006 	 
H 	 -111.448 	 61.8161 	 -75.7305 	 
H 	 -110.223 	 62.4404 	 -76.8633 	 
C 	 -111.648 	 61.0245 	 -77.8204 	 
H 	 -112.691 	 60.8142 	 -77.5573 	 
H 	 -110.961 	 60.2027 	 -77.655 	 
C 	 -111.504 	 61.3648 	 -79.2859 	 
H 	 -111.6 	 60.4624 	 -79.975 	 
H 	 -110.471 	 61.813 	 -79.3624 	 
H 	 -112.221 	 62.201 	 -79.6455 	 
H 	 -107.361 	 66.9365 	 -75.4554 	 
H 	 -114.759 	 65.2855 	 -77.9539 	 
*
