! wB97X-D3 SP def2-SVP
%pal
nprocs 24
end

* xyz 0 1
S 	 -102.603 	 11.69 	 -8.28182 	 
C 	 -102.505 	 13.37 	 -7.95705 	 
C 	 -103.657 	 13.8314 	 -7.33168 	 
C 	 -104.416 	 12.7675 	 -6.82492 	 
C 	 -103.95 	 11.492 	 -7.09985 	 
H 	 -105.348 	 12.7694 	 -6.26676 	 
C 	 -103.955 	 15.318 	 -7.17292 	 
H 	 -105.025 	 15.4479 	 -6.99021 	 
H 	 -103.823 	 15.8228 	 -8.15041 	 
C 	 -103.155 	 15.9443 	 -6.01111 	 
H 	 -102.188 	 16.172 	 -6.43056 	 
H 	 -103.504 	 16.9238 	 -5.67905 	 
C 	 -103.111 	 15.2005 	 -4.61746 	 
H 	 -104.06 	 14.869 	 -4.30352 	 
H 	 -102.485 	 14.3247 	 -4.66422 	 
H 	 -102.697 	 15.9023 	 -3.87267 	 
S 	 -105.168 	 9.19811 	 -7.69529 	 
C 	 -105.557 	 8.15295 	 -6.39494 	 
C 	 -105.505 	 8.70176 	 -5.12061 	 
C 	 -104.861 	 9.93185 	 -5.18097 	 
C 	 -104.504 	 10.307 	 -6.48566 	 
H 	 -105.854 	 8.1451 	 -4.28539 	 
C 	 -104.286 	 10.6309 	 -3.93668 	 
H 	 -103.402 	 11.1061 	 -4.19934 	 
H 	 -104.025 	 9.92662 	 -3.09599 	 
C 	 -105.273 	 11.6855 	 -3.35396 	 
H 	 -106.237 	 11.1343 	 -3.16769 	 
H 	 -105.569 	 12.3236 	 -4.1908 	 
C 	 -104.668 	 12.5286 	 -2.24664 	 
H 	 -103.646 	 12.8756 	 -2.4319 	 
H 	 -104.702 	 12.0033 	 -1.29928 	 
H 	 -105.266 	 13.423 	 -1.99631 	 
H 	 -101.728 	 13.9381 	 -8.4461 	 
H 	 -106.09 	 7.22927 	 -6.55006 	 
*
