! wB97X-D3 SP def2-SVP
%pal
nprocs 24
end

* xyz 0 1
S 	 -1.28574 	 -27.3747 	 -115.443 	 
C 	 -0.890354 	 -25.6228 	 -115.62 	 
C 	 -1.03771 	 -24.8827 	 -114.479 	 
C 	 -1.51385 	 -25.7337 	 -113.451 	 
C 	 -1.55554 	 -27.0884 	 -113.726 	 
H 	 -1.85799 	 -25.376 	 -112.48 	 
C 	 -0.945966 	 -23.3874 	 -114.381 	 
H 	 -0.449471 	 -23.0149 	 -115.316 	 
H 	 -0.305639 	 -23.0473 	 -113.632 	 
C 	 -2.40586 	 -22.6414 	 -114.23 	 
H 	 -2.92079 	 -23.0316 	 -113.347 	 
H 	 -2.20555 	 -21.6217 	 -114.061 	 
C 	 -3.25411 	 -22.8059 	 -115.496 	 
H 	 -4.31845 	 -22.5766 	 -115.394 	 
H 	 -2.81104 	 -22.272 	 -116.33 	 
H 	 -3.27913 	 -23.9065 	 -115.76 	 
S 	 -0.589612 	 -29.0996 	 -111.978 	 
C 	 -1.79278 	 -30.1229 	 -111.211 	 
C 	 -3.02813 	 -29.8445 	 -111.637 	 
C 	 -3.1678 	 -28.767 	 -112.579 	 
C 	 -1.93023 	 -28.1663 	 -112.86 	 
H 	 -3.84991 	 -30.4307 	 -111.297 	 
C 	 -4.45872 	 -28.4439 	 -113.32 	 
H 	 -4.71257 	 -27.3568 	 -113.15 	 
H 	 -5.24578 	 -28.9606 	 -112.813 	 
C 	 -4.61229 	 -28.8042 	 -114.828 	 
H 	 -4.1537 	 -29.7697 	 -115.05 	 
H 	 -4.0039 	 -28.0714 	 -115.381 	 
C 	 -6.07412 	 -28.7549 	 -115.234 	 
H 	 -6.36886 	 -27.7222 	 -115.164 	 
H 	 -6.59986 	 -29.431 	 -114.521 	 
H 	 -6.37276 	 -29.2086 	 -116.201 	 
H 	 -0.60256 	 -25.177 	 -116.548 	 
H 	 -1.50314 	 -30.9201 	 -110.479 	 
*
