! wB97X-D3 SP def2-SVP
%pal
nprocs 24
end

* xyz 0 1
S 	 -123.707 	 33.5437 	 -107.756 	 
C 	 -123.897 	 32.6851 	 -109.264 	 
C 	 -124.99 	 33.1457 	 -110.013 	 
C 	 -125.728 	 34.0988 	 -109.237 	 
C 	 -125.152 	 34.4863 	 -108.022 	 
H 	 -126.599 	 34.6684 	 -109.643 	 
C 	 -125.497 	 32.6539 	 -111.31 	 
H 	 -125.104 	 31.6321 	 -111.497 	 
H 	 -124.992 	 33.309 	 -112.101 	 
C 	 -126.992 	 32.6136 	 -111.62 	 
H 	 -127.485 	 31.9743 	 -110.829 	 
H 	 -127.551 	 33.4757 	 -111.37 	 
C 	 -127.316 	 32.0963 	 -112.988 	 
H 	 -126.968 	 31.0414 	 -113.211 	 
H 	 -128.383 	 32.083 	 -113.206 	 
H 	 -126.906 	 32.8236 	 -113.655 	 
S 	 -126.07 	 34.2635 	 -105.444 	 
C 	 -126.976 	 35.5208 	 -104.736 	 
C 	 -127.202 	 36.5914 	 -105.601 	 
C 	 -126.418 	 36.4323 	 -106.791 	 
C 	 -125.82 	 35.185 	 -106.902 	 
H 	 -127.764 	 37.514 	 -105.38 	 
C 	 -126.416 	 37.507 	 -107.802 	 
H 	 -127.143 	 38.236 	 -107.36 	 
H 	 -126.784 	 37.1882 	 -108.742 	 
C 	 -125.08 	 38.1872 	 -107.954 	 
H 	 -124.3 	 37.484 	 -108.094 	 
H 	 -124.775 	 38.6586 	 -106.97 	 
C 	 -125.023 	 39.2851 	 -108.994 	 
H 	 -125.092 	 38.8816 	 -109.965 	 
H 	 -124.057 	 39.8456 	 -108.85 	 
H 	 -125.904 	 39.941 	 -108.898 	 
H 	 -123.248 	 31.8895 	 -109.66 	 
H 	 -127.438 	 35.4542 	 -103.759 	 
*
