! wB97X-D3 SP def2-SVP
%pal
nprocs 24
end

* xyz 0 1
S 	 -103.495 	 -2.91315 	 -106.371 	 
C 	 -105.092 	 -3.51707 	 -106.015 	 
C 	 -106.089 	 -2.84177 	 -106.719 	 
C 	 -105.511 	 -1.8881 	 -107.628 	 
C 	 -104.105 	 -1.72055 	 -107.536 	 
H 	 -106.073 	 -1.2418 	 -108.287 	 
C 	 -107.525 	 -3.3262 	 -106.726 	 
H 	 -107.465 	 -4.40247 	 -106.878 	 
H 	 -108.082 	 -2.83432 	 -107.567 	 
C 	 -108.368 	 -3.01033 	 -105.465 	 
H 	 -107.821 	 -3.09936 	 -104.515 	 
H 	 -108.558 	 -1.88627 	 -105.518 	 
C 	 -109.774 	 -3.69606 	 -105.332 	 
H 	 -109.693 	 -4.82767 	 -105.454 	 
H 	 -110.253 	 -3.57091 	 -104.312 	 
H 	 -110.452 	 -3.32188 	 -106.063 	 
S 	 -101.848 	 -1.38921 	 -109.092 	 
C 	 -101.187 	 0.208238 	 -109.44 	 
C 	 -102.026 	 1.22343 	 -108.979 	 
C 	 -103.093 	 0.666744 	 -108.186 	 
C 	 -103.178 	 -0.72202 	 -108.161 	 
H 	 -101.724 	 2.26758 	 -109.066 	 
C 	 -104.004 	 1.60294 	 -107.464 	 
H 	 -103.399 	 2.53913 	 -107.429 	 
H 	 -104.073 	 1.40235 	 -106.38 	 
C 	 -105.389 	 1.744 	 -108.152 	 
H 	 -105.866 	 0.766466 	 -108.21 	 
H 	 -105.187 	 1.97442 	 -109.231 	 
C 	 -106.309 	 2.63198 	 -107.312 	 
H 	 -105.773 	 3.53882 	 -107.234 	 
H 	 -106.601 	 2.29885 	 -106.309 	 
H 	 -107.255 	 2.8195 	 -107.84 	 
H 	 -105.273 	 -4.30594 	 -105.156 	 
H 	 -100.426 	 0.389614 	 -110.16 	 
*
