! wB97X-D3 SP def2-SVP
%pal
nprocs 24
end

* xyz 0 1
S 	 -29.4899 	 17.4394 	 6.32687 	 
C 	 -31.0886 	 16.8821 	 6.81827 	 
C 	 -31.2705 	 17.0677 	 8.17373 	 
C 	 -30.23 	 17.7547 	 8.77163 	 
C 	 -29.1979 	 18.1193 	 7.9296 	 
H 	 -30.22 	 18.0624 	 9.81638 	 
C 	 -32.5188 	 16.7106 	 9.01295 	 
H 	 -33.2955 	 16.3897 	 8.30501 	 
H 	 -32.9255 	 17.595 	 9.3118 	 
C 	 -32.2813 	 15.7425 	 10.2416 	 
H 	 -31.9131 	 14.7814 	 9.89156 	 
H 	 -31.6937 	 16.2004 	 11.0635 	 
C 	 -33.5413 	 15.2401 	 10.9735 	 
H 	 -34.1578 	 14.8447 	 10.1897 	 
H 	 -33.2871 	 14.4873 	 11.692 	 
H 	 -34.2008 	 16.0094 	 11.3848 	 
S 	 -27.0953 	 18.4691 	 9.70515 	 
C 	 -25.8726 	 19.6397 	 9.34173 	 
C 	 -26.1053 	 20.2722 	 8.13681 	 
C 	 -27.3614 	 19.9162 	 7.52919 	 
C 	 -28.0293 	 18.8952 	 8.25468 	 
H 	 -25.3614 	 20.8705 	 7.68037 	 
C 	 -27.7466 	 20.5193 	 6.17606 	 
H 	 -27.5817 	 21.5642 	 6.29339 	 
H 	 -28.7961 	 20.4804 	 6.1177 	 
C 	 -27.0091 	 19.8754 	 4.92245 	 
H 	 -27.0043 	 18.7955 	 5.05804 	 
H 	 -25.9308 	 20.1568 	 5.13544 	 
C 	 -27.5199 	 20.5092 	 3.66582 	 
H 	 -28.5337 	 20.2241 	 3.44937 	 
H 	 -26.9087 	 20.2162 	 2.811 	 
H 	 -27.5656 	 21.5995 	 3.71666 	 
H 	 -31.8663 	 16.4326 	 6.12932 	 
H 	 -25.0806 	 19.8744 	 10.0747 	 
*
