! wB97X-D3 SP def2-SVP
%pal
nprocs 24
end

* xyz 0 1
S 	 -120.966 	 52.6156 	 -37.6888 	 
C 	 -120.925 	 53.4463 	 -39.2251 	 
C 	 -122.154 	 54.0186 	 -39.5181 	 
C 	 -123.158 	 53.6446 	 -38.513 	 
C 	 -122.685 	 52.7873 	 -37.5353 	 
H 	 -124.178 	 53.802 	 -38.4648 	 
C 	 -122.601 	 54.712 	 -40.7525 	 
H 	 -121.767 	 55.2769 	 -41.2511 	 
H 	 -123.409 	 55.4054 	 -40.508 	 
C 	 -123.138 	 53.7111 	 -41.8221 	 
H 	 -123.204 	 54.3253 	 -42.7228 	 
H 	 -122.421 	 52.8603 	 -41.8891 	 
C 	 -124.548 	 53.099 	 -41.3843 	 
H 	 -125.291 	 53.7994 	 -40.9027 	 
H 	 -125.076 	 52.8839 	 -42.3542 	 
H 	 -124.392 	 52.308 	 -40.6725 	 
S 	 -122.445 	 52.2165 	 -34.8355 	 
C 	 -123.766 	 51.5759 	 -33.9846 	 
C 	 -124.905 	 51.47 	 -34.7538 	 
C 	 -124.685 	 51.7997 	 -36.1058 	 
C 	 -123.399 	 52.2595 	 -36.327 	 
H 	 -125.787 	 51.0528 	 -34.2865 	 
C 	 -125.805 	 51.6704 	 -37.1639 	 
H 	 -126.213 	 50.7012 	 -37.0647 	 
H 	 -125.329 	 51.7626 	 -38.1747 	 
C 	 -126.992 	 52.6189 	 -37.066 	 
H 	 -126.534 	 53.5828 	 -36.9021 	 
H 	 -127.668 	 52.3994 	 -36.1946 	 
C 	 -127.75 	 52.6261 	 -38.4214 	 
H 	 -127.231 	 53.0131 	 -39.3101 	 
H 	 -128.631 	 53.2934 	 -38.4577 	 
H 	 -128.137 	 51.6158 	 -38.5161 	 
H 	 -120.088 	 53.6046 	 -39.8781 	 
H 	 -123.485 	 51.3118 	 -32.9862 	 
*
