! wB97X-D3 SP def2-SVP
%pal
nprocs 24
end

* xyz 0 1
S 	 -86.135 	 -47.6333 	 -80.1102 	 
C 	 -87.543 	 -46.5469 	 -79.8383 	 
C 	 -88.7142 	 -47.1621 	 -79.5313 	 
C 	 -88.5785 	 -48.6264 	 -79.6512 	 
C 	 -87.2767 	 -49.038 	 -79.9316 	 
H 	 -89.3368 	 -49.345 	 -79.4001 	 
C 	 -89.9858 	 -46.4552 	 -79.0174 	 
H 	 -90.814 	 -47.1737 	 -79.2128 	 
H 	 -90.1005 	 -45.5801 	 -79.6244 	 
C 	 -89.893 	 -46.1473 	 -77.5032 	 
H 	 -90.8785 	 -45.6864 	 -77.1132 	 
H 	 -89.6592 	 -47.0334 	 -76.8958 	 
C 	 -88.7984 	 -45.186 	 -77.0604 	 
H 	 -87.8567 	 -45.7832 	 -77.0288 	 
H 	 -88.5827 	 -44.4486 	 -77.7969 	 
H 	 -88.9475 	 -44.7137 	 -76.0754 	 
S 	 -85.9557 	 -50.9373 	 -81.3823 	 
C 	 -86.0196 	 -52.6215 	 -80.8234 	 
C 	 -86.6369 	 -52.7153 	 -79.5756 	 
C 	 -87.0601 	 -51.4648 	 -79.0619 	 
C 	 -86.8048 	 -50.4078 	 -79.9122 	 
H 	 -86.8098 	 -53.6872 	 -79.1282 	 
C 	 -87.7326 	 -51.2974 	 -77.7503 	 
H 	 -88.4608 	 -52.1007 	 -77.7486 	 
H 	 -88.3803 	 -50.4989 	 -77.6926 	 
C 	 -86.8044 	 -51.5451 	 -76.6117 	 
H 	 -86.3685 	 -52.5132 	 -76.653 	 
H 	 -87.3929 	 -51.4224 	 -75.7335 	 
C 	 -85.6228 	 -50.5278 	 -76.58 	 
H 	 -84.8657 	 -50.733 	 -75.8318 	 
H 	 -86.1192 	 -49.5779 	 -76.378 	 
H 	 -85.0829 	 -50.4958 	 -77.5524 	 
H 	 -87.5205 	 -45.4273 	 -79.8312 	 
H 	 -85.5958 	 -53.4827 	 -81.3373 	 
*
