! wB97X-D3 SP def2-SVP
%pal
nprocs 24
end

* xyz 0 1
S 	 -53.3923 	 21.0606 	 -96.1818 	 
C 	 -52.1431 	 21.1112 	 -94.9589 	 
C 	 -50.9793 	 20.6388 	 -95.4534 	 
C 	 -51.0268 	 20.16 	 -96.7443 	 
C 	 -52.2473 	 20.356 	 -97.3078 	 
H 	 -50.1696 	 19.817 	 -97.2568 	 
C 	 -49.8221 	 20.3414 	 -94.514 	 
H 	 -49.9103 	 20.9282 	 -93.5675 	 
H 	 -48.8129 	 20.5226 	 -95.007 	 
C 	 -49.6491 	 18.9362 	 -93.9738 	 
H 	 -49.6118 	 18.1751 	 -94.7665 	 
H 	 -48.7881 	 18.9337 	 -93.3642 	 
C 	 -50.7854 	 18.3494 	 -93.1833 	 
H 	 -51.7032 	 18.2198 	 -93.7942 	 
H 	 -50.494 	 17.3584 	 -92.7415 	 
H 	 -51.1304 	 18.9088 	 -92.2385 	 
S 	 -53.5255 	 18.745 	 -99.0641 	 
C 	 -53.5728 	 19.198 	 -100.753 	 
C 	 -52.793 	 20.2826 	 -101.03 	 
C 	 -52.2224 	 20.8645 	 -99.8672 	 
C 	 -52.6165 	 20.196 	 -98.6861 	 
H 	 -52.8158 	 20.6269 	 -102.04 	 
C 	 -51.354 	 22.1455 	 -99.9729 	 
H 	 -50.8087 	 22.3031 	 -99.093 	 
H 	 -52.0168 	 22.9873 	 -100.09 	 
C 	 -50.334 	 22.1974 	 -101.135 	 
H 	 -50.9088 	 22.0713 	 -102.027 	 
H 	 -49.6614 	 21.3994 	 -101.096 	 
C 	 -49.6557 	 23.5538 	 -101.249 	 
H 	 -48.9918 	 23.5409 	 -102.055 	 
H 	 -49.037 	 23.7486 	 -100.372 	 
H 	 -50.3537 	 24.3626 	 -101.581 	 
H 	 -52.2757 	 21.3287 	 -93.8893 	 
H 	 -54.1027 	 18.6344 	 -101.504 	 
*
