! wB97X-D3 SP def2-SVP
%pal
nprocs 24
end

* xyz 0 1
S 	 -109.139 	 53.6724 	 -85.567 	 
C 	 -108.469 	 52.2177 	 -84.9705 	 
C 	 -108.45 	 51.2233 	 -85.9203 	 
C 	 -108.924 	 51.7388 	 -87.1809 	 
C 	 -109.242 	 53.1165 	 -87.2082 	 
H 	 -109.223 	 51.1502 	 -88.0144 	 
C 	 -107.962 	 49.779 	 -85.8681 	 
H 	 -108.629 	 49.1287 	 -86.4832 	 
H 	 -108.068 	 49.4157 	 -84.8134 	 
C 	 -106.555 	 49.5882 	 -86.3661 	 
H 	 -106.526 	 48.54 	 -86.6293 	 
H 	 -106.458 	 50.1476 	 -87.3226 	 
C 	 -105.464 	 50.0137 	 -85.3077 	 
H 	 -105.659 	 49.351 	 -84.4469 	 
H 	 -104.396 	 49.8864 	 -85.6849 	 
H 	 -105.53 	 51.0376 	 -84.8219 	 
S 	 -111.633 	 53.4704 	 -88.7665 	 
C 	 -111.672 	 54.7671 	 -89.9151 	 
C 	 -110.606 	 55.6531 	 -89.7365 	 
C 	 -109.689 	 55.2073 	 -88.7463 	 
C 	 -109.985 	 53.8954 	 -88.2275 	 
H 	 -110.501 	 56.5566 	 -90.39 	 
C 	 -108.528 	 56.0556 	 -88.3854 	 
H 	 -107.987 	 55.8013 	 -87.4617 	 
H 	 -108.926 	 57.0934 	 -88.2233 	 
C 	 -107.515 	 55.9599 	 -89.5808 	 
H 	 -107.807 	 56.7074 	 -90.356 	 
H 	 -107.54 	 54.9527 	 -90.0139 	 
C 	 -106.036 	 56.117 	 -89.214 	 
H 	 -105.802 	 57.2142 	 -89.0204 	 
H 	 -105.306 	 55.8024 	 -89.9877 	 
H 	 -105.868 	 55.7075 	 -88.2177 	 
H 	 -108.09 	 51.9294 	 -84.0067 	 
H 	 -112.442 	 54.8468 	 -90.6957 	 
*
