! wB97X-D3 SP def2-SVP
%pal
nprocs 24
end

* xyz 0 1
S 	 -102.639 	 2.80045 	 -108.307 	 
C 	 -102.169 	 1.39378 	 -109.127 	 
C 	 -101.948 	 0.314822 	 -108.261 	 
C 	 -102.333 	 0.633158 	 -106.924 	 
C 	 -102.825 	 1.93984 	 -106.835 	 
H 	 -102.132 	 0.0871205 	 -106.098 	 
C 	 -101.435 	 -1.05249 	 -108.659 	 
H 	 -100.448 	 -1.01403 	 -108.225 	 
H 	 -101.354 	 -1.19433 	 -109.738 	 
C 	 -102.104 	 -2.28537 	 -107.999 	 
H 	 -102.06 	 -2.28961 	 -106.964 	 
H 	 -103.162 	 -2.27919 	 -108.304 	 
C 	 -101.674 	 -3.59661 	 -108.705 	 
H 	 -101.517 	 -3.44752 	 -109.781 	 
H 	 -100.696 	 -3.86372 	 -108.377 	 
H 	 -102.43 	 -4.38715 	 -108.592 	 
S 	 -102.966 	 4.27001 	 -105.499 	 
C 	 -103.793 	 4.32152 	 -103.991 	 
C 	 -104.425 	 3.18336 	 -103.664 	 
C 	 -104.187 	 2.18837 	 -104.686 	 
C 	 -103.342 	 2.60953 	 -105.685 	 
H 	 -104.999 	 3.13243 	 -102.738 	 
C 	 -104.862 	 0.874181 	 -104.531 	 
H 	 -104.924 	 0.576742 	 -103.462 	 
H 	 -104.068 	 0.250075 	 -104.842 	 
C 	 -106.061 	 0.615624 	 -105.314 	 
H 	 -105.759 	 1.05573 	 -106.254 	 
H 	 -106.918 	 1.22882 	 -104.933 	 
C 	 -106.444 	 -0.85749 	 -105.412 	 
H 	 -105.629 	 -1.40561 	 -105.937 	 
H 	 -107.404 	 -0.968293 	 -105.916 	 
H 	 -106.562 	 -1.38298 	 -104.446 	 
H 	 -101.874 	 1.18492 	 -110.156 	 
H 	 -103.754 	 5.15965 	 -103.328 	 
*
