! wB97X-D3 SP def2-SVP
%pal
nprocs 24
end

* xyz 0 1
S 	 39.9751 	 -19.1431 	 -109.73 	 
C 	 39.4071 	 -18.3444 	 -111.149 	 
C 	 38.1714 	 -17.779 	 -110.993 	 
C 	 37.7247 	 -17.9445 	 -109.624 	 
C 	 38.6065 	 -18.6446 	 -108.771 	 
H 	 36.8063 	 -17.488 	 -109.202 	 
C 	 37.3039 	 -17.0449 	 -112.01 	 
H 	 38.0041 	 -16.7623 	 -112.797 	 
H 	 36.7577 	 -16.2322 	 -111.625 	 
C 	 36.3387 	 -18.014 	 -112.82 	 
H 	 35.9882 	 -17.4675 	 -113.684 	 
H 	 36.7604 	 -18.9546 	 -113.261 	 
C 	 35.1045 	 -18.4473 	 -111.937 	 
H 	 34.2702 	 -18.8682 	 -112.539 	 
H 	 35.3618 	 -19.1204 	 -111.123 	 
H 	 34.646 	 -17.5334 	 -111.476 	 
S 	 39.8865 	 -18.3175 	 -106.373 	 
C 	 39.0402 	 -18.8993 	 -104.912 	 
C 	 37.8365 	 -19.4397 	 -105.281 	 
C 	 37.4829 	 -19.4047 	 -106.671 	 
C 	 38.4895 	 -18.8264 	 -107.379 	 
H 	 37.1377 	 -19.9023 	 -104.624 	 
C 	 36.112 	 -19.9777 	 -107.118 	 
H 	 36.2308 	 -20.3175 	 -108.141 	 
H 	 35.4918 	 -19.1612 	 -107.301 	 
C 	 35.5525 	 -21.1696 	 -106.218 	 
H 	 35.1878 	 -20.8876 	 -105.279 	 
H 	 36.4105 	 -21.7703 	 -105.946 	 
C 	 34.3937 	 -21.9636 	 -106.824 	 
H 	 33.5195 	 -21.2593 	 -106.954 	 
H 	 33.9286 	 -22.6782 	 -106.248 	 
H 	 34.6593 	 -22.3538 	 -107.782 	 
H 	 40.1218 	 -18.387 	 -111.98 	 
H 	 39.398 	 -18.9567 	 -103.922 	 
*
