! wB97X-D3 SP def2-SVP
%pal
nprocs 24
end

* xyz 0 1
S 	 43.3437 	 -13.8944 	 -107.439 	 
C 	 43.0252 	 -14.1605 	 -109.149 	 
C 	 44.1187 	 -14.723 	 -109.799 	 
C 	 45.2954 	 -14.6857 	 -108.965 	 
C 	 45.0387 	 -14.3774 	 -107.615 	 
H 	 46.2472 	 -15.028 	 -109.364 	 
C 	 44.0291 	 -15.323 	 -111.175 	 
H 	 44.7922 	 -14.7859 	 -111.779 	 
H 	 43.1583 	 -14.9514 	 -111.731 	 
C 	 44.392 	 -16.8497 	 -111.087 	 
H 	 45.2982 	 -16.9434 	 -110.444 	 
H 	 43.6044 	 -17.5241 	 -110.723 	 
C 	 44.8089 	 -17.4192 	 -112.469 	 
H 	 45.6747 	 -16.9445 	 -112.931 	 
H 	 45.0371 	 -18.4648 	 -112.403 	 
H 	 44.0161 	 -17.2601 	 -113.166 	 
S 	 45.4871 	 -13.2391 	 -105.268 	 
C 	 46.51 	 -14.0505 	 -104.072 	 
C 	 47.3167 	 -14.987 	 -104.68 	 
C 	 47.0515 	 -15.1084 	 -106.095 	 
C 	 45.9362 	 -14.3479 	 -106.479 	 
H 	 48.0494 	 -15.5547 	 -104.064 	 
C 	 47.8135 	 -16.1506 	 -106.859 	 
H 	 47.139 	 -16.6189 	 -107.542 	 
H 	 48.072 	 -16.8479 	 -106.138 	 
C 	 49.0366 	 -15.7272 	 -107.809 	 
H 	 48.7101 	 -14.9147 	 -108.385 	 
H 	 49.2633 	 -16.5269 	 -108.455 	 
C 	 50.2641 	 -15.3622 	 -106.969 	 
H 	 50.0696 	 -14.5284 	 -106.26 	 
H 	 51.0523 	 -14.9772 	 -107.687 	 
H 	 50.5913 	 -16.2368 	 -106.413 	 
H 	 42.0696 	 -14.2963 	 -109.624 	 
H 	 46.7579 	 -13.8102 	 -103.083 	 
*
