! wB97X-D3 SP def2-SVP
%pal
nprocs 24
end

* xyz 0 1
S 	 -73.9182 	 0.16852 	 -110.056 	 
C 	 -74.58 	 1.70025 	 -109.482 	 
C 	 -73.9095 	 2.77873 	 -109.958 	 
C 	 -72.6892 	 2.36705 	 -110.571 	 
C 	 -72.4963 	 1.0368 	 -110.621 	 
H 	 -71.8862 	 2.99062 	 -111.025 	 
C 	 -74.4389 	 4.22286 	 -109.881 	 
H 	 -75.4777 	 4.16454 	 -110.146 	 
H 	 -73.9449 	 4.87923 	 -110.674 	 
C 	 -74.311 	 5.01356 	 -108.513 	 
H 	 -74.8293 	 4.4168 	 -107.752 	 
H 	 -73.2679 	 4.92569 	 -108.147 	 
C 	 -74.9716 	 6.3677 	 -108.554 	 
H 	 -75.9764 	 6.32744 	 -108.887 	 
H 	 -74.9049 	 6.77923 	 -107.575 	 
H 	 -74.3778 	 6.88364 	 -109.237 	 
S 	 -71.8954 	 -0.671647 	 -112.631 	 
C 	 -70.2777 	 -1.02982 	 -112.981 	 
C 	 -69.3814 	 -0.236925 	 -112.258 	 
C 	 -70.0358 	 0.440882 	 -111.249 	 
C 	 -71.4126 	 0.247296 	 -111.209 	 
H 	 -68.336 	 -0.180737 	 -112.541 	 
C 	 -69.2369 	 1.41992 	 -110.404 	 
H 	 -69.9223 	 2.26292 	 -110.22 	 
H 	 -68.3115 	 1.78819 	 -110.958 	 
C 	 -68.7863 	 0.874607 	 -109.007 	 
H 	 -68.1348 	 -0.0137161 	 -109.119 	 
H 	 -69.6723 	 0.492641 	 -108.533 	 
C 	 -67.9086 	 1.84736 	 -108.206 	 
H 	 -68.2568 	 2.85457 	 -107.893 	 
H 	 -67.0469 	 2.08837 	 -108.888 	 
H 	 -67.4806 	 1.23582 	 -107.402 	 
H 	 -75.5645 	 1.79059 	 -108.964 	 
H 	 -69.956 	 -1.5856 	 -113.881 	 
*
