! wB97X-D3 SP def2-SVP
%pal
nprocs 24
end

* xyz 0 1
S 	 -35.9669 	 15.7525 	 15.0256 	 
C 	 -35.1715 	 16.818 	 16.2244 	 
C 	 -33.977 	 17.2897 	 15.6793 	 
C 	 -33.8593 	 16.9854 	 14.3002 	 
C 	 -34.8725 	 16.203 	 13.7752 	 
H 	 -33.0672 	 17.3874 	 13.7397 	 
C 	 -32.9306 	 18.1147 	 16.4607 	 
H 	 -33.4293 	 18.3709 	 17.4364 	 
H 	 -32.7199 	 18.9952 	 15.9223 	 
C 	 -31.6195 	 17.3225 	 16.6609 	 
H 	 -31.7426 	 16.5156 	 17.428 	 
H 	 -31.3894 	 16.8378 	 15.6637 	 
C 	 -30.5175 	 18.2702 	 17.1061 	 
H 	 -30.8101 	 18.8344 	 17.9639 	 
H 	 -29.4932 	 17.8417 	 17.3805 	 
H 	 -30.4333 	 18.9749 	 16.3005 	 
S 	 -35.3087 	 13.9314 	 12.2446 	 
C 	 -35.1115 	 13.9917 	 10.5279 	 
C 	 -34.6362 	 15.2405 	 10.1373 	 
C 	 -34.4492 	 16.1549 	 11.2144 	 
C 	 -34.9466 	 15.644 	 12.3808 	 
H 	 -34.3817 	 15.3538 	 9.07426 	 
C 	 -33.7887 	 17.5136 	 11.0191 	 
H 	 -34.1547 	 18.115 	 11.835 	 
H 	 -34.1024 	 17.9241 	 10.0578 	 
C 	 -32.3337 	 17.423 	 10.8617 	 
H 	 -32.1607 	 16.8359 	 9.91496 	 
H 	 -32.0003 	 16.7395 	 11.6365 	 
C 	 -31.4332 	 18.6559 	 10.815 	 
H 	 -31.7654 	 19.3268 	 11.6591 	 
H 	 -31.4999 	 19.2657 	 9.86321 	 
H 	 -30.3465 	 18.4367 	 10.8285 	 
H 	 -35.2454 	 16.9135 	 17.2938 	 
H 	 -35.2756 	 13.1337 	 9.9298 	 
*
