! wB97X-D3 SP def2-SVP
%pal
nprocs 24
end

* xyz 0 1
S 	 15.3332 	 -11.6096 	 -120.186 	 
C 	 13.9823 	 -11.2159 	 -121.182 	 
C 	 13.9868 	 -11.8438 	 -122.37 	 
C 	 15.0676 	 -12.7583 	 -122.42 	 
C 	 15.835 	 -12.8679 	 -121.271 	 
H 	 15.3871 	 -13.2936 	 -123.271 	 
C 	 12.8897 	 -11.7286 	 -123.477 	 
H 	 12.141 	 -12.426 	 -123.113 	 
H 	 13.2016 	 -12.2593 	 -124.361 	 
C 	 12.315 	 -10.4005 	 -123.691 	 
H 	 12.2104 	 -9.75236 	 -122.85 	 
H 	 13.0839 	 -9.8855 	 -124.257 	 
C 	 11.0545 	 -10.3 	 -124.537 	 
H 	 10.2995 	 -10.8086 	 -123.935 	 
H 	 10.7097 	 -9.26066 	 -124.766 	 
H 	 11.1668 	 -10.8508 	 -125.54 	 
S 	 18.6111 	 -12.9564 	 -120.856 	 
C 	 19.3219 	 -14.5693 	 -121.101 	 
C 	 18.4096 	 -15.5691 	 -121.188 	 
C 	 17.0203 	 -15.0118 	 -121.06 	 
C 	 16.995 	 -13.6526 	 -121.025 	 
H 	 18.6804 	 -16.6237 	 -121.26 	 
C 	 15.8447 	 -15.9997 	 -121.241 	 
H 	 16.18 	 -16.9959 	 -121.499 	 
H 	 15.1509 	 -15.562 	 -121.98 	 
C 	 15.0912 	 -16.2255 	 -119.961 	 
H 	 14.3672 	 -16.9413 	 -120.226 	 
H 	 14.4313 	 -15.4235 	 -119.703 	 
C 	 15.8628 	 -16.7892 	 -118.744 	 
H 	 16.132 	 -17.8082 	 -118.795 	 
H 	 15.344 	 -16.5366 	 -117.813 	 
H 	 16.7764 	 -16.2468 	 -118.71 	 
H 	 13.4755 	 -10.3244 	 -121.025 	 
H 	 20.4148 	 -14.6112 	 -121.05 	 
*
