! wB97X-D3 SP def2-SVP
%pal
nprocs 24
end

* xyz 0 1
S 	 -47.0242 	 26.2535 	 25.5328 	 
C 	 -47.6473 	 26.9916 	 26.9596 	 
C 	 -47.5691 	 26.1074 	 28.0233 	 
C 	 -47.0431 	 24.8126 	 27.614 	 
C 	 -46.5838 	 24.7394 	 26.3255 	 
H 	 -46.9923 	 23.9938 	 28.3265 	 
C 	 -47.9032 	 26.4476 	 29.475 	 
H 	 -48.9236 	 26.6151 	 29.5973 	 
H 	 -47.4735 	 27.4423 	 29.736 	 
C 	 -47.5037 	 25.3321 	 30.5206 	 
H 	 -48.0715 	 24.494 	 30.2323 	 
H 	 -46.4223 	 25.2069 	 30.3866 	 
C 	 -47.7916 	 25.5475 	 32.0433 	 
H 	 -48.8342 	 25.7421 	 32.3029 	 
H 	 -47.4879 	 24.6322 	 32.5872 	 
H 	 -47.3298 	 26.4466 	 32.4867 	 
S 	 -44.358 	 23.1942 	 26.4125 	 
C 	 -44.0863 	 21.9225 	 25.2141 	 
C 	 -45.2143 	 21.6538 	 24.5078 	 
C 	 -46.2293 	 22.6508 	 24.7096 	 
C 	 -45.9121 	 23.5985 	 25.6606 	 
H 	 -45.3343 	 20.8678 	 23.8241 	 
C 	 -47.6127 	 22.5673 	 24.0939 	 
H 	 -47.3598 	 22.5044 	 23.064 	 
H 	 -48.1283 	 23.4771 	 24.2887 	 
C 	 -48.3982 	 21.3404 	 24.5733 	 
H 	 -48.2508 	 21.1043 	 25.5935 	 
H 	 -47.8906 	 20.4525 	 24.1278 	 
C 	 -49.9143 	 21.482 	 24.3135 	 
H 	 -50.4637 	 20.5429 	 24.6851 	 
H 	 -50.1961 	 21.5786 	 23.2461 	 
H 	 -50.1977 	 22.3456 	 24.8603 	 
H 	 -48.0553 	 28.0096 	 27.0276 	 
H 	 -43.1753 	 21.3388 	 25.1691 	 
*
