! wB97X-D3 SP def2-SVP
%pal
nprocs 24
end

* xyz 0 1
S 	 -113.472 	 23.2544 	 -114 	 
C 	 -115.088 	 23.3588 	 -114.765 	 
C 	 -116.005 	 23.8155 	 -113.834 	 
C 	 -115.352 	 24.3662 	 -112.666 	 
C 	 -114.014 	 24.0878 	 -112.555 	 
H 	 -115.847 	 24.9481 	 -111.805 	 
C 	 -117.447 	 23.9354 	 -114.138 	 
H 	 -117.339 	 24.4961 	 -115.058 	 
H 	 -117.959 	 24.6688 	 -113.442 	 
C 	 -118.271 	 22.7062 	 -114.495 	 
H 	 -117.931 	 22.2451 	 -115.457 	 
H 	 -118.114 	 21.9084 	 -113.71 	 
C 	 -119.728 	 23.0797 	 -114.622 	 
H 	 -120.184 	 23.345 	 -113.669 	 
H 	 -120.07 	 23.7605 	 -115.335 	 
H 	 -120.156 	 22.1232 	 -114.907 	 
S 	 -111.723 	 25.4214 	 -112.197 	 
C 	 -110.953 	 25.4184 	 -110.643 	 
C 	 -111.735 	 24.8941 	 -109.674 	 
C 	 -112.904 	 24.2575 	 -110.229 	 
C 	 -113.068 	 24.5299 	 -111.568 	 
H 	 -111.404 	 24.8194 	 -108.681 	 
C 	 -113.875 	 23.5991 	 -109.237 	 
H 	 -114.863 	 23.6784 	 -109.707 	 
H 	 -113.877 	 24.2232 	 -108.303 	 
C 	 -113.361 	 22.1913 	 -108.815 	 
H 	 -113.9 	 21.8039 	 -107.947 	 
H 	 -112.287 	 22.2726 	 -108.517 	 
C 	 -113.239 	 21.2357 	 -110.094 	 
H 	 -114.184 	 20.9453 	 -110.587 	 
H 	 -112.64 	 20.3374 	 -109.828 	 
H 	 -112.677 	 21.7163 	 -110.877 	 
H 	 -115.349 	 23.0027 	 -115.751 	 
H 	 -109.915 	 25.7807 	 -110.48 	 
*
