! wB97X-D3 SP def2-SVP
%pal
nprocs 24
end

* xyz 0 1
S 	 -115.157 	 58.937 	 -73.3653 	 
C 	 -113.495 	 58.9698 	 -72.8813 	 
C 	 -112.947 	 60.2529 	 -72.9134 	 
C 	 -113.849 	 61.2303 	 -73.3892 	 
C 	 -115.074 	 60.6794 	 -73.744 	 
H 	 -113.664 	 62.2333 	 -73.5305 	 
C 	 -111.526 	 60.6499 	 -72.6109 	 
H 	 -111.158 	 61.5063 	 -73.205 	 
H 	 -110.866 	 59.8749 	 -72.9257 	 
C 	 -111.192 	 61.0451 	 -71.169 	 
H 	 -110.24 	 61.5018 	 -71.1245 	 
H 	 -111.813 	 61.8773 	 -70.9149 	 
C 	 -111.268 	 59.9582 	 -70.0608 	 
H 	 -111.25 	 60.3752 	 -69.0669 	 
H 	 -112.194 	 59.4158 	 -70.2423 	 
H 	 -110.491 	 59.1946 	 -70.2531 	 
S 	 -117.466 	 61.4657 	 -72.746 	 
C 	 -118.394 	 62.738 	 -73.5111 	 
C 	 -117.783 	 63.1226 	 -74.6595 	 
C 	 -116.527 	 62.5149 	 -74.86 	 
C 	 -116.295 	 61.4942 	 -74.0233 	 
H 	 -118.172 	 63.9329 	 -75.2169 	 
C 	 -115.693 	 62.9095 	 -76.0953 	 
H 	 -114.681 	 63.2943 	 -75.7398 	 
H 	 -116.172 	 63.705 	 -76.6729 	 
C 	 -115.527 	 61.7823 	 -77.04 	 
H 	 -115.175 	 60.8757 	 -76.5021 	 
H 	 -114.571 	 62.0015 	 -77.5456 	 
C 	 -116.695 	 61.5605 	 -78.0162 	 
H 	 -117.709 	 61.4637 	 -77.5685 	 
H 	 -116.497 	 60.6398 	 -78.6547 	 
H 	 -116.823 	 62.3724 	 -78.7563 	 
H 	 -112.975 	 58.0164 	 -72.7753 	 
H 	 -119.232 	 63.2672 	 -73.0784 	 
*
