! wB97X-D3 SP def2-SVP
%pal
nprocs 24
end

* xyz 0 1
S 	 -89.575 	 -6.88482 	 -116.204 	 
C 	 -90.646 	 -7.98954 	 -115.395 	 
C 	 -91.5467 	 -7.33405 	 -114.647 	 
C 	 -91.3798 	 -5.91898 	 -114.586 	 
C 	 -90.3123 	 -5.52192 	 -115.38 	 
H 	 -91.9384 	 -5.20413 	 -113.905 	 
C 	 -92.6617 	 -8.03066 	 -113.907 	 
H 	 -93.2019 	 -8.69035 	 -114.63 	 
H 	 -93.3253 	 -7.24683 	 -113.609 	 
C 	 -92.2756 	 -8.77056 	 -112.596 	 
H 	 -91.684 	 -8.06105 	 -112 	 
H 	 -93.0988 	 -9.16537 	 -112.082 	 
C 	 -91.4597 	 -10.0229 	 -112.91 	 
H 	 -91.484 	 -10.7298 	 -112.095 	 
H 	 -91.9908 	 -10.5748 	 -113.679 	 
H 	 -90.3695 	 -9.88865 	 -113.162 	 
S 	 -89.3954 	 -3.6776 	 -117.14 	 
C 	 -88.7711 	 -2.14529 	 -116.599 	 
C 	 -88.7603 	 -2.13506 	 -115.192 	 
C 	 -89.3631 	 -3.2641 	 -114.568 	 
C 	 -89.6787 	 -4.22886 	 -115.541 	 
H 	 -88.3119 	 -1.35972 	 -114.631 	 
C 	 -89.5484 	 -3.40103 	 -112.995 	 
H 	 -90.6353 	 -3.42086 	 -112.806 	 
H 	 -89.1379 	 -2.49448 	 -112.622 	 
C 	 -88.7793 	 -4.54378 	 -112.292 	 
H 	 -89.6053 	 -5.36324 	 -112.371 	 
H 	 -88.5778 	 -4.28313 	 -111.198 	 
C 	 -87.4543 	 -4.90604 	 -112.914 	 
H 	 -86.6213 	 -5.23181 	 -112.242 	 
H 	 -86.9934 	 -4.06029 	 -113.486 	 
H 	 -87.5604 	 -5.6826 	 -113.726 	 
H 	 -90.7258 	 -9.07565 	 -115.54 	 
H 	 -88.3725 	 -1.30355 	 -117.159 	 
*
