! wB97X-D3 SP def2-SVP
%pal
nprocs 24
end

* xyz 0 1
S 	 -104.621 	 27.494 	 -119.105 	 
C 	 -104.548 	 29.1625 	 -119.229 	 
C 	 -105.855 	 29.7355 	 -119.225 	 
C 	 -106.849 	 28.7394 	 -119.031 	 
C 	 -106.375 	 27.4819 	 -118.951 	 
H 	 -107.935 	 28.9293 	 -118.976 	 
C 	 -106.195 	 31.3013 	 -119.375 	 
H 	 -107.277 	 31.3896 	 -119.507 	 
H 	 -105.696 	 31.7615 	 -120.251 	 
C 	 -105.785 	 32.1683 	 -118.174 	 
H 	 -104.783 	 32.016 	 -118.146 	 
H 	 -105.94 	 33.2516 	 -118.415 	 
C 	 -106.758 	 31.9545 	 -117.015 	 
H 	 -106.99 	 30.8435 	 -116.876 	 
H 	 -106.437 	 32.5277 	 -116.149 	 
H 	 -107.767 	 32.3574 	 -117.289 	 
S 	 -106.836 	 25.1185 	 -120.346 	 
C 	 -108.197 	 24.098 	 -119.993 	 
C 	 -108.847 	 24.5659 	 -118.936 	 
C 	 -108.26 	 25.7933 	 -118.382 	 
C 	 -107.108 	 26.2475 	 -119.043 	 
H 	 -109.763 	 24.1045 	 -118.699 	 
C 	 -108.972 	 26.4481 	 -117.178 	 
H 	 -110.063 	 26.3019 	 -117.324 	 
H 	 -108.648 	 27.4974 	 -117.197 	 
C 	 -108.657 	 25.9698 	 -115.721 	 
H 	 -109.095 	 24.9738 	 -115.534 	 
H 	 -109.113 	 26.4913 	 -115.005 	 
C 	 -107.151 	 25.9554 	 -115.42 	 
H 	 -106.677 	 26.9168 	 -115.686 	 
H 	 -106.682 	 25.2826 	 -116.078 	 
H 	 -106.938 	 25.6587 	 -114.365 	 
H 	 -103.593 	 29.6621 	 -119.318 	 
H 	 -108.332 	 23.1578 	 -120.541 	 
*
