! wB97X-D3 SP def2-SVP
%pal
nprocs 24
end

* xyz 0 1
S 	 -45.1687 	 -5.61164 	 -13.6076 	 
C 	 -46.3227 	 -4.75864 	 -12.6689 	 
C 	 -45.7593 	 -3.54923 	 -12.2932 	 
C 	 -44.4894 	 -3.31219 	 -12.8532 	 
C 	 -44.0161 	 -4.33238 	 -13.6603 	 
H 	 -43.9299 	 -2.35183 	 -12.9215 	 
C 	 -46.511 	 -2.46564 	 -11.4865 	 
H 	 -45.8056 	 -1.81881 	 -10.9803 	 
H 	 -47.0962 	 -2.84971 	 -10.678 	 
C 	 -47.4788 	 -1.56133 	 -12.3906 	 
H 	 -48.4418 	 -2.10346 	 -12.4641 	 
H 	 -47.7025 	 -0.683508 	 -11.7569 	 
C 	 -47.0488 	 -1.02829 	 -13.7487 	 
H 	 -46.2031 	 -0.395672 	 -13.7859 	 
H 	 -46.8392 	 -1.85729 	 -14.4783 	 
H 	 -47.8659 	 -0.525121 	 -14.2551 	 
S 	 -41.4292 	 -4.67867 	 -13.9401 	 
C 	 -40.7564 	 -5.011 	 -15.4592 	 
C 	 -41.6964 	 -4.91835 	 -16.5379 	 
C 	 -42.9495 	 -4.5047 	 -16.0245 	 
C 	 -42.9498 	 -4.35381 	 -14.6291 	 
H 	 -41.4096 	 -5.04141 	 -17.6011 	 
C 	 -44.2286 	 -4.55185 	 -16.8356 	 
H 	 -44.9901 	 -5.02643 	 -16.2481 	 
H 	 -44.1331 	 -5.08632 	 -17.7698 	 
C 	 -44.698 	 -3.12233 	 -17.1761 	 
H 	 -44.977 	 -2.63354 	 -16.2633 	 
H 	 -45.5464 	 -3.17144 	 -17.8446 	 
C 	 -43.666 	 -2.3414 	 -17.9129 	 
H 	 -42.9137 	 -1.97343 	 -17.2159 	 
H 	 -44.1642 	 -1.52358 	 -18.3823 	 
H 	 -43.1097 	 -2.90883 	 -18.6204 	 
H 	 -47.3559 	 -4.77886 	 -12.561 	 
H 	 -39.7751 	 -5.43693 	 -15.3984 	 
*
