! wB97X-D3 SP def2-SVP
%pal
nprocs 24
end

* xyz 0 1
S 	 -130.241 	 59.6838 	 -58.8969 	 
C 	 -130.796 	 59.1729 	 -57.3029 	 
C 	 -129.708 	 58.7386 	 -56.5684 	 
C 	 -128.525 	 58.6604 	 -57.3817 	 
C 	 -128.622 	 59.1972 	 -58.6415 	 
H 	 -127.536 	 58.3372 	 -57.0311 	 
C 	 -129.712 	 58.1797 	 -55.0954 	 
H 	 -128.765 	 57.7333 	 -54.9109 	 
H 	 -130.439 	 57.4041 	 -54.9816 	 
C 	 -129.993 	 59.2262 	 -54.0017 	 
H 	 -129.249 	 60.0916 	 -54.0537 	 
H 	 -130.973 	 59.5932 	 -54.2726 	 
C 	 -130.072 	 58.7257 	 -52.5708 	 
H 	 -129.172 	 58.0836 	 -52.4231 	 
H 	 -129.842 	 59.5198 	 -51.8979 	 
H 	 -131.027 	 58.2382 	 -52.2496 	 
S 	 -127.426 	 58.2084 	 -60.8892 	 
C 	 -126.428 	 59.2979 	 -61.8653 	 
C 	 -126.265 	 60.487 	 -61.2249 	 
C 	 -126.901 	 60.5587 	 -59.9231 	 
C 	 -127.623 	 59.3782 	 -59.6071 	 
H 	 -125.711 	 61.2259 	 -61.7563 	 
C 	 -126.93 	 61.7999 	 -59.0904 	 
H 	 -125.946 	 62.1905 	 -59.0659 	 
H 	 -127.207 	 61.483 	 -58.129 	 
C 	 -127.925 	 62.8328 	 -59.5151 	 
H 	 -128.918 	 62.4262 	 -59.7023 	 
H 	 -127.613 	 63.1226 	 -60.5194 	 
C 	 -127.95 	 64.0437 	 -58.6616 	 
H 	 -128.731 	 64.7045 	 -59.0772 	 
H 	 -127.019 	 64.6868 	 -58.6541 	 
H 	 -128.318 	 63.7786 	 -57.7117 	 
H 	 -131.728 	 59.5871 	 -56.8989 	 
H 	 -125.993 	 59.0604 	 -62.7957 	 
*
