! wB97X-D3 SP def2-SVP
%pal
nprocs 24
end

* xyz 0 1
S 	 -44.222 	 10.0907 	 -21.9752 	 
C 	 -45.5277 	 9.44712 	 -20.9362 	 
C 	 -46.7493 	 9.65581 	 -21.5446 	 
C 	 -46.6778 	 10.2401 	 -22.8767 	 
C 	 -45.3944 	 10.6792 	 -23.2203 	 
H 	 -47.6042 	 10.5444 	 -23.3902 	 
C 	 -48.0751 	 9.49186 	 -20.8087 	 
H 	 -47.9793 	 8.58312 	 -20.2161 	 
H 	 -48.9215 	 9.32364 	 -21.5099 	 
C 	 -48.3203 	 10.6256 	 -19.6848 	 
H 	 -47.4543 	 10.5774 	 -18.9944 	 
H 	 -48.1286 	 11.6167 	 -20.1882 	 
C 	 -49.6694 	 10.5459 	 -19.0485 	 
H 	 -49.7853 	 11.2417 	 -18.1866 	 
H 	 -50.3355 	 10.923 	 -19.8231 	 
H 	 -49.8171 	 9.55187 	 -18.7063 	 
S 	 -43.9996 	 10.6758 	 -25.6178 	 
C 	 -44.0698 	 12.0869 	 -26.6336 	 
C 	 -44.8629 	 13.0852 	 -26.0444 	 
C 	 -45.3877 	 12.7734 	 -24.7355 	 
C 	 -45.012 	 11.4799 	 -24.3597 	 
H 	 -45.0264 	 14.0482 	 -26.6004 	 
C 	 -46.2466 	 13.8157 	 -23.9926 	 
H 	 -47.2549 	 13.4819 	 -24.2066 	 
H 	 -46.1807 	 14.8005 	 -24.4603 	 
C 	 -46.0032 	 14.0076 	 -22.4832 	 
H 	 -44.9193 	 14.1499 	 -22.3685 	 
H 	 -46.4663 	 13.2156 	 -21.8858 	 
C 	 -46.6279 	 15.2626 	 -21.9011 	 
H 	 -45.9405 	 16.0997 	 -22.177 	 
H 	 -46.653 	 15.133 	 -20.8117 	 
H 	 -47.6508 	 15.5022 	 -22.3455 	 
H 	 -45.342 	 9.12828 	 -19.9387 	 
H 	 -43.8313 	 12.0372 	 -27.6653 	 
*
