! wB97X-D3 SP def2-SVP
%pal
nprocs 24
end

* xyz 0 1
S 	 -142.94 	 3.35274 	 1.70945 	 
C 	 -141.635 	 4.03178 	 0.94778 	 
C 	 -141.449 	 5.31734 	 1.34663 	 
C 	 -142.504 	 5.83916 	 2.25173 	 
C 	 -143.452 	 4.90564 	 2.41684 	 
H 	 -142.72 	 6.83225 	 2.59858 	 
C 	 -140.341 	 6.24957 	 0.853508 	 
H 	 -139.611 	 5.66677 	 0.302686 	 
H 	 -139.735 	 6.62243 	 1.65925 	 
C 	 -140.853 	 7.25407 	 -0.0391714 	 
H 	 -141.442 	 6.94397 	 -0.936877 	 
H 	 -141.609 	 7.84845 	 0.522694 	 
C 	 -139.783 	 8.29958 	 -0.527708 	 
H 	 -139.382 	 7.955 	 -1.51722 	 
H 	 -140.315 	 9.18271 	 -0.55114 	 
H 	 -138.901 	 8.51007 	 0.0987996 	 
S 	 -146.215 	 5.17557 	 2.43238 	 
C 	 -147.129 	 5.26355 	 3.95007 	 
C 	 -146.248 	 5.22728 	 4.99263 	 
C 	 -144.891 	 5.08006 	 4.6233 	 
C 	 -144.694 	 5.0454 	 3.2306 	 
H 	 -146.748 	 5.28006 	 5.94616 	 
C 	 -143.756 	 5.04266 	 5.59954 	 
H 	 -142.998 	 4.3708 	 5.18194 	 
H 	 -144.223 	 4.5085 	 6.41706 	 
C 	 -143.32 	 6.45065 	 6.01053 	 
H 	 -144.2 	 7.04551 	 6.18997 	 
H 	 -142.694 	 6.89568 	 5.13108 	 
C 	 -142.455 	 6.39108 	 7.30394 	 
H 	 -143.119 	 6.07563 	 8.19497 	 
H 	 -141.919 	 7.28199 	 7.51945 	 
H 	 -141.745 	 5.62109 	 7.21777 	 
H 	 -141.08 	 3.65563 	 0.0781656 	 
H 	 -148.228 	 5.20195 	 3.98555 	 
*
