! wB97X-D3 SP def2-SVP
%pal
nprocs 24
end

* xyz 0 1
S 	 -105.174 	 52.5801 	 -79.8888 	 
C 	 -104.706 	 52.634 	 -81.5789 	 
C 	 -105.182 	 51.5303 	 -82.2829 	 
C 	 -106.109 	 50.7523 	 -81.483 	 
C 	 -106.214 	 51.1967 	 -80.1798 	 
H 	 -106.653 	 49.8807 	 -81.774 	 
C 	 -104.914 	 51.2834 	 -83.773 	 
H 	 -104.818 	 50.2422 	 -83.9816 	 
H 	 -103.921 	 51.6929 	 -84.0236 	 
C 	 -105.919 	 51.7874 	 -84.7399 	 
H 	 -106.791 	 51.2129 	 -84.4739 	 
H 	 -106.162 	 52.8273 	 -84.4582 	 
C 	 -105.587 	 51.5666 	 -86.2001 	 
H 	 -105.137 	 50.6467 	 -86.4789 	 
H 	 -106.443 	 51.6875 	 -86.8704 	 
H 	 -104.9 	 52.3211 	 -86.4629 	 
S 	 -108.418 	 51.7599 	 -78.6463 	 
C 	 -109.156 	 50.4681 	 -77.7314 	 
C 	 -108.402 	 49.3081 	 -77.6895 	 
C 	 -107.325 	 49.3766 	 -78.5976 	 
C 	 -107.182 	 50.6595 	 -79.1709 	 
H 	 -108.782 	 48.4535 	 -77.1796 	 
C 	 -106.31 	 48.1813 	 -78.7204 	 
H 	 -106.638 	 47.3977 	 -78.024 	 
H 	 -105.42 	 48.5678 	 -78.2776 	 
C 	 -105.981 	 47.5895 	 -80.0685 	 
H 	 -105.431 	 46.6755 	 -79.8674 	 
H 	 -105.348 	 48.1872 	 -80.6432 	 
C 	 -107.209 	 47.1902 	 -80.876 	 
H 	 -107.691 	 46.457 	 -80.2761 	 
H 	 -106.871 	 46.6135 	 -81.7477 	 
H 	 -107.811 	 48.0631 	 -81.1456 	 
H 	 -103.989 	 53.3298 	 -81.9602 	 
H 	 -109.958 	 50.6131 	 -77.055 	 
*
