! wB97X-D3 SP def2-SVP
%pal
nprocs 24
end

* xyz 0 1
S 	 -123.864 	 23.8347 	 -109.923 	 
C 	 -122.514 	 25.0222 	 -109.752 	 
C 	 -122.883 	 26.3744 	 -109.977 	 
C 	 -124.27 	 26.369 	 -110.304 	 
C 	 -124.937 	 25.131 	 -110.309 	 
H 	 -124.902 	 27.2462 	 -110.423 	 
C 	 -122.036 	 27.6179 	 -109.756 	 
H 	 -121.14 	 27.2589 	 -109.143 	 
H 	 -122.698 	 28.0959 	 -109.045 	 
C 	 -121.694 	 28.4786 	 -110.979 	 
H 	 -121.066 	 27.9201 	 -111.639 	 
H 	 -122.625 	 28.7118 	 -111.52 	 
C 	 -120.969 	 29.8145 	 -110.685 	 
H 	 -120.657 	 30.3946 	 -111.55 	 
H 	 -121.577 	 30.4787 	 -110.076 	 
H 	 -120.053 	 29.5978 	 -110.118 	 
S 	 -127.228 	 25.6449 	 -111.682 	 
C 	 -128.724 	 24.9333 	 -111.139 	 
C 	 -128.549 	 24.2191 	 -109.98 	 
C 	 -127.227 	 24.2955 	 -109.433 	 
C 	 -126.35 	 24.9073 	 -110.359 	 
H 	 -129.388 	 23.7386 	 -109.503 	 
C 	 -126.793 	 23.52 	 -108.179 	 
H 	 -125.884 	 22.8944 	 -108.358 	 
H 	 -127.579 	 22.7898 	 -107.866 	 
C 	 -126.517 	 24.3835 	 -106.943 	 
H 	 -127.317 	 24.7908 	 -106.404 	 
H 	 -126.086 	 25.2843 	 -107.354 	 
C 	 -125.607 	 23.7234 	 -105.816 	 
H 	 -124.614 	 23.7166 	 -106.313 	 
H 	 -125.956 	 22.713 	 -105.433 	 
H 	 -125.469 	 24.4181 	 -104.961 	 
H 	 -121.529 	 24.7683 	 -109.419 	 
H 	 -129.661 	 24.9149 	 -111.659 	 
*
