! wB97X-D3 SP def2-SVP
%pal
nprocs 24
end

* xyz 0 1
S 	 -40.2791 	 16.9757 	 -99.4024 	 
C 	 -39.6838 	 15.3104 	 -99.4064 	 
C 	 -40.7309 	 14.404 	 -99.342 	 
C 	 -42.0331 	 15.062 	 -99.299 	 
C 	 -42.0144 	 16.4269 	 -99.4353 	 
H 	 -42.9268 	 14.5055 	 -99.2986 	 
C 	 -40.4298 	 12.9635 	 -99.4935 	 
H 	 -39.314 	 12.9055 	 -99.5596 	 
H 	 -40.9232 	 12.7074 	 -100.456 	 
C 	 -40.8301 	 12.1529 	 -98.2848 	 
H 	 -41.8616 	 12.3813 	 -98.1304 	 
H 	 -40.6007 	 11.0924 	 -98.4669 	 
C 	 -39.9512 	 12.4797 	 -97.1065 	 
H 	 -38.9378 	 12.163 	 -97.1994 	 
H 	 -39.9834 	 13.5123 	 -96.8371 	 
H 	 -40.3604 	 11.9313 	 -96.1985 	 
S 	 -42.9754 	 18.6468 	 -97.981 	 
C 	 -44.5728 	 19.2492 	 -98.1995 	 
C 	 -45.1002 	 18.499 	 -99.2459 	 
C 	 -44.2763 	 17.5497 	 -99.8919 	 
C 	 -43.1023 	 17.3898 	 -99.2284 	 
H 	 -46.1024 	 18.7896 	 -99.5023 	 
C 	 -44.7434 	 16.6779 	 -101.022 	 
H 	 -43.9369 	 16.0764 	 -101.488 	 
H 	 -44.8811 	 17.3741 	 -101.858 	 
C 	 -45.8207 	 15.6016 	 -100.801 	 
H 	 -46.7079 	 16.0212 	 -100.386 	 
H 	 -45.4897 	 14.9139 	 -100.068 	 
C 	 -46.3536 	 14.9395 	 -102.131 	 
H 	 -45.6775 	 14.3237 	 -102.667 	 
H 	 -46.6666 	 15.7135 	 -102.841 	 
H 	 -47.2196 	 14.257 	 -101.936 	 
H 	 -38.6118 	 15.0674 	 -99.5323 	 
H 	 -45.1587 	 19.976 	 -97.5819 	 
*
