! wB97X-D3 SP def2-SVP
%pal
nprocs 24
end

* xyz 0 1
S 	 -83.1165 	 -12.9082 	 -59.2758 	 
C 	 -83.342 	 -11.2598 	 -59.6687 	 
C 	 -83.5239 	 -10.3695 	 -58.6309 	 
C 	 -83.552 	 -11.0595 	 -57.4012 	 
C 	 -83.4446 	 -12.4714 	 -57.5958 	 
H 	 -83.6397 	 -10.5359 	 -56.465 	 
C 	 -83.4037 	 -8.86284 	 -58.7049 	 
H 	 -84.2334 	 -8.3705 	 -58.1036 	 
H 	 -83.9614 	 -8.5602 	 -59.6364 	 
C 	 -82.0317 	 -8.26043 	 -58.5327 	 
H 	 -81.5915 	 -8.67859 	 -57.6298 	 
H 	 -81.3768 	 -8.58297 	 -59.3767 	 
C 	 -81.9667 	 -6.75429 	 -58.3796 	 
H 	 -82.5672 	 -6.55963 	 -57.4689 	 
H 	 -80.8972 	 -6.42343 	 -58.2596 	 
H 	 -82.462 	 -6.32491 	 -59.2761 	 
S 	 -81.655 	 -13.7995 	 -55.9762 	 
C 	 -82.1101 	 -14.2839 	 -54.3732 	 
C 	 -83.5053 	 -14.3327 	 -54.2617 	 
C 	 -84.1446 	 -13.819 	 -55.4468 	 
C 	 -83.2806 	 -13.3872 	 -56.458 	 
H 	 -83.9396 	 -14.7269 	 -53.3569 	 
C 	 -85.6185 	 -13.8872 	 -55.6219 	 
H 	 -85.8142 	 -13.0081 	 -56.2379 	 
H 	 -86.131 	 -13.7496 	 -54.6823 	 
C 	 -86.2064 	 -15.0388 	 -56.422 	 
H 	 -87.281 	 -14.9701 	 -56.544 	 
H 	 -85.9409 	 -15.9658 	 -55.8299 	 
C 	 -85.6616 	 -15.2351 	 -57.821 	 
H 	 -84.5894 	 -15.4916 	 -57.935 	 
H 	 -85.8236 	 -14.4485 	 -58.4482 	 
H 	 -86.2722 	 -16.074 	 -58.2471 	 
H 	 -83.2408 	 -10.9274 	 -60.7261 	 
H 	 -81.5204 	 -14.7725 	 -53.6591 	 
*
