! wB97X-D3 SP def2-SVP
%pal
nprocs 24
end

* xyz 0 1
S 	 41.1208 	 -16.0695 	 -109.216 	 
C 	 40.8902 	 -17.6923 	 -109.899 	 
C 	 42.013 	 -18.402 	 -109.584 	 
C 	 42.8933 	 -17.7762 	 -108.668 	 
C 	 42.5715 	 -16.4966 	 -108.362 	 
H 	 43.8322 	 -18.2545 	 -108.413 	 
C 	 42.2778 	 -19.7369 	 -110.196 	 
H 	 43.3736 	 -19.7514 	 -110.461 	 
H 	 41.8728 	 -19.9528 	 -111.19 	 
C 	 41.9982 	 -20.9608 	 -109.27 	 
H 	 42.5709 	 -21.8052 	 -109.584 	 
H 	 42.394 	 -20.7596 	 -108.286 	 
C 	 40.5213 	 -21.2744 	 -108.892 	 
H 	 39.8901 	 -21.419 	 -109.764 	 
H 	 40.5354 	 -22.2221 	 -108.238 	 
H 	 39.9847 	 -20.5192 	 -108.307 	 
S 	 43.5874 	 -14.0006 	 -108.137 	 
C 	 44.5211 	 -13.6588 	 -106.681 	 
C 	 44.7449 	 -14.7746 	 -105.877 	 
C 	 43.977 	 -15.8395 	 -106.301 	 
C 	 43.3168 	 -15.622 	 -107.518 	 
H 	 45.3791 	 -14.793 	 -105.04 	 
C 	 44.0033 	 -17.1839 	 -105.543 	 
H 	 44.5831 	 -17.0083 	 -104.578 	 
H 	 44.5227 	 -17.9336 	 -106.151 	 
C 	 42.6402 	 -17.8377 	 -105.193 	 
H 	 42.1969 	 -18.4101 	 -106.045 	 
H 	 41.8968 	 -17.0451 	 -105.116 	 
C 	 42.6793 	 -18.8872 	 -104.095 	 
H 	 41.736 	 -19.4036 	 -103.908 	 
H 	 43.1035 	 -18.5303 	 -103.191 	 
H 	 43.4929 	 -19.5604 	 -104.421 	 
H 	 40.0907 	 -17.984 	 -110.581 	 
H 	 44.989 	 -12.7282 	 -106.541 	 
*
