! wB97X-D3 SP def2-SVP
%pal
nprocs 24
end

* xyz 0 1
S 	 -98.5756 	 12.0165 	 -117.411 	 
C 	 -98.2613 	 13.5742 	 -116.837 	 
C 	 -98.0689 	 14.5252 	 -117.823 	 
C 	 -98.1339 	 13.8774 	 -119.078 	 
C 	 -98.4438 	 12.556 	 -119.096 	 
H 	 -97.9083 	 14.4522 	 -119.944 	 
C 	 -97.8738 	 16.0522 	 -117.699 	 
H 	 -98.4637 	 16.3868 	 -116.836 	 
H 	 -98.2281 	 16.6704 	 -118.553 	 
C 	 -96.4017 	 16.4647 	 -117.327 	 
H 	 -96.4774 	 17.5588 	 -117.208 	 
H 	 -96.2528 	 16.1688 	 -116.31 	 
C 	 -95.4109 	 16.069 	 -118.365 	 
H 	 -95.4095 	 14.9904 	 -118.597 	 
H 	 -95.6094 	 16.7906 	 -119.203 	 
H 	 -94.3862 	 16.2757 	 -118.128 	 
S 	 -99.6219 	 10.3248 	 -120.259 	 
C 	 -98.772 	 9.59989 	 -121.609 	 
C 	 -97.8136 	 10.3629 	 -122.139 	 
C 	 -97.6496 	 11.5673 	 -121.335 	 
C 	 -98.4554 	 11.5843 	 -120.18 	 
H 	 -97.2358 	 10.0291 	 -123.093 	 
C 	 -96.7243 	 12.6711 	 -121.808 	 
H 	 -95.7394 	 12.2377 	 -121.93 	 
H 	 -96.4767 	 13.3577 	 -120.983 	 
C 	 -97.1091 	 13.3287 	 -123.201 	 
H 	 -98.173 	 13.6283 	 -123.344 	 
H 	 -97.002 	 12.558 	 -123.914 	 
C 	 -96.3204 	 14.5949 	 -123.56 	 
H 	 -95.2974 	 14.4915 	 -123.2 	 
H 	 -96.778 	 15.4808 	 -123.015 	 
H 	 -96.283 	 14.8338 	 -124.623 	 
H 	 -98.323 	 13.8358 	 -115.695 	 
H 	 -99.1049 	 8.69747 	 -121.99 	 
*
