! wB97X-D3 SP def2-SVP
%pal
nprocs 24
end

* xyz 0 1
S 	 45.3642 	 -14.2579 	 -109.287 	 
C 	 45.9737 	 -13.6709 	 -110.852 	 
C 	 45.5571 	 -12.3813 	 -111.063 	 
C 	 44.8451 	 -11.8498 	 -109.961 	 
C 	 44.7366 	 -12.7043 	 -108.9 	 
H 	 44.4394 	 -10.8493 	 -109.9 	 
C 	 46.1129 	 -11.5549 	 -112.174 	 
H 	 45.6166 	 -10.61 	 -112.145 	 
H 	 45.859 	 -12.0854 	 -113.077 	 
C 	 47.6063 	 -11.224 	 -111.92 	 
H 	 47.7868 	 -10.5191 	 -111.075 	 
H 	 48.1698 	 -12.0831 	 -111.538 	 
C 	 48.1972 	 -10.6255 	 -113.21 	 
H 	 49.0443 	 -10.0302 	 -112.878 	 
H 	 48.4851 	 -11.3793 	 -113.987 	 
H 	 47.4372 	 -9.89895 	 -113.57 	 
S 	 42.6045 	 -13.5798 	 -107.509 	 
C 	 42.0927 	 -12.8893 	 -106.003 	 
C 	 42.9402 	 -11.8152 	 -105.608 	 
C 	 43.9625 	 -11.5184 	 -106.618 	 
C 	 43.9145 	 -12.447 	 -107.694 	 
H 	 42.8002 	 -11.3507 	 -104.64 	 
C 	 45.0644 	 -10.4541 	 -106.432 	 
H 	 45.6131 	 -10.4183 	 -107.36 	 
H 	 45.6707 	 -10.9059 	 -105.627 	 
C 	 44.6869 	 -9.06708 	 -105.899 	 
H 	 45.4444 	 -8.4374 	 -105.397 	 
H 	 43.8569 	 -9.08393 	 -105.269 	 
C 	 44.3301 	 -8.26605 	 -107.137 	 
H 	 43.827 	 -7.30869 	 -106.931 	 
H 	 43.5751 	 -8.79662 	 -107.771 	 
H 	 45.192 	 -7.93875 	 -107.702 	 
H 	 46.6393 	 -14.0382 	 -111.58 	 
H 	 41.2631 	 -13.2762 	 -105.357 	 
*
