! wB97X-D3 SP def2-SVP
%pal
nprocs 24
end

* xyz 0 1
S 	 -41.3312 	 18.5284 	 -101.672 	 
C 	 -41.3722 	 19.8013 	 -100.466 	 
C 	 -42.6259 	 20.1622 	 -100.141 	 
C 	 -43.6053 	 19.3925 	 -100.759 	 
C 	 -43.0761 	 18.6185 	 -101.793 	 
H 	 -44.645 	 19.5427 	 -100.698 	 
C 	 -43.0052 	 21.2827 	 -99.2549 	 
H 	 -43.7164 	 21.865 	 -99.8966 	 
H 	 -42.1761 	 21.9235 	 -99.1228 	 
C 	 -43.7374 	 20.9735 	 -98.0033 	 
H 	 -43.0645 	 20.5097 	 -97.269 	 
H 	 -44.1329 	 21.9291 	 -97.5297 	 
C 	 -44.9428 	 20.0665 	 -98.0734 	 
H 	 -45.6751 	 20.2227 	 -98.8427 	 
H 	 -44.5126 	 19.0778 	 -98.234 	 
H 	 -45.4025 	 20.0395 	 -97.0726 	 
S 	 -43.2078 	 18.1937 	 -104.492 	 
C 	 -44.4842 	 17.2066 	 -105.181 	 
C 	 -45.3865 	 16.8591 	 -104.218 	 
C 	 -45.1147 	 17.3442 	 -102.888 	 
C 	 -43.8358 	 17.9674 	 -102.81 	 
H 	 -46.2349 	 16.2897 	 -104.607 	 
C 	 -45.9383 	 16.9292 	 -101.709 	 
H 	 -46.8184 	 17.5499 	 -101.561 	 
H 	 -45.2575 	 17.043 	 -100.892 	 
C 	 -46.4483 	 15.4985 	 -101.649 	 
H 	 -46.9455 	 15.3034 	 -102.584 	 
H 	 -47.1549 	 15.3661 	 -100.799 	 
C 	 -45.3998 	 14.5121 	 -101.461 	 
H 	 -44.9267 	 14.3632 	 -102.447 	 
H 	 -45.6286 	 13.5669 	 -100.961 	 
H 	 -44.6326 	 14.8774 	 -100.699 	 
H 	 -40.5436 	 20.169 	 -99.9633 	 
H 	 -44.6545 	 16.9039 	 -106.235 	 
*
