! wB97X-D3 SP def2-SVP
%pal
nprocs 24
end

* xyz 0 1
S 	 13.6599 	 -14.8401 	 -115.365 	 
C 	 12.4732 	 -13.7549 	 -116.046 	 
C 	 11.5706 	 -14.3439 	 -116.873 	 
C 	 11.8088 	 -15.7263 	 -116.949 	 
C 	 13.0115 	 -16.0693 	 -116.364 	 
H 	 11.3413 	 -16.478 	 -117.597 	 
C 	 10.2602 	 -13.7385 	 -117.445 	 
H 	 10.4475 	 -13.4185 	 -118.505 	 
H 	 10.017 	 -12.9337 	 -116.687 	 
C 	 8.99171 	 -14.7009 	 -117.486 	 
H 	 8.93493 	 -15.26 	 -118.402 	 
H 	 9.03732 	 -15.3546 	 -116.607 	 
C 	 7.63373 	 -14.047 	 -117.372 	 
H 	 6.78234 	 -14.7032 	 -117.465 	 
H 	 7.45558 	 -13.655 	 -116.377 	 
H 	 7.4453 	 -13.2851 	 -118.162 	 
S 	 13.8585 	 -18.1667 	 -114.948 	 
C 	 14.3721 	 -19.6571 	 -115.735 	 
C 	 14.2119 	 -19.5188 	 -117.148 	 
C 	 13.7708 	 -18.2376 	 -117.562 	 
C 	 13.638 	 -17.3957 	 -116.468 	 
H 	 14.4819 	 -20.35 	 -117.745 	 
C 	 13.61 	 -17.864 	 -119.047 	 
H 	 12.532 	 -18.0048 	 -119.371 	 
H 	 14.1378 	 -18.6444 	 -119.532 	 
C 	 14.1388 	 -16.5209 	 -119.596 	 
H 	 15.1819 	 -16.5539 	 -119.368 	 
H 	 13.8525 	 -15.6746 	 -119.11 	 
C 	 13.8427 	 -16.3573 	 -121.097 	 
H 	 14.6334 	 -15.7356 	 -121.578 	 
H 	 12.8095 	 -15.958 	 -121.155 	 
H 	 14.0399 	 -17.4267 	 -121.416 	 
H 	 12.4983 	 -12.6983 	 -115.87 	 
H 	 14.7153 	 -20.5619 	 -115.246 	 
*
