! wB97X-D3 SP def2-SVP
%pal
nprocs 24
end

* xyz 0 1
S 	 -110.878 	 30.051 	 -20.7644 	 
C 	 -111.195 	 31.0512 	 -22.1751 	 
C 	 -112.537 	 31.3935 	 -22.2089 	 
C 	 -113.294 	 30.7348 	 -21.1668 	 
C 	 -112.553 	 29.9325 	 -20.3208 	 
H 	 -114.367 	 30.8782 	 -21.0889 	 
C 	 -113.136 	 32.1901 	 -23.3047 	 
H 	 -112.581 	 33.15 	 -23.4973 	 
H 	 -114.185 	 32.4446 	 -23.0297 	 
C 	 -113.378 	 31.4811 	 -24.5873 	 
H 	 -112.46 	 31.2525 	 -25.0303 	 
H 	 -113.827 	 30.5082 	 -24.3217 	 
C 	 -114.167 	 32.2848 	 -25.632 	 
H 	 -115.159 	 32.4672 	 -25.3612 	 
H 	 -113.625 	 33.1737 	 -25.8731 	 
H 	 -114.16 	 31.7479 	 -26.574 	 
S 	 -112.034 	 28.7296 	 -17.8954 	 
C 	 -113.299 	 27.7965 	 -17.0987 	 
C 	 -114.466 	 27.8581 	 -17.7878 	 
C 	 -114.339 	 28.4904 	 -19.088 	 
C 	 -113.146 	 29.1397 	 -19.2594 	 
H 	 -115.427 	 27.4348 	 -17.3634 	 
C 	 -115.523 	 28.5395 	 -19.9913 	 
H 	 -115.936 	 27.5353 	 -20.134 	 
H 	 -115.254 	 28.7887 	 -21.0114 	 
C 	 -116.6 	 29.6114 	 -19.6905 	 
H 	 -116.158 	 30.5985 	 -19.7823 	 
H 	 -116.8 	 29.537 	 -18.6397 	 
C 	 -117.927 	 29.5074 	 -20.5603 	 
H 	 -117.64 	 29.7214 	 -21.5473 	 
H 	 -118.764 	 30.1699 	 -20.1995 	 
H 	 -118.218 	 28.4311 	 -20.4332 	 
H 	 -110.488 	 31.2886 	 -22.9765 	 
H 	 -113.207 	 27.2142 	 -16.2247 	 
*
