! wB97X-D3 SP def2-SVP
%pal
nprocs 24
end

* xyz 0 1
S 	 -113.565 	 54.69 	 -38.3532 	 
C 	 -112.42 	 54.3509 	 -39.6727 	 
C 	 -112.95 	 54.7071 	 -40.8702 	 
C 	 -114.259 	 55.2566 	 -40.7742 	 
C 	 -114.637 	 55.5957 	 -39.4591 	 
H 	 -114.83 	 55.724 	 -41.6367 	 
C 	 -112.149 	 54.5854 	 -42.1867 	 
H 	 -112.869 	 54.2556 	 -42.9825 	 
H 	 -111.379 	 53.8501 	 -42.1361 	 
C 	 -111.616 	 55.8822 	 -42.7369 	 
H 	 -111.064 	 55.6242 	 -43.6697 	 
H 	 -112.476 	 56.4453 	 -43.128 	 
C 	 -110.764 	 56.6135 	 -41.6764 	 
H 	 -110.146 	 57.3952 	 -42.1703 	 
H 	 -111.4 	 57.161 	 -40.9963 	 
H 	 -110.108 	 55.852 	 -41.2799 	 
S 	 -116.682 	 55.5018 	 -37.7386 	 
C 	 -117.869 	 56.7883 	 -37.7965 	 
C 	 -117.695 	 57.6575 	 -38.8448 	 
C 	 -116.485 	 57.3765 	 -39.5155 	 
C 	 -115.84 	 56.2693 	 -39.0262 	 
H 	 -118.332 	 58.4474 	 -39.0079 	 
C 	 -115.906 	 58.3225 	 -40.562 	 
H 	 -116.607 	 58.2288 	 -41.4086 	 
H 	 -114.895 	 57.9719 	 -40.759 	 
C 	 -115.684 	 59.7556 	 -40.0899 	 
H 	 -115.131 	 59.7712 	 -39.1598 	 
H 	 -116.708 	 60.2206 	 -39.8361 	 
C 	 -114.98 	 60.682 	 -41.2173 	 
H 	 -115.202 	 61.7642 	 -41.1584 	 
H 	 -115.214 	 60.4105 	 -42.1956 	 
H 	 -113.878 	 60.5446 	 -41.1655 	 
H 	 -111.493 	 53.8577 	 -39.6186 	 
H 	 -118.677 	 57.0018 	 -37.1612 	 
*
