! wB97X-D3 SP def2-SVP
%pal
nprocs 24
end

* xyz 0 1
S 	 -39.3636 	 13.4455 	 21.1815 	 
C 	 -40.3405 	 13.8683 	 19.8374 	 
C 	 -41.7264 	 13.7213 	 20.1488 	 
C 	 -41.8575 	 13.4422 	 21.5466 	 
C 	 -40.7343 	 13.3882 	 22.3076 	 
H 	 -42.8619 	 13.3801 	 22.0599 	 
C 	 -42.8769 	 14.0028 	 19.1341 	 
H 	 -42.3207 	 13.9266 	 18.2163 	 
H 	 -43.2189 	 15.0676 	 19.2911 	 
C 	 -44.1166 	 13.0455 	 19.2482 	 
H 	 -44.5498 	 12.971 	 20.303 	 
H 	 -44.8059 	 13.3956 	 18.4696 	 
C 	 -43.8679 	 11.612 	 18.9065 	 
H 	 -43.033 	 11.2498 	 19.5085 	 
H 	 -44.7109 	 10.9872 	 19.0856 	 
H 	 -43.571 	 11.5578 	 17.8346 	 
S 	 -39.41 	 13.833 	 24.8187 	 
C 	 -40.0528 	 13.1553 	 26.2237 	 
C 	 -40.9318 	 12.0923 	 25.9485 	 
C 	 -41.2984 	 12.0344 	 24.5277 	 
C 	 -40.6067 	 13.0058 	 23.7597 	 
H 	 -41.4233 	 11.539 	 26.7488 	 
C 	 -42.311 	 11.0576 	 24.002 	 
H 	 -41.9184 	 10.0217 	 23.8152 	 
H 	 -42.6615 	 11.378 	 22.9958 	 
C 	 -43.6356 	 10.9653 	 24.7964 	 
H 	 -43.3211 	 10.6454 	 25.8042 	 
H 	 -44.2812 	 10.221 	 24.3021 	 
C 	 -44.3749 	 12.2892 	 24.9158 	 
H 	 -45.2126 	 12.2125 	 25.5826 	 
H 	 -44.7029 	 12.6283 	 23.9723 	 
H 	 -43.7328 	 13.0833 	 25.3435 	 
H 	 -39.921 	 14.0788 	 18.8267 	 
H 	 -39.8721 	 13.291 	 27.2892 	 
*
