! wB97X-D3 SP def2-SVP
%pal
nprocs 24
end

* xyz 0 1
S 	 -90.165 	 -32.2972 	 -62.2275 	 
C 	 -89.442 	 -33.7609 	 -62.9475 	 
C 	 -88.3305 	 -34.2443 	 -62.3117 	 
C 	 -88.1428 	 -33.4779 	 -61.1661 	 
C 	 -89.0502 	 -32.3909 	 -60.9189 	 
H 	 -87.3026 	 -33.5386 	 -60.5253 	 
C 	 -87.3462 	 -35.3419 	 -62.7821 	 
H 	 -86.3744 	 -34.9374 	 -62.6245 	 
H 	 -87.4414 	 -35.3062 	 -63.875 	 
C 	 -87.6462 	 -36.717 	 -62.0839 	 
H 	 -87.3205 	 -36.6991 	 -61.0635 	 
H 	 -88.7415 	 -36.8524 	 -62.1027 	 
C 	 -86.8082 	 -37.8537 	 -62.7175 	 
H 	 -86.817 	 -38.8331 	 -62.2386 	 
H 	 -87.2668 	 -38.0093 	 -63.6739 	 
H 	 -85.7332 	 -37.6193 	 -62.9555 	 
S 	 -88.9388 	 -29.7388 	 -60.2072 	 
C 	 -88.4158 	 -29.2742 	 -58.6378 	 
C 	 -88.4619 	 -30.3485 	 -57.7896 	 
C 	 -88.5623 	 -31.6009 	 -58.4526 	 
C 	 -88.9463 	 -31.4557 	 -59.8114 	 
H 	 -88.2398 	 -30.2426 	 -56.7323 	 
C 	 -88.4437 	 -32.8984 	 -57.6385 	 
H 	 -87.5478 	 -33.0285 	 -57.1219 	 
H 	 -88.5975 	 -33.7869 	 -58.2713 	 
C 	 -89.47 	 -32.9661 	 -56.5127 	 
H 	 -90.3754 	 -32.747 	 -56.9833 	 
H 	 -89.3581 	 -32.1472 	 -55.7794 	 
C 	 -89.75 	 -34.3523 	 -55.9344 	 
H 	 -89.9628 	 -35.0927 	 -56.6567 	 
H 	 -90.5942 	 -34.2522 	 -55.2171 	 
H 	 -88.9109 	 -34.8652 	 -55.4511 	 
H 	 -89.933 	 -34.3326 	 -63.707 	 
H 	 -88.3346 	 -28.19 	 -58.3541 	 
*
