! wB97X-D3 SP def2-SVP
%pal
nprocs 24
end

* xyz 0 1
S 	 -127.691 	 69.6006 	 -61.0984 	 
C 	 -127.029 	 71.0071 	 -60.206 	 
C 	 -127.083 	 72.2031 	 -60.9365 	 
C 	 -127.781 	 71.9765 	 -62.1438 	 
C 	 -128.034 	 70.6121 	 -62.4534 	 
H 	 -128.023 	 72.8091 	 -62.7521 	 
C 	 -126.595 	 73.5215 	 -60.3237 	 
H 	 -125.973 	 73.3766 	 -59.4649 	 
H 	 -127.637 	 73.9278 	 -60.0195 	 
C 	 -125.881 	 74.4161 	 -61.3733 	 
H 	 -126.432 	 74.4954 	 -62.3207 	 
H 	 -125.958 	 75.4057 	 -60.9578 	 
C 	 -124.392 	 74.1774 	 -61.5151 	 
H 	 -124.326 	 73.2168 	 -62.0278 	 
H 	 -123.77 	 74.8666 	 -62.108 	 
H 	 -123.795 	 74.1402 	 -60.5178 	 
S 	 -130.393 	 69.5776 	 -63.3306 	 
C 	 -130.602 	 69.1838 	 -65.0523 	 
C 	 -129.599 	 69.7735 	 -65.7335 	 
C 	 -128.514 	 70.2824 	 -64.9375 	 
C 	 -128.796 	 70.2022 	 -63.5654 	 
H 	 -129.555 	 69.6159 	 -66.8203 	 
C 	 -127.265 	 70.8619 	 -65.5506 	 
H 	 -126.788 	 71.6529 	 -64.9769 	 
H 	 -127.643 	 71.4963 	 -66.2805 	 
C 	 -126.217 	 69.8384 	 -66.0953 	 
H 	 -125.551 	 70.4612 	 -66.6643 	 
H 	 -126.709 	 69.1547 	 -66.8416 	 
C 	 -125.405 	 69.2079 	 -64.971 	 
H 	 -124.895 	 69.8927 	 -64.3078 	 
H 	 -124.615 	 68.4752 	 -65.3148 	 
H 	 -126.088 	 68.6772 	 -64.1948 	 
H 	 -126.775 	 70.8523 	 -59.2278 	 
H 	 -131.529 	 68.6232 	 -65.3897 	 
*
