! wB97X-D3 SP def2-SVP
%pal
nprocs 24
end

* xyz 0 1
S 	 -46.2896 	 12.2031 	 25.2716 	 
C 	 -47.9698 	 11.5623 	 24.9318 	 
C 	 -48.8663 	 11.8741 	 25.9423 	 
C 	 -48.233 	 12.7036 	 26.9333 	 
C 	 -46.9557 	 13.056 	 26.6494 	 
H 	 -48.7203 	 13.1089 	 27.8499 	 
C 	 -50.2268 	 11.1573 	 26.2468 	 
H 	 -50.7154 	 10.9539 	 25.2985 	 
H 	 -50.9624 	 11.9168 	 26.6093 	 
C 	 -50.1564 	 9.82944 	 27.0257 	 
H 	 -51.1584 	 9.3351 	 27.1125 	 
H 	 -49.6242 	 9.15242 	 26.3618 	 
C 	 -49.4708 	 10.0372 	 28.3555 	 
H 	 -48.5993 	 10.7387 	 28.3353 	 
H 	 -50.1697 	 10.3979 	 29.0852 	 
H 	 -49.0044 	 9.1264 	 28.7344 	 
S 	 -45.033 	 13.2405 	 28.6166 	 
C 	 -44.5232 	 14.8514 	 29.1075 	 
C 	 -45.4114 	 15.8036 	 28.677 	 
C 	 -46.3087 	 15.3691 	 27.6831 	 
C 	 -46.1832 	 13.981 	 27.5093 	 
H 	 -45.2438 	 16.8392 	 28.9807 	 
C 	 -47.2004 	 16.3797 	 26.9035 	 
H 	 -48.1666 	 16.5975 	 27.3751 	 
H 	 -47.3766 	 15.9511 	 25.9117 	 
C 	 -46.6056 	 17.7518 	 26.6448 	 
H 	 -46.3253 	 18.31 	 27.5635 	 
H 	 -47.3001 	 18.3962 	 26.1307 	 
C 	 -45.3553 	 17.6294 	 25.7761 	 
H 	 -44.5006 	 17.0431 	 26.2253 	 
H 	 -45.0184 	 18.6511 	 25.5521 	 
H 	 -45.7504 	 17.2449 	 24.812 	 
H 	 -48.1427 	 10.7644 	 24.1508 	 
H 	 -43.7482 	 15.0551 	 29.8104 	 
*
