! wB97X-D3 SP def2-SVP
%pal
nprocs 24
end

* xyz 0 1
S 	 -100.745 	 26.3574 	 -118.877 	 
C 	 -102.274 	 26.1936 	 -118.02 	 
C 	 -103.044 	 27.3042 	 -118.249 	 
C 	 -102.448 	 28.2905 	 -119.101 	 
C 	 -101.191 	 27.8687 	 -119.557 	 
H 	 -102.884 	 29.2217 	 -119.454 	 
C 	 -104.353 	 27.6003 	 -117.596 	 
H 	 -104.523 	 27.0043 	 -116.744 	 
H 	 -105.097 	 27.4296 	 -118.38 	 
C 	 -104.351 	 29.0313 	 -117.074 	 
H 	 -103.63 	 29.0738 	 -116.292 	 
H 	 -104.153 	 29.6901 	 -117.816 	 
C 	 -105.582 	 29.4308 	 -116.242 	 
H 	 -105.688 	 28.8536 	 -115.32 	 
H 	 -105.625 	 30.4897 	 -116.079 	 
H 	 -106.52 	 29.2635 	 -116.81 	 
S 	 -98.6776 	 28.9121 	 -120.037 	 
C 	 -98.3301 	 29.6347 	 -121.607 	 
C 	 -99.4077 	 29.5977 	 -122.506 	 
C 	 -100.626 	 29.085 	 -121.851 	 
C 	 -100.362 	 28.6608 	 -120.486 	 
H 	 -99.2999 	 29.8309 	 -123.579 	 
C 	 -101.814 	 28.6557 	 -122.737 	 
H 	 -101.864 	 29.2635 	 -123.667 	 
H 	 -102.629 	 28.9782 	 -122.155 	 
C 	 -101.886 	 27.1309 	 -123.155 	 
H 	 -101.694 	 26.3972 	 -122.285 	 
H 	 -101.134 	 26.9058 	 -123.871 	 
C 	 -103.168 	 26.735 	 -123.965 	 
H 	 -103.361 	 27.4561 	 -124.76 	 
H 	 -104.081 	 26.7195 	 -123.261 	 
H 	 -103.035 	 25.7111 	 -124.403 	 
H 	 -102.492 	 25.4535 	 -117.287 	 
H 	 -97.4344 	 30.0478 	 -121.895 	 
*
