! wB97X-D3 SP def2-SVP
%pal
nprocs 24
end

* xyz 0 1
S 	 -73.5464 	 1.14798 	 -108.149 	 
C 	 -74.0527 	 2.83998 	 -108.088 	 
C 	 -73.7357 	 3.55508 	 -109.264 	 
C 	 -73.1863 	 2.7613 	 -110.305 	 
C 	 -73.0511 	 1.4817 	 -109.857 	 
H 	 -72.8642 	 3.0068 	 -111.316 	 
C 	 -74.1144 	 5.0461 	 -109.5 	 
H 	 -73.3626 	 5.49426 	 -110.108 	 
H 	 -73.9325 	 5.47591 	 -108.495 	 
C 	 -75.5789 	 5.40151 	 -109.956 	 
H 	 -75.9905 	 4.74277 	 -110.727 	 
H 	 -76.1982 	 5.15173 	 -109.126 	 
C 	 -75.799 	 6.81708 	 -110.385 	 
H 	 -75.1604 	 6.95305 	 -111.255 	 
H 	 -76.814 	 7.06105 	 -110.711 	 
H 	 -75.4517 	 7.52942 	 -109.565 	 
S 	 -73.3044 	 -1.05178 	 -110.592 	 
C 	 -71.8903 	 -1.90819 	 -111.173 	 
C 	 -70.8434 	 -1.08009 	 -111.409 	 
C 	 -71.145 	 0.247112 	 -111.1 	 
C 	 -72.3893 	 0.370141 	 -110.514 	 
H 	 -69.8979 	 -1.29994 	 -111.822 	 
C 	 -70.1094 	 1.29292 	 -111.072 	 
H 	 -70.6387 	 2.20442 	 -111.298 	 
H 	 -69.4714 	 1.10088 	 -111.845 	 
C 	 -69.4275 	 1.42196 	 -109.732 	 
H 	 -68.8428 	 0.623016 	 -109.49 	 
H 	 -70.1439 	 1.42557 	 -108.909 	 
C 	 -68.552 	 2.7123 	 -109.761 	 
H 	 -67.7641 	 2.7753 	 -110.477 	 
H 	 -68.0677 	 2.79649 	 -108.774 	 
H 	 -69.1098 	 3.56156 	 -109.923 	 
H 	 -74.55 	 3.27192 	 -107.179 	 
H 	 -71.8466 	 -2.98466 	 -111.323 	 
*
