! wB97X-D3 SP def2-SVP
%pal
nprocs 24
end

* xyz 0 1
S 	 -35.8355 	 -5.30103 	 5.93701 	 
C 	 -36.2259 	 -4.48523 	 7.46981 	 
C 	 -37.2384 	 -5.13633 	 8.12782 	 
C 	 -37.737 	 -6.27421 	 7.39356 	 
C 	 -37.1666 	 -6.48454 	 6.17117 	 
H 	 -38.5768 	 -6.94899 	 7.57064 	 
C 	 -37.7325 	 -4.71165 	 9.49509 	 
H 	 -37.0333 	 -4.10149 	 10.0516 	 
H 	 -37.8023 	 -5.64634 	 10.172 	 
C 	 -38.9429 	 -3.82783 	 9.65546 	 
H 	 -38.6543 	 -2.96254 	 9.11864 	 
H 	 -39.7873 	 -4.33465 	 9.16301 	 
C 	 -39.1785 	 -3.47285 	 11.1382 	 
H 	 -39.4254 	 -4.27578 	 11.8624 	 
H 	 -38.3448 	 -2.87106 	 11.4711 	 
H 	 -39.9425 	 -2.70915 	 11.1577 	 
S 	 -36.1629 	 -8.63322 	 4.74442 	 
C 	 -37.3397 	 -9.37769 	 3.71858 	 
C 	 -38.6553 	 -9.00877 	 3.93373 	 
C 	 -38.7898 	 -7.94219 	 4.87916 	 
C 	 -37.5037 	 -7.58587 	 5.28917 	 
H 	 -39.4389 	 -9.44786 	 3.38018 	 
C 	 -40.0983 	 -7.40085 	 5.28477 	 
H 	 -40.2671 	 -7.45824 	 6.35307 	 
H 	 -40.9656 	 -7.87463 	 4.85171 	 
C 	 -40.4255 	 -5.96324 	 4.86618 	 
H 	 -40.336 	 -5.88743 	 3.74417 	 
H 	 -39.596 	 -5.32683 	 5.25725 	 
C 	 -41.7478 	 -5.32417 	 5.41618 	 
H 	 -41.8933 	 -5.59723 	 6.41714 	 
H 	 -42.6271 	 -5.6683 	 4.86281 	 
H 	 -41.7242 	 -4.21223 	 5.35714 	 
H 	 -35.6703 	 -3.69475 	 7.95317 	 
H 	 -37.1063 	 -10.134 	 2.93087 	 
*
