! wB97X-D3 SP def2-SVP
%pal
nprocs 24
end

* xyz 0 1
S 	 -17.8942 	 -29.9838 	 -94.9526 	 
C 	 -16.5559 	 -30.8151 	 -94.3088 	 
C 	 -16.9761 	 -32.0993 	 -93.8572 	 
C 	 -18.3729 	 -32.3044 	 -94.0701 	 
C 	 -19.0796 	 -31.1618 	 -94.5828 	 
H 	 -18.7454 	 -33.2265 	 -93.7976 	 
C 	 -16.1174 	 -33.1446 	 -93.06 	 
H 	 -16.1317 	 -32.9123 	 -92.032 	 
H 	 -15.1669 	 -32.9256 	 -93.3872 	 
C 	 -16.4421 	 -34.6505 	 -93.2808 	 
H 	 -15.751 	 -35.2216 	 -92.6866 	 
H 	 -17.4324 	 -34.9252 	 -92.984 	 
C 	 -16.1827 	 -35.2243 	 -94.6972 	 
H 	 -15.1206 	 -35.1524 	 -94.7612 	 
H 	 -16.3986 	 -36.2899 	 -94.6639 	 
H 	 -16.5911 	 -34.7859 	 -95.5582 	 
S 	 -21.6639 	 -31.9539 	 -94.1121 	 
C 	 -22.8444 	 -31.8157 	 -95.4222 	 
C 	 -22.3742 	 -31.0085 	 -96.4637 	 
C 	 -20.9518 	 -30.7134 	 -96.3151 	 
C 	 -20.4546 	 -31.1015 	 -95.0509 	 
H 	 -23.0671 	 -30.8263 	 -97.2873 	 
C 	 -20.2016 	 -29.9766 	 -97.4714 	 
H 	 -20.6534 	 -30.3654 	 -98.4204 	 
H 	 -19.1046 	 -30.2886 	 -97.5537 	 
C 	 -20.1717 	 -28.4259 	 -97.3416 	 
H 	 -19.7278 	 -28.0913 	 -96.4399 	 
H 	 -21.2032 	 -27.9519 	 -97.3803 	 
C 	 -19.3258 	 -27.638 	 -98.372 	 
H 	 -19.8837 	 -27.6685 	 -99.3419 	 
H 	 -18.4855 	 -28.2576 	 -98.6203 	 
H 	 -19.0381 	 -26.6855 	 -98.0593 	 
H 	 -15.4768 	 -30.4182 	 -94.2843 	 
H 	 -23.7823 	 -32.2958 	 -95.526 	 
*
