! wB97X-D3 SP def2-SVP
%pal
nprocs 24
end

* xyz 0 1
S 	 -54.919 	 4.69493 	 -29.8118 	 
C 	 -56.6751 	 5.09308 	 -29.759 	 
C 	 -56.8656 	 6.43221 	 -29.8909 	 
C 	 -55.7208 	 7.10521 	 -30.3372 	 
C 	 -54.6696 	 6.26246 	 -30.5649 	 
H 	 -55.6627 	 8.15086 	 -30.7688 	 
C 	 -58.2034 	 7.14122 	 -29.6258 	 
H 	 -59.0314 	 6.39791 	 -29.689 	 
H 	 -58.3557 	 7.8333 	 -30.461 	 
C 	 -58.3234 	 7.94074 	 -28.33 	 
H 	 -58.4958 	 7.26478 	 -27.4321 	 
H 	 -57.3806 	 8.49682 	 -28.0949 	 
C 	 -59.5616 	 8.71324 	 -28.1673 	 
H 	 -60.4251 	 7.99615 	 -28.1255 	 
H 	 -59.5665 	 9.28634 	 -27.2152 	 
H 	 -59.6124 	 9.41806 	 -28.8991 	 
S 	 -51.938 	 6.25737 	 -30.4019 	 
C 	 -51.0154 	 6.79622 	 -31.8059 	 
C 	 -51.8167 	 7.33498 	 -32.7881 	 
C 	 -53.1869 	 7.11107 	 -32.4489 	 
C 	 -53.4123 	 6.59647 	 -31.1647 	 
H 	 -51.3477 	 7.77945 	 -33.6914 	 
C 	 -54.2305 	 7.43807 	 -33.4912 	 
H 	 -53.8923 	 8.1847 	 -34.2298 	 
H 	 -55.0527 	 8.07645 	 -33.0814 	 
C 	 -54.8644 	 6.26885 	 -34.1529 	 
H 	 -55.5707 	 6.69836 	 -34.8771 	 
H 	 -55.5174 	 5.6799 	 -33.4655 	 
C 	 -53.8555 	 5.23829 	 -34.7914 	 
H 	 -53.4295 	 4.55053 	 -33.9776 	 
H 	 -53.0531 	 5.68373 	 -35.4066 	 
H 	 -54.2813 	 4.62096 	 -35.4998 	 
H 	 -57.4058 	 4.44132 	 -29.3722 	 
H 	 -49.9715 	 6.83477 	 -31.9772 	 
*
