! wB97X-D3 SP def2-SVP
%pal
nprocs 24
end

* xyz 0 1
S 	 -66.863 	 5.58109 	 -71.4409 	 
C 	 -65.9491 	 6.47827 	 -72.603 	 
C 	 -65.1322 	 5.70138 	 -73.3622 	 
C 	 -65.254 	 4.26862 	 -72.9949 	 
C 	 -66.1484 	 4.02891 	 -71.9968 	 
H 	 -64.6762 	 3.49083 	 -73.4278 	 
C 	 -64.2621 	 6.02934 	 -74.5253 	 
H 	 -63.3057 	 5.49661 	 -74.3447 	 
H 	 -63.8295 	 7.0377 	 -74.3829 	 
C 	 -64.924 	 5.73889 	 -75.8652 	 
H 	 -65.6531 	 6.52806 	 -76.0191 	 
H 	 -64.129 	 5.81754 	 -76.6479 	 
C 	 -65.73 	 4.36896 	 -76.1445 	 
H 	 -66.6397 	 4.20162 	 -75.5425 	 
H 	 -66.1223 	 4.23708 	 -77.2057 	 
H 	 -65.1776 	 3.46063 	 -75.9746 	 
S 	 -66.0072 	 2.83664 	 -69.6232 	 
C 	 -66.423 	 1.09459 	 -69.4974 	 
C 	 -66.9077 	 0.639552 	 -70.69 	 
C 	 -66.9594 	 1.58643 	 -71.6946 	 
C 	 -66.5676 	 2.82641 	 -71.2865 	 
H 	 -67.1771 	 -0.393274 	 -70.7809 	 
C 	 -67.3904 	 1.15245 	 -73.0359 	 
H 	 -67.1375 	 2.03734 	 -73.706 	 
H 	 -68.472 	 0.894978 	 -73.01 	 
C 	 -66.6424 	 -0.0493486 	 -73.5871 	 
H 	 -67.0964 	 -0.411384 	 -74.5279 	 
H 	 -66.7819 	 -0.916311 	 -72.8909 	 
C 	 -65.0938 	 0.11821 	 -73.7814 	 
H 	 -64.5207 	 -0.654629 	 -73.3688 	 
H 	 -64.672 	 0.955471 	 -73.1938 	 
H 	 -64.815 	 0.359657 	 -74.7919 	 
H 	 -65.9949 	 7.51276 	 -72.6737 	 
H 	 -66.3519 	 0.405711 	 -68.6682 	 
*
