! wB97X-D3 SP def2-SVP
%pal
nprocs 24
end

* xyz 0 1
S 	 36.8737 	 -6.53981 	 -115.321 	 
C 	 37.6253 	 -8.0889 	 -115.267 	 
C 	 37.5391 	 -8.69144 	 -114.065 	 
C 	 36.9601 	 -7.87439 	 -113.101 	 
C 	 36.5925 	 -6.64567 	 -113.589 	 
H 	 36.8668 	 -7.97241 	 -112.024 	 
C 	 38.2506 	 -10.0121 	 -113.733 	 
H 	 38.8533 	 -10.2746 	 -114.597 	 
H 	 37.431 	 -10.6558 	 -113.663 	 
C 	 39.0937 	 -10.0108 	 -112.454 	 
H 	 39.735 	 -9.14987 	 -112.478 	 
H 	 38.3867 	 -9.76698 	 -111.712 	 
C 	 39.8079 	 -11.2591 	 -112.133 	 
H 	 40.1557 	 -11.1582 	 -111.068 	 
H 	 39.1285 	 -12.079 	 -112.035 	 
H 	 40.7075 	 -11.491 	 -112.769 	 
S 	 37.0729 	 -3.97208 	 -113.051 	 
C 	 36.232 	 -3.2451 	 -111.793 	 
C 	 35.2899 	 -4.05237 	 -111.24 	 
C 	 35.358 	 -5.37297 	 -111.719 	 
C 	 36.1425 	 -5.49133 	 -112.86 	 
H 	 34.6513 	 -3.69566 	 -110.495 	 
C 	 34.5882 	 -6.48351 	 -110.983 	 
H 	 34.7633 	 -6.28142 	 -109.89 	 
H 	 35.1355 	 -7.38903 	 -111.113 	 
C 	 33.1339 	 -6.63829 	 -111.486 	 
H 	 32.8857 	 -7.55817 	 -111.001 	 
H 	 33.085 	 -6.84642 	 -112.585 	 
C 	 32.1363 	 -5.53323 	 -111.001 	 
H 	 32.18 	 -5.38053 	 -109.95 	 
H 	 31.1762 	 -5.96577 	 -111.097 	 
H 	 32.2342 	 -4.7147 	 -111.629 	 
H 	 37.9787 	 -8.54435 	 -116.163 	 
H 	 36.395 	 -2.24677 	 -111.532 	 
*
