! wB97X-D3 SP def2-SVP
%pal
nprocs 24
end

* xyz 0 1
S 	 -60.6171 	 10.7863 	 21.8508 	 
C 	 -59.2368 	 11.8533 	 21.6346 	 
C 	 -58.0866 	 11.3506 	 22.2221 	 
C 	 -58.3124 	 10.1041 	 22.8796 	 
C 	 -59.6451 	 9.68275 	 22.8264 	 
H 	 -57.6342 	 9.52491 	 23.4828 	 
C 	 -56.7004 	 11.8907 	 21.8557 	 
H 	 -56.8943 	 12.8461 	 21.4551 	 
H 	 -56.2503 	 11.2932 	 21.0848 	 
C 	 -55.816 	 12.1243 	 23.1162 	 
H 	 -55.0394 	 12.8145 	 22.8027 	 
H 	 -56.2714 	 12.7176 	 23.9536 	 
C 	 -55.33 	 10.8095 	 23.8031 	 
H 	 -54.2026 	 10.6907 	 23.9468 	 
H 	 -55.8483 	 10.7822 	 24.7658 	 
H 	 -55.5693 	 9.9624 	 23.2095 	 
S 	 -61.3846 	 8.7781 	 24.686 	 
C 	 -61.4429 	 7.07678 	 24.9535 	 
C 	 -60.611 	 6.36174 	 24.1072 	 
C 	 -59.9469 	 7.18034 	 23.1483 	 
C 	 -60.2304 	 8.52391 	 23.3945 	 
H 	 -60.5186 	 5.29591 	 24.2426 	 
C 	 -59.1122 	 6.56487 	 22.1 	 
H 	 -58.591 	 5.79091 	 22.5349 	 
H 	 -58.3486 	 7.27348 	 21.8135 	 
C 	 -59.8569 	 6.06747 	 20.7951 	 
H 	 -60.3564 	 5.18691 	 21.1964 	 
H 	 -59.1223 	 5.67729 	 20.0706 	 
C 	 -60.6818 	 7.18287 	 20.1395 	 
H 	 -60.1326 	 8.14946 	 20.1081 	 
H 	 -61.4973 	 7.42242 	 20.7811 	 
H 	 -60.9907 	 6.86403 	 19.0982 	 
H 	 -59.3323 	 12.7067 	 20.9923 	 
H 	 -62.0687 	 6.56359 	 25.6525 	 
*
