! wB97X-D3 SP def2-SVP
%pal
nprocs 24
end

* xyz 0 1
S 	 -124.953 	 12.7207 	 -12.0039 	 
C 	 -123.302 	 13.0759 	 -12.1666 	 
C 	 -122.601 	 11.9881 	 -12.5637 	 
C 	 -123.387 	 10.7845 	 -12.6516 	 
C 	 -124.722 	 11.0311 	 -12.3836 	 
H 	 -123.079 	 9.81721 	 -12.8918 	 
C 	 -121.117 	 11.9225 	 -12.8318 	 
H 	 -120.99 	 11.741 	 -13.8929 	 
H 	 -120.736 	 11.0011 	 -12.4031 	 
C 	 -120.253 	 13.0415 	 -12.2913 	 
H 	 -120.432 	 14.0107 	 -12.7846 	 
H 	 -120.568 	 13.3056 	 -11.2594 	 
C 	 -118.764 	 12.7299 	 -12.2663 	 
H 	 -118.591 	 11.8781 	 -11.627 	 
H 	 -118.249 	 12.5897 	 -13.2094 	 
H 	 -118.325 	 13.6115 	 -11.8226 	 
S 	 -127.198 	 10.0455 	 -13.3569 	 
C 	 -128.142 	 9.04674 	 -12.2886 	 
C 	 -127.306 	 8.46773 	 -11.396 	 
C 	 -126.007 	 9.09899 	 -11.2933 	 
C 	 -125.867 	 10.1549 	 -12.1759 	 
H 	 -127.744 	 7.631 	 -10.8296 	 
C 	 -124.972 	 8.66107 	 -10.3376 	 
H 	 -124.339 	 9.53225 	 -10.2227 	 
H 	 -124.428 	 7.93657 	 -10.9699 	 
C 	 -125.451 	 8.05168 	 -9.0165 	 
H 	 -125.993 	 7.13179 	 -9.14687 	 
H 	 -126.176 	 8.62338 	 -8.54519 	 
C 	 -124.261 	 7.81131 	 -8.11336 	 
H 	 -123.473 	 7.21726 	 -8.55375 	 
H 	 -124.606 	 7.39804 	 -7.14371 	 
H 	 -123.789 	 8.72649 	 -7.88171 	 
H 	 -122.938 	 14.0559 	 -11.9107 	 
H 	 -129.146 	 8.66906 	 -12.4795 	 
*
