! wB97X-D3 SP def2-SVP
%pal
nprocs 24
end

* xyz 0 1
S 	 -56.9112 	 4.50787 	 -100.769 	 
C 	 -58.421 	 5.20557 	 -101.225 	 
C 	 -58.4223 	 6.60435 	 -101.009 	 
C 	 -57.1798 	 7.09579 	 -100.54 	 
C 	 -56.2709 	 6.08331 	 -100.265 	 
H 	 -56.9311 	 8.10322 	 -100.338 	 
C 	 -59.5467 	 7.52711 	 -101.474 	 
H 	 -60.2181 	 7.69097 	 -100.671 	 
H 	 -60.0575 	 7.08878 	 -102.356 	 
C 	 -59.1205 	 8.95539 	 -102.005 	 
H 	 -58.8882 	 9.61803 	 -101.229 	 
H 	 -58.2636 	 8.8621 	 -102.662 	 
C 	 -60.2721 	 9.65435 	 -102.748 	 
H 	 -59.7977 	 10.5818 	 -103.115 	 
H 	 -60.604 	 9.04395 	 -103.65 	 
H 	 -61.2053 	 9.79424 	 -102.253 	 
S 	 -54.2284 	 4.77466 	 -98.9408 	 
C 	 -52.9583 	 5.69729 	 -98.1368 	 
C 	 -52.8936 	 6.90787 	 -98.7322 	 
C 	 -54.0389 	 7.27443 	 -99.5818 	 
C 	 -54.9642 	 6.21156 	 -99.6392 	 
H 	 -52.0818 	 7.51783 	 -98.4004 	 
C 	 -54.0044 	 8.69123 	 -100.157 	 
H 	 -54.7197 	 8.81694 	 -100.989 	 
H 	 -53.061 	 9.00722 	 -100.544 	 
C 	 -54.3465 	 9.80607 	 -99.1277 	 
H 	 -53.4197 	 9.9091 	 -98.5232 	 
H 	 -55.1815 	 9.46626 	 -98.506 	 
C 	 -54.7877 	 11.2474 	 -99.7031 	 
H 	 -55.6822 	 11.0951 	 -100.349 	 
H 	 -53.9868 	 11.7243 	 -100.179 	 
H 	 -54.9609 	 11.961 	 -98.8838 	 
H 	 -59.3652 	 4.72006 	 -101.552 	 
H 	 -52.2148 	 5.30163 	 -97.5036 	 
*
