! wB97X-D3 SP def2-SVP
%pal
nprocs 24
end

* xyz 0 1
S 	 15.6502 	 -11.5312 	 -127.209 	 
C 	 14.7091 	 -12.3853 	 -128.386 	 
C 	 14.5496 	 -13.7332 	 -128.059 	 
C 	 15.0759 	 -14.0098 	 -126.711 	 
C 	 15.5617 	 -12.8727 	 -126.088 	 
H 	 15.1347 	 -14.9498 	 -126.151 	 
C 	 13.9287 	 -14.7657 	 -129.003 	 
H 	 14.4792 	 -15.6499 	 -128.921 	 
H 	 14.1662 	 -14.4672 	 -129.988 	 
C 	 12.4374 	 -14.9726 	 -128.795 	 
H 	 12.0571 	 -15.6268 	 -129.524 	 
H 	 12.4015 	 -15.5518 	 -127.884 	 
C 	 11.5679 	 -13.6513 	 -128.949 	 
H 	 11.5657 	 -13.1169 	 -129.898 	 
H 	 10.6052 	 -14.0746 	 -128.666 	 
H 	 12.0086 	 -13.0076 	 -128.248 	 
S 	 18.012 	 -12.3241 	 -124.993 	 
C 	 18.148 	 -12.4225 	 -123.28 	 
C 	 16.9412 	 -12.7183 	 -122.665 	 
C 	 15.8786 	 -12.9051 	 -123.573 	 
C 	 16.3407 	 -12.8391 	 -124.868 	 
H 	 16.8812 	 -12.7195 	 -121.565 	 
C 	 14.4732 	 -13.1224 	 -123.049 	 
H 	 13.7183 	 -13.0998 	 -123.859 	 
H 	 14.2391 	 -12.417 	 -122.248 	 
C 	 14.3179 	 -14.546 	 -122.376 	 
H 	 13.4153 	 -14.6168 	 -121.866 	 
H 	 15.1296 	 -14.7272 	 -121.719 	 
C 	 14.3441 	 -15.6502 	 -123.495 	 
H 	 15.2828 	 -15.4943 	 -124.076 	 
H 	 13.4468 	 -15.6554 	 -124.159 	 
H 	 14.298 	 -16.6821 	 -123.073 	 
H 	 14.3856 	 -11.9493 	 -129.318 	 
H 	 18.9888 	 -12.0509 	 -122.782 	 
*
