! wB97X-D3 SP def2-SVP
%pal
nprocs 24
end

* xyz 0 1
S 	 -42.4433 	 7.4274 	 29.6697 	 
C 	 -44.0437 	 6.9316 	 30.3059 	 
C 	 -45.0337 	 7.73095 	 29.7746 	 
C 	 -44.5043 	 8.74584 	 28.845 	 
C 	 -43.0996 	 8.7762 	 28.7896 	 
H 	 -45.121 	 9.34817 	 28.25 	 
C 	 -46.5356 	 7.48011 	 29.9259 	 
H 	 -46.6258 	 6.5853 	 30.5034 	 
H 	 -46.8858 	 7.09628 	 28.9531 	 
C 	 -47.4123 	 8.55885 	 30.5255 	 
H 	 -48.427 	 8.12996 	 30.7562 	 
H 	 -47.0374 	 8.84037 	 31.5116 	 
C 	 -47.7379 	 9.76343 	 29.7549 	 
H 	 -48.4774 	 10.5069 	 30.2126 	 
H 	 -46.745 	 10.2478 	 29.7285 	 
H 	 -48.0935 	 9.55202 	 28.7152 	 
S 	 -40.9586 	 8.83426 	 27.1166 	 
C 	 -40.4347 	 10.4469 	 26.6227 	 
C 	 -41.3601 	 11.453 	 26.8581 	 
C 	 -42.3929 	 10.9865 	 27.7489 	 
C 	 -42.2791 	 9.61615 	 27.9573 	 
H 	 -41.2027 	 12.4483 	 26.5448 	 
C 	 -43.4932 	 11.9267 	 28.2514 	 
H 	 -42.7996 	 12.6798 	 28.5824 	 
H 	 -44.0437 	 11.5433 	 29.1582 	 
C 	 -44.4485 	 12.5445 	 27.2475 	 
H 	 -43.8542 	 13.1263 	 26.5593 	 
H 	 -45.0919 	 13.2287 	 27.8321 	 
C 	 -45.3658 	 11.5439 	 26.5265 	 
H 	 -44.9377 	 10.6428 	 26.0316 	 
H 	 -46.0582 	 12.0872 	 25.9037 	 
H 	 -45.9924 	 11.1008 	 27.2754 	 
H 	 -44.1774 	 6.15731 	 31.1118 	 
H 	 -39.4249 	 10.6431 	 26.1838 	 
*
