! wB97X-D3 SP def2-SVP
%pal
nprocs 24
end

* xyz 0 1
S 	 -40.9996 	 -48.5742 	 -75.8821 	 
C 	 -41.6975 	 -47.0759 	 -76.4408 	 
C 	 -40.7966 	 -46.0432 	 -76.3247 	 
C 	 -39.4844 	 -46.4887 	 -75.9657 	 
C 	 -39.4416 	 -47.8632 	 -75.8284 	 
H 	 -38.5495 	 -45.8176 	 -75.9631 	 
C 	 -41.1634 	 -44.6272 	 -76.5156 	 
H 	 -41.939 	 -44.5343 	 -77.312 	 
H 	 -40.3763 	 -44.0424 	 -76.8937 	 
C 	 -41.67 	 -43.8837 	 -75.2395 	 
H 	 -40.8345 	 -43.6961 	 -74.6225 	 
H 	 -41.875 	 -42.9666 	 -75.6698 	 
C 	 -42.9386 	 -44.3772 	 -74.6545 	 
H 	 -43.3865 	 -43.7253 	 -73.8847 	 
H 	 -43.7747 	 -44.4565 	 -75.3314 	 
H 	 -42.9003 	 -45.3373 	 -74.1245 	 
S 	 -38.642 	 -49.6008 	 -73.8676 	 
C 	 -37.0536 	 -50.2065 	 -73.7889 	 
C 	 -36.2916 	 -49.6023 	 -74.7273 	 
C 	 -36.9521 	 -48.5962 	 -75.5324 	 
C 	 -38.3409 	 -48.6065 	 -75.3377 	 
H 	 -35.2902 	 -49.9414 	 -74.7804 	 
C 	 -36.2702 	 -47.7088 	 -76.5167 	 
H 	 -36.0835 	 -46.829 	 -75.9898 	 
H 	 -37.087 	 -47.3407 	 -77.2236 	 
C 	 -35.059 	 -48.3046 	 -77.323 	 
H 	 -34.381 	 -48.7093 	 -76.5381 	 
H 	 -34.4744 	 -47.516 	 -77.8807 	 
C 	 -35.5045 	 -49.5189 	 -78.2004 	 
H 	 -34.6681 	 -49.7392 	 -78.845 	 
H 	 -36.3144 	 -49.2848 	 -78.8904 	 
H 	 -35.5964 	 -50.4099 	 -77.7578 	 
H 	 -42.7241 	 -46.9508 	 -76.7035 	 
H 	 -36.6792 	 -50.9499 	 -73.0957 	 
*
