! wB97X-D3 SP def2-SVP
%pal
nprocs 24
end

* xyz 0 1
S 	 45.6448 	 -18.1196 	 -115.07 	 
C 	 46.5173 	 -17.7387 	 -113.611 	 
C 	 46.2729 	 -16.4515 	 -113.162 	 
C 	 45.4989 	 -15.7088 	 -114.109 	 
C 	 45.0376 	 -16.4932 	 -115.11 	 
H 	 45.1079 	 -14.6638 	 -114.063 	 
C 	 46.808 	 -15.8923 	 -111.82 	 
H 	 46.1279 	 -16.4186 	 -111.094 	 
H 	 46.6079 	 -14.8178 	 -111.791 	 
C 	 48.2796 	 -16.2376 	 -111.49 	 
H 	 48.5126 	 -17.3105 	 -111.657 	 
H 	 48.8842 	 -15.6462 	 -112.143 	 
C 	 48.6633 	 -15.6924 	 -110.042 	 
H 	 49.7491 	 -15.6287 	 -109.818 	 
H 	 48.2507 	 -14.7265 	 -109.976 	 
H 	 48.1345 	 -16.25 	 -109.346 	 
S 	 45.4144 	 -16.4237 	 -117.851 	 
C 	 44.2994 	 -15.4239 	 -118.838 	 
C 	 43.2461 	 -14.9603 	 -118.086 	 
C 	 43.4362 	 -15.2402 	 -116.681 	 
C 	 44.5491 	 -15.9848 	 -116.385 	 
H 	 42.3058 	 -14.6834 	 -118.538 	 
C 	 42.4374 	 -14.8859 	 -115.707 	 
H 	 42.6697 	 -13.8897 	 -115.27 	 
H 	 42.5117 	 -15.6314 	 -114.962 	 
C 	 40.9133 	 -14.9234 	 -116.14 	 
H 	 40.6437 	 -15.6794 	 -116.923 	 
H 	 40.7362 	 -14.0461 	 -116.675 	 
C 	 39.9461 	 -14.8915 	 -114.984 	 
H 	 40.231 	 -15.652 	 -114.247 	 
H 	 38.9699 	 -15.1139 	 -115.346 	 
H 	 39.9453 	 -14.0172 	 -114.395 	 
H 	 46.9421 	 -18.4806 	 -112.94 	 
H 	 44.1644 	 -15.6475 	 -119.877 	 
*
