! wB97X-D3 SP def2-SVP
%pal
nprocs 24
end

* xyz 0 1
S 	 -49.9297 	 26.1317 	 26.8981 	 
C 	 -50.9608 	 26.2266 	 28.3566 	 
C 	 -50.6814 	 25.1745 	 29.1937 	 
C 	 -49.6796 	 24.2527 	 28.7073 	 
C 	 -49.164 	 24.6277 	 27.5164 	 
H 	 -49.3449 	 23.3823 	 29.2499 	 
C 	 -51.582 	 24.943 	 30.4056 	 
H 	 -51.5367 	 25.8278 	 31.0422 	 
H 	 -51.0493 	 24.186 	 30.9554 	 
C 	 -53.0036 	 24.4642 	 30.005 	 
H 	 -53.6016 	 25.2749 	 29.6352 	 
H 	 -53.0072 	 23.6452 	 29.2774 	 
C 	 -53.8892 	 23.9309 	 31.1948 	 
H 	 -54.956 	 23.7887 	 30.9611 	 
H 	 -53.4288 	 22.9586 	 31.5871 	 
H 	 -53.9428 	 24.6758 	 31.987 	 
S 	 -46.5994 	 24.733 	 26.34 	 
C 	 -45.9059 	 23.3452 	 25.6417 	 
C 	 -46.7294 	 22.2917 	 25.8307 	 
C 	 -47.9736 	 22.5798 	 26.4073 	 
C 	 -48.0636 	 23.887 	 26.8074 	 
H 	 -46.4301 	 21.3793 	 25.4901 	 
C 	 -48.8991 	 21.387 	 26.6125 	 
H 	 -49.1019 	 20.905 	 25.6449 	 
H 	 -49.9449 	 21.7888 	 26.8504 	 
C 	 -48.4491 	 20.2567 	 27.5413 	 
H 	 -48.118 	 20.6027 	 28.4572 	 
H 	 -47.7003 	 19.7187 	 26.8721 	 
C 	 -49.5647 	 19.3631 	 27.9976 	 
H 	 -49.2814 	 18.7089 	 28.8104 	 
H 	 -50.0543 	 18.7734 	 27.2316 	 
H 	 -50.318 	 19.8744 	 28.5286 	 
H 	 -51.8514 	 26.7391 	 28.4792 	 
H 	 -44.9209 	 23.3156 	 25.191 	 
*
