! wB97X-D3 SP def2-SVP
%pal
nprocs 24
end

* xyz 0 1
S 	 -66.3748 	 -60.4145 	 -84.0799 	 
C 	 -67.0359 	 -61.9897 	 -83.5995 	 
C 	 -66.6431 	 -62.2078 	 -82.2772 	 
C 	 -66.0145 	 -61.0628 	 -81.6434 	 
C 	 -65.9863 	 -59.9409 	 -82.4172 	 
H 	 -65.6182 	 -61.1561 	 -80.6185 	 
C 	 -66.7129 	 -63.5802 	 -81.542 	 
H 	 -65.8907 	 -63.5803 	 -80.8301 	 
H 	 -66.466 	 -64.2569 	 -82.2674 	 
C 	 -68.0681 	 -63.9344 	 -80.9219 	 
H 	 -68.8169 	 -63.8858 	 -81.6033 	 
H 	 -68.1356 	 -65.015 	 -80.6799 	 
C 	 -68.3675 	 -63.1213 	 -79.6858 	 
H 	 -68.8976 	 -62.2342 	 -79.9302 	 
H 	 -69.0649 	 -63.5711 	 -78.9518 	 
H 	 -67.5044 	 -62.7573 	 -79.1045 	 
S 	 -64.9547 	 -57.5698 	 -83.278 	 
C 	 -64.7324 	 -56.2551 	 -82.1221 	 
C 	 -65.4208 	 -56.5153 	 -80.9142 	 
C 	 -65.9882 	 -57.8628 	 -80.8678 	 
C 	 -65.5724 	 -58.5959 	 -81.9641 	 
H 	 -65.4247 	 -55.7091 	 -80.227 	 
C 	 -66.8459 	 -58.3634 	 -79.7658 	 
H 	 -67.2979 	 -59.3757 	 -79.9785 	 
H 	 -67.7882 	 -57.7635 	 -79.7117 	 
C 	 -66.1219 	 -58.3952 	 -78.4457 	 
H 	 -66.0604 	 -57.4085 	 -78.057 	 
H 	 -65.0733 	 -58.713 	 -78.5022 	 
C 	 -66.8446 	 -59.1773 	 -77.2686 	 
H 	 -66.9464 	 -60.2621 	 -77.4388 	 
H 	 -67.8823 	 -58.8875 	 -77.1439 	 
H 	 -66.3087 	 -59.0991 	 -76.3299 	 
H 	 -67.5044 	 -62.7396 	 -84.2459 	 
H 	 -64.1363 	 -55.3966 	 -82.2868 	 
*
