! wB97X-D3 SP def2-SVP
%pal
nprocs 24
end

* xyz 0 1
S 	 -122.822 	 26.0308 	 -114.781 	 
C 	 -121.665 	 26.4044 	 -113.53 	 
C 	 -122.234 	 26.9931 	 -112.436 	 
C 	 -123.645 	 27.1834 	 -112.624 	 
C 	 -124.13 	 26.6258 	 -113.778 	 
H 	 -124.365 	 27.6942 	 -111.994 	 
C 	 -121.411 	 27.6254 	 -111.327 	 
H 	 -122.269 	 27.9876 	 -110.756 	 
H 	 -120.876 	 28.5495 	 -111.581 	 
C 	 -120.417 	 26.623 	 -110.616 	 
H 	 -119.794 	 26.0376 	 -111.337 	 
H 	 -119.612 	 27.1094 	 -110.012 	 
C 	 -121.238 	 25.6793 	 -109.783 	 
H 	 -120.607 	 25.1313 	 -109.068 	 
H 	 -122.05 	 26.1489 	 -109.293 	 
H 	 -121.674 	 24.9967 	 -110.51 	 
S 	 -125.745 	 27.6821 	 -115.823 	 
C 	 -127.41 	 28.1171 	 -115.361 	 
C 	 -127.769 	 27.3634 	 -114.25 	 
C 	 -126.697 	 26.6495 	 -113.541 	 
C 	 -125.506 	 26.7935 	 -114.242 	 
H 	 -128.774 	 27.3369 	 -113.857 	 
C 	 -126.923 	 26.0747 	 -112.152 	 
H 	 -125.925 	 25.8522 	 -111.76 	 
H 	 -127.466 	 25.0778 	 -112.16 	 
C 	 -127.434 	 26.9872 	 -111.045 	 
H 	 -128.464 	 27.2367 	 -111.328 	 
H 	 -126.877 	 27.9763 	 -111.039 	 
C 	 -127.222 	 26.377 	 -109.654 	 
H 	 -127.895 	 25.5627 	 -109.604 	 
H 	 -127.396 	 27.0939 	 -108.867 	 
H 	 -126.239 	 25.925 	 -109.522 	 
H 	 -120.575 	 26.2799 	 -113.628 	 
H 	 -128.044 	 28.5303 	 -116.035 	 
*
