! wB97X-D3 SP def2-SVP
%pal
nprocs 24
end

* xyz 0 1
S 	 -54.5848 	 12.8163 	 23.4479 	 
C 	 -55.2439 	 12.6778 	 21.8186 	 
C 	 -55.76 	 11.4382 	 21.4712 	 
C 	 -55.6785 	 10.5378 	 22.5594 	 
C 	 -54.9514 	 11.0893 	 23.6239 	 
H 	 -56.1827 	 9.60552 	 22.6995 	 
C 	 -56.6475 	 11.25 	 20.2494 	 
H 	 -56.4053 	 10.171 	 19.9926 	 
H 	 -56.2991 	 11.889 	 19.4831 	 
C 	 -58.1901 	 11.2643 	 20.5807 	 
H 	 -58.505 	 10.5293 	 21.3235 	 
H 	 -58.3879 	 12.253 	 21.177 	 
C 	 -59.1959 	 11.3262 	 19.3885 	 
H 	 -59.1489 	 10.3911 	 18.834 	 
H 	 -60.2511 	 11.3207 	 19.8072 	 
H 	 -58.8984 	 12.0914 	 18.6133 	 
S 	 -55.4436 	 11.2046 	 26.321 	 
C 	 -54.5599 	 10.1282 	 27.4089 	 
C 	 -53.8977 	 9.17977 	 26.6487 	 
C 	 -54.0909 	 9.30487 	 25.2553 	 
C 	 -54.7655 	 10.4636 	 24.9482 	 
H 	 -53.2539 	 8.44388 	 27.0284 	 
C 	 -53.2052 	 8.48901 	 24.3694 	 
H 	 -52.4853 	 8.04633 	 25.0279 	 
H 	 -52.606 	 9.10796 	 23.7372 	 
C 	 -53.8346 	 7.35326 	 23.4274 	 
H 	 -52.9624 	 6.90823 	 23.0188 	 
H 	 -54.5174 	 7.86749 	 22.6268 	 
C 	 -54.4866 	 6.17886 	 24.1902 	 
H 	 -55.475 	 6.39323 	 24.6018 	 
H 	 -53.8889 	 5.95544 	 25.0984 	 
H 	 -54.5124 	 5.33313 	 23.5689 	 
H 	 -55.1183 	 13.5012 	 21.2285 	 
H 	 -54.287 	 10.3658 	 28.4732 	 
*
