! wB97X-D3 SP def2-SVP
%pal
nprocs 24
end

* xyz 0 1
S 	 -47.8365 	 11.9426 	 24.7718 	 
C 	 -47.9804 	 12.2382 	 26.5441 	 
C 	 -49.2579 	 12.7025 	 26.7474 	 
C 	 -50.0772 	 12.8314 	 25.6157 	 
C 	 -49.47 	 12.5411 	 24.3916 	 
H 	 -51.1712 	 12.9723 	 25.7289 	 
C 	 -49.7915 	 12.9608 	 28.136 	 
H 	 -48.9458 	 12.806 	 28.7659 	 
H 	 -50.5538 	 12.1933 	 28.3507 	 
C 	 -50.5239 	 14.2994 	 28.2709 	 
H 	 -51.527 	 14.1394 	 27.8131 	 
H 	 -50.8515 	 14.484 	 29.2935 	 
C 	 -49.8832 	 15.5955 	 27.6827 	 
H 	 -50.7129 	 16.2534 	 27.4155 	 
H 	 -49.2353 	 16.0489 	 28.3779 	 
H 	 -49.286 	 15.4069 	 26.7913 	 
S 	 -50.1106 	 10.7912 	 22.4907 	 
C 	 -50.8777 	 11.2348 	 20.9809 	 
C 	 -51.0657 	 12.6272 	 20.9849 	 
C 	 -50.6213 	 13.2917 	 22.1143 	 
C 	 -50.0161 	 12.4443 	 23.037 	 
H 	 -51.6662 	 13.0991 	 20.224 	 
C 	 -50.8505 	 14.7752 	 22.4099 	 
H 	 -51.5241 	 14.8146 	 23.2657 	 
H 	 -51.2814 	 15.1103 	 21.3917 	 
C 	 -49.6339 	 15.6199 	 22.7421 	 
H 	 -48.9914 	 15.2265 	 23.5519 	 
H 	 -49.9504 	 16.5871 	 23.0244 	 
C 	 -48.7932 	 15.7938 	 21.498 	 
H 	 -49.3835 	 16.3361 	 20.8123 	 
H 	 -48.4315 	 14.8535 	 21.1027 	 
H 	 -47.9447 	 16.3547 	 21.8875 	 
H 	 -47.185 	 12.2313 	 27.3692 	 
H 	 -51.2281 	 10.518 	 20.2688 	 
*
