! wB97X-D3 SP def2-SVP
%pal
nprocs 24
end

* xyz 0 1
S 	 36.5634 	 -24.6168 	 -113.5 	 
C 	 37.9866 	 -24.9542 	 -112.506 	 
C 	 38.6306 	 -23.7663 	 -112.355 	 
C 	 37.9281 	 -22.6588 	 -112.902 	 
C 	 36.7095 	 -22.9379 	 -113.438 	 
H 	 38.1606 	 -21.5708 	 -112.909 	 
C 	 39.9935 	 -23.6278 	 -111.824 	 
H 	 40.6556 	 -23.3065 	 -112.616 	 
H 	 40.3355 	 -24.6266 	 -111.661 	 
C 	 40.2173 	 -22.6743 	 -110.584 	 
H 	 41.2877 	 -22.7081 	 -110.381 	 
H 	 39.9863 	 -21.6245 	 -110.746 	 
C 	 39.5913 	 -23.2059 	 -109.337 	 
H 	 39.7458 	 -24.2274 	 -109.111 	 
H 	 39.9552 	 -22.6823 	 -108.475 	 
H 	 38.5637 	 -23.0362 	 -109.169 	 
S 	 34.7162 	 -22.4369 	 -115.239 	 
C 	 33.6432 	 -21.0484 	 -114.96 	 
C 	 34.0416 	 -20.3432 	 -113.868 	 
C 	 35.0265 	 -21.0484 	 -113.088 	 
C 	 35.5507 	 -22.1191 	 -113.791 	 
H 	 33.4335 	 -19.4844 	 -113.52 	 
C 	 35.3293 	 -20.6855 	 -111.68 	 
H 	 35.7188 	 -21.5687 	 -111.231 	 
H 	 34.4539 	 -20.5833 	 -111.146 	 
C 	 36.3307 	 -19.6096 	 -111.54 	 
H 	 37.2067 	 -19.92 	 -112.16 	 
H 	 36.5816 	 -19.4522 	 -110.523 	 
C 	 35.852 	 -18.2388 	 -112.04 	 
H 	 35.4427 	 -18.2151 	 -112.98 	 
H 	 36.5929 	 -17.5337 	 -112.116 	 
H 	 35.0718 	 -17.8221 	 -111.36 	 
H 	 38.3947 	 -25.8726 	 -112.174 	 
H 	 32.8137 	 -20.6431 	 -115.487 	 
*
