! wB97X-D3 SP def2-SVP
%pal
nprocs 24
end

* xyz 0 1
S 	 -50.0311 	 13.3091 	 25.9186 	 
C 	 -50.528 	 11.6516 	 25.7595 	 
C 	 -49.4446 	 10.7831 	 25.6385 	 
C 	 -48.1951 	 11.5042 	 25.4797 	 
C 	 -48.3263 	 12.8993 	 25.5168 	 
H 	 -47.302 	 10.9743 	 25.2486 	 
C 	 -49.5735 	 9.26082 	 25.5732 	 
H 	 -50.605 	 8.94439 	 25.7239 	 
H 	 -48.9194 	 8.89953 	 26.3195 	 
C 	 -49.3402 	 8.4914 	 24.2029 	 
H 	 -50.0806 	 8.86941 	 23.4835 	 
H 	 -48.3252 	 8.54199 	 23.7223 	 
C 	 -49.4911 	 6.94302 	 24.3387 	 
H 	 -50.4032 	 6.65057 	 24.8494 	 
H 	 -49.5588 	 6.46228 	 23.3406 	 
H 	 -48.6871 	 6.47379 	 24.8446 	 
S 	 -46.9478 	 15.1427 	 26.3947 	 
C 	 -45.7164 	 15.6901 	 25.3848 	 
C 	 -45.7493 	 15.1634 	 24.1191 	 
C 	 -46.6448 	 14.1396 	 23.9494 	 
C 	 -47.3571 	 13.9017 	 25.1638 	 
H 	 -45.0774 	 15.6166 	 23.4143 	 
C 	 -46.7607 	 13.3261 	 22.6836 	 
H 	 -47.707 	 12.7742 	 22.586 	 
H 	 -45.9552 	 12.6251 	 22.7335 	 
C 	 -46.6918 	 14.0919 	 21.351 	 
H 	 -45.6207 	 14.3017 	 21.0673 	 
H 	 -47.2088 	 15.0063 	 21.5245 	 
C 	 -47.4215 	 13.4097 	 20.2512 	 
H 	 -47.1041 	 12.3859 	 20.1066 	 
H 	 -47.1538 	 13.9507 	 19.3439 	 
H 	 -48.3903 	 13.3297 	 20.3559 	 
H 	 -51.5445 	 11.2618 	 25.7755 	 
H 	 -44.9975 	 16.4321 	 25.6421 	 
*
