! wB97X-D3 SP def2-SVP
%pal
nprocs 24
end

* xyz 0 1
S 	 -134.49 	 71.1923 	 -66.6613 	 
C 	 -132.963 	 70.3905 	 -67.0842 	 
C 	 -132.411 	 69.7384 	 -66.0131 	 
C 	 -133.193 	 69.8316 	 -64.8265 	 
C 	 -134.395 	 70.5401 	 -65.0057 	 
H 	 -132.998 	 69.3244 	 -63.897 	 
C 	 -130.983 	 69.2555 	 -65.9744 	 
H 	 -130.616 	 68.955 	 -66.9328 	 
H 	 -131.059 	 68.305 	 -65.3724 	 
C 	 -130.07 	 70.1551 	 -65.2022 	 
H 	 -130.339 	 70.1515 	 -64.1584 	 
H 	 -129.019 	 69.8399 	 -65.2333 	 
C 	 -130.097 	 71.6474 	 -65.7434 	 
H 	 -129.357 	 72.2429 	 -65.2494 	 
H 	 -130.058 	 71.6801 	 -66.8016 	 
H 	 -130.98 	 72.1973 	 -65.608 	 
S 	 -137.008 	 70.5159 	 -64.2376 	 
C 	 -137.428 	 71.3852 	 -62.8483 	 
C 	 -136.368 	 71.5111 	 -61.9594 	 
C 	 -135.125 	 71.1581 	 -62.6125 	 
C 	 -135.343 	 70.8983 	 -63.9665 	 
H 	 -136.529 	 71.7775 	 -60.9295 	 
C 	 -133.798 	 71.2037 	 -61.8679 	 
H 	 -133.045 	 71.6644 	 -62.526 	 
H 	 -133.38 	 70.2381 	 -61.9118 	 
C 	 -133.665 	 71.7993 	 -60.5053 	 
H 	 -132.818 	 71.3636 	 -59.9712 	 
H 	 -134.549 	 71.5847 	 -59.923 	 
C 	 -133.371 	 73.3346 	 -60.4712 	 
H 	 -132.611 	 73.7069 	 -61.1516 	 
H 	 -133.124 	 73.5154 	 -59.4076 	 
H 	 -134.244 	 73.8711 	 -60.6238 	 
H 	 -132.436 	 70.5616 	 -68.0216 	 
H 	 -138.405 	 71.4125 	 -62.4918 	 
*
