! wB97X-D3 SP def2-SVP
%pal
nprocs 24
end

* xyz 0 1
S 	 -112.487 	 36.9973 	 -115.974 	 
C 	 -113.005 	 35.4203 	 -116.61 	 
C 	 -113.732 	 34.7495 	 -115.682 	 
C 	 -114.053 	 35.5443 	 -114.571 	 
C 	 -113.449 	 36.8215 	 -114.548 	 
H 	 -114.502 	 35.2684 	 -113.622 	 
C 	 -114.393 	 33.3379 	 -115.902 	 
H 	 -115.274 	 33.5084 	 -116.646 	 
H 	 -114.833 	 33.192 	 -114.887 	 
C 	 -113.35 	 32.1624 	 -116.303 	 
H 	 -113.021 	 32.3259 	 -117.334 	 
H 	 -112.579 	 32.3094 	 -115.574 	 
C 	 -113.961 	 30.8031 	 -116.145 	 
H 	 -114.093 	 30.4993 	 -115.081 	 
H 	 -114.897 	 30.6096 	 -116.815 	 
H 	 -113.234 	 30.0754 	 -116.508 	 
S 	 -112.074 	 38.7596 	 -113.126 	 
C 	 -112.86 	 39.6311 	 -111.811 	 
C 	 -114.166 	 39.2236 	 -111.71 	 
C 	 -114.564 	 38.1321 	 -112.532 	 
C 	 -113.548 	 37.8028 	 -113.495 	 
H 	 -114.781 	 39.7439 	 -111.011 	 
C 	 -115.909 	 37.44 	 -112.481 	 
H 	 -116.402 	 37.6319 	 -111.544 	 
H 	 -115.725 	 36.3799 	 -112.418 	 
C 	 -116.963 	 37.7358 	 -113.523 	 
H 	 -116.658 	 37.3057 	 -114.461 	 
H 	 -116.947 	 38.7902 	 -113.854 	 
C 	 -118.364 	 37.1959 	 -113.2 	 
H 	 -119.077 	 37.4434 	 -113.938 	 
H 	 -118.732 	 37.6056 	 -112.297 	 
H 	 -118.377 	 36.0979 	 -113.084 	 
H 	 -112.691 	 34.887 	 -117.501 	 
H 	 -112.524 	 40.5612 	 -111.281 	 
*
