! wB97X-D3 SP def2-SVP
%pal
nprocs 24
end

* xyz 0 1
S 	 -47.1135 	 19.1376 	 29.845 	 
C 	 -47.6672 	 17.8226 	 28.8253 	 
C 	 -49.0454 	 17.853 	 28.6668 	 
C 	 -49.5367 	 19.0807 	 29.0725 	 
C 	 -48.6699 	 19.8924 	 29.718 	 
H 	 -50.6059 	 19.4226 	 28.8842 	 
C 	 -49.9674 	 16.8658 	 27.9038 	 
H 	 -49.571 	 16.8587 	 26.9325 	 
H 	 -50.9383 	 17.3371 	 27.8872 	 
C 	 -50.1045 	 15.4984 	 28.5632 	 
H 	 -49.1394 	 14.9518 	 28.5573 	 
H 	 -50.3605 	 15.5808 	 29.5647 	 
C 	 -51.0522 	 14.5544 	 27.8496 	 
H 	 -50.8405 	 14.437 	 26.7973 	 
H 	 -50.8276 	 13.6041 	 28.2932 	 
H 	 -52.0757 	 14.9098 	 27.8898 	 
S 	 -50.4466 	 21.4093 	 31.0943 	 
C 	 -50.0518 	 23.077 	 31.411 	 
C 	 -48.932 	 23.4873 	 30.7593 	 
C 	 -48.3005 	 22.4306 	 29.9994 	 
C 	 -48.9453 	 21.1932 	 30.2534 	 
H 	 -48.6673 	 24.5563 	 30.834 	 
C 	 -47.0455 	 22.6856 	 29.2679 	 
H 	 -47.1358 	 23.637 	 28.7364 	 
H 	 -46.8919 	 21.895 	 28.4719 	 
C 	 -45.6634 	 22.6501 	 29.9156 	 
H 	 -44.8533 	 22.3595 	 29.1749 	 
H 	 -45.7489 	 21.785 	 30.662 	 
C 	 -45.3366 	 23.8427 	 30.7043 	 
H 	 -46.0567 	 24.1435 	 31.427 	 
H 	 -44.988 	 24.7147 	 30.146 	 
H 	 -44.4176 	 23.5771 	 31.3475 	 
H 	 -46.9564 	 17.0079 	 28.5597 	 
H 	 -50.6873 	 23.7638 	 31.9271 	 
*
