! wB97X-D3 SP def2-SVP
%pal
nprocs 24
end

* xyz 0 1
S 	 -144.405 	 5.97168 	 2.14434 	 
C 	 -143.368 	 5.77212 	 0.775839 	 
C 	 -142 	 6.0678 	 1.02878 	 
C 	 -141.819 	 6.33318 	 2.39207 	 
C 	 -143.004 	 6.29926 	 3.18995 	 
H 	 -140.844 	 6.32337 	 2.89678 	 
C 	 -140.901 	 6.10798 	 -0.0237949 	 
H 	 -141.279 	 5.46354 	 -0.749185 	 
H 	 -139.96 	 5.56978 	 0.254348 	 
C 	 -140.535 	 7.51982 	 -0.544434 	 
H 	 -141.438 	 8.07334 	 -0.787398 	 
H 	 -140.044 	 8.11514 	 0.287544 	 
C 	 -139.675 	 7.37686 	 -1.77003 	 
H 	 -139.789 	 8.30111 	 -2.37914 	 
H 	 -138.63 	 7.2064 	 -1.39054 	 
H 	 -139.978 	 6.57185 	 -2.46029 	 
S 	 -142.519 	 7.88115 	 5.3773 	 
C 	 -143.138 	 7.42715 	 6.94978 	 
C 	 -143.375 	 6.06032 	 6.96946 	 
C 	 -143.402 	 5.49245 	 5.62634 	 
C 	 -143.12 	 6.40728 	 4.65124 	 
H 	 -143.594 	 5.55485 	 7.86283 	 
C 	 -143.735 	 4.0267 	 5.42718 	 
H 	 -143.791 	 3.79111 	 4.43512 	 
H 	 -144.703 	 3.88973 	 5.96396 	 
C 	 -142.723 	 3.14711 	 6.15295 	 
H 	 -142.696 	 3.3776 	 7.18361 	 
H 	 -141.646 	 3.41115 	 5.72863 	 
C 	 -142.989 	 1.73341 	 6.15647 	 
H 	 -142.549 	 1.3547 	 7.01501 	 
H 	 -142.651 	 1.21856 	 5.27933 	 
H 	 -144.056 	 1.54283 	 6.30578 	 
H 	 -143.738 	 5.28971 	 -0.107326 	 
H 	 -143.123 	 8.05975 	 7.82691 	 
*
