! wB97X-D3 SP def2-SVP
%pal
nprocs 24
end

* xyz 0 1
S 	 -123.297 	 67.8625 	 -39.2038 	 
C 	 -124.031 	 69.4048 	 -39.2945 	 
C 	 -125.063 	 69.5464 	 -40.2111 	 
C 	 -125.219 	 68.3366 	 -40.9682 	 
C 	 -124.269 	 67.3801 	 -40.6183 	 
H 	 -125.891 	 68.1058 	 -41.7716 	 
C 	 -125.953 	 70.7171 	 -40.3719 	 
H 	 -126.383 	 70.651 	 -41.3739 	 
H 	 -125.322 	 71.5746 	 -40.096 	 
C 	 -127.125 	 70.8363 	 -39.3806 	 
H 	 -127.814 	 69.98 	 -39.6548 	 
H 	 -126.94 	 70.7184 	 -38.3205 	 
C 	 -127.902 	 72.0981 	 -39.3344 	 
H 	 -128.664 	 72.0538 	 -38.5609 	 
H 	 -127.168 	 72.8999 	 -38.9324 	 
H 	 -128.235 	 72.4785 	 -40.3055 	 
S 	 -124.075 	 64.6746 	 -40.0869 	 
C 	 -123.894 	 63.5021 	 -41.3441 	 
C 	 -123.935 	 64.1581 	 -42.5563 	 
C 	 -124.049 	 65.5544 	 -42.487 	 
C 	 -124 	 66.0575 	 -41.1887 	 
H 	 -124.053 	 63.6407 	 -43.4697 	 
C 	 -124.142 	 66.3866 	 -43.7348 	 
H 	 -123.214 	 66.3846 	 -44.2659 	 
H 	 -124.348 	 67.3847 	 -43.4702 	 
C 	 -125.274 	 65.9774 	 -44.6892 	 
H 	 -126.176 	 65.7934 	 -44.1534 	 
H 	 -125.023 	 64.964 	 -45.1229 	 
C 	 -125.36 	 66.9576 	 -45.894 	 
H 	 -125.347 	 67.958 	 -45.4977 	 
H 	 -126.277 	 66.9734 	 -46.4895 	 
H 	 -124.563 	 66.7568 	 -46.633 	 
H 	 -123.671 	 70.2659 	 -38.7069 	 
H 	 -124.085 	 62.4455 	 -41.2595 	 
*
