! wB97X-D3 SP def2-SVP
%pal
nprocs 24
end

* xyz 0 1
S 	 -125.337 	 67.7681 	 -38.7426 	 
C 	 -125.82 	 69.3667 	 -39.0734 	 
C 	 -125.735 	 69.5881 	 -40.4644 	 
C 	 -125.09 	 68.5346 	 -41.1432 	 
C 	 -124.872 	 67.4193 	 -40.3602 	 
H 	 -125.031 	 68.4732 	 -42.1711 	 
C 	 -126.154 	 70.8723 	 -41.1687 	 
H 	 -125.308 	 71.5805 	 -40.9978 	 
H 	 -126.9 	 71.3533 	 -40.5569 	 
C 	 -126.567 	 70.8391 	 -42.7214 	 
H 	 -125.709 	 70.6408 	 -43.3792 	 
H 	 -127.198 	 69.9566 	 -42.8867 	 
C 	 -127.216 	 72.0417 	 -43.3355 	 
H 	 -126.698 	 72.888 	 -42.8882 	 
H 	 -127.144 	 72.1704 	 -44.448 	 
H 	 -128.299 	 72.0762 	 -42.9295 	 
S 	 -123.258 	 65.3022 	 -39.6922 	 
C 	 -123.406 	 63.8472 	 -40.6366 	 
C 	 -124.196 	 63.9531 	 -41.75 	 
C 	 -124.799 	 65.2462 	 -41.7618 	 
C 	 -124.43 	 66.0624 	 -40.7379 	 
H 	 -124.357 	 63.1139 	 -42.4375 	 
C 	 -125.815 	 65.7162 	 -42.8029 	 
H 	 -126.06 	 66.7193 	 -42.3814 	 
H 	 -126.646 	 65.0711 	 -42.657 	 
C 	 -125.339 	 65.9387 	 -44.2335 	 
H 	 -124.926 	 64.9654 	 -44.5605 	 
H 	 -124.531 	 66.6481 	 -44.186 	 
C 	 -126.433 	 66.4382 	 -45.1453 	 
H 	 -127.261 	 65.677 	 -45.1374 	 
H 	 -126.144 	 66.4264 	 -46.1833 	 
H 	 -126.947 	 67.2888 	 -44.7792 	 
H 	 -126.2 	 70.1561 	 -38.3929 	 
H 	 -122.858 	 62.9243 	 -40.5737 	 
*
