! wB97X-D3 SP def2-SVP
%pal
nprocs 24
end

* xyz 0 1
S 	 -78.4271 	 5.0411 	 -112.439 	 
C 	 -79.3073 	 3.80332 	 -113.234 	 
C 	 -80.1718 	 4.32596 	 -114.209 	 
C 	 -79.9586 	 5.74329 	 -114.465 	 
C 	 -79.1068 	 6.29801 	 -113.495 	 
H 	 -80.3824 	 6.37752 	 -115.185 	 
C 	 -81.0816 	 3.47394 	 -115.123 	 
H 	 -80.577 	 2.90449 	 -115.876 	 
H 	 -81.6765 	 4.08625 	 -115.868 	 
C 	 -82.1136 	 2.57983 	 -114.45 	 
H 	 -82.5002 	 1.96117 	 -115.205 	 
H 	 -81.706 	 1.85081 	 -113.743 	 
C 	 -83.232 	 3.30053 	 -113.797 	 
H 	 -83.6207 	 4.04805 	 -114.381 	 
H 	 -84.0799 	 2.63829 	 -113.544 	 
H 	 -83.0097 	 3.75628 	 -112.87 	 
S 	 -77.0981 	 8.0032 	 -114.14 	 
C 	 -77.2475 	 9.6752 	 -113.702 	 
C 	 -78.4301 	 9.96542 	 -113.091 	 
C 	 -79.2909 	 8.85241 	 -113.026 	 
C 	 -78.6081 	 7.67775 	 -113.361 	 
H 	 -78.7085 	 10.9358 	 -112.816 	 
C 	 -80.7135 	 8.97835 	 -112.495 	 
H 	 -81.311 	 8.19792 	 -112.925 	 
H 	 -81.2453 	 9.84308 	 -112.887 	 
C 	 -80.7382 	 8.97327 	 -110.968 	 
H 	 -80.0841 	 8.20723 	 -110.538 	 
H 	 -81.7572 	 8.6703 	 -110.681 	 
C 	 -80.4348 	 10.3945 	 -110.441 	 
H 	 -79.465 	 10.8069 	 -110.84 	 
H 	 -80.3269 	 10.3322 	 -109.408 	 
H 	 -81.1455 	 11.1708 	 -110.8 	 
H 	 -79.2728 	 2.77657 	 -112.828 	 
H 	 -76.4679 	 10.3918 	 -113.947 	 
*
