! wB97X-D3 SP def2-SVP
%pal
nprocs 24
end

* xyz 0 1
S 	 -59.9724 	 9.71773 	 -105.567 	 
C 	 -61.0678 	 10.1895 	 -106.838 	 
C 	 -61.2964 	 11.6011 	 -106.708 	 
C 	 -60.5442 	 12.2342 	 -105.699 	 
C 	 -59.5773 	 11.4297 	 -105.133 	 
H 	 -60.6099 	 13.2541 	 -105.339 	 
C 	 -62.4336 	 12.2511 	 -107.363 	 
H 	 -62.8814 	 11.6154 	 -108.103 	 
H 	 -61.9345 	 13.0495 	 -107.981 	 
C 	 -63.5097 	 12.8957 	 -106.493 	 
H 	 -64.3443 	 12.3204 	 -106.656 	 
H 	 -63.1853 	 12.7604 	 -105.389 	 
C 	 -63.772 	 14.4032 	 -106.854 	 
H 	 -64.061 	 14.3783 	 -107.883 	 
H 	 -64.5392 	 14.8964 	 -106.182 	 
H 	 -62.899 	 15.096 	 -106.648 	 
S 	 -59.1583 	 10.8896 	 -102.5 	 
C 	 -58.0075 	 11.8968 	 -101.653 	 
C 	 -57.2572 	 12.7066 	 -102.499 	 
C 	 -57.7847 	 12.6606 	 -103.857 	 
C 	 -58.7442 	 11.6808 	 -104.007 	 
H 	 -56.4 	 13.2388 	 -102.122 	 
C 	 -57.2535 	 13.587 	 -104.902 	 
H 	 -57.6152 	 13.2941 	 -105.894 	 
H 	 -56.1665 	 13.4779 	 -104.994 	 
C 	 -57.5369 	 15.0771 	 -104.762 	 
H 	 -57.1942 	 15.2508 	 -103.723 	 
H 	 -58.6358 	 15.2322 	 -104.654 	 
C 	 -56.8486 	 16.036 	 -105.786 	 
H 	 -55.7977 	 16.0547 	 -105.589 	 
H 	 -57.3445 	 17.0392 	 -105.689 	 
H 	 -57.0943 	 15.5101 	 -106.74 	 
H 	 -61.6181 	 9.5167 	 -107.521 	 
H 	 -57.7801 	 11.5827 	 -100.671 	 
*
