! wB97X-D3 SP def2-SVP
%pal
nprocs 24
end

* xyz 0 1
S 	 -58.0463 	 9.41331 	 -103.127 	 
C 	 -56.9924 	 10.73 	 -103.322 	 
C 	 -55.645 	 10.4226 	 -103.146 	 
C 	 -55.5128 	 8.9932 	 -102.937 	 
C 	 -56.6993 	 8.32145 	 -103.049 	 
H 	 -54.5834 	 8.47776 	 -102.843 	 
C 	 -54.5379 	 11.4273 	 -103.36 	 
H 	 -53.7362 	 11.1043 	 -102.776 	 
H 	 -54.965 	 12.1918 	 -102.822 	 
C 	 -54.0974 	 11.8264 	 -104.755 	 
H 	 -54.9198 	 12.3192 	 -105.314 	 
H 	 -53.207 	 12.4731 	 -104.691 	 
C 	 -53.7448 	 10.6878 	 -105.734 	 
H 	 -54.5692 	 10.0857 	 -105.789 	 
H 	 -53.6061 	 11.0985 	 -106.757 	 
H 	 -52.897 	 10.2115 	 -105.291 	 
S 	 -58.6238 	 6.33667 	 -103.583 	 
C 	 -58.2664 	 4.71684 	 -103.048 	 
C 	 -56.95 	 4.49865 	 -102.828 	 
C 	 -56.2075 	 5.76191 	 -102.81 	 
C 	 -57.0108 	 6.881 	 -103.108 	 
H 	 -56.6854 	 3.45039 	 -102.615 	 
C 	 -54.689 	 5.84628 	 -102.62 	 
H 	 -54.5177 	 6.28696 	 -101.616 	 
H 	 -54.2419 	 6.34731 	 -103.447 	 
C 	 -54.1236 	 4.41418 	 -102.703 	 
H 	 -54.6458 	 3.68775 	 -103.4 	 
H 	 -54.4048 	 4.09983 	 -101.694 	 
C 	 -52.6666 	 4.38796 	 -102.896 	 
H 	 -52.3655 	 3.43379 	 -102.816 	 
H 	 -52.0902 	 4.88042 	 -102.07 	 
H 	 -52.4558 	 4.80911 	 -103.916 	 
H 	 -57.3725 	 11.7704 	 -103.446 	 
H 	 -59.0182 	 3.96504 	 -103.042 	 
*
