! wB97X-D3 SP def2-SVP
%pal
nprocs 24
end

* xyz 0 1
S 	 -48.7975 	 -44.042 	 -78.2529 	 
C 	 -49.2346 	 -42.3815 	 -77.9196 	 
C 	 -48.261 	 -41.7103 	 -77.2532 	 
C 	 -47.1417 	 -42.585 	 -76.9972 	 
C 	 -47.2177 	 -43.7884 	 -77.597 	 
H 	 -46.1999 	 -42.2758 	 -76.4411 	 
C 	 -48.3809 	 -40.3052 	 -76.7643 	 
H 	 -48.2207 	 -40.2027 	 -75.682 	 
H 	 -49.3938 	 -39.9355 	 -76.7737 	 
C 	 -47.5372 	 -39.3011 	 -77.6 	 
H 	 -46.5577 	 -39.5423 	 -77.7452 	 
H 	 -48.0855 	 -39.3247 	 -78.5748 	 
C 	 -47.5965 	 -37.8073 	 -77.1394 	 
H 	 -48.6266 	 -37.556 	 -77.0556 	 
H 	 -47.1491 	 -37.6625 	 -76.1479 	 
H 	 -47.2305 	 -37.0493 	 -77.7833 	 
S 	 -46.2433 	 -45.7766 	 -75.8819 	 
C 	 -44.602 	 -46.1812 	 -76.1659 	 
C 	 -44.1511 	 -45.8636 	 -77.4208 	 
C 	 -45.0637 	 -45.0592 	 -78.1306 	 
C 	 -46.2201 	 -44.8619 	 -77.4325 	 
H 	 -43.2685 	 -46.3004 	 -77.8141 	 
C 	 -44.7448 	 -44.3594 	 -79.438 	 
H 	 -43.6941 	 -44.1146 	 -79.4146 	 
H 	 -45.3614 	 -43.4352 	 -79.4342 	 
C 	 -45.0815 	 -45.2595 	 -80.6805 	 
H 	 -46.1676 	 -45.528 	 -80.4761 	 
H 	 -44.4028 	 -46.1529 	 -80.5699 	 
C 	 -44.8783 	 -44.8002 	 -82.0717 	 
H 	 -45.3462 	 -43.8292 	 -82.2504 	 
H 	 -45.329 	 -45.384 	 -82.772 	 
H 	 -43.8539 	 -44.7864 	 -82.2711 	 
H 	 -50.1091 	 -41.9276 	 -78.0193 	 
H 	 -43.9414 	 -46.7848 	 -75.5259 	 
*
