! wB97X-D3 SP def2-SVP
%pal
nprocs 24
end

* xyz 0 1
S 	 -140.432 	 7.88723 	 2.29516 	 
C 	 -141.236 	 6.91783 	 1.07606 	 
C 	 -140.417 	 6.70529 	 -0.0378391 	 
C 	 -139.179 	 7.4388 	 0.133049 	 
C 	 -138.963 	 8.01363 	 1.36195 	 
H 	 -138.418 	 7.53991 	 -0.578486 	 
C 	 -140.843 	 5.87374 	 -1.23857 	 
H 	 -139.94 	 5.45259 	 -1.72478 	 
H 	 -141.184 	 6.63167 	 -1.93509 	 
C 	 -141.681 	 4.6417 	 -1.01731 	 
H 	 -141.239 	 4.09851 	 -0.128338 	 
H 	 -142.625 	 4.99946 	 -0.620701 	 
C 	 -141.702 	 3.59458 	 -2.1428 	 
H 	 -140.662 	 3.21806 	 -2.41677 	 
H 	 -142.348 	 2.78341 	 -1.86193 	 
H 	 -142.135 	 4.10484 	 -3.0675 	 
S 	 -138.113 	 10.105 	 2.83522 	 
C 	 -136.391 	 10.3909 	 3.16349 	 
C 	 -135.62 	 9.41269 	 2.4938 	 
C 	 -136.398 	 8.47975 	 1.74304 	 
C 	 -137.773 	 8.72813 	 1.85083 	 
H 	 -134.536 	 9.37664 	 2.52742 	 
C 	 -135.728 	 7.37898 	 0.820244 	 
H 	 -135.084 	 7.97894 	 0.145289 	 
H 	 -136.441 	 6.98282 	 0.0889268 	 
C 	 -134.967 	 6.31385 	 1.47111 	 
H 	 -134.182 	 6.81789 	 2.0769 	 
H 	 -134.46 	 5.66999 	 0.823627 	 
C 	 -135.771 	 5.53648 	 2.54137 	 
H 	 -136.634 	 4.98046 	 2.1362 	 
H 	 -135.872 	 6.15193 	 3.46637 	 
H 	 -135.15 	 4.71739 	 2.86016 	 
H 	 -142.183 	 6.36157 	 1.21209 	 
H 	 -136.088 	 11.0762 	 3.94826 	 
*
