! wB97X-D3 SP def2-SVP
%pal
nprocs 24
end

* xyz 0 1
S 	 -94.2711 	 51.5831 	 -93.417 	 
C 	 -95.1899 	 50.7018 	 -92.1564 	 
C 	 -95.1241 	 49.3601 	 -92.2819 	 
C 	 -94.4777 	 48.968 	 -93.5286 	 
C 	 -94.0227 	 50.1091 	 -94.2243 	 
H 	 -94.3907 	 47.997 	 -93.8803 	 
C 	 -95.7589 	 48.3785 	 -91.3794 	 
H 	 -96.3137 	 47.749 	 -92.0345 	 
H 	 -96.436 	 48.8504 	 -90.688 	 
C 	 -94.688 	 47.5072 	 -90.6072 	 
H 	 -93.954 	 47.2672 	 -91.2674 	 
H 	 -94.2995 	 48.1963 	 -89.794 	 
C 	 -95.2981 	 46.2497 	 -89.9228 	 
H 	 -94.5563 	 45.7067 	 -89.3669 	 
H 	 -96.0144 	 46.5415 	 -89.0778 	 
H 	 -95.8059 	 45.6818 	 -90.6911 	 
S 	 -91.7303 	 49.934 	 -95.7955 	 
C 	 -91.8956 	 49.7117 	 -97.4167 	 
C 	 -93.2627 	 49.8712 	 -97.8147 	 
C 	 -94.1805 	 49.9428 	 -96.7403 	 
C 	 -93.48 	 50.0341 	 -95.5541 	 
H 	 -93.5358 	 49.8695 	 -98.8852 	 
C 	 -95.7102 	 49.8455 	 -96.9748 	 
H 	 -96.2487 	 50.4322 	 -96.1529 	 
H 	 -96.0777 	 48.8271 	 -96.8642 	 
C 	 -96.1501 	 50.4313 	 -98.3192 	 
H 	 -95.5923 	 49.8709 	 -99.1107 	 
H 	 -95.9121 	 51.5224 	 -98.2965 	 
C 	 -97.5847 	 50.1549 	 -98.6549 	 
H 	 -98.2473 	 50.1302 	 -97.8583 	 
H 	 -97.7424 	 49.1479 	 -99.167 	 
H 	 -97.9592 	 50.9325 	 -99.2772 	 
H 	 -95.8191 	 51.1908 	 -91.4283 	 
H 	 -91.0126 	 49.5223 	 -98.0702 	 
*
