! wB97X-D3 SP def2-SVP
%pal
nprocs 24
end

* xyz 0 1
S 	 -44.5533 	 22.02 	 22.1034 	 
C 	 -44.5517 	 21.2297 	 20.4933 	 
C 	 -45.1359 	 19.9628 	 20.5503 	 
C 	 -45.6635 	 19.6617 	 21.8185 	 
C 	 -45.3367 	 20.6204 	 22.8179 	 
H 	 -46.2752 	 18.8264 	 22.1947 	 
C 	 -45.203 	 19.0216 	 19.4039 	 
H 	 -44.3296 	 19.0969 	 18.7608 	 
H 	 -46.0716 	 19.4538 	 18.8908 	 
C 	 -45.4378 	 17.5397 	 19.6314 	 
H 	 -46.241 	 17.3123 	 20.3537 	 
H 	 -45.6573 	 17.0144 	 18.7523 	 
C 	 -44.0809 	 16.919 	 20.1874 	 
H 	 -43.9198 	 17.26 	 21.2517 	 
H 	 -44.0178 	 15.8298 	 20.1213 	 
H 	 -43.114 	 17.2114 	 19.6369 	 
S 	 -47.2726 	 19.8583 	 24.7355 	 
C 	 -46.9385 	 20.0165 	 26.4304 	 
C 	 -45.6961 	 20.6672 	 26.5634 	 
C 	 -44.9287 	 20.8396 	 25.3374 	 
C 	 -45.7051 	 20.5259 	 24.2465 	 
H 	 -45.3467 	 21.1328 	 27.4825 	 
C 	 -43.5083 	 21.3835 	 25.332 	 
H 	 -43.4692 	 22.3204 	 24.7981 	 
H 	 -42.9315 	 20.7706 	 24.6571 	 
C 	 -42.8183 	 21.542 	 26.6848 	 
H 	 -43.409 	 22.1707 	 27.4395 	 
H 	 -41.9127 	 22.1026 	 26.6539 	 
C 	 -42.5473 	 20.146 	 27.2266 	 
H 	 -42.2253 	 20.2684 	 28.241 	 
H 	 -41.866 	 19.5871 	 26.5534 	 
H 	 -43.426 	 19.5724 	 27.3698 	 
H 	 -44.1172 	 21.609 	 19.591 	 
H 	 -47.5799 	 19.8041 	 27.2881 	 
*
