! wB97X-D3 SP def2-SVP
%pal
nprocs 24
end

* xyz 0 1
S 	 -32.2925 	 -29.8861 	 -95.684 	 
C 	 -32.9524 	 -28.5738 	 -96.6848 	 
C 	 -32.5756 	 -27.3281 	 -96.1584 	 
C 	 -31.5716 	 -27.4759 	 -95.1577 	 
C 	 -31.2775 	 -28.8093 	 -94.7928 	 
H 	 -31.1471 	 -26.6515 	 -94.6529 	 
C 	 -32.9148 	 -26.027 	 -96.8639 	 
H 	 -32.515 	 -25.2321 	 -96.216 	 
H 	 -34.0177 	 -25.9299 	 -96.8707 	 
C 	 -32.3563 	 -25.8428 	 -98.3726 	 
H 	 -33.0187 	 -26.4505 	 -99.0691 	 
H 	 -32.4893 	 -24.8202 	 -98.6966 	 
C 	 -30.8662 	 -26.2962 	 -98.482 	 
H 	 -30.7539 	 -27.3649 	 -98.2564 	 
H 	 -30.388 	 -26.0436 	 -99.427 	 
H 	 -30.3001 	 -25.8208 	 -97.647 	 
S 	 -30.864 	 -30.749 	 -92.806 	 
C 	 -29.351 	 -30.5902 	 -91.889 	 
C 	 -28.605 	 -29.5514 	 -92.3201 	 
C 	 -29.2118 	 -28.7402 	 -93.2744 	 
C 	 -30.3152 	 -29.335 	 -93.8262 	 
H 	 -27.6074 	 -29.4679 	 -91.8996 	 
C 	 -28.4473 	 -27.5438 	 -93.8218 	 
H 	 -27.6607 	 -27.2076 	 -93.1078 	 
H 	 -29.1348 	 -26.7302 	 -93.7369 	 
C 	 -27.759 	 -27.9046 	 -95.1294 	 
H 	 -28.4435 	 -28.4153 	 -95.7954 	 
H 	 -26.8479 	 -28.5715 	 -95.0545 	 
C 	 -27.3078 	 -26.5997 	 -95.7692 	 
H 	 -26.5545 	 -26.0164 	 -95.3241 	 
H 	 -28.1689 	 -25.9029 	 -96.0596 	 
H 	 -26.8931 	 -26.8711 	 -96.7379 	 
H 	 -33.5424 	 -28.7494 	 -97.5078 	 
H 	 -29.0375 	 -31.2415 	 -91.0386 	 
*
