! wB97X-D3 SP def2-SVP
%pal
nprocs 24
end

* xyz 0 1
S 	 -33.3406 	 -36.8756 	 -94.1173 	 
C 	 -31.9879 	 -36.4956 	 -92.9991 	 
C 	 -32.4993 	 -36.0583 	 -91.7858 	 
C 	 -33.9315 	 -35.9396 	 -91.8126 	 
C 	 -34.5028 	 -36.2624 	 -92.9577 	 
H 	 -34.4865 	 -35.6137 	 -90.9783 	 
C 	 -31.658 	 -35.7082 	 -90.5912 	 
H 	 -32.2884 	 -35.1364 	 -89.9583 	 
H 	 -30.9192 	 -35.0264 	 -91.0007 	 
C 	 -30.8569 	 -36.8334 	 -89.7935 	 
H 	 -30.0677 	 -37.16 	 -90.4087 	 
H 	 -30.3539 	 -36.3797 	 -88.9335 	 
C 	 -31.6688 	 -37.9947 	 -89.4394 	 
H 	 -31.9633 	 -38.4884 	 -90.3569 	 
H 	 -31.0193 	 -38.6864 	 -88.981 	 
H 	 -32.6055 	 -37.8858 	 -88.8788 	 
S 	 -36.5664 	 -37.6229 	 -94.2476 	 
C 	 -38.1821 	 -36.9088 	 -94.1923 	 
C 	 -38.1757 	 -35.6384 	 -93.6882 	 
C 	 -36.9098 	 -35.277 	 -93.0842 	 
C 	 -35.9082 	 -36.1991 	 -93.3259 	 
H 	 -39.073 	 -35.0711 	 -93.6759 	 
C 	 -36.7375 	 -33.9462 	 -92.4465 	 
H 	 -35.7496 	 -33.9286 	 -92.0835 	 
H 	 -37.3468 	 -33.7784 	 -91.6135 	 
C 	 -37.0827 	 -32.6454 	 -93.2278 	 
H 	 -38.2003 	 -32.6886 	 -93.3263 	 
H 	 -36.5974 	 -32.8328 	 -94.2298 	 
C 	 -36.7124 	 -31.3045 	 -92.507 	 
H 	 -37.4117 	 -30.5285 	 -92.9163 	 
H 	 -35.6423 	 -31.1341 	 -92.4244 	 
H 	 -36.9806 	 -31.3401 	 -91.4495 	 
H 	 -30.9783 	 -36.6835 	 -93.2069 	 
H 	 -39.0891 	 -37.4216 	 -94.5487 	 
*
