! wB97X-D3 SP def2-SVP
%pal
nprocs 24
end

* xyz 0 1
S 	 -84.5098 	 1.43543 	 -117.251 	 
C 	 -84.0711 	 -0.201511 	 -117.534 	 
C 	 -85.0063 	 -0.873422 	 -118.348 	 
C 	 -86.0373 	 -0.0661787 	 -118.787 	 
C 	 -85.9977 	 1.20165 	 -118.276 	 
H 	 -86.912 	 -0.309452 	 -119.4 	 
C 	 -84.9031 	 -2.34296 	 -118.728 	 
H 	 -84.0722 	 -2.39695 	 -119.39 	 
H 	 -85.8264 	 -2.54359 	 -119.215 	 
C 	 -84.7867 	 -3.30012 	 -117.525 	 
H 	 -84.4977 	 -4.28805 	 -117.798 	 
H 	 -84.0037 	 -2.85604 	 -116.93 	 
C 	 -86.056 	 -3.38936 	 -116.702 	 
H 	 -86.0266 	 -4.09799 	 -115.827 	 
H 	 -86.208 	 -2.38056 	 -116.167 	 
H 	 -87.0312 	 -3.62313 	 -117.183 	 
S 	 -86.4853 	 3.5729 	 -119.416 	 
C 	 -88.0726 	 4.28296 	 -119.187 	 
C 	 -88.9287 	 3.4493 	 -118.547 	 
C 	 -88.279 	 2.31027 	 -118.011 	 
C 	 -86.9533 	 2.28466 	 -118.324 	 
H 	 -89.9793 	 3.67377 	 -118.428 	 
C 	 -89.1198 	 1.31411 	 -117.274 	 
H 	 -89.8959 	 1.74549 	 -116.57 	 
H 	 -88.3362 	 0.815795 	 -116.599 	 
C 	 -89.8334 	 0.294725 	 -118.159 	 
H 	 -89.0782 	 -0.320717 	 -118.682 	 
H 	 -90.2845 	 0.802405 	 -119.052 	 
C 	 -90.7273 	 -0.72083 	 -117.462 	 
H 	 -91.3304 	 -0.301449 	 -116.703 	 
H 	 -90.0354 	 -1.42683 	 -116.971 	 
H 	 -91.3267 	 -1.29712 	 -118.141 	 
H 	 -83.206 	 -0.658613 	 -117.015 	 
H 	 -88.3823 	 5.18034 	 -119.618 	 
*
