! wB97X-D3 SP def2-SVP
%pal
nprocs 24
end

* xyz 0 1
S 	 -96.7156 	 15.0305 	 -120.642 	 
C 	 -95.0988 	 15.7706 	 -120.537 	 
C 	 -94.3362 	 15.098 	 -119.641 	 
C 	 -94.9563 	 13.946 	 -119.076 	 
C 	 -96.225 	 13.7298 	 -119.5 	 
H 	 -94.5196 	 13.2918 	 -118.272 	 
C 	 -92.8803 	 15.5015 	 -119.315 	 
H 	 -92.8376 	 16.15 	 -118.402 	 
H 	 -92.5113 	 15.9846 	 -120.198 	 
C 	 -91.8351 	 14.3289 	 -119.28 	 
H 	 -90.8271 	 14.7884 	 -119.229 	 
H 	 -91.861 	 13.8276 	 -118.231 	 
C 	 -91.7485 	 13.3054 	 -120.372 	 
H 	 -92.4472 	 12.4895 	 -120.183 	 
H 	 -91.8693 	 13.7969 	 -121.347 	 
H 	 -90.747 	 12.929 	 -120.412 	 
S 	 -98.8121 	 13.1238 	 -118.707 	 
C 	 -99.0597 	 11.4031 	 -118.316 	 
C 	 -97.9408 	 10.5976 	 -118.414 	 
C 	 -96.8268 	 11.2908 	 -118.929 	 
C 	 -97.1041 	 12.6615 	 -119.04 	 
H 	 -97.9686 	 9.56753 	 -118.094 	 
C 	 -95.5977 	 10.505 	 -119.291 	 
H 	 -95.5206 	 9.74126 	 -118.553 	 
H 	 -94.6445 	 11.0813 	 -119.224 	 
C 	 -95.5549 	 9.88343 	 -120.703 	 
H 	 -94.5464 	 9.5045 	 -120.858 	 
H 	 -95.6587 	 10.7499 	 -121.345 	 
C 	 -96.6407 	 8.85803 	 -121.005 	 
H 	 -96.6034 	 7.98401 	 -120.36 	 
H 	 -96.5543 	 8.42708 	 -122.017 	 
H 	 -97.6466 	 9.32085 	 -120.994 	 
H 	 -94.6744 	 16.5833 	 -121.068 	 
H 	 -100.005 	 11.0018 	 -117.946 	 
*
