! wB97X-D3 SP def2-SVP
%pal
nprocs 24
end

* xyz 0 1
S 	 -102.951 	 60.9452 	 -8.75631 	 
C 	 -103.809 	 62.3991 	 -8.61715 	 
C 	 -103.462 	 63.3235 	 -9.56884 	 
C 	 -102.356 	 62.8847 	 -10.3363 	 
C 	 -101.903 	 61.6109 	 -9.86802 	 
H 	 -101.77 	 63.2385 	 -11.1622 	 
C 	 -104.222 	 64.556 	 -9.91877 	 
H 	 -103.5 	 65.2693 	 -10.2652 	 
H 	 -104.488 	 65.0437 	 -8.92704 	 
C 	 -105.472 	 64.392 	 -10.804 	 
H 	 -105.325 	 63.8051 	 -11.6824 	 
H 	 -106.148 	 63.8581 	 -10.1241 	 
C 	 -106.214 	 65.6379 	 -11.2121 	 
H 	 -105.667 	 66.0675 	 -12.081 	 
H 	 -107.194 	 65.366 	 -11.5325 	 
H 	 -106.209 	 66.4153 	 -10.5004 	 
S 	 -101.366 	 59.5735 	 -11.5987 	 
C 	 -99.7145 	 59.4167 	 -12.2882 	 
C 	 -98.8995 	 60.1584 	 -11.5154 	 
C 	 -99.5147 	 61.0898 	 -10.6298 	 
C 	 -100.862 	 60.8172 	 -10.5037 	 
H 	 -97.8557 	 60.1478 	 -11.6875 	 
C 	 -98.7533 	 62.0761 	 -9.69481 	 
H 	 -99.355 	 63.0026 	 -9.54907 	 
H 	 -97.8122 	 62.2455 	 -10.3065 	 
C 	 -98.2574 	 61.4931 	 -8.35274 	 
H 	 -97.4889 	 62.166 	 -8.02839 	 
H 	 -97.8671 	 60.4634 	 -8.6104 	 
C 	 -99.3759 	 61.4147 	 -7.2602 	 
H 	 -100.22 	 60.7853 	 -7.62856 	 
H 	 -99.787 	 62.3329 	 -6.93825 	 
H 	 -98.9741 	 61.0632 	 -6.36167 	 
H 	 -104.679 	 62.519 	 -7.95071 	 
H 	 -99.4128 	 58.6755 	 -12.9874 	 
*
