! wB97X-D3 SP def2-SVP
%pal
nprocs 24
end

* xyz 0 1
S 	 -59.9124 	 1.74194 	 -17.8823 	 
C 	 -61.1871 	 2.76659 	 -18.4226 	 
C 	 -61.5875 	 2.49073 	 -19.7112 	 
C 	 -60.6606 	 1.61576 	 -20.317 	 
C 	 -59.8349 	 0.965824 	 -19.3938 	 
H 	 -60.5942 	 1.4688 	 -21.4207 	 
C 	 -62.6908 	 3.12964 	 -20.5045 	 
H 	 -63.5618 	 3.1258 	 -19.9191 	 
H 	 -63.0028 	 2.52991 	 -21.3653 	 
C 	 -62.399 	 4.54194 	 -20.9646 	 
H 	 -62.1983 	 5.25462 	 -20.1923 	 
H 	 -61.541 	 4.55684 	 -21.5063 	 
C 	 -63.4493 	 5.11884 	 -21.9133 	 
H 	 -63.3823 	 6.20886 	 -21.9624 	 
H 	 -63.5175 	 4.75449 	 -22.9519 	 
H 	 -64.4338 	 5.02105 	 -21.4585 	 
S 	 -57.1438 	 0.688809 	 -19.759 	 
C 	 -56.5277 	 -0.717816 	 -20.4925 	 
C 	 -57.4997 	 -1.64801 	 -20.6503 	 
C 	 -58.8018 	 -1.21979 	 -20.245 	 
C 	 -58.75 	 0.0671193 	 -19.6525 	 
H 	 -57.3154 	 -2.48917 	 -21.1827 	 
C 	 -59.9789 	 -2.08274 	 -20.2687 	 
H 	 -59.902 	 -2.70126 	 -21.1431 	 
H 	 -60.9126 	 -1.47228 	 -20.5352 	 
C 	 -60.1992 	 -2.96783 	 -19.0601 	 
H 	 -61.2142 	 -3.37197 	 -19.1447 	 
H 	 -60.2532 	 -2.28898 	 -18.2129 	 
C 	 -59.2133 	 -4.10845 	 -18.7035 	 
H 	 -59.732 	 -4.58864 	 -17.8834 	 
H 	 -58.2432 	 -3.62851 	 -18.3258 	 
H 	 -59.0646 	 -4.87796 	 -19.4186 	 
H 	 -61.6488 	 3.50674 	 -17.8305 	 
H 	 -55.5153 	 -0.918052 	 -20.8876 	 
*
