! wB97X-D3 SP def2-SVP
%pal
nprocs 24
end

* xyz 0 1
S 	 -119.253 	 32.2136 	 -22.3352 	 
C 	 -119.04 	 31.1504 	 -23.6755 	 
C 	 -118.241 	 30.0368 	 -23.4403 	 
C 	 -118.012 	 29.9308 	 -22.0291 	 
C 	 -118.333 	 31.0905 	 -21.3026 	 
H 	 -117.74 	 28.962 	 -21.592 	 
C 	 -117.902 	 28.9764 	 -24.452 	 
H 	 -117.893 	 29.4676 	 -25.4392 	 
H 	 -118.761 	 28.291 	 -24.5584 	 
C 	 -116.667 	 28.0751 	 -24.1482 	 
H 	 -115.752 	 28.7242 	 -24.1781 	 
H 	 -116.749 	 27.6023 	 -23.2106 	 
C 	 -116.54 	 26.9033 	 -25.1971 	 
H 	 -117.356 	 26.2176 	 -25.3754 	 
H 	 -116.136 	 27.3341 	 -26.0984 	 
H 	 -115.767 	 26.2209 	 -24.9558 	 
S 	 -119.667 	 31.6541 	 -19 	 
C 	 -118.851 	 31.5904 	 -17.4446 	 
C 	 -117.463 	 31.3043 	 -17.6037 	 
C 	 -117.105 	 31.1083 	 -19.0096 	 
C 	 -118.212 	 31.2719 	 -19.8517 	 
H 	 -116.819 	 31.193 	 -16.7272 	 
C 	 -115.699 	 30.8521 	 -19.5288 	 
H 	 -114.987 	 31.4868 	 -19.0836 	 
H 	 -115.742 	 31.1282 	 -20.5604 	 
C 	 -115.138 	 29.4366 	 -19.4986 	 
H 	 -114.16 	 29.3813 	 -19.9819 	 
H 	 -115.775 	 28.7957 	 -20.1512 	 
C 	 -114.984 	 28.7472 	 -18.1369 	 
H 	 -115.368 	 27.7793 	 -18.2128 	 
H 	 -115.523 	 29.1976 	 -17.2984 	 
H 	 -113.978 	 28.6643 	 -17.7682 	 
H 	 -119.404 	 31.3324 	 -24.6573 	 
H 	 -119.288 	 31.5072 	 -16.4788 	 
*
