! wB97X-D3 SP def2-SVP
%pal
nprocs 24
end

* xyz 0 1
S 	 -43.3109 	 12.218 	 35.8836 	 
C 	 -41.549 	 12.3755 	 36.0987 	 
C 	 -40.9575 	 12.615 	 34.8693 	 
C 	 -41.9669 	 13.0356 	 33.9437 	 
C 	 -43.2873 	 12.9495 	 34.3492 	 
H 	 -41.8077 	 13.4207 	 32.9607 	 
C 	 -39.4924 	 12.7573 	 34.7055 	 
H 	 -39.4564 	 12.6006 	 33.595 	 
H 	 -38.9538 	 11.9116 	 35.2395 	 
C 	 -38.9134 	 14.1851 	 34.8961 	 
H 	 -37.8734 	 14.2065 	 34.3891 	 
H 	 -39.424 	 15.0176 	 34.4198 	 
C 	 -38.6409 	 14.5709 	 36.3874 	 
H 	 -39.5975 	 14.5501 	 36.9246 	 
H 	 -37.8301 	 14.0491 	 36.8915 	 
H 	 -38.3525 	 15.6622 	 36.408 	 
S 	 -45.5946 	 11.9776 	 33.2217 	 
C 	 -46.4353 	 12.9341 	 32.0912 	 
C 	 -45.9598 	 14.2013 	 32.0344 	 
C 	 -44.7312 	 14.381 	 32.7425 	 
C 	 -44.4863 	 13.2667 	 33.529 	 
H 	 -46.3477 	 14.8625 	 31.2583 	 
C 	 -43.8906 	 15.5947 	 32.6569 	 
H 	 -43.0049 	 15.5215 	 33.331 	 
H 	 -44.3697 	 16.406 	 33.1899 	 
C 	 -43.5444 	 16.1261 	 31.2653 	 
H 	 -43.2108 	 17.1439 	 31.3723 	 
H 	 -44.4503 	 16.2167 	 30.6786 	 
C 	 -42.6967 	 15.1665 	 30.3525 	 
H 	 -43.0807 	 14.1828 	 30.0411 	 
H 	 -41.82 	 14.999 	 30.8927 	 
H 	 -42.2564 	 15.6856 	 29.5346 	 
H 	 -40.9112 	 12.0361 	 36.9254 	 
H 	 -47.4 	 12.6204 	 31.6374 	 
*
