! wB97X-D3 SP def2-SVP
%pal
nprocs 24
end

* xyz 0 1
S 	 -76.0868 	 -0.724762 	 -59.6069 	 
C 	 -77.16 	 0.557556 	 -59.1569 	 
C 	 -78.491 	 0.194425 	 -59.1399 	 
C 	 -78.6384 	 -1.21845 	 -59.2753 	 
C 	 -77.4007 	 -1.87285 	 -59.4955 	 
H 	 -79.5271 	 -1.83529 	 -59.2918 	 
C 	 -79.6116 	 1.15397 	 -58.9588 	 
H 	 -80.453 	 0.636187 	 -59.4079 	 
H 	 -79.5523 	 2.06353 	 -59.6118 	 
C 	 -79.9254 	 1.56462 	 -57.5292 	 
H 	 -80.107 	 0.627844 	 -56.9115 	 
H 	 -79.0254 	 2.04789 	 -57.1606 	 
C 	 -81.2069 	 2.45962 	 -57.3455 	 
H 	 -82.0555 	 1.93243 	 -57.9424 	 
H 	 -81.4587 	 2.55333 	 -56.2586 	 
H 	 -81.1067 	 3.45988 	 -57.7483 	 
S 	 -76.5054 	 -3.80382 	 -61.2298 	 
C 	 -76.6215 	 -5.50422 	 -60.8676 	 
C 	 -77.2597 	 -5.56032 	 -59.6602 	 
C 	 -77.7181 	 -4.41161 	 -59.0013 	 
C 	 -77.2398 	 -3.28942 	 -59.7051 	 
H 	 -77.4018 	 -6.54351 	 -59.2193 	 
C 	 -78.3805 	 -4.33898 	 -57.6488 	 
H 	 -79.3015 	 -4.82111 	 -57.9063 	 
H 	 -78.4761 	 -3.29701 	 -57.4308 	 
C 	 -77.6405 	 -5.11959 	 -56.5006 	 
H 	 -77.8992 	 -6.17595 	 -56.4011 	 
H 	 -77.8886 	 -4.59861 	 -55.5873 	 
C 	 -76.1738 	 -4.73542 	 -56.3884 	 
H 	 -76.1517 	 -3.68128 	 -56.1735 	 
H 	 -75.5474 	 -4.9435 	 -57.2876 	 
H 	 -75.696 	 -5.30195 	 -55.5999 	 
H 	 -76.8516 	 1.55449 	 -59.0296 	 
H 	 -76.2485 	 -6.31413 	 -61.3638 	 
*
