! wB97X-D3 SP def2-SVP
%pal
nprocs 24
end

* xyz 0 1
S 	 -2.50126 	 -15.8668 	 -102.425 	 
C 	 -1.52464 	 -16.7345 	 -101.234 	 
C 	 -0.239301 	 -16.9326 	 -101.7 	 
C 	 -0.110345 	 -16.5126 	 -103.022 	 
C 	 -1.25913 	 -15.954 	 -103.619 	 
H 	 0.770596 	 -16.6412 	 -103.723 	 
C 	 0.950641 	 -17.4288 	 -100.845 	 
H 	 0.478381 	 -17.4498 	 -99.8595 	 
H 	 1.67064 	 -16.5531 	 -100.84 	 
C 	 1.57641 	 -18.7281 	 -101.291 	 
H 	 0.845571 	 -19.5221 	 -101.615 	 
H 	 2.09209 	 -18.5677 	 -102.191 	 
C 	 2.4907 	 -19.365 	 -100.234 	 
H 	 1.95568 	 -19.7146 	 -99.3322 	 
H 	 3.15632 	 -20.2155 	 -100.615 	 
H 	 3.20323 	 -18.5766 	 -99.9493 	 
S 	 -0.78502 	 -16.2721 	 -106.249 	 
C 	 -1.55071 	 -15.1711 	 -107.411 	 
C 	 -2.16284 	 -14.1207 	 -106.757 	 
C 	 -2.01883 	 -14.2132 	 -105.315 	 
C 	 -1.38373 	 -15.3437 	 -104.895 	 
H 	 -2.53347 	 -13.3585 	 -107.331 	 
C 	 -2.52419 	 -13.1141 	 -104.431 	 
H 	 -1.7584 	 -12.3953 	 -104.487 	 
H 	 -2.54239 	 -13.4188 	 -103.383 	 
C 	 -3.86841 	 -12.5282 	 -104.882 	 
H 	 -4.70646 	 -13.2236 	 -105.075 	 
H 	 -3.73028 	 -11.9421 	 -105.826 	 
C 	 -4.45314 	 -11.5003 	 -103.902 	 
H 	 -3.63184 	 -10.9342 	 -103.52 	 
H 	 -5.11583 	 -11.982 	 -103.135 	 
H 	 -5.24462 	 -10.8136 	 -104.242 	 
H 	 -1.77858 	 -17.0041 	 -100.221 	 
H 	 -1.69097 	 -15.3218 	 -108.476 	 
*
