! wB97X-D3 SP def2-SVP
%pal
nprocs 24
end

* xyz 0 1
S 	 -119.219 	 59.8764 	 -37.6194 	 
C 	 -119.762 	 61.5504 	 -37.4976 	 
C 	 -120.217 	 61.8329 	 -36.2497 	 
C 	 -120.166 	 60.7334 	 -35.3416 	 
C 	 -119.491 	 59.6835 	 -35.8548 	 
H 	 -120.414 	 60.7711 	 -34.3021 	 
C 	 -120.775 	 63.2096 	 -35.8258 	 
H 	 -120.259 	 63.9475 	 -36.3333 	 
H 	 -120.639 	 63.2233 	 -34.7279 	 
C 	 -122.266 	 63.5543 	 -36.0498 	 
H 	 -122.412 	 64.5833 	 -35.851 	 
H 	 -122.534 	 63.5479 	 -37.0949 	 
C 	 -123.318 	 62.704 	 -35.3197 	 
H 	 -123.259 	 62.9412 	 -34.2705 	 
H 	 -124.386 	 63.0545 	 -35.478 	 
H 	 -123.383 	 61.6226 	 -35.5797 	 
S 	 -118.501 	 58.7382 	 -33.5164 	 
C 	 -118.317 	 57.0156 	 -33.2705 	 
C 	 -118.748 	 56.2887 	 -34.3639 	 
C 	 -119.185 	 57.1536 	 -35.432 	 
C 	 -119.218 	 58.4842 	 -35.0868 	 
H 	 -118.833 	 55.1933 	 -34.433 	 
C 	 -119.665 	 56.5253 	 -36.766 	 
H 	 -120.427 	 57.2075 	 -37.2749 	 
H 	 -120.318 	 55.7182 	 -36.5125 	 
C 	 -118.526 	 55.8875 	 -37.6116 	 
H 	 -119.031 	 55.0655 	 -38.1451 	 
H 	 -117.734 	 55.5614 	 -36.8969 	 
C 	 -117.911 	 56.8629 	 -38.6835 	 
H 	 -118.652 	 57.2754 	 -39.3527 	 
H 	 -117.186 	 56.2977 	 -39.3006 	 
H 	 -117.265 	 57.5591 	 -38.2181 	 
H 	 -119.952 	 62.2887 	 -38.29 	 
H 	 -117.759 	 56.5468 	 -32.4876 	 
*
