! wB97X-D3 SP def2-SVP
%pal
nprocs 24
end

* xyz 0 1
S 	 -133.899 	 57.6303 	 -64.3302 	 
C 	 -134.186 	 58.3481 	 -65.9067 	 
C 	 -134.134 	 57.4078 	 -66.9253 	 
C 	 -133.845 	 56.1346 	 -66.4039 	 
C 	 -133.762 	 56.0512 	 -65.042 	 
H 	 -133.728 	 55.2472 	 -66.9973 	 
C 	 -134.154 	 57.6088 	 -68.4237 	 
H 	 -133.975 	 58.6784 	 -68.6481 	 
H 	 -135.172 	 57.4666 	 -68.8063 	 
C 	 -133.225 	 56.7096 	 -69.2679 	 
H 	 -132.2 	 56.9007 	 -68.8467 	 
H 	 -133.556 	 55.7537 	 -69.1423 	 
C 	 -133.167 	 57.1649 	 -70.8285 	 
H 	 -132.842 	 58.1568 	 -70.9602 	 
H 	 -132.609 	 56.5291 	 -71.466 	 
H 	 -134.143 	 57.1004 	 -71.284 	 
S 	 -135.212 	 54.4415 	 -63.3448 	 
C 	 -134.422 	 53.0579 	 -62.5538 	 
C 	 -133.151 	 52.9583 	 -62.9249 	 
C 	 -132.7 	 53.9318 	 -63.8701 	 
C 	 -133.726 	 54.7837 	 -64.2248 	 
H 	 -132.582 	 52.0736 	 -62.5997 	 
C 	 -131.29 	 53.871 	 -64.5339 	 
H 	 -130.471 	 53.5483 	 -63.8717 	 
H 	 -131.031 	 54.9384 	 -64.7963 	 
C 	 -131.343 	 52.8418 	 -65.6912 	 
H 	 -132.146 	 53.1332 	 -66.4214 	 
H 	 -131.675 	 51.839 	 -65.2858 	 
C 	 -130.037 	 52.9406 	 -66.4302 	 
H 	 -130.143 	 52.8238 	 -67.485 	 
H 	 -129.379 	 52.1844 	 -65.8908 	 
H 	 -129.738 	 54.029 	 -66.4484 	 
H 	 -134.279 	 59.403 	 -66.049 	 
H 	 -134.877 	 52.3757 	 -61.8577 	 
*
