! wB97X-D3 SP def2-SVP
%pal
nprocs 24
end

* xyz 0 1
S 	 40.0424 	 -29.6374 	 -119.714 	 
C 	 38.9151 	 -29.0999 	 -120.99 	 
C 	 39.2647 	 -29.5997 	 -122.207 	 
C 	 40.4351 	 -30.3867 	 -122.134 	 
C 	 40.8298 	 -30.7282 	 -120.827 	 
H 	 40.878 	 -30.8207 	 -123.026 	 
C 	 38.6385 	 -29.2498 	 -123.553 	 
H 	 37.5356 	 -29.2237 	 -123.455 	 
H 	 38.8725 	 -30.0677 	 -124.257 	 
C 	 39.1086 	 -27.9553 	 -124.157 	 
H 	 40.1871 	 -27.7728 	 -124.21 	 
H 	 38.8667 	 -28.0959 	 -125.145 	 
C 	 38.4433 	 -26.6528 	 -123.6 	 
H 	 38.7844 	 -25.8506 	 -124.263 	 
H 	 37.3505 	 -26.6428 	 -123.492 	 
H 	 38.4806 	 -26.5454 	 -122.463 	 
S 	 43.1418 	 -31.0347 	 -119.476 	 
C 	 43.6503 	 -32.5992 	 -119.048 	 
C 	 42.8101 	 -33.6141 	 -119.531 	 
C 	 41.6783 	 -33.0516 	 -120.181 	 
C 	 41.8083 	 -31.6966 	 -120.32 	 
H 	 42.9666 	 -34.652 	 -119.234 	 
C 	 40.5464 	 -33.8666 	 -120.746 	 
H 	 40.9525 	 -34.6264 	 -121.431 	 
H 	 39.8258 	 -33.3295 	 -121.369 	 
C 	 39.7688 	 -34.517 	 -119.6 	 
H 	 39.1725 	 -33.7578 	 -119.085 	 
H 	 40.4465 	 -34.9977 	 -118.843 	 
C 	 38.8731 	 -35.6189 	 -120.089 	 
H 	 39.2845 	 -36.2333 	 -120.922 	 
H 	 37.9482 	 -35.0046 	 -120.351 	 
H 	 38.4638 	 -36.1867 	 -119.238 	 
H 	 38.2265 	 -28.2379 	 -121.044 	 
H 	 44.4552 	 -32.7253 	 -118.424 	 
*
