! wB97X-D3 SP def2-SVP
%pal
nprocs 24
end

* xyz 0 1
S 	 -70.8374 	 9.48008 	 -71.7814 	 
C 	 -72.3918 	 9.87606 	 -72.7064 	 
C 	 -72.2996 	 9.21087 	 -73.8735 	 
C 	 -71.0454 	 8.45621 	 -74.1123 	 
C 	 -70.245 	 8.42026 	 -73.0295 	 
H 	 -70.8192 	 7.92765 	 -75.0379 	 
C 	 -73.4821 	 9.28115 	 -74.8941 	 
H 	 -73.9048 	 10.2792 	 -75.1614 	 
H 	 -74.2584 	 8.78827 	 -74.3491 	 
C 	 -73.2005 	 8.60413 	 -76.2542 	 
H 	 -72.437 	 7.85246 	 -76.1217 	 
H 	 -74.0308 	 8.00001 	 -76.5647 	 
C 	 -72.652 	 9.46077 	 -77.4205 	 
H 	 -73.5203 	 9.9934 	 -77.7926 	 
H 	 -72.0382 	 10.2288 	 -77.0083 	 
H 	 -72.178 	 8.9302 	 -78.2485 	 
S 	 -67.4675 	 8.89073 	 -72.7898 	 
C 	 -66.3416 	 7.53611 	 -72.803 	 
C 	 -67.0352 	 6.33194 	 -72.8829 	 
C 	 -68.4921 	 6.52319 	 -72.9735 	 
C 	 -68.9262 	 7.80611 	 -72.9186 	 
H 	 -66.5451 	 5.36539 	 -73.0209 	 
C 	 -69.475 	 5.35225 	 -73.0493 	 
H 	 -68.9426 	 4.4359 	 -73.3862 	 
H 	 -70.2365 	 5.59347 	 -73.7598 	 
C 	 -70.2413 	 4.89304 	 -71.7647 	 
H 	 -70.7559 	 5.77594 	 -71.4141 	 
H 	 -69.4854 	 4.68818 	 -71.0187 	 
C 	 -71.2628 	 3.78956 	 -71.8713 	 
H 	 -72.084 	 3.98151 	 -72.4773 	 
H 	 -71.6869 	 3.46958 	 -70.9078 	 
H 	 -70.7532 	 2.95821 	 -72.2266 	 
H 	 -73.2675 	 10.4402 	 -72.4078 	 
H 	 -65.29 	 7.59158 	 -72.5315 	 
*
