! wB97X-D3 SP def2-SVP
%pal
nprocs 24
end

* xyz 0 1
S 	 -39.7497 	 -51.7234 	 -73.665 	 
C 	 -40.1418 	 -50.3827 	 -74.7151 	 
C 	 -40.3873 	 -49.2413 	 -74.0055 	 
C 	 -40.1291 	 -49.3641 	 -72.6153 	 
C 	 -39.8385 	 -50.657 	 -72.2004 	 
H 	 -40.1417 	 -48.542 	 -71.876 	 
C 	 -40.6581 	 -47.8647 	 -74.7394 	 
H 	 -39.973 	 -47.8451 	 -75.5754 	 
H 	 -40.3907 	 -46.9718 	 -74.2486 	 
C 	 -42.0997 	 -47.6661 	 -75.305 	 
H 	 -42.2085 	 -46.646 	 -75.7358 	 
H 	 -42.222 	 -48.3761 	 -76.1106 	 
C 	 -43.2106 	 -47.7834 	 -74.3231 	 
H 	 -44.2212 	 -47.7325 	 -74.7718 	 
H 	 -43.2372 	 -48.7363 	 -73.8898 	 
H 	 -43.1522 	 -47.0695 	 -73.4938 	 
S 	 -37.9045 	 -51.7201 	 -70.5091 	 
C 	 -38.4492 	 -52.398 	 -68.9634 	 
C 	 -39.7915 	 -52.0242 	 -68.7529 	 
C 	 -40.45 	 -51.3259 	 -69.8261 	 
C 	 -39.5681 	 -51.1841 	 -70.8807 	 
H 	 -40.2638 	 -52.3371 	 -67.8517 	 
C 	 -41.8497 	 -50.7594 	 -69.6797 	 
H 	 -41.934 	 -49.9973 	 -70.4616 	 
H 	 -41.8101 	 -50.2109 	 -68.7015 	 
C 	 -42.978 	 -51.7908 	 -69.7072 	 
H 	 -43.0713 	 -52.3104 	 -68.6926 	 
H 	 -42.8076 	 -52.5824 	 -70.4148 	 
C 	 -44.4475 	 -51.1503 	 -69.9966 	 
H 	 -44.4652 	 -50.4309 	 -70.8142 	 
H 	 -44.804 	 -50.5878 	 -69.1183 	 
H 	 -45.1491 	 -51.9604 	 -70.1373 	 
H 	 -40.2737 	 -50.3452 	 -75.7232 	 
H 	 -37.7767 	 -53.0481 	 -68.4002 	 
*
