! wB97X-D3 SP def2-SVP
%pal
nprocs 24
end

* xyz 0 1
S 	 -128.333 	 62.1164 	 -58.0164 	 
C 	 -128.449 	 62.7843 	 -59.5607 	 
C 	 -129.679 	 62.5743 	 -60.1623 	 
C 	 -130.614 	 61.9167 	 -59.2953 	 
C 	 -130.086 	 61.6435 	 -58.0618 	 
H 	 -131.594 	 61.5579 	 -59.4893 	 
C 	 -130.104 	 62.864 	 -61.6178 	 
H 	 -130.381 	 63.9445 	 -61.7371 	 
H 	 -130.993 	 62.2629 	 -61.7138 	 
C 	 -129.236 	 62.3629 	 -62.7811 	 
H 	 -128.16 	 62.8213 	 -62.6289 	 
H 	 -129.084 	 61.3425 	 -62.5687 	 
C 	 -129.961 	 62.6713 	 -64.1248 	 
H 	 -129.805 	 63.6861 	 -64.3152 	 
H 	 -129.48 	 62.1176 	 -64.9808 	 
H 	 -131.054 	 62.6557 	 -64.2017 	 
S 	 -129.838 	 59.6216 	 -56.2279 	 
C 	 -131.224 	 59.2708 	 -55.2004 	 
C 	 -132.29 	 59.9931 	 -55.5768 	 
C 	 -132.082 	 61.0376 	 -56.5345 	 
C 	 -130.753 	 60.9232 	 -57.0046 	 
H 	 -133.308 	 59.9151 	 -55.0902 	 
C 	 -133.266 	 61.9521 	 -56.938 	 
H 	 -132.841 	 62.9473 	 -57.2203 	 
H 	 -133.806 	 62.1278 	 -56.0565 	 
C 	 -134.268 	 61.4281 	 -58.0616 	 
H 	 -134.859 	 60.6922 	 -57.4242 	 
H 	 -133.742 	 60.9911 	 -58.9804 	 
C 	 -135.051 	 62.6227 	 -58.5176 	 
H 	 -134.407 	 63.3276 	 -59.1285 	 
H 	 -135.561 	 63.1463 	 -57.6623 	 
H 	 -135.914 	 62.1952 	 -59.06 	 
H 	 -127.616 	 63.2948 	 -60.0898 	 
H 	 -131.217 	 58.5204 	 -54.3929 	 
*
