! wB97X-D3 SP def2-SVP
%pal
nprocs 24
end

* xyz 0 1
S 	 -44.9181 	 26.0251 	 29.3516 	 
C 	 -46.0592 	 26.4004 	 28.1189 	 
C 	 -47.361 	 26.3923 	 28.6087 	 
C 	 -47.4508 	 25.9615 	 29.9777 	 
C 	 -46.2115 	 25.784 	 30.5889 	 
H 	 -48.3729 	 25.7608 	 30.5704 	 
C 	 -48.5951 	 26.6346 	 27.6767 	 
H 	 -48.1108 	 27.1231 	 26.8952 	 
H 	 -49.3435 	 27.2778 	 28.0734 	 
C 	 -49.276 	 25.3928 	 27.0311 	 
H 	 -48.4606 	 24.8435 	 26.6185 	 
H 	 -49.7328 	 24.6732 	 27.7958 	 
C 	 -50.2473 	 25.6975 	 25.8868 	 
H 	 -50.972 	 26.3386 	 26.2734 	 
H 	 -49.6535 	 26.1456 	 25.031 	 
H 	 -50.7266 	 24.7768 	 25.4427 	 
S 	 -45.3422 	 26.6845 	 33.1245 	 
C 	 -45.4412 	 25.5691 	 34.448 	 
C 	 -46.0066 	 24.3542 	 34.0577 	 
C 	 -46.2628 	 24.1972 	 32.6429 	 
C 	 -45.9555 	 25.3948 	 31.98 	 
H 	 -46.1306 	 23.4927 	 34.7356 	 
C 	 -46.6554 	 22.8548 	 32.0601 	 
H 	 -47.1603 	 23.0143 	 31.049 	 
H 	 -47.3949 	 22.5314 	 32.7446 	 
C 	 -45.6228 	 21.7599 	 31.9987 	 
H 	 -44.9618 	 21.6949 	 32.836 	 
H 	 -45.0394 	 21.9866 	 31.1196 	 
C 	 -46.1308 	 20.3633 	 31.7946 	 
H 	 -46.8243 	 20.2474 	 30.9422 	 
H 	 -46.6273 	 20.0647 	 32.7078 	 
H 	 -45.3449 	 19.5882 	 31.5227 	 
H 	 -45.7752 	 26.7616 	 27.128 	 
H 	 -45.3274 	 25.8861 	 35.4312 	 
*
