! wB97X-D3 SP def2-SVP
%pal
nprocs 24
end

* xyz 0 1
S 	 -65.5567 	 8.36345 	 -76.8337 	 
C 	 -65.5675 	 7.07808 	 -75.6085 	 
C 	 -66.8361 	 6.85895 	 -75.0941 	 
C 	 -67.8165 	 7.73147 	 -75.6755 	 
C 	 -67.2744 	 8.54457 	 -76.6935 	 
H 	 -68.8396 	 7.65083 	 -75.4824 	 
C 	 -67.1307 	 5.77378 	 -74.0131 	 
H 	 -67.24 	 6.41235 	 -73.1626 	 
H 	 -66.1885 	 5.26149 	 -73.8657 	 
C 	 -68.2071 	 4.76383 	 -74.2876 	 
H 	 -68.1611 	 4.0863 	 -73.4501 	 
H 	 -69.235 	 5.22375 	 -74.294 	 
C 	 -67.8895 	 3.87687 	 -75.5288 	 
H 	 -68.66 	 3.11783 	 -75.6582 	 
H 	 -67.7795 	 4.45692 	 -76.4343 	 
H 	 -66.9086 	 3.43013 	 -75.3395 	 
S 	 -68.0389 	 11.2288 	 -77.0926 	 
C 	 -69.382 	 11.5281 	 -78.1758 	 
C 	 -69.865 	 10.3203 	 -78.6914 	 
C 	 -69.2384 	 9.18207 	 -78.238 	 
C 	 -68.1059 	 9.46556 	 -77.3971 	 
H 	 -70.726 	 10.3265 	 -79.366 	 
C 	 -69.7465 	 7.82324 	 -78.6806 	 
H 	 -68.9692 	 7.16012 	 -78.4052 	 
H 	 -69.7175 	 7.74207 	 -79.8073 	 
C 	 -71.1218 	 7.50299 	 -77.9784 	 
H 	 -71.8007 	 8.2648 	 -78.0604 	 
H 	 -71.0043 	 7.27866 	 -76.911 	 
C 	 -71.6538 	 6.25421 	 -78.6843 	 
H 	 -70.8322 	 5.59339 	 -78.9547 	 
H 	 -72.2325 	 6.51054 	 -79.5827 	 
H 	 -72.2913 	 5.73518 	 -77.9954 	 
H 	 -64.6614 	 6.54942 	 -75.3079 	 
H 	 -69.7458 	 12.5396 	 -78.4667 	 
*
