! wB97X-D3 SP def2-SVP
%pal
nprocs 24
end

* xyz 0 1
S 	 -98.7948 	 0.678946 	 -121.719 	 
C 	 -100.117 	 1.41432 	 -120.797 	 
C 	 -101.19 	 0.506906 	 -120.615 	 
C 	 -100.951 	 -0.750859 	 -121.313 	 
C 	 -99.676 	 -0.877444 	 -121.915 	 
H 	 -101.598 	 -1.65759 	 -121.343 	 
C 	 -102.489 	 0.728806 	 -119.892 	 
H 	 -103.257 	 0.115447 	 -120.33 	 
H 	 -102.864 	 1.77011 	 -120.097 	 
C 	 -102.434 	 0.651151 	 -118.376 	 
H 	 -101.804 	 -0.192008 	 -118.101 	 
H 	 -101.944 	 1.51176 	 -118.061 	 
C 	 -103.831 	 0.501696 	 -117.738 	 
H 	 -104.362 	 1.45682 	 -118.057 	 
H 	 -104.432 	 -0.426028 	 -118.062 	 
H 	 -103.64 	 0.382255 	 -116.675 	 
S 	 -98.7661 	 -1.36381 	 -124.413 	 
C 	 -98.5582 	 -2.95958 	 -125.01 	 
C 	 -98.8877 	 -3.91228 	 -124.095 	 
C 	 -99.2899 	 -3.32883 	 -122.808 	 
C 	 -99.2327 	 -1.94968 	 -122.825 	 
H 	 -98.8665 	 -4.93452 	 -124.311 	 
C 	 -99.6584 	 -4.11888 	 -121.584 	 
H 	 -99.9104 	 -5.10718 	 -121.969 	 
H 	 -100.522 	 -3.77515 	 -121.076 	 
C 	 -98.4193 	 -4.4123 	 -120.708 	 
H 	 -98.6603 	 -4.97982 	 -119.772 	 
H 	 -98.1027 	 -3.5448 	 -120.154 	 
C 	 -97.2754 	 -5.13878 	 -121.379 	 
H 	 -96.9174 	 -4.57691 	 -122.224 	 
H 	 -97.5374 	 -6.09171 	 -121.844 	 
H 	 -96.3933 	 -5.43458 	 -120.777 	 
H 	 -100.193 	 2.4214 	 -120.353 	 
H 	 -98.5497 	 -3.34002 	 -126.022 	 
*
