! wB97X-D3 SP def2-SVP
%pal
nprocs 24
end

* xyz 0 1
S 	 -43.7546 	 20.2224 	 30.2049 	 
C 	 -43.7349 	 19.3624 	 28.6832 	 
C 	 -44.9044 	 19.2321 	 28.0765 	 
C 	 -45.8908 	 20.0248 	 28.7532 	 
C 	 -45.4086 	 20.6687 	 29.8438 	 
H 	 -46.8849 	 20.3093 	 28.3533 	 
C 	 -45.1004 	 18.7226 	 26.6538 	 
H 	 -45.0584 	 17.6267 	 26.7799 	 
H 	 -44.1791 	 18.8958 	 26.0568 	 
C 	 -46.4238 	 19.0562 	 25.9529 	 
H 	 -47.2382 	 18.4763 	 26.3271 	 
H 	 -46.6914 	 20.1473 	 26.0914 	 
C 	 -46.396 	 18.7068 	 24.4611 	 
H 	 -47.2926 	 19.1555 	 23.9646 	 
H 	 -45.3892 	 18.9977 	 24.0725 	 
H 	 -46.6465 	 17.5793 	 24.4149 	 
S 	 -46.6455 	 20.9459 	 32.3111 	 
C 	 -47.2343 	 22.5008 	 32.8053 	 
C 	 -47.202 	 23.4295 	 31.7667 	 
C 	 -46.5071 	 22.9327 	 30.6486 	 
C 	 -46.0817 	 21.5968 	 30.7175 	 
H 	 -47.474 	 24.5074 	 31.9498 	 
C 	 -46.1826 	 23.8582 	 29.5227 	 
H 	 -47.118 	 24.3737 	 29.245 	 
H 	 -45.8621 	 23.2328 	 28.7047 	 
C 	 -45.0256 	 24.8095 	 29.6939 	 
H 	 -44.847 	 25.1659 	 28.6863 	 
H 	 -44.1423 	 24.219 	 29.9131 	 
C 	 -45.2435 	 25.9745 	 30.709 	 
H 	 -45.4053 	 25.5218 	 31.7452 	 
H 	 -46.1396 	 26.577 	 30.2977 	 
H 	 -44.4471 	 26.679 	 30.7101 	 
H 	 -42.8873 	 18.943 	 28.1833 	 
H 	 -47.5092 	 22.7386 	 33.8112 	 
*
