! wB97X-D3 SP def2-SVP
%pal
nprocs 24
end

* xyz 0 1
S 	 -119.727 	 64.0325 	 -53.2897 	 
C 	 -118.661 	 64.5066 	 -51.9846 	 
C 	 -119.315 	 65.3908 	 -51.1233 	 
C 	 -120.578 	 65.7159 	 -51.548 	 
C 	 -121.002 	 65.075 	 -52.6887 	 
H 	 -121.333 	 66.303 	 -51.0379 	 
C 	 -118.677 	 66.0088 	 -49.936 	 
H 	 -118.069 	 65.2324 	 -49.4293 	 
H 	 -119.491 	 66.2267 	 -49.1761 	 
C 	 -117.706 	 67.2205 	 -50.2638 	 
H 	 -117.324 	 67.5753 	 -49.3788 	 
H 	 -116.851 	 66.9446 	 -50.8948 	 
C 	 -118.275 	 68.4254 	 -51.0075 	 
H 	 -118.805 	 68.1969 	 -51.964 	 
H 	 -119.043 	 68.8255 	 -50.3739 	 
H 	 -117.524 	 69.1514 	 -51.2274 	 
S 	 -122.205 	 65.7934 	 -55.0431 	 
C 	 -123.839 	 66.2728 	 -55.1122 	 
C 	 -124.564 	 65.7509 	 -54.0463 	 
C 	 -123.633 	 65.2568 	 -53.028 	 
C 	 -122.299 	 65.2198 	 -53.3933 	 
H 	 -125.568 	 65.9228 	 -54.0812 	 
C 	 -124.113 	 64.9649 	 -51.6235 	 
H 	 -124.59 	 65.9079 	 -51.2082 	 
H 	 -123.227 	 64.8092 	 -50.9866 	 
C 	 -125.023 	 63.7192 	 -51.518 	 
H 	 -124.515 	 62.8833 	 -52.058 	 
H 	 -125.966 	 63.7444 	 -52.0591 	 
C 	 -125.188 	 63.1516 	 -50.0358 	 
H 	 -124.335 	 62.7049 	 -49.4806 	 
H 	 -126.104 	 62.5049 	 -49.8213 	 
H 	 -125.598 	 63.9796 	 -49.4136 	 
H 	 -117.589 	 64.2471 	 -51.8732 	 
H 	 -124.357 	 66.7433 	 -55.9212 	 
*
