! wB97X-D3 SP def2-SVP
%pal
nprocs 24
end

* xyz 0 1
S 	 30.3674 	 -30.274 	 -109.821 	 
C 	 31.4335 	 -30.2686 	 -108.406 	 
C 	 32.5832 	 -30.8921 	 -108.688 	 
C 	 32.5987 	 -31.4302 	 -109.969 	 
C 	 31.4707 	 -31.2848 	 -110.69 	 
H 	 33.3631 	 -32.1089 	 -110.247 	 
C 	 33.7181 	 -31.108 	 -107.727 	 
H 	 34.4556 	 -31.6927 	 -108.182 	 
H 	 33.4133 	 -31.6662 	 -106.864 	 
C 	 34.3193 	 -29.7612 	 -107.23 	 
H 	 33.5093 	 -29.0518 	 -107.18 	 
H 	 34.6778 	 -29.819 	 -106.186 	 
C 	 35.4513 	 -29.2244 	 -108.043 	 
H 	 36.2925 	 -29.8469 	 -108.177 	 
H 	 35.1454 	 -28.9945 	 -109.035 	 
H 	 35.9073 	 -28.2541 	 -107.732 	 
S 	 29.9132 	 -31.209 	 -112.988 	 
C 	 30.0864 	 -32.402 	 -114.239 	 
C 	 30.961 	 -33.3627 	 -113.895 	 
C 	 31.6274 	 -33.0863 	 -112.646 	 
C 	 31.1337 	 -31.9291 	 -111.966 	 
H 	 31.1911 	 -34.1618 	 -114.628 	 
C 	 32.7414 	 -33.987 	 -112.153 	 
H 	 32.5203 	 -35.0011 	 -112.534 	 
H 	 32.5168 	 -33.9994 	 -111.077 	 
C 	 34.2232 	 -33.6768 	 -112.367 	 
H 	 34.5038 	 -32.6941 	 -112.053 	 
H 	 34.4079 	 -33.6685 	 -113.439 	 
C 	 35.1973 	 -34.5543 	 -111.597 	 
H 	 35.1189 	 -34.4273 	 -110.526 	 
H 	 36.2023 	 -34.182 	 -111.852 	 
H 	 35.0278 	 -35.6272 	 -111.938 	 
H 	 31.2461 	 -29.6869 	 -107.545 	 
H 	 29.6295 	 -32.3007 	 -115.19 	 
*
