! wB97X-D3 SP def2-SVP
%pal
nprocs 24
end

* xyz 0 1
S 	 -67.9477 	 -41.7721 	 -95.5177 	 
C 	 -67.7929 	 -40.0277 	 -95.482 	 
C 	 -68.8898 	 -39.4596 	 -96.1361 	 
C 	 -69.8228 	 -40.4202 	 -96.663 	 
C 	 -69.3345 	 -41.7392 	 -96.5322 	 
H 	 -70.8206 	 -40.199 	 -97.1677 	 
C 	 -69.0164 	 -37.9927 	 -96.4763 	 
H 	 -69.4914 	 -37.3993 	 -95.6322 	 
H 	 -69.5101 	 -37.8718 	 -97.4289 	 
C 	 -67.6924 	 -37.1822 	 -96.6521 	 
H 	 -68.1052 	 -36.1581 	 -96.7303 	 
H 	 -67.0211 	 -37.1946 	 -95.7715 	 
C 	 -66.8866 	 -37.6611 	 -97.8316 	 
H 	 -67.4048 	 -37.4924 	 -98.8318 	 
H 	 -65.8852 	 -37.2237 	 -97.7732 	 
H 	 -66.7337 	 -38.7869 	 -97.8786 	 
S 	 -69.085 	 -43.8738 	 -98.1071 	 
C 	 -70.3353 	 -45.0402 	 -98.0741 	 
C 	 -71.4693 	 -44.6196 	 -97.5054 	 
C 	 -71.2837 	 -43.3993 	 -96.7733 	 
C 	 -69.9998 	 -42.9272 	 -97.0101 	 
H 	 -72.34 	 -45.325 	 -97.5739 	 
C 	 -72.443 	 -42.6309 	 -96.1371 	 
H 	 -72.6723 	 -41.756 	 -96.7226 	 
H 	 -72.0858 	 -42.1855 	 -95.1639 	 
C 	 -73.6918 	 -43.3683 	 -95.7039 	 
H 	 -73.4539 	 -44.0671 	 -94.8626 	 
H 	 -74.0492 	 -44.0752 	 -96.4571 	 
C 	 -74.8687 	 -42.4986 	 -95.2066 	 
H 	 -74.9768 	 -41.5512 	 -95.7984 	 
H 	 -74.6069 	 -42.1195 	 -94.2241 	 
H 	 -75.8171 	 -43.0831 	 -95.2187 	 
H 	 -67.1001 	 -39.374 	 -95.0049 	 
H 	 -70.3164 	 -46.0363 	 -98.58 	 
*
