! wB97X-D3 SP def2-SVP
%pal
nprocs 24
end

* xyz 0 1
S 	 44.7771 	 -15.7803 	 -105.335 	 
C 	 43.4823 	 -16.6175 	 -106.166 	 
C 	 43.5005 	 -16.3221 	 -107.475 	 
C 	 44.4754 	 -15.3589 	 -107.872 	 
C 	 45.2068 	 -15.0125 	 -106.739 	 
H 	 44.6201 	 -14.8425 	 -108.817 	 
C 	 42.5225 	 -17.0763 	 -108.472 	 
H 	 42.0345 	 -16.3523 	 -109.123 	 
H 	 41.7403 	 -17.5823 	 -107.95 	 
C 	 43.2313 	 -18.1384 	 -109.337 	 
H 	 42.5066 	 -18.8254 	 -109.823 	 
H 	 43.7147 	 -17.6678 	 -110.168 	 
C 	 44.3099 	 -19.0113 	 -108.648 	 
H 	 43.8384 	 -19.5716 	 -107.879 	 
H 	 44.7654 	 -19.7451 	 -109.338 	 
H 	 45.1734 	 -18.5841 	 -108.098 	 
S 	 45.785 	 -12.4424 	 -105.815 	 
C 	 47.1837 	 -11.6157 	 -106.395 	 
C 	 47.991 	 -12.5009 	 -106.996 	 
C 	 47.3841 	 -13.7514 	 -107.272 	 
C 	 46.1746 	 -13.9174 	 -106.65 	 
H 	 48.9095 	 -12.0653 	 -107.317 	 
C 	 48.0991 	 -14.7901 	 -108.013 	 
H 	 48.4177 	 -14.4895 	 -109.004 	 
H 	 47.4255 	 -15.6284 	 -108.2 	 
C 	 49.2905 	 -15.4146 	 -107.337 	 
H 	 50.0757 	 -14.601 	 -107.323 	 
H 	 49.637 	 -16.2741 	 -107.898 	 
C 	 48.9291 	 -15.9052 	 -105.958 	 
H 	 48.1264 	 -16.6928 	 -106.023 	 
H 	 48.5223 	 -15.1266 	 -105.265 	 
H 	 49.7628 	 -16.4387 	 -105.47 	 
H 	 42.8009 	 -17.3872 	 -105.833 	 
H 	 47.3389 	 -10.584 	 -106.383 	 
*
