! wB97X-D3 SP def2-SVP
%pal
nprocs 24
end

* xyz 0 1
S 	 -135.97 	 73.2129 	 -68.2016 	 
C 	 -134.362 	 73.7275 	 -68.6509 	 
C 	 -133.576 	 73.9711 	 -67.4914 	 
C 	 -134.328 	 73.987 	 -66.2721 	 
C 	 -135.689 	 73.5779 	 -66.5025 	 
H 	 -134.051 	 74.2803 	 -65.2511 	 
C 	 -132.121 	 74.4027 	 -67.48 	 
H 	 -131.768 	 74.1921 	 -68.5104 	 
H 	 -131.653 	 73.8159 	 -66.7066 	 
C 	 -131.924 	 75.9024 	 -67.2092 	 
H 	 -132.689 	 76.1514 	 -66.477 	 
H 	 -131.013 	 76.0496 	 -66.6405 	 
C 	 -132.203 	 76.8828 	 -68.3846 	 
H 	 -133.139 	 76.7584 	 -68.9395 	 
H 	 -132.171 	 77.925 	 -68.0152 	 
H 	 -131.325 	 76.7213 	 -69.0098 	 
S 	 -137.306 	 71.7962 	 -65.3024 	 
C 	 -138.434 	 72.3197 	 -64.1015 	 
C 	 -138.226 	 73.6585 	 -63.7372 	 
C 	 -137.254 	 74.2855 	 -64.5348 	 
C 	 -136.744 	 73.4486 	 -65.5066 	 
H 	 -138.745 	 74.1476 	 -62.9139 	 
C 	 -136.964 	 75.7509 	 -64.319 	 
H 	 -135.96 	 75.8911 	 -64.6863 	 
H 	 -136.906 	 76.1148 	 -63.2538 	 
C 	 -137.983 	 76.7241 	 -64.9113 	 
H 	 -137.637 	 77.7149 	 -64.6524 	 
H 	 -138.852 	 76.7017 	 -64.3183 	 
C 	 -138.061 	 76.5538 	 -66.4001 	 
H 	 -137.171 	 76.8242 	 -66.9395 	 
H 	 -138.704 	 77.2959 	 -66.7708 	 
H 	 -138.363 	 75.6036 	 -66.8744 	 
H 	 -133.953 	 73.8961 	 -69.6907 	 
H 	 -138.998 	 71.6694 	 -63.4677 	 
*
