! wB97X-D3 SP def2-SVP
%pal
nprocs 24
end

* xyz 0 1
S 	 -37.2927 	 -40.3179 	 -74.9532 	 
C 	 -38.8319 	 -39.5391 	 -75.1312 	 
C 	 -39.6818 	 -40.2279 	 -76.0052 	 
C 	 -39.089 	 -41.4388 	 -76.5097 	 
C 	 -37.7894 	 -41.5817 	 -76.0679 	 
H 	 -39.4386 	 -42.1231 	 -77.2506 	 
C 	 -41.011 	 -39.8732 	 -76.5441 	 
H 	 -41.4087 	 -39.0629 	 -76.0205 	 
H 	 -41.6556 	 -40.8386 	 -76.4978 	 
C 	 -41.0962 	 -39.4793 	 -77.9552 	 
H 	 -40.6152 	 -38.52 	 -78.1871 	 
H 	 -40.6048 	 -40.2737 	 -78.553 	 
C 	 -42.5709 	 -39.3908 	 -78.4423 	 
H 	 -42.6263 	 -38.9275 	 -79.4392 	 
H 	 -43.0564 	 -40.3446 	 -78.2966 	 
H 	 -42.9734 	 -38.7004 	 -77.7228 	 
S 	 -35.6485 	 -43.1721 	 -75.1463 	 
C 	 -35.1007 	 -44.571 	 -76.0482 	 
C 	 -35.8606 	 -44.678 	 -77.1855 	 
C 	 -36.8145 	 -43.6241 	 -77.4485 	 
C 	 -36.8658 	 -42.6872 	 -76.3864 	 
H 	 -35.9052 	 -45.6203 	 -77.8057 	 
C 	 -37.6219 	 -43.6401 	 -78.7239 	 
H 	 -38.7247 	 -43.7699 	 -78.4281 	 
H 	 -37.239 	 -44.4215 	 -79.3396 	 
C 	 -37.453 	 -42.3744 	 -79.6231 	 
H 	 -36.3565 	 -42.2265 	 -79.5132 	 
H 	 -38.1031 	 -41.5614 	 -79.1582 	 
C 	 -38.0053 	 -42.5086 	 -81.0517 	 
H 	 -37.8281 	 -41.5536 	 -81.5564 	 
H 	 -39.0662 	 -42.7054 	 -81.1037 	 
H 	 -37.4897 	 -43.2983 	 -81.7059 	 
H 	 -39.1845 	 -38.6717 	 -74.5968 	 
H 	 -34.6847 	 -45.4414 	 -75.5548 	 
*
