! wB97X-D3 SP def2-SVP
%pal
nprocs 24
end

* xyz 0 1
S 	 -81.9559 	 -20.2515 	 -53.1869 	 
C 	 -82.7977 	 -18.7459 	 -52.7762 	 
C 	 -82.1256 	 -18.0109 	 -51.9108 	 
C 	 -80.9759 	 -18.6102 	 -51.4606 	 
C 	 -80.7095 	 -19.8217 	 -52.0859 	 
H 	 -80.2362 	 -18.2085 	 -50.7938 	 
C 	 -82.6322 	 -16.6736 	 -51.3484 	 
H 	 -83.5639 	 -16.4174 	 -51.8879 	 
H 	 -81.9464 	 -15.8783 	 -51.6458 	 
C 	 -82.8244 	 -16.7352 	 -49.7811 	 
H 	 -81.8326 	 -16.7055 	 -49.3339 	 
H 	 -83.2955 	 -15.783 	 -49.5364 	 
C 	 -83.6157 	 -17.8485 	 -49.1965 	 
H 	 -84.4916 	 -18.0474 	 -49.8833 	 
H 	 -82.9539 	 -18.7434 	 -49.2358 	 
H 	 -83.9341 	 -17.7642 	 -48.1363 	 
S 	 -79.8751 	 -22.2281 	 -51.0383 	 
C 	 -78.2614 	 -22.7812 	 -51.3524 	 
C 	 -77.5159 	 -21.8703 	 -52.0979 	 
C 	 -78.3113 	 -20.735 	 -52.4968 	 
C 	 -79.5664 	 -20.6959 	 -51.8955 	 
H 	 -76.5321 	 -21.9647 	 -52.4649 	 
C 	 -77.7628 	 -19.6818 	 -53.3946 	 
H 	 -76.7956 	 -19.9407 	 -53.7017 	 
H 	 -77.8274 	 -18.7092 	 -52.8403 	 
C 	 -78.563 	 -19.451 	 -54.6826 	 
H 	 -78.0196 	 -18.7472 	 -55.2752 	 
H 	 -79.5578 	 -19.0524 	 -54.467 	 
C 	 -78.6788 	 -20.7401 	 -55.526 	 
H 	 -77.6528 	 -21.0475 	 -55.8662 	 
H 	 -79.3741 	 -20.6055 	 -56.3937 	 
H 	 -79.0648 	 -21.5009 	 -54.88 	 
H 	 -83.7935 	 -18.5181 	 -53.1396 	 
H 	 -77.7794 	 -23.6934 	 -51.0548 	 
*
