! wB97X-D3 SP def2-SVP
%pal
nprocs 24
end

* xyz 0 1
S 	 -145.2 	 29.2035 	 -21.3212 	 
C 	 -146.546 	 28.0245 	 -21.3485 	 
C 	 -146.108 	 26.7641 	 -21.3282 	 
C 	 -144.697 	 26.6596 	 -21.3164 	 
C 	 -144.045 	 27.8556 	 -21.1518 	 
H 	 -144.123 	 25.7069 	 -21.4252 	 
C 	 -147.003 	 25.5203 	 -21.4228 	 
H 	 -147.757 	 25.5584 	 -20.5734 	 
H 	 -146.377 	 24.7405 	 -21.0532 	 
C 	 -147.602 	 25.1839 	 -22.8234 	 
H 	 -148.04 	 26.1651 	 -23.133 	 
H 	 -146.851 	 25.0832 	 -23.589 	 
C 	 -148.488 	 23.8912 	 -22.849 	 
H 	 -149.023 	 23.7094 	 -21.9205 	 
H 	 -149.107 	 23.8594 	 -23.7119 	 
H 	 -147.845 	 22.9902 	 -22.9525 	 
S 	 -142.072 	 29.3845 	 -22.1961 	 
C 	 -140.42 	 28.9774 	 -21.8408 	 
C 	 -140.33 	 28.031 	 -20.8632 	 
C 	 -141.607 	 27.4681 	 -20.4866 	 
C 	 -142.661 	 28.1354 	 -21.1268 	 
H 	 -139.393 	 27.6491 	 -20.4618 	 
C 	 -141.747 	 26.3897 	 -19.3951 	 
H 	 -142.797 	 26.1018 	 -19.445 	 
H 	 -141.558 	 26.9342 	 -18.4611 	 
C 	 -140.762 	 25.2062 	 -19.5812 	 
H 	 -139.851 	 25.7481 	 -19.6449 	 
H 	 -141.003 	 24.8169 	 -20.6167 	 
C 	 -140.765 	 24.2417 	 -18.3592 	 
H 	 -141.701 	 23.8429 	 -18.0335 	 
H 	 -140.479 	 24.6769 	 -17.4513 	 
H 	 -140.132 	 23.4217 	 -18.5998 	 
H 	 -147.606 	 28.4091 	 -21.2961 	 
H 	 -139.558 	 29.3775 	 -22.3403 	 
*
