! wB97X-D3 SP def2-SVP
%pal
nprocs 24
end

* xyz 0 1
S 	 -110.968 	 55.6196 	 -91.7741 	 
C 	 -112.488 	 55.5551 	 -92.5357 	 
C 	 -113.476 	 54.8567 	 -91.8248 	 
C 	 -113.007 	 54.3794 	 -90.5845 	 
C 	 -111.681 	 54.6829 	 -90.4066 	 
H 	 -113.564 	 53.7934 	 -89.9335 	 
C 	 -114.885 	 54.675 	 -92.3943 	 
H 	 -115.153 	 55.6288 	 -92.9383 	 
H 	 -115.477 	 54.5729 	 -91.4932 	 
C 	 -115.168 	 53.4416 	 -93.2319 	 
H 	 -114.567 	 53.6157 	 -94.1029 	 
H 	 -114.687 	 52.6338 	 -92.8174 	 
C 	 -116.563 	 53.2395 	 -93.7439 	 
H 	 -116.904 	 54.1938 	 -94.233 	 
H 	 -116.493 	 52.5188 	 -94.444 	 
H 	 -117.324 	 53.0365 	 -92.9429 	 
S 	 -109.635 	 55.5716 	 -88.862 	 
C 	 -109.336 	 54.8977 	 -87.352 	 
C 	 -109.917 	 53.6331 	 -87.3056 	 
C 	 -110.821 	 53.3342 	 -88.3749 	 
C 	 -110.94 	 54.4259 	 -89.2285 	 
H 	 -109.791 	 52.9398 	 -86.5368 	 
C 	 -111.414 	 51.9262 	 -88.4725 	 
H 	 -112.276 	 51.9149 	 -89.1015 	 
H 	 -111.73 	 51.5207 	 -87.5116 	 
C 	 -110.37 	 50.9162 	 -88.9028 	 
H 	 -110.779 	 49.8882 	 -88.6751 	 
H 	 -109.357 	 50.9986 	 -88.4185 	 
C 	 -110.185 	 50.94 	 -90.4205 	 
H 	 -109.569 	 50.1755 	 -90.831 	 
H 	 -109.835 	 51.8976 	 -90.7928 	 
H 	 -111.167 	 50.7539 	 -90.829 	 
H 	 -112.646 	 55.9505 	 -93.5778 	 
H 	 -108.628 	 55.1307 	 -86.6226 	 
*
