! wB97X-D3 SP def2-SVP
%pal
nprocs 24
end

* xyz 0 1
S 	 -135.334 	 9.73202 	 -3.37079 	 
C 	 -135.395 	 10.8007 	 -1.99805 	 
C 	 -135.568 	 10.1373 	 -0.811895 	 
C 	 -135.884 	 8.7726 	 -1.05498 	 
C 	 -135.866 	 8.3816 	 -2.39409 	 
H 	 -136.285 	 8.12226 	 -0.306845 	 
C 	 -135.695 	 10.7644 	 0.560349 	 
H 	 -136.684 	 10.5066 	 1.04471 	 
H 	 -135.563 	 11.8739 	 0.437236 	 
C 	 -134.639 	 10.4119 	 1.54914 	 
H 	 -134.434 	 9.35695 	 1.46562 	 
H 	 -133.735 	 10.9463 	 1.18662 	 
C 	 -134.927 	 10.8057 	 3.04548 	 
H 	 -135.828 	 10.225 	 3.22797 	 
H 	 -134.2 	 10.3863 	 3.76541 	 
H 	 -135.235 	 11.8222 	 3.18639 	 
S 	 -135.101 	 6.27435 	 -3.97762 	 
C 	 -136.159 	 4.89962 	 -4.23448 	 
C 	 -137.328 	 5.08474 	 -3.56335 	 
C 	 -137.409 	 6.35873 	 -2.87442 	 
C 	 -136.276 	 7.13277 	 -3.02637 	 
H 	 -138.117 	 4.26359 	 -3.52098 	 
C 	 -138.713 	 6.78456 	 -2.27657 	 
H 	 -138.688 	 6.80543 	 -1.15705 	 
H 	 -139.359 	 6.00152 	 -2.5276 	 
C 	 -139.246 	 8.13386 	 -2.78899 	 
H 	 -139.092 	 8.25193 	 -3.87468 	 
H 	 -138.652 	 8.89684 	 -2.38659 	 
C 	 -140.747 	 8.17996 	 -2.50678 	 
H 	 -141.326 	 7.50409 	 -3.0656 	 
H 	 -141.061 	 9.14471 	 -2.71232 	 
H 	 -140.87 	 7.92309 	 -1.40315 	 
H 	 -135.019 	 11.8266 	 -1.9878 	 
H 	 -135.923 	 3.90458 	 -4.6236 	 
*
