! wB97X-D3 SP def2-SVP
%pal
nprocs 24
end

* xyz 0 1
S 	 -108.143 	 52.5647 	 -111.742 	 
C 	 -107.314 	 54.0276 	 -111.198 	 
C 	 -107.669 	 54.4134 	 -109.968 	 
C 	 -108.689 	 53.5892 	 -109.423 	 
C 	 -108.911 	 52.4501 	 -110.17 	 
H 	 -109.417 	 53.8033 	 -108.637 	 
C 	 -107.192 	 55.6323 	 -109.326 	 
H 	 -107.887 	 55.797 	 -108.547 	 
H 	 -107.263 	 56.467 	 -109.995 	 
C 	 -105.718 	 55.6378 	 -108.856 	 
H 	 -105.163 	 55.5226 	 -109.781 	 
H 	 -105.351 	 56.5913 	 -108.461 	 
C 	 -105.485 	 54.5864 	 -107.781 	 
H 	 -104.556 	 54.8508 	 -107.241 	 
H 	 -106.184 	 54.5484 	 -106.958 	 
H 	 -105.323 	 53.6578 	 -108.202 	 
S 	 -109.669 	 50.9536 	 -108.148 	 
C 	 -111.149 	 50.0444 	 -108.194 	 
C 	 -111.752 	 50.1545 	 -109.451 	 
C 	 -111.143 	 51.1642 	 -110.29 	 
C 	 -109.917 	 51.5389 	 -109.742 	 
H 	 -112.766 	 49.7573 	 -109.661 	 
C 	 -111.747 	 51.6213 	 -111.623 	 
H 	 -112.353 	 50.833 	 -112.013 	 
H 	 -110.819 	 51.7654 	 -112.164 	 
C 	 -112.62 	 52.8849 	 -111.53 	 
H 	 -112.864 	 53.2017 	 -112.542 	 
H 	 -112.026 	 53.7149 	 -111.079 	 
C 	 -114.012 	 52.5834 	 -110.941 	 
H 	 -113.972 	 52.5338 	 -109.886 	 
H 	 -114.454 	 51.7097 	 -111.426 	 
H 	 -114.618 	 53.433 	 -111.169 	 
H 	 -106.469 	 54.4501 	 -111.794 	 
H 	 -111.576 	 49.6201 	 -107.249 	 
*
