! wB97X-D3 SP def2-SVP
%pal
nprocs 24
end

* xyz 0 1
S 	 -140.57 	 9.11163 	 2.68054 	 
C 	 -139.274 	 8.93432 	 1.48716 	 
C 	 -138.195 	 8.22357 	 2.0178 	 
C 	 -138.374 	 7.86184 	 3.42057 	 
C 	 -139.623 	 8.16913 	 3.90408 	 
H 	 -137.55 	 7.41127 	 3.99291 	 
C 	 -136.893 	 8.03794 	 1.40003 	 
H 	 -136.125 	 8.01404 	 2.19452 	 
H 	 -136.539 	 8.90158 	 0.82986 	 
C 	 -136.858 	 6.72077 	 0.515231 	 
H 	 -137.167 	 5.85624 	 1.11512 	 
H 	 -137.63 	 6.78693 	 -0.277087 	 
C 	 -135.518 	 6.61897 	 -0.124384 	 
H 	 -135.543 	 6.98123 	 -1.15453 	 
H 	 -134.798 	 7.22353 	 0.321677 	 
H 	 -135.12 	 5.53895 	 -0.139032 	 
S 	 -140.851 	 9.57128 	 5.83522 	 
C 	 -140.897 	 8.87617 	 7.36819 	 
C 	 -140.353 	 7.59962 	 7.60931 	 
C 	 -139.851 	 7.14184 	 6.30316 	 
C 	 -140.091 	 8.10237 	 5.30889 	 
H 	 -140.392 	 7.14755 	 8.60714 	 
C 	 -139.286 	 5.7762 	 6.09965 	 
H 	 -138.189 	 5.84854 	 6.04579 	 
H 	 -139.515 	 5.46277 	 5.07211 	 
C 	 -139.721 	 4.76093 	 7.19452 	 
H 	 -140.782 	 4.69894 	 7.44412 	 
H 	 -139.249 	 5.16245 	 8.08907 	 
C 	 -139.158 	 3.38541 	 6.96142 	 
H 	 -138.107 	 3.36223 	 6.82933 	 
H 	 -139.596 	 2.98884 	 6.02277 	 
H 	 -139.571 	 2.69523 	 7.68841 	 
H 	 -139.325 	 9.30721 	 0.448209 	 
H 	 -141.434 	 9.41326 	 8.20972 	 
*
