! wB97X-D3 SP def2-SVP
%pal
nprocs 24
end

* xyz 0 1
S 	 -84.536 	 -32.4908 	 -56.3574 	 
C 	 -82.8037 	 -32.2244 	 -56.8849 	 
C 	 -82.1806 	 -31.4814 	 -55.9225 	 
C 	 -82.9668 	 -31.3001 	 -54.7263 	 
C 	 -84.2657 	 -31.8218 	 -54.7937 	 
H 	 -82.6505 	 -31.0145 	 -53.7489 	 
C 	 -80.7879 	 -31.03 	 -55.8314 	 
H 	 -80.2856 	 -31.9871 	 -55.8546 	 
H 	 -80.5136 	 -30.5164 	 -54.8723 	 
C 	 -80.3646 	 -29.9635 	 -56.8787 	 
H 	 -79.293 	 -29.6631 	 -56.8495 	 
H 	 -80.3255 	 -30.4626 	 -57.7918 	 
C 	 -81.2704 	 -28.7483 	 -56.9213 	 
H 	 -81.0276 	 -27.9817 	 -56.1814 	 
H 	 -81.2911 	 -28.3394 	 -57.8854 	 
H 	 -82.313 	 -28.928 	 -56.7732 	 
S 	 -86.931 	 -32.0758 	 -54.2828 	 
C 	 -87.5187 	 -31.838 	 -52.6708 	 
C 	 -86.4897 	 -31.8046 	 -51.7611 	 
C 	 -85.2433 	 -31.8025 	 -52.3561 	 
C 	 -85.2945 	 -31.9442 	 -53.7512 	 
H 	 -86.6687 	 -31.7611 	 -50.7088 	 
C 	 -83.9399 	 -31.9274 	 -51.4647 	 
H 	 -83.1492 	 -32.4051 	 -52.0327 	 
H 	 -84.2559 	 -32.6296 	 -50.7269 	 
C 	 -83.4368 	 -30.5067 	 -50.9852 	 
H 	 -84.3623 	 -30.1178 	 -50.5405 	 
H 	 -83.0423 	 -29.9248 	 -51.8213 	 
C 	 -82.4278 	 -30.6173 	 -49.807 	 
H 	 -82.086 	 -29.5912 	 -49.4698 	 
H 	 -81.5475 	 -31.1956 	 -50.0476 	 
H 	 -82.7611 	 -31.1974 	 -48.9182 	 
H 	 -82.3412 	 -32.765 	 -57.7366 	 
H 	 -88.6341 	 -31.7513 	 -52.3668 	 
*
