! wB97X-D3 SP def2-SVP
%pal
nprocs 24
end

* xyz 0 1
S 	 -102.8 	 59.4148 	 -105.88 	 
C 	 -101.619 	 58.3732 	 -105.011 	 
C 	 -101.878 	 58.3475 	 -103.623 	 
C 	 -102.804 	 59.3767 	 -103.242 	 
C 	 -103.364 	 60.0061 	 -104.339 	 
H 	 -103.056 	 59.6206 	 -102.222 	 
C 	 -101.183 	 57.477 	 -102.588 	 
H 	 -100.898 	 58.1592 	 -101.762 	 
H 	 -100.215 	 57.2253 	 -103.165 	 
C 	 -101.981 	 56.2011 	 -102.216 	 
H 	 -102.141 	 55.6249 	 -103.105 	 
H 	 -101.317 	 55.5724 	 -101.587 	 
C 	 -103.293 	 56.4783 	 -101.387 	 
H 	 -103.968 	 57.0217 	 -101.99 	 
H 	 -103.783 	 55.4704 	 -101.371 	 
H 	 -103.261 	 56.8693 	 -100.346 	 
S 	 -104.108 	 62.5281 	 -105.224 	 
C 	 -105.556 	 63.2562 	 -104.624 	 
C 	 -106.302 	 62.387 	 -103.853 	 
C 	 -105.515 	 61.2107 	 -103.488 	 
C 	 -104.379 	 61.0832 	 -104.278 	 
H 	 -107.381 	 62.7225 	 -103.518 	 
C 	 -106.128 	 60.1822 	 -102.529 	 
H 	 -106.716 	 60.7611 	 -101.773 	 
H 	 -105.21 	 59.8709 	 -102.042 	 
C 	 -106.964 	 59.0698 	 -103.183 	 
H 	 -106.469 	 58.729 	 -104.11 	 
H 	 -107.965 	 59.5122 	 -103.434 	 
C 	 -107.313 	 57.8392 	 -102.321 	 
H 	 -107.963 	 58.0393 	 -101.446 	 
H 	 -106.433 	 57.395 	 -102.042 	 
H 	 -107.767 	 57.1258 	 -102.946 	 
H 	 -100.996 	 57.7113 	 -105.595 	 
H 	 -105.973 	 64.2027 	 -104.977 	 
*
