! wB97X-D3 SP def2-SVP
%pal
nprocs 24
end

* xyz 0 1
S 	 -86.0604 	 -29.7942 	 -61.5695 	 
C 	 -86.6538 	 -28.1191 	 -61.6016 	 
C 	 -87.4695 	 -28.0053 	 -60.5302 	 
C 	 -87.6082 	 -29.1347 	 -59.7213 	 
C 	 -86.7309 	 -30.1401 	 -59.9818 	 
H 	 -88.2749 	 -29.1327 	 -58.8172 	 
C 	 -88.2635 	 -26.7438 	 -60.3196 	 
H 	 -87.5613 	 -25.9083 	 -60.3681 	 
H 	 -88.6205 	 -26.7651 	 -59.2408 	 
C 	 -89.4567 	 -26.4744 	 -61.3398 	 
H 	 -90.0461 	 -25.5257 	 -61.0843 	 
H 	 -88.975 	 -26.4312 	 -62.3237 	 
C 	 -90.3541 	 -27.6625 	 -61.5031 	 
H 	 -89.7423 	 -28.408 	 -61.8777 	 
H 	 -90.6016 	 -27.8523 	 -60.5152 	 
H 	 -91.2461 	 -27.5812 	 -62.214 	 
S 	 -86.7655 	 -32.8554 	 -60.0871 	 
C 	 -86.4254 	 -33.7692 	 -58.712 	 
C 	 -86.528 	 -33.0558 	 -57.5104 	 
C 	 -86.5408 	 -31.6031 	 -57.8742 	 
C 	 -86.5797 	 -31.3809 	 -59.2445 	 
H 	 -86.389 	 -33.4945 	 -56.5313 	 
C 	 -86.6634 	 -30.532 	 -56.7979 	 
H 	 -86.415 	 -29.4942 	 -57.1583 	 
H 	 -85.9428 	 -30.799 	 -56.0564 	 
C 	 -88.0421 	 -30.4585 	 -56.0517 	 
H 	 -88.8038 	 -30.1534 	 -56.8478 	 
H 	 -87.8858 	 -29.6435 	 -55.2994 	 
C 	 -88.2785 	 -31.7612 	 -55.2693 	 
H 	 -87.3405 	 -31.9997 	 -54.763 	 
H 	 -88.526 	 -32.6704 	 -55.824 	 
H 	 -89.1447 	 -31.5483 	 -54.5945 	 
H 	 -86.4284 	 -27.2982 	 -62.2975 	 
H 	 -86.2932 	 -34.7665 	 -58.6955 	 
*
