! wB97X-D3 SP def2-SVP
%pal
nprocs 24
end

* xyz 0 1
S 	 -71.6225 	 16.7989 	 -74.6071 	 
C 	 -70.2534 	 16.3958 	 -73.5674 	 
C 	 -69.0491 	 16.9964 	 -74.0157 	 
C 	 -69.2335 	 17.635 	 -75.2776 	 
C 	 -70.5451 	 17.74 	 -75.6545 	 
H 	 -68.4864 	 18.1909 	 -75.7921 	 
C 	 -67.7445 	 16.8782 	 -73.253 	 
H 	 -67.2229 	 16.0478 	 -73.6579 	 
H 	 -68.0669 	 16.6614 	 -72.2272 	 
C 	 -66.8285 	 18.0634 	 -73.2604 	 
H 	 -65.9533 	 17.8868 	 -72.6684 	 
H 	 -66.4479 	 18.3005 	 -74.2566 	 
C 	 -67.4334 	 19.4436 	 -72.6767 	 
H 	 -67.9637 	 19.3916 	 -71.7846 	 
H 	 -66.4884 	 20.0399 	 -72.588 	 
H 	 -68.0495 	 19.9247 	 -73.3524 	 
S 	 -72.0225 	 17.455 	 -77.8939 	 
C 	 -72.2124 	 18.8084 	 -78.9408 	 
C 	 -71.4863 	 19.8768 	 -78.6161 	 
C 	 -70.7387 	 19.6331 	 -77.4144 	 
C 	 -70.9816 	 18.3768 	 -76.8923 	 
H 	 -71.4489 	 20.8543 	 -79.0598 	 
C 	 -70.0095 	 20.7768 	 -76.7128 	 
H 	 -69.9865 	 20.465 	 -75.6317 	 
H 	 -70.7123 	 21.631 	 -76.7921 	 
C 	 -68.5732 	 21.0441 	 -77.2717 	 
H 	 -68.3976 	 21.1932 	 -78.3272 	 
H 	 -67.9189 	 20.2729 	 -76.9161 	 
C 	 -67.993 	 22.3237 	 -76.6947 	 
H 	 -68.1149 	 22.4051 	 -75.6623 	 
H 	 -68.4246 	 23.2558 	 -77.0867 	 
H 	 -66.9436 	 22.441 	 -76.9107 	 
H 	 -70.3144 	 15.8572 	 -72.6053 	 
H 	 -73.0009 	 18.917 	 -79.7118 	 
*
