! wB97X-D3 SP def2-SVP
%pal
nprocs 24
end

* xyz 0 1
S 	 -52.54 	 17.7763 	 25.0989 	 
C 	 -52.0294 	 16.3856 	 24.0977 	 
C 	 -51.0644 	 15.6591 	 24.7482 	 
C 	 -50.5689 	 16.2839 	 25.9447 	 
C 	 -51.2569 	 17.4332 	 26.2162 	 
H 	 -49.7845 	 15.9777 	 26.5838 	 
C 	 -50.4464 	 14.398 	 24.2517 	 
H 	 -49.4983 	 14.3148 	 24.6645 	 
H 	 -50.3482 	 14.4152 	 23.1494 	 
C 	 -51.0959 	 13.0056 	 24.5587 	 
H 	 -52.2072 	 13.0182 	 24.146 	 
H 	 -50.5699 	 12.1204 	 24.1117 	 
C 	 -51.1956 	 12.5355 	 26.029 	 
H 	 -50.2589 	 12.2726 	 26.4327 	 
H 	 -51.6555 	 13.2889 	 26.5933 	 
H 	 -51.7259 	 11.6598 	 26.1802 	 
S 	 -50.6724 	 19.901 	 27.2707 	 
C 	 -50.3976 	 19.9724 	 29.0175 	 
C 	 -50.5306 	 18.7379 	 29.6122 	 
C 	 -50.9605 	 17.7102 	 28.7184 	 
C 	 -51.0416 	 18.1859 	 27.4154 	 
H 	 -50.2441 	 18.7647 	 30.6767 	 
C 	 -51.3353 	 16.331 	 29.2983 	 
H 	 -52.061 	 15.8783 	 28.5751 	 
H 	 -52.0091 	 16.5129 	 30.1382 	 
C 	 -50.204 	 15.3843 	 29.7366 	 
H 	 -49.6861 	 15.841 	 30.615 	 
H 	 -49.4345 	 15.5231 	 28.8671 	 
C 	 -50.4291 	 13.897 	 30.0215 	 
H 	 -51.046 	 13.6317 	 29.0863 	 
H 	 -51.0765 	 13.7311 	 30.9036 	 
H 	 -49.4565 	 13.3188 	 30.0605 	 
H 	 -52.4374 	 16.205 	 23.1293 	 
H 	 -49.9757 	 20.7924 	 29.5514 	 
*
