! wB97X-D3 SP def2-SVP
%pal
nprocs 24
end

* xyz 0 1
S 	 45.8341 	 -19.7733 	 -113.546 	 
C 	 47.1237 	 -18.5785 	 -113.619 	 
C 	 47.4263 	 -18.2389 	 -112.35 	 
C 	 46.7554 	 -18.9316 	 -111.241 	 
C 	 45.8109 	 -19.7602 	 -111.777 	 
H 	 46.7737 	 -18.5997 	 -110.225 	 
C 	 48.4728 	 -17.2798 	 -112.108 	 
H 	 48.318 	 -16.9223 	 -111.071 	 
H 	 48.1781 	 -16.5723 	 -112.857 	 
C 	 49.8832 	 -17.6785 	 -112.579 	 
H 	 49.766 	 -17.9727 	 -113.574 	 
H 	 50.4149 	 -16.7013 	 -112.571 	 
C 	 50.571 	 -18.7403 	 -111.656 	 
H 	 50.9581 	 -18.3243 	 -110.757 	 
H 	 49.9961 	 -19.6662 	 -111.455 	 
H 	 51.496 	 -19.0857 	 -112.174 	 
S 	 43.2039 	 -20.3363 	 -111.328 	 
C 	 42.6849 	 -21.6653 	 -110.323 	 
C 	 43.8198 	 -22.064 	 -109.614 	 
C 	 45.0993 	 -21.5568 	 -110.083 	 
C 	 44.9042 	 -20.5562 	 -111.001 	 
H 	 43.7521 	 -22.7993 	 -108.731 	 
C 	 46.3882 	 -22.1418 	 -109.6 	 
H 	 46.5838 	 -21.803 	 -108.609 	 
H 	 47.1683 	 -21.6648 	 -110.19 	 
C 	 46.6051 	 -23.72 	 -109.688 	 
H 	 46.5037 	 -23.9889 	 -110.796 	 
H 	 45.9276 	 -24.2763 	 -109.058 	 
C 	 48.02 	 -23.9995 	 -109.435 	 
H 	 48.5903 	 -23.9531 	 -110.408 	 
H 	 48.0577 	 -25.0869 	 -109.145 	 
H 	 48.644 	 -23.3696 	 -108.769 	 
H 	 47.4565 	 -18.1574 	 -114.561 	 
H 	 41.6719 	 -22.003 	 -110.127 	 
*
