! wB97X-D3 SP def2-SVP
%pal
nprocs 24
end

* xyz 0 1
S 	 -44.5882 	 27.9702 	 28.6521 	 
C 	 -45.4866 	 26.6125 	 28.0414 	 
C 	 -46.2721 	 25.9011 	 28.9561 	 
C 	 -45.9951 	 26.4575 	 30.2305 	 
C 	 -45.2357 	 27.6185 	 30.2559 	 
H 	 -46.4141 	 26.1594 	 31.1544 	 
C 	 -47.1368 	 24.6579 	 28.7789 	 
H 	 -47.5193 	 24.8439 	 27.8461 	 
H 	 -48.0287 	 24.7208 	 29.4855 	 
C 	 -46.3017 	 23.3693 	 28.7952 	 
H 	 -45.3264 	 23.4104 	 28.2497 	 
H 	 -46.0504 	 23.1072 	 29.8467 	 
C 	 -47.0505 	 22.14 	 28.0465 	 
H 	 -46.2683 	 21.4047 	 27.7948 	 
H 	 -47.8725 	 21.8508 	 28.8176 	 
H 	 -47.5916 	 22.5423 	 27.1988 	 
S 	 -45.66 	 29.8623 	 31.6731 	 
C 	 -44.8948 	 30.1596 	 33.1113 	 
C 	 -44.2171 	 29.0765 	 33.5438 	 
C 	 -44.0897 	 28.0088 	 32.5349 	 
C 	 -44.8097 	 28.3712 	 31.4206 	 
H 	 -43.7548 	 29.1069 	 34.5019 	 
C 	 -43.2905 	 26.8116 	 32.6741 	 
H 	 -42.369 	 27.0487 	 33.3074 	 
H 	 -43.0147 	 26.3763 	 31.6902 	 
C 	 -44.0841 	 25.6853 	 33.3277 	 
H 	 -45.0768 	 25.4939 	 32.8988 	 
H 	 -44.4171 	 26.0168 	 34.3813 	 
C 	 -43.2257 	 24.3161 	 33.305 	 
H 	 -42.2734 	 24.4054 	 33.8646 	 
H 	 -43.1375 	 23.9571 	 32.2975 	 
H 	 -43.6305 	 23.4273 	 33.8488 	 
H 	 -45.4077 	 26.2258 	 27.0482 	 
H 	 -45.1771 	 30.9773 	 33.7665 	 
*
