! wB97X-D3 SP def2-SVP
%pal
nprocs 24
end

* xyz 0 1
S 	 -102.436 	 42.1325 	 -95.1573 	 
C 	 -102.08 	 40.9663 	 -93.9004 	 
C 	 -100.708 	 40.8381 	 -93.7425 	 
C 	 -99.9679 	 41.7609 	 -94.5009 	 
C 	 -100.762 	 42.5075 	 -95.3245 	 
H 	 -98.8697 	 41.8543 	 -94.5969 	 
C 	 -100.009 	 39.8601 	 -92.8493 	 
H 	 -100.65 	 39.8501 	 -91.9788 	 
H 	 -99.0299 	 40.2681 	 -92.6619 	 
C 	 -99.8016 	 38.49 	 -93.5596 	 
H 	 -100.726 	 38.1786 	 -94.0128 	 
H 	 -99.1823 	 38.533 	 -94.5105 	 
C 	 -99.0926 	 37.4282 	 -92.6717 	 
H 	 -99.6021 	 37.1525 	 -91.7811 	 
H 	 -98.9705 	 36.4949 	 -93.2393 	 
H 	 -98.0617 	 37.761 	 -92.3382 	 
S 	 -100.66 	 45.2132 	 -95.7282 	 
C 	 -99.9445 	 45.9701 	 -97.1589 	 
C 	 -99.3082 	 44.9864 	 -97.8871 	 
C 	 -99.5115 	 43.6387 	 -97.3805 	 
C 	 -100.361 	 43.542 	 -96.2812 	 
H 	 -98.5301 	 45.1856 	 -98.6733 	 
C 	 -99.1004 	 42.4241 	 -98.1278 	 
H 	 -98.8332 	 41.6712 	 -97.3941 	 
H 	 -98.2734 	 42.7747 	 -98.6461 	 
C 	 -100.078 	 41.7384 	 -99.0943 	 
H 	 -100.897 	 41.4162 	 -98.4694 	 
H 	 -99.6272 	 40.874 	 -99.4687 	 
C 	 -100.624 	 42.7072 	 -100.219 	 
H 	 -100.934 	 42.1856 	 -101.164 	 
H 	 -99.8479 	 43.4334 	 -100.549 	 
H 	 -101.437 	 43.2736 	 -99.7678 	 
H 	 -102.826 	 40.3579 	 -93.4917 	 
H 	 -99.8415 	 46.9631 	 -97.4051 	 
*
