! wB97X-D3 SP def2-SVP
%pal
nprocs 24
end

* xyz 0 1
S 	 -37.2068 	 19.3532 	 26.8843 	 
C 	 -36.4455 	 17.8972 	 27.5506 	 
C 	 -36.6341 	 17.963 	 28.9007 	 
C 	 -37.3212 	 19.0999 	 29.3965 	 
C 	 -37.5849 	 20.0312 	 28.43 	 
H 	 -37.5615 	 19.1651 	 30.462 	 
C 	 -36.2148 	 16.8393 	 29.8206 	 
H 	 -35.1502 	 16.6586 	 29.7396 	 
H 	 -36.7377 	 15.9114 	 29.4448 	 
C 	 -36.5177 	 16.8465 	 31.31 	 
H 	 -36.0937 	 17.6595 	 31.9242 	 
H 	 -37.5795 	 16.907 	 31.4174 	 
C 	 -36.2249 	 15.481 	 31.9977 	 
H 	 -35.1863 	 15.2944 	 32.1423 	 
H 	 -36.6285 	 15.3548 	 33.0391 	 
H 	 -36.4272 	 14.66 	 31.3223 	 
S 	 -39.4994 	 21.6526 	 29.3782 	 
C 	 -39.3689 	 23.3757 	 28.9353 	 
C 	 -38.17 	 23.7129 	 28.2863 	 
C 	 -37.3698 	 22.5705 	 28.1609 	 
C 	 -37.9188 	 21.3667 	 28.6889 	 
H 	 -38.0139 	 24.6872 	 27.9552 	 
C 	 -35.995 	 22.6892 	 27.3648 	 
H 	 -36.141 	 23.4432 	 26.5867 	 
H 	 -35.79 	 21.7185 	 26.8867 	 
C 	 -34.7588 	 23.1374 	 28.2221 	 
H 	 -34.7291 	 24.1794 	 28.2581 	 
H 	 -33.9378 	 22.8814 	 27.5636 	 
C 	 -34.58 	 22.4437 	 29.569 	 
H 	 -35.3996 	 22.6381 	 30.2156 	 
H 	 -33.6181 	 22.8646 	 30.0115 	 
H 	 -34.565 	 21.3186 	 29.51 	 
H 	 -36.0389 	 17.0628 	 26.9752 	 
H 	 -40.1239 	 24.2068 	 29.0369 	 
*
