! wB97X-D3 SP def2-SVP
%pal
nprocs 24
end

* xyz 0 1
S 	 -97.9995 	 47.3208 	 -98.1183 	 
C 	 -98.398 	 48.2861 	 -96.6836 	 
C 	 -99.1165 	 49.38 	 -97.1234 	 
C 	 -98.9956 	 49.5746 	 -98.5431 	 
C 	 -98.4256 	 48.6099 	 -99.2008 	 
H 	 -99.3536 	 50.5294 	 -98.8769 	 
C 	 -99.8116 	 50.3787 	 -96.2032 	 
H 	 -100.548 	 49.7915 	 -95.6352 	 
H 	 -100.278 	 51.0969 	 -96.9833 	 
C 	 -98.946 	 51.1985 	 -95.2019 	 
H 	 -98.3504 	 50.5446 	 -94.5432 	 
H 	 -98.3135 	 51.72 	 -95.8921 	 
C 	 -99.7752 	 52.0673 	 -94.3046 	 
H 	 -100.656 	 51.495 	 -93.9559 	 
H 	 -99.0906 	 52.3858 	 -93.4299 	 
H 	 -100.065 	 53.0062 	 -94.8224 	 
S 	 -96.6868 	 48.237 	 -101.239 	 
C 	 -97.2946 	 48.2217 	 -102.86 	 
C 	 -98.6814 	 48.1265 	 -102.856 	 
C 	 -99.279 	 48.0902 	 -101.55 	 
C 	 -98.3022 	 48.3884 	 -100.622 	 
H 	 -99.2507 	 48.0382 	 -103.693 	 
C 	 -100.801 	 47.9925 	 -101.352 	 
H 	 -101.335 	 48.7709 	 -101.89 	 
H 	 -100.881 	 48.1855 	 -100.333 	 
C 	 -101.346 	 46.6744 	 -101.753 	 
H 	 -100.705 	 45.9581 	 -101.262 	 
H 	 -101.091 	 46.5219 	 -102.807 	 
C 	 -102.801 	 46.6096 	 -101.296 	 
H 	 -103.299 	 45.6975 	 -101.494 	 
H 	 -103.507 	 47.4594 	 -101.647 	 
H 	 -102.845 	 46.6886 	 -100.176 	 
H 	 -98.3097 	 47.9244 	 -95.6982 	 
H 	 -96.6956 	 48.2693 	 -103.7 	 
*
