! wB97X-D3 SP def2-SVP
%pal
nprocs 24
end

* xyz 0 1
S 	 -128.488 	 69.2871 	 -43.7089 	 
C 	 -129.858 	 70.1227 	 -42.947 	 
C 	 -129.728 	 71.5164 	 -43.0299 	 
C 	 -128.426 	 71.8803 	 -43.4509 	 
C 	 -127.615 	 70.7821 	 -43.8029 	 
H 	 -128.044 	 72.8576 	 -43.5536 	 
C 	 -130.77 	 72.5559 	 -42.736 	 
H 	 -130.341 	 72.9856 	 -41.792 	 
H 	 -131.671 	 72.0628 	 -42.3843 	 
C 	 -131.041 	 73.5783 	 -43.9066 	 
H 	 -130.18 	 73.9426 	 -44.3377 	 
H 	 -131.49 	 73.0476 	 -44.7577 	 
C 	 -131.813 	 74.8173 	 -43.4152 	 
H 	 -132.559 	 74.5743 	 -42.6259 	 
H 	 -131.198 	 75.4361 	 -42.9069 	 
H 	 -132.24 	 75.4574 	 -44.2068 	 
S 	 -125.035 	 70.0983 	 -43.2856 	 
C 	 -123.789 	 70.8833 	 -44.1487 	 
C 	 -124.253 	 71.4875 	 -45.3129 	 
C 	 -125.674 	 71.6168 	 -45.3252 	 
C 	 -126.247 	 70.8582 	 -44.3039 	 
H 	 -123.571 	 72.0035 	 -46.0048 	 
C 	 -126.477 	 72.3579 	 -46.3736 	 
H 	 -126.625 	 73.403 	 -46.0247 	 
H 	 -127.434 	 71.8687 	 -46.4347 	 
C 	 -125.758 	 72.404 	 -47.6921 	 
H 	 -125.916 	 71.4012 	 -48.1691 	 
H 	 -124.716 	 72.7612 	 -47.8003 	 
C 	 -126.447 	 73.3909 	 -48.6537 	 
H 	 -126.833 	 74.2702 	 -48.1271 	 
H 	 -127.433 	 73.0547 	 -49.081 	 
H 	 -125.883 	 73.6779 	 -49.4737 	 
H 	 -130.871 	 69.6478 	 -42.7984 	 
H 	 -122.772 	 70.859 	 -43.921 	 
*
