! wB97X-D3 SP def2-SVP
%pal
nprocs 24
end

* xyz 0 1
S 	 -31.8611 	 11.6824 	 13.6051 	 
C 	 -32.5434 	 12.9063 	 12.5864 	 
C 	 -33.0194 	 12.34 	 11.3951 	 
C 	 -32.9216 	 10.9179 	 11.3942 	 
C 	 -32.3958 	 10.3711 	 12.5713 	 
H 	 -33.2696 	 10.2229 	 10.5903 	 
C 	 -33.6254 	 13.1901 	 10.2948 	 
H 	 -34.5189 	 13.7664 	 10.5524 	 
H 	 -33.9848 	 12.5292 	 9.56152 	 
C 	 -32.6135 	 14.0818 	 9.52096 	 
H 	 -32.0513 	 14.7243 	 10.1566 	 
H 	 -31.754 	 13.5589 	 9.06802 	 
C 	 -33.2032 	 14.9615 	 8.43447 	 
H 	 -32.4565 	 15.0858 	 7.66703 	 
H 	 -34.1864 	 14.6607 	 8.12516 	 
H 	 -33.3799 	 16.0217 	 8.8117 	 
S 	 -31.7212 	 7.74768 	 11.5248 	 
C 	 -31.7752 	 6.42357 	 12.6979 	 
C 	 -32.0694 	 6.88184 	 13.9457 	 
C 	 -32.2323 	 8.30733 	 14.066 	 
C 	 -32.1295 	 8.94842 	 12.8211 	 
H 	 -32.1661 	 6.16371 	 14.6974 	 
C 	 -32.6078 	 8.94173 	 15.3735 	 
H 	 -33.3418 	 8.23204 	 15.8366 	 
H 	 -33.1643 	 9.85262 	 15.1824 	 
C 	 -31.5303 	 9.15798 	 16.3873 	 
H 	 -30.8301 	 9.87545 	 15.9461 	 
H 	 -30.9326 	 8.28782 	 16.7253 	 
C 	 -32.0092 	 9.77444 	 17.7195 	 
H 	 -32.512 	 10.7192 	 17.4419 	 
H 	 -31.221 	 10.1023 	 18.3242 	 
H 	 -32.8227 	 9.18688 	 18.2145 	 
H 	 -32.5383 	 13.9213 	 12.8248 	 
H 	 -31.4875 	 5.37729 	 12.5977 	 
*
