! wB97X-D3 SP def2-SVP
%pal
nprocs 24
end

* xyz 0 1
S 	 -46.9719 	 12.9267 	 32.3991 	 
C 	 -45.5406 	 13.8766 	 32.8371 	 
C 	 -45.4956 	 15.122 	 32.3324 	 
C 	 -46.7453 	 15.4373 	 31.7355 	 
C 	 -47.6098 	 14.387 	 31.752 	 
H 	 -47.2965 	 16.2951 	 31.4188 	 
C 	 -44.3925 	 16.1316 	 32.3917 	 
H 	 -44.5113 	 16.7994 	 31.4904 	 
H 	 -43.6034 	 15.5823 	 31.9588 	 
C 	 -44.0599 	 16.6681 	 33.7328 	 
H 	 -43.8333 	 15.821 	 34.3425 	 
H 	 -43.1121 	 17.168 	 33.826 	 
C 	 -45.061 	 17.5435 	 34.4997 	 
H 	 -44.5925 	 17.7735 	 35.4835 	 
H 	 -45.3657 	 18.3825 	 33.9338 	 
H 	 -45.9482 	 16.998 	 34.8145 	 
S 	 -49.137 	 13.2748 	 29.659 	 
C 	 -50.729 	 13.8623 	 29.3776 	 
C 	 -51.1274 	 14.818 	 30.286 	 
C 	 -50.1403 	 14.9896 	 31.2688 	 
C 	 -48.9528 	 14.2799 	 31.0923 	 
H 	 -52.1029 	 15.2814 	 30.3034 	 
C 	 -50.4401 	 16.0197 	 32.3361 	 
H 	 -49.5186 	 16.1842 	 32.9173 	 
H 	 -51.0988 	 15.4577 	 33.0928 	 
C 	 -51.1136 	 17.3354 	 31.9962 	 
H 	 -51.177 	 18.0051 	 32.8663 	 
H 	 -52.2064 	 17.2288 	 31.6814 	 
C 	 -50.4388 	 18.1778 	 30.9146 	 
H 	 -49.4585 	 18.6089 	 31.1951 	 
H 	 -51.0478 	 19.0412 	 30.8233 	 
H 	 -50.2363 	 17.7647 	 29.9603 	 
H 	 -44.6554 	 13.448 	 33.3203 	 
H 	 -51.3521 	 13.5653 	 28.6589 	 
*
