! wB97X-D3 SP def2-SVP
%pal
nprocs 24
end

* xyz 0 1
S 	 -56.8654 	 3.70261 	 -24.6016 	 
C 	 -55.4455 	 4.6423 	 -24.9745 	 
C 	 -54.5822 	 3.93338 	 -25.8295 	 
C 	 -54.9641 	 2.55848 	 -25.9467 	 
C 	 -56.164 	 2.22769 	 -25.3459 	 
H 	 -54.3877 	 1.8617 	 -26.5632 	 
C 	 -53.2253 	 4.43373 	 -26.2837 	 
H 	 -53.3563 	 5.47948 	 -26.2156 	 
H 	 -53.1853 	 4.20084 	 -27.3694 	 
C 	 -51.9664 	 3.8268 	 -25.6875 	 
H 	 -51.9929 	 4.26625 	 -24.6143 	 
H 	 -52.0212 	 2.7364 	 -25.6575 	 
C 	 -50.6691 	 4.13456 	 -26.4227 	 
H 	 -50.7177 	 3.68134 	 -27.4303 	 
H 	 -50.4146 	 5.18065 	 -26.2617 	 
H 	 -49.895 	 3.58079 	 -26.005 	 
S 	 -57.4471 	 0.432543 	 -23.7373 	 
C 	 -57.5813 	 -1.22222 	 -24.3575 	 
C 	 -57.1874 	 -1.35554 	 -25.7088 	 
C 	 -56.708 	 -0.105359 	 -26.2011 	 
C 	 -56.7512 	 0.882242 	 -25.2639 	 
H 	 -57.2737 	 -2.34419 	 -26.1872 	 
C 	 -56.1906 	 -0.000538449 	 -27.5951 	 
H 	 -56.3489 	 1.07801 	 -27.8838 	 
H 	 -56.9169 	 -0.354767 	 -28.3129 	 
C 	 -54.8567 	 -0.636508 	 -27.9046 	 
H 	 -55.0079 	 -1.69667 	 -28.0793 	 
H 	 -54.3316 	 -0.440817 	 -27.0051 	 
C 	 -54.2192 	 0.126925 	 -29.0237 	 
H 	 -53.201 	 -0.338652 	 -29.1431 	 
H 	 -54.0393 	 1.13643 	 -28.753 	 
H 	 -54.6962 	 0.170756 	 -30.0145 	 
H 	 -55.3767 	 5.68588 	 -24.7902 	 
H 	 -58.0928 	 -2.02973 	 -23.8126 	 
*
