! wB97X-D3 SP def2-SVP
%pal
nprocs 24
end

* xyz 0 1
S 	 -33.2564 	 -31.4897 	 -90.9636 	 
C 	 -33.3148 	 -32.4212 	 -92.4464 	 
C 	 -32.1115 	 -32.3008 	 -93.1487 	 
C 	 -31.1665 	 -31.4904 	 -92.4871 	 
C 	 -31.5446 	 -31.23 	 -91.18 	 
H 	 -30.2486 	 -31.0746 	 -92.8163 	 
C 	 -31.9382 	 -32.6212 	 -94.6301 	 
H 	 -31.5981 	 -31.7475 	 -95.1219 	 
H 	 -32.8519 	 -32.7837 	 -95.0609 	 
C 	 -30.9817 	 -33.8002 	 -95.0711 	 
H 	 -31.5417 	 -34.7357 	 -94.9271 	 
H 	 -30.6117 	 -33.6823 	 -96.0672 	 
C 	 -29.7126 	 -33.9934 	 -94.25 	 
H 	 -29.1213 	 -33.1253 	 -94.386 	 
H 	 -29.8265 	 -34.1383 	 -93.1765 	 
H 	 -29.1442 	 -34.8745 	 -94.658 	 
S 	 -31.2707 	 -31.6762 	 -88.4713 	 
C 	 -29.811 	 -31.1906 	 -87.6515 	 
C 	 -28.9414 	 -30.5743 	 -88.5477 	 
C 	 -29.4135 	 -30.487 	 -89.9012 	 
C 	 -30.6892 	 -30.9743 	 -90.0054 	 
H 	 -28.0016 	 -30.2722 	 -88.1994 	 
C 	 -28.4772 	 -29.7595 	 -90.9311 	 
H 	 -28.2164 	 -28.8979 	 -90.335 	 
H 	 -28.9707 	 -29.2219 	 -91.843 	 
C 	 -27.1274 	 -30.4956 	 -91.1991 	 
H 	 -27.4208 	 -31.4764 	 -91.5732 	 
H 	 -26.7052 	 -30.6153 	 -90.2042 	 
C 	 -26.1778 	 -29.6143 	 -92.0161 	 
H 	 -25.1998 	 -30.0622 	 -92.0981 	 
H 	 -26.0211 	 -28.6625 	 -91.4921 	 
H 	 -26.5588 	 -29.3467 	 -92.9912 	 
H 	 -34.2308 	 -32.9659 	 -92.7903 	 
H 	 -29.3341 	 -31.4621 	 -86.6969 	 
*
