! wB97X-D3 SP def2-SVP
%pal
nprocs 24
end

* xyz 0 1
S 	 -33.3394 	 -32.7763 	 -92.8702 	 
C 	 -34.5744 	 -31.6185 	 -92.372 	 
C 	 -34.2606 	 -31.0193 	 -91.1828 	 
C 	 -33.0662 	 -31.5561 	 -90.5813 	 
C 	 -32.3746 	 -32.48 	 -91.352 	 
H 	 -32.6268 	 -31.2966 	 -89.624 	 
C 	 -35.1294 	 -29.9329 	 -90.4928 	 
H 	 -34.8348 	 -29.8164 	 -89.4683 	 
H 	 -36.2255 	 -30.0892 	 -90.5051 	 
C 	 -34.7718 	 -28.5538 	 -91.0856 	 
H 	 -34.9324 	 -28.4432 	 -92.1511 	 
H 	 -35.4343 	 -27.8421 	 -90.6012 	 
C 	 -33.3393 	 -28.2315 	 -90.8774 	 
H 	 -32.7046 	 -28.8122 	 -91.5972 	 
H 	 -33.1439 	 -27.2083 	 -91.0632 	 
H 	 -33.0644 	 -28.4814 	 -89.8638 	 
S 	 -31.0288 	 -34.7398 	 -91.8694 	 
C 	 -29.4096 	 -35.0613 	 -91.1781 	 
C 	 -28.9024 	 -33.9598 	 -90.508 	 
C 	 -29.8957 	 -32.9355 	 -90.4229 	 
C 	 -31.0868 	 -33.1535 	 -91.1658 	 
H 	 -27.9127 	 -33.9671 	 -90.14 	 
C 	 -29.4491 	 -31.6593 	 -89.6227 	 
H 	 -28.7476 	 -31.9635 	 -88.844 	 
H 	 -30.3199 	 -31.2134 	 -89.1245 	 
C 	 -28.926 	 -30.4523 	 -90.4934 	 
H 	 -29.6047 	 -30.0623 	 -91.2241 	 
H 	 -28.0617 	 -30.7381 	 -91.0895 	 
C 	 -28.499 	 -29.3064 	 -89.623 	 
H 	 -27.5809 	 -29.6452 	 -89.1808 	 
H 	 -29.2628 	 -29.0795 	 -88.8822 	 
H 	 -28.2827 	 -28.4643 	 -90.2796 	 
H 	 -35.5068 	 -31.3531 	 -92.9221 	 
H 	 -28.8706 	 -36.0308 	 -91.3632 	 
*
