! wB97X-D3 SP def2-SVP
%pal
nprocs 24
end

* xyz 0 1
S 	 -143.6 	 28.811 	 -11.9333 	 
C 	 -144.093 	 28.1115 	 -13.4625 	 
C 	 -144.129 	 29.1258 	 -14.4474 	 
C 	 -143.843 	 30.3575 	 -13.915 	 
C 	 -143.599 	 30.3601 	 -12.6125 	 
H 	 -143.824 	 31.3423 	 -14.3465 	 
C 	 -144.462 	 28.9826 	 -15.9206 	 
H 	 -143.713 	 28.4744 	 -16.4164 	 
H 	 -144.49 	 29.9402 	 -16.336 	 
C 	 -145.88 	 28.2919 	 -16.1391 	 
H 	 -145.847 	 27.2599 	 -15.8425 	 
H 	 -146.689 	 28.6663 	 -15.5162 	 
C 	 -146.461 	 28.5278 	 -17.5733 	 
H 	 -147.472 	 28.2125 	 -17.5949 	 
H 	 -146.462 	 29.5729 	 -17.7882 	 
H 	 -145.909 	 27.9458 	 -18.3603 	 
S 	 -144.307 	 31.7507 	 -10.442 	 
C 	 -143.417 	 33.1879 	 -10.2004 	 
C 	 -142.505 	 33.4318 	 -11.1566 	 
C 	 -142.416 	 32.4674 	 -12.1033 	 
C 	 -143.343 	 31.5097 	 -11.8707 	 
H 	 -141.97 	 34.4037 	 -11.2334 	 
C 	 -141.401 	 32.425 	 -13.1605 	 
H 	 -141.415 	 31.4994 	 -13.7071 	 
H 	 -140.475 	 32.3138 	 -12.6284 	 
C 	 -141.421 	 33.6496 	 -14.1417 	 
H 	 -140.692 	 33.567 	 -14.9056 	 
H 	 -140.869 	 34.4127 	 -13.5379 	 
C 	 -142.763 	 34.285 	 -14.4005 	 
H 	 -143.299 	 34.7627 	 -13.5462 	 
H 	 -143.493 	 33.5178 	 -14.9067 	 
H 	 -142.544 	 35.1074 	 -15.0667 	 
H 	 -144.337 	 27.0632 	 -13.6026 	 
H 	 -143.654 	 33.9216 	 -9.4827 	 
*
