! wB97X-D3 SP def2-SVP
%pal
nprocs 24
end

* xyz 0 1
S 	 -49.5521 	 -49.0982 	 -79.7471 	 
C 	 -48.0679 	 -49.7943 	 -80.1502 	 
C 	 -47.9396 	 -51.1303 	 -79.6263 	 
C 	 -49.1496 	 -51.6167 	 -79.0429 	 
C 	 -50.0779 	 -50.6148 	 -78.893 	 
H 	 -49.3967 	 -52.563 	 -78.5028 	 
C 	 -46.7098 	 -51.9935 	 -79.919 	 
H 	 -46.1673 	 -52.1589 	 -78.9426 	 
H 	 -45.9556 	 -51.4449 	 -80.4597 	 
C 	 -46.9678 	 -53.3811 	 -80.5257 	 
H 	 -46.0824 	 -53.9499 	 -80.6069 	 
H 	 -47.7302 	 -53.893 	 -79.9185 	 
C 	 -47.5936 	 -53.2948 	 -81.9458 	 
H 	 -47.0026 	 -52.6828 	 -82.6128 	 
H 	 -47.5194 	 -54.242 	 -82.467 	 
H 	 -48.6734 	 -52.9423 	 -81.8585 	 
S 	 -51.2607 	 -51.353 	 -76.5448 	 
C 	 -52.8601 	 -50.7858 	 -76.176 	 
C 	 -53.4825 	 -50.4029 	 -77.312 	 
C 	 -52.5654 	 -50.2209 	 -78.3926 	 
C 	 -51.2873 	 -50.6239 	 -78.0976 	 
H 	 -54.5041 	 -50.2841 	 -77.2373 	 
C 	 -53.0362 	 -49.7344 	 -79.7309 	 
H 	 -52.3169 	 -49.0179 	 -80.1184 	 
H 	 -53.9302 	 -49.0885 	 -79.5685 	 
C 	 -53.3051 	 -50.8255 	 -80.7184 	 
H 	 -53.7259 	 -51.6397 	 -80.2425 	 
H 	 -52.3252 	 -51.1826 	 -81.1028 	 
C 	 -54.2004 	 -50.2964 	 -81.7816 	 
H 	 -53.6717 	 -49.4926 	 -82.2604 	 
H 	 -55.1782 	 -49.9744 	 -81.3603 	 
H 	 -54.4096 	 -51.0301 	 -82.559 	 
H 	 -47.3016 	 -49.3361 	 -80.8184 	 
H 	 -53.3862 	 -50.833 	 -75.2356 	 
*
