! wB97X-D3 SP def2-SVP
%pal
nprocs 24
end

* xyz 0 1
S 	 -48.7523 	 21.9305 	 20.3055 	 
C 	 -50.4702 	 22.1104 	 20.4096 	 
C 	 -51.0503 	 21.3401 	 21.3963 	 
C 	 -50.0094 	 20.7169 	 22.2354 	 
C 	 -48.7342 	 21.0475 	 21.8625 	 
H 	 -50.0829 	 20.0458 	 23.139 	 
C 	 -52.5483 	 21.0221 	 21.5066 	 
H 	 -52.728 	 20.0203 	 21.7627 	 
H 	 -53.109 	 21.1345 	 20.566 	 
C 	 -53.3057 	 21.7648 	 22.6808 	 
H 	 -53.1154 	 22.738 	 22.6449 	 
H 	 -54.3541 	 21.6707 	 22.4029 	 
C 	 -53.0424 	 21.2268 	 24.1004 	 
H 	 -53.6712 	 21.7203 	 24.8259 	 
H 	 -53.3015 	 20.1797 	 23.9919 	 
H 	 -52.0203 	 21.3512 	 24.39 	 
S 	 -47.3254 	 21.2495 	 24.2191 	 
C 	 -45.9111 	 20.2823 	 24.4105 	 
C 	 -45.5369 	 19.6262 	 23.2279 	 
C 	 -46.5516 	 19.7433 	 22.1912 	 
C 	 -47.4785 	 20.7214 	 22.5518 	 
H 	 -44.6157 	 19.0528 	 23.2541 	 
C 	 -46.496 	 19.0265 	 20.8389 	 
H 	 -45.4614 	 18.8958 	 20.6083 	 
H 	 -47.0778 	 19.6034 	 20.0819 	 
C 	 -47.0076 	 17.6371 	 20.753 	 
H 	 -48.1339 	 17.7997 	 20.6694 	 
H 	 -46.8636 	 17.0433 	 21.7011 	 
C 	 -46.5137 	 16.8589 	 19.5418 	 
H 	 -46.7239 	 17.2814 	 18.5753 	 
H 	 -47.1249 	 15.9369 	 19.5346 	 
H 	 -45.5068 	 16.5387 	 19.709 	 
H 	 -51.153 	 22.3407 	 19.5758 	 
H 	 -45.2504 	 20.1073 	 25.323 	 
*
