! wB97X-D3 SP def2-SVP
%pal
nprocs 24
end

* xyz 0 1
S 	 -112.716 	 17.7524 	 -110.621 	 
C 	 -111.74 	 18.5549 	 -111.875 	 
C 	 -112.443 	 18.6528 	 -113.049 	 
C 	 -113.596 	 17.823 	 -112.999 	 
C 	 -113.782 	 17.099 	 -111.832 	 
H 	 -114.225 	 17.4944 	 -113.861 	 
C 	 -112.114 	 19.4664 	 -114.339 	 
H 	 -112.919 	 20.0409 	 -114.633 	 
H 	 -111.862 	 18.7845 	 -115.224 	 
C 	 -110.994 	 20.4872 	 -114.221 	 
H 	 -111.037 	 21.1748 	 -113.417 	 
H 	 -110.124 	 19.9534 	 -113.93 	 
C 	 -110.728 	 21.1419 	 -115.538 	 
H 	 -111.401 	 21.9492 	 -115.839 	 
H 	 -109.783 	 21.6317 	 -115.526 	 
H 	 -110.562 	 20.5364 	 -116.465 	 
S 	 -114.243 	 14.3549 	 -112.154 	 
C 	 -115.834 	 13.6899 	 -111.742 	 
C 	 -116.577 	 14.6688 	 -111.092 	 
C 	 -115.963 	 15.9721 	 -111.009 	 
C 	 -114.687 	 15.9922 	 -111.529 	 
H 	 -117.493 	 14.3389 	 -110.554 	 
C 	 -116.595 	 17.1831 	 -110.286 	 
H 	 -115.853 	 17.9686 	 -110.043 	 
H 	 -117.025 	 16.7939 	 -109.351 	 
C 	 -117.835 	 17.9128 	 -110.854 	 
H 	 -117.819 	 18.9768 	 -110.515 	 
H 	 -118.795 	 17.6054 	 -110.4 	 
C 	 -118.075 	 17.9943 	 -112.394 	 
H 	 -117.492 	 18.8707 	 -112.806 	 
H 	 -119.025 	 18.2887 	 -112.675 	 
H 	 -117.983 	 17.0161 	 -112.89 	 
H 	 -110.82 	 19.039 	 -111.687 	 
H 	 -116.044 	 12.612 	 -111.681 	 
*
