! wB97X-D3 SP def2-SVP
%pal
nprocs 24
end

* xyz 0 1
S 	 -83.9804 	 -3.74975 	 8.13646 	 
C 	 -84.4898 	 -3.92299 	 6.51207 	 
C 	 -83.653 	 -4.79032 	 5.76899 	 
C 	 -82.5558 	 -5.16716 	 6.53631 	 
C 	 -82.4929 	 -4.52279 	 7.82813 	 
H 	 -81.6992 	 -5.69203 	 6.187 	 
C 	 -83.8807 	 -5.19625 	 4.38031 	 
H 	 -85.0004 	 -5.37399 	 4.21909 	 
H 	 -83.3392 	 -6.1165 	 4.1296 	 
C 	 -83.4104 	 -4.09814 	 3.32126 	 
H 	 -83.6407 	 -4.44103 	 2.31117 	 
H 	 -84.1037 	 -3.2364 	 3.57656 	 
C 	 -81.8998 	 -3.64349 	 3.49291 	 
H 	 -81.6003 	 -2.8057 	 2.84175 	 
H 	 -81.7875 	 -3.22066 	 4.46377 	 
H 	 -81.187 	 -4.47344 	 3.30842 	 
S 	 -81.6751 	 -4.70627 	 10.5046 	 
C 	 -79.9681 	 -5.03538 	 10.83 	 
C 	 -79.2294 	 -5.0224 	 9.63218 	 
C 	 -79.9739 	 -4.70176 	 8.48969 	 
C 	 -81.3543 	 -4.54467 	 8.79849 	 
H 	 -78.1986 	 -5.08156 	 9.59911 	 
C 	 -79.2245 	 -4.3942 	 7.22319 	 
H 	 -78.6092 	 -3.47519 	 7.30954 	 
H 	 -80.0711 	 -4.10589 	 6.61908 	 
C 	 -78.4869 	 -5.55839 	 6.52847 	 
H 	 -79.1501 	 -6.42799 	 6.48458 	 
H 	 -77.7159 	 -5.82235 	 7.25032 	 
C 	 -78.0246 	 -5.18466 	 5.07855 	 
H 	 -77.1747 	 -4.47306 	 5.15104 	 
H 	 -78.7807 	 -4.75092 	 4.43233 	 
H 	 -77.5802 	 -6.03793 	 4.65768 	 
H 	 -85.3946 	 -3.62531 	 6.03985 	 
H 	 -79.5531 	 -5.28755 	 11.7431 	 
*
