! wB97X-D3 SP def2-SVP
%pal
nprocs 24
end

* xyz 0 1
S 	 -103.337 	 1.10769 	 -103.709 	 
C 	 -102.186 	 1.02763 	 -104.983 	 
C 	 -101.492 	 -0.157574 	 -104.882 	 
C 	 -101.83 	 -0.968595 	 -103.768 	 
C 	 -102.879 	 -0.376108 	 -103.021 	 
H 	 -101.451 	 -1.99653 	 -103.5 	 
C 	 -100.461 	 -0.586582 	 -105.915 	 
H 	 -99.7433 	 -1.21463 	 -105.401 	 
H 	 -99.9916 	 0.242259 	 -106.435 	 
C 	 -101.15 	 -1.43139 	 -106.92 	 
H 	 -101.691 	 -2.21564 	 -106.519 	 
H 	 -101.855 	 -0.785208 	 -107.458 	 
C 	 -100.207 	 -2.08324 	 -107.94 	 
H 	 -99.4808 	 -1.33918 	 -108.313 	 
H 	 -99.6053 	 -2.8398 	 -107.48 	 
H 	 -100.664 	 -2.51208 	 -108.868 	 
S 	 -102.323 	 -0.772635 	 -100.414 	 
C 	 -103.591 	 -1.3749 	 -99.3501 	 
C 	 -104.792 	 -1.51094 	 -100.045 	 
C 	 -104.71 	 -1.2466 	 -101.46 	 
C 	 -103.431 	 -0.809673 	 -101.78 	 
H 	 -105.698 	 -1.82323 	 -99.5096 	 
C 	 -105.91 	 -1.48693 	 -102.386 	 
H 	 -106.299 	 -2.36992 	 -102.024 	 
H 	 -105.5 	 -1.47799 	 -103.395 	 
C 	 -106.888 	 -0.364238 	 -102.547 	 
H 	 -106.344 	 0.591053 	 -102.638 	 
H 	 -107.434 	 -0.31417 	 -101.646 	 
C 	 -107.911 	 -0.478294 	 -103.726 	 
H 	 -108.598 	 0.425912 	 -103.752 	 
H 	 -108.409 	 -1.40478 	 -103.561 	 
H 	 -107.501 	 -0.500249 	 -104.785 	 
H 	 -101.9 	 1.71045 	 -105.791 	 
H 	 -103.514 	 -1.69112 	 -98.3158 	 
*
