! wB97X-D3 SP def2-SVP
%pal
nprocs 24
end

* xyz 0 1
S 	 26.625 	 -4.80376 	 -110.68 	 
C 	 27.6925 	 -6.15687 	 -111.13 	 
C 	 26.91 	 -7.25656 	 -111.416 	 
C 	 25.4883 	 -7.02006 	 -111.209 	 
C 	 25.1396 	 -5.70128 	 -110.953 	 
H 	 24.6322 	 -7.77031 	 -111.29 	 
C 	 27.4158 	 -8.66236 	 -111.859 	 
H 	 26.7987 	 -9.37904 	 -111.334 	 
H 	 28.4558 	 -8.89639 	 -111.566 	 
C 	 27.1394 	 -8.93579 	 -113.373 	 
H 	 26.2237 	 -8.43336 	 -113.776 	 
H 	 27.9719 	 -8.51677 	 -113.903 	 
C 	 27.241 	 -10.4084 	 -113.908 	 
H 	 27.1521 	 -10.5223 	 -115.011 	 
H 	 28.3006 	 -10.67 	 -113.756 	 
H 	 26.6135 	 -11.1118 	 -113.424 	 
S 	 23.808 	 -3.28725 	 -110.963 	 
C 	 22.1629 	 -3.16242 	 -110.5 	 
C 	 21.5589 	 -4.3855 	 -110.695 	 
C 	 22.4831 	 -5.45665 	 -110.843 	 
C 	 23.7991 	 -5.0373 	 -110.907 	 
H 	 20.4974 	 -4.40581 	 -110.59 	 
C 	 21.9731 	 -6.88588 	 -110.795 	 
H 	 22.5841 	 -7.43987 	 -111.545 	 
H 	 20.919 	 -6.90184 	 -111.141 	 
C 	 22.0136 	 -7.57107 	 -109.449 	 
H 	 21.599 	 -6.87347 	 -108.719 	 
H 	 23.0363 	 -7.78347 	 -109.165 	 
C 	 21.2928 	 -8.90884 	 -109.329 	 
H 	 20.1513 	 -8.7123 	 -109.507 	 
H 	 21.6218 	 -9.26141 	 -108.318 	 
H 	 21.6444 	 -9.60093 	 -110.032 	 
H 	 28.7886 	 -6.26545 	 -111.105 	 
H 	 21.5357 	 -2.32496 	 -110.517 	 
*
