! wB97X-D3 SP def2-SVP
%pal
nprocs 24
end

* xyz 0 1
S 	 -46.3398 	 15.5376 	 25.8083 	 
C 	 -46.0143 	 17.0652 	 26.5899 	 
C 	 -46.795 	 18.0778 	 26.0367 	 
C 	 -47.636 	 17.6587 	 24.9383 	 
C 	 -47.4717 	 16.2553 	 24.6743 	 
H 	 -48.2943 	 18.3147 	 24.3352 	 
C 	 -46.7613 	 19.4667 	 26.5578 	 
H 	 -45.7795 	 19.5413 	 27.0197 	 
H 	 -47.4836 	 19.4451 	 27.3232 	 
C 	 -46.9925 	 20.5712 	 25.4886 	 
H 	 -48.0517 	 20.4192 	 25.1187 	 
H 	 -47.1225 	 21.5033 	 26.0306 	 
C 	 -46.1238 	 20.583 	 24.1609 	 
H 	 -46.6207 	 21.3533 	 23.5364 	 
H 	 -45.083 	 20.9308 	 24.3122 	 
H 	 -46.2037 	 19.586 	 23.5802 	 
S 	 -48.484 	 13.7849 	 24.0468 	 
C 	 -49.0812 	 13.4389 	 22.4856 	 
C 	 -49.2079 	 14.5727 	 21.7147 	 
C 	 -48.6473 	 15.7443 	 22.3353 	 
C 	 -48.1409 	 15.4629 	 23.6138 	 
H 	 -49.7214 	 14.607 	 20.7784 	 
C 	 -48.7366 	 17.038 	 21.5798 	 
H 	 -49.2553 	 17.723 	 22.1956 	 
H 	 -49.307 	 16.8515 	 20.6888 	 
C 	 -47.4542 	 17.681 	 21.1129 	 
H 	 -46.8582 	 16.8845 	 20.6014 	 
H 	 -46.8863 	 18.0072 	 22.0221 	 
C 	 -47.6456 	 18.8618 	 20.1591 	 
H 	 -46.793 	 19.4502 	 19.9342 	 
H 	 -48.4687 	 19.5833 	 20.543 	 
H 	 -47.9863 	 18.4543 	 19.2432 	 
H 	 -45.4064 	 17.2125 	 27.4128 	 
H 	 -49.4314 	 12.4776 	 22.0612 	 
*
