! wB97X-D3 SP def2-SVP
%pal
nprocs 24
end

* xyz 0 1
S 	 -57.1784 	 18.8981 	 -100.244 	 
C 	 -58.8419 	 19.2326 	 -100.764 	 
C 	 -59.8326 	 18.5399 	 -100.096 	 
C 	 -59.1281 	 17.6458 	 -99.2345 	 
C 	 -57.7109 	 17.6089 	 -99.2774 	 
H 	 -59.673 	 16.9691 	 -98.6723 	 
C 	 -61.2611 	 18.9489 	 -100.011 	 
H 	 -61.596 	 19.8708 	 -100.588 	 
H 	 -61.5003 	 19.2232 	 -98.9766 	 
C 	 -62.1948 	 17.8448 	 -100.448 	 
H 	 -61.848 	 17.4784 	 -101.404 	 
H 	 -62.0901 	 16.8993 	 -99.852 	 
C 	 -63.6351 	 18.3292 	 -100.491 	 
H 	 -63.6679 	 19.1898 	 -101.121 	 
H 	 -64.2178 	 17.5608 	 -100.935 	 
H 	 -63.9945 	 18.6826 	 -99.5218 	 
S 	 -55.5828 	 17.7622 	 -97.5361 	 
C 	 -55.592 	 16.5973 	 -96.2729 	 
C 	 -56.1662 	 15.417 	 -96.6375 	 
C 	 -56.8934 	 15.5077 	 -97.8828 	 
C 	 -56.7915 	 16.7964 	 -98.4068 	 
H 	 -56.0026 	 14.5858 	 -96.0225 	 
C 	 -57.6261 	 14.3454 	 -98.5295 	 
H 	 -58.1839 	 14.7921 	 -99.3135 	 
H 	 -58.3791 	 13.9351 	 -97.8505 	 
C 	 -56.8714 	 13.1476 	 -99.1896 	 
H 	 -56.0843 	 12.77 	 -98.4942 	 
H 	 -56.2571 	 13.5253 	 -100.053 	 
C 	 -57.7639 	 12.1042 	 -99.7832 	 
H 	 -58.5017 	 12.5338 	 -100.413 	 
H 	 -58.2687 	 11.6218 	 -98.8641 	 
H 	 -57.0977 	 11.3098 	 -100.22 	 
H 	 -59.0698 	 19.8245 	 -101.601 	 
H 	 -54.8909 	 16.6413 	 -95.4717 	 
*
