! wB97X-D3 SP def2-SVP
%pal
nprocs 24
end

* xyz 0 1
S 	 41.4727 	 -12.3261 	 -125.245 	 
C 	 41.8183 	 -12.5751 	 -123.506 	 
C 	 41.7457 	 -13.8974 	 -123.166 	 
C 	 41.3476 	 -14.6904 	 -124.254 	 
C 	 41.3033 	 -14.0791 	 -125.481 	 
H 	 41.1536 	 -15.7291 	 -124.217 	 
C 	 41.9608 	 -14.4057 	 -121.721 	 
H 	 41.7618 	 -15.5078 	 -121.838 	 
H 	 41.1963 	 -13.9353 	 -121.12 	 
C 	 43.3519 	 -14.0566 	 -121.122 	 
H 	 43.3716 	 -12.9517 	 -120.971 	 
H 	 43.3258 	 -14.4545 	 -120.084 	 
C 	 44.5201 	 -14.6528 	 -121.879 	 
H 	 44.7351 	 -15.7928 	 -121.627 	 
H 	 44.3359 	 -14.7147 	 -122.974 	 
H 	 45.4515 	 -14.081 	 -121.754 	 
S 	 39.4387 	 -14.2628 	 -127.512 	 
C 	 39.8409 	 -15.2048 	 -128.935 	 
C 	 41.0476 	 -15.8605 	 -128.819 	 
C 	 41.6362 	 -15.6474 	 -127.522 	 
C 	 40.9719 	 -14.6579 	 -126.76 	 
H 	 41.3429 	 -16.5451 	 -129.626 	 
C 	 42.9891 	 -16.3387 	 -127.091 	 
H 	 42.7085 	 -17.2889 	 -126.722 	 
H 	 43.4264 	 -15.8181 	 -126.253 	 
C 	 44.0428 	 -16.6856 	 -128.23 	 
H 	 44.426 	 -15.7186 	 -128.729 	 
H 	 43.697 	 -17.3517 	 -128.953 	 
C 	 45.2698 	 -17.3304 	 -127.533 	 
H 	 45.0528 	 -18.3136 	 -127.167 	 
H 	 45.5999 	 -16.8315 	 -126.553 	 
H 	 46.114 	 -17.35 	 -128.276 	 
H 	 42.1529 	 -11.8155 	 -122.84 	 
H 	 39.2035 	 -15.4226 	 -129.739 	 
*
