! wB97X-D3 SP def2-SVP
%pal
nprocs 24
end

* xyz 0 1
S 	 -133.473 	 23.2518 	 -18.1669 	 
C 	 -135.121 	 22.7386 	 -18.4104 	 
C 	 -136.006 	 23.7526 	 -18.795 	 
C 	 -135.332 	 25.0197 	 -18.7658 	 
C 	 -133.974 	 24.8857 	 -18.5761 	 
H 	 -135.665 	 26.079 	 -19.0585 	 
C 	 -137.518 	 23.554 	 -18.9332 	 
H 	 -137.816 	 22.5399 	 -19.259 	 
H 	 -137.637 	 24.213 	 -19.8364 	 
C 	 -138.453 	 24.1117 	 -17.832 	 
H 	 -138.259 	 25.2262 	 -17.7621 	 
H 	 -139.53 	 23.9628 	 -17.982 	 
C 	 -138.131 	 23.427 	 -16.4962 	 
H 	 -138.603 	 22.4221 	 -16.3949 	 
H 	 -137.063 	 23.3599 	 -16.2441 	 
H 	 -138.698 	 24.096 	 -15.767 	 
S 	 -132.596 	 26.7445 	 -19.9405 	 
C 	 -131.505 	 27.762 	 -19.0401 	 
C 	 -131.631 	 27.6617 	 -17.6708 	 
C 	 -132.429 	 26.564 	 -17.3114 	 
C 	 -133.046 	 25.9841 	 -18.4432 	 
H 	 -131.008 	 28.2998 	 -17.1165 	 
C 	 -132.692 	 26.1311 	 -15.882 	 
H 	 -133.276 	 25.2362 	 -15.8808 	 
H 	 -133.452 	 26.7997 	 -15.4723 	 
C 	 -131.555 	 26.1227 	 -14.8789 	 
H 	 -131.097 	 27.1183 	 -14.9084 	 
H 	 -130.806 	 25.3548 	 -15.1215 	 
C 	 -132.127 	 25.86 	 -13.551 	 
H 	 -133.01 	 26.5845 	 -13.4291 	 
H 	 -131.359 	 26.1436 	 -12.7961 	 
H 	 -132.473 	 24.8689 	 -13.2897 	 
H 	 -135.387 	 21.7091 	 -18.0693 	 
H 	 -130.792 	 28.4986 	 -19.5187 	 
*
