! wB97X-D3 SP def2-SVP
%pal
nprocs 24
end

* xyz 0 1
S 	 -128.696 	 67.9748 	 -50.1907 	 
C 	 -128.598 	 69.0947 	 -51.5077 	 
C 	 -127.37 	 69.7356 	 -51.526 	 
C 	 -126.435 	 69.2786 	 -50.557 	 
C 	 -126.951 	 68.1846 	 -49.9214 	 
H 	 -125.323 	 69.4338 	 -50.4214 	 
C 	 -126.934 	 70.8769 	 -52.4608 	 
H 	 -127.482 	 70.7359 	 -53.4373 	 
H 	 -125.892 	 70.6697 	 -52.7762 	 
C 	 -126.894 	 72.339 	 -52.0196 	 
H 	 -126.457 	 72.322 	 -51.0379 	 
H 	 -126.346 	 72.983 	 -52.6924 	 
C 	 -128.311 	 72.805 	 -51.8354 	 
H 	 -128.821 	 72.435 	 -50.9165 	 
H 	 -128.479 	 73.878 	 -51.6087 	 
H 	 -128.965 	 72.5172 	 -52.6182 	 
S 	 -127.077 	 67.5843 	 -47.2824 	 
C 	 -125.571 	 67.1002 	 -46.5622 	 
C 	 -124.633 	 66.7433 	 -47.4896 	 
C 	 -125.03 	 67.0469 	 -48.8217 	 
C 	 -126.297 	 67.5564 	 -48.8482 	 
H 	 -123.652 	 66.3597 	 -47.1075 	 
C 	 -124.077 	 66.79 	 -50.0256 	 
H 	 -124.488 	 67.114 	 -50.974 	 
H 	 -123.946 	 65.7116 	 -50.1505 	 
C 	 -122.754 	 67.3666 	 -49.8814 	 
H 	 -122.016 	 66.9448 	 -50.5625 	 
H 	 -122.338 	 67.1173 	 -48.8886 	 
C 	 -122.841 	 68.8923 	 -49.9906 	 
H 	 -123.296 	 69.3405 	 -49.2508 	 
H 	 -123.275 	 69.2194 	 -50.9307 	 
H 	 -121.826 	 69.289 	 -50.0235 	 
H 	 -129.395 	 69.3728 	 -52.0843 	 
H 	 -125.337 	 67.0385 	 -45.5007 	 
*
