! wB97X-D3 SP def2-SVP
%pal
nprocs 24
end

* xyz 0 1
S 	 39.5631 	 -8.39381 	 -106.552 	 
C 	 40.9697 	 -8.08389 	 -107.604 	 
C 	 40.5333 	 -7.92207 	 -108.911 	 
C 	 39.0568 	 -8.07553 	 -109.082 	 
C 	 38.3775 	 -8.25263 	 -107.89 	 
H 	 38.5173 	 -8.15403 	 -110.02 	 
C 	 41.4829 	 -7.49893 	 -110 	 
H 	 41.415 	 -8.35627 	 -110.681 	 
H 	 42.4504 	 -7.55879 	 -109.51 	 
C 	 41.2538 	 -6.11506 	 -110.651 	 
H 	 40.1628 	 -6.06945 	 -110.947 	 
H 	 41.4814 	 -5.32222 	 -109.948 	 
C 	 42.104 	 -5.77336 	 -111.907 	 
H 	 41.9982 	 -6.42058 	 -112.762 	 
H 	 41.8368 	 -4.76614 	 -112.264 	 
H 	 43.1509 	 -5.65412 	 -111.639 	 
S 	 36.5504 	 -10.0604 	 -107.051 	 
C 	 34.8469 	 -9.59725 	 -107.312 	 
C 	 34.6538 	 -8.32459 	 -107.78 	 
C 	 35.9085 	 -7.68795 	 -108.061 	 
C 	 36.9888 	 -8.42569 	 -107.628 	 
H 	 33.6658 	 -7.93696 	 -107.737 	 
C 	 35.8822 	 -6.33997 	 -108.743 	 
H 	 35.1723 	 -6.42871 	 -109.561 	 
H 	 36.8504 	 -6.30804 	 -109.239 	 
C 	 35.491 	 -5.15454 	 -107.868 	 
H 	 35.7704 	 -4.23131 	 -108.373 	 
H 	 36.1247 	 -5.19623 	 -107.054 	 
C 	 33.9816 	 -5.12257 	 -107.585 	 
H 	 33.7445 	 -5.78906 	 -106.817 	 
H 	 33.2378 	 -5.20445 	 -108.404 	 
H 	 33.7002 	 -4.17954 	 -107.201 	 
H 	 41.9627 	 -8.02881 	 -107.392 	 
H 	 33.9924 	 -10.1407 	 -106.983 	 
*
