! wB97X-D3 SP def2-SVP
%pal
nprocs 24
end

* xyz 0 1
S 	 -121.427 	 60.7274 	 -39.4066 	 
C 	 -122.942 	 59.9216 	 -39.8907 	 
C 	 -123.494 	 59.1634 	 -38.9148 	 
C 	 -122.722 	 59.3267 	 -37.6808 	 
C 	 -121.593 	 60.0585 	 -37.7986 	 
H 	 -123.019 	 58.8005 	 -36.8063 	 
C 	 -124.777 	 58.3965 	 -38.9646 	 
H 	 -125.224 	 58.8431 	 -38.0815 	 
H 	 -124.58 	 57.3713 	 -38.6296 	 
C 	 -125.788 	 58.512 	 -40.1836 	 
H 	 -126.714 	 58.5383 	 -39.6883 	 
H 	 -125.6 	 59.4919 	 -40.6036 	 
C 	 -125.59 	 57.4448 	 -41.3192 	 
H 	 -125.884 	 56.4522 	 -40.9117 	 
H 	 -126.167 	 57.6774 	 -42.2163 	 
H 	 -124.588 	 57.5145 	 -41.5998 	 
S 	 -118.849 	 60.0328 	 -37.2702 	 
C 	 -118.277 	 60.3191 	 -35.6467 	 
C 	 -119.332 	 60.5999 	 -34.801 	 
C 	 -120.607 	 60.405 	 -35.4039 	 
C 	 -120.545 	 60.2655 	 -36.798 	 
H 	 -119.163 	 60.7965 	 -33.7279 	 
C 	 -121.781 	 60.7477 	 -34.5839 	 
H 	 -122.689 	 60.5423 	 -35.0447 	 
H 	 -121.639 	 61.7627 	 -34.4002 	 
C 	 -121.963 	 60.0725 	 -33.1989 	 
H 	 -122.699 	 60.5758 	 -32.5782 	 
H 	 -121.137 	 59.9574 	 -32.5084 	 
C 	 -122.547 	 58.6201 	 -33.4015 	 
H 	 -123.611 	 58.6713 	 -33.8301 	 
H 	 -122.575 	 58.0671 	 -32.4083 	 
H 	 -121.887 	 58.2307 	 -34.1965 	 
H 	 -123.481 	 60.0676 	 -40.8288 	 
H 	 -117.238 	 60.2793 	 -35.3257 	 
*
