! wB97X-D3 SP def2-SVP
%pal
nprocs 24
end

* xyz 0 1
S 	 -66.9181 	 -45.6863 	 -87.0405 	 
C 	 -65.3069 	 -45.1293 	 -87.4449 	 
C 	 -64.6362 	 -46.0345 	 -88.2284 	 
C 	 -65.3469 	 -47.3074 	 -88.3681 	 
C 	 -66.5265 	 -47.2818 	 -87.6349 	 
H 	 -65.1498 	 -48.1997 	 -88.9222 	 
C 	 -63.2818 	 -45.8546 	 -88.8763 	 
H 	 -62.6483 	 -45.405 	 -88.2391 	 
H 	 -63.3943 	 -45.183 	 -89.6589 	 
C 	 -62.5605 	 -47.0403 	 -89.4251 	 
H 	 -62.8704 	 -47.939 	 -88.7966 	 
H 	 -62.8741 	 -47.2523 	 -90.4397 	 
C 	 -61.0634 	 -46.8394 	 -89.3853 	 
H 	 -60.6395 	 -46.8041 	 -88.358 	 
H 	 -60.575 	 -47.738 	 -89.7021 	 
H 	 -60.701 	 -45.9874 	 -90.0512 	 
S 	 -68.9793 	 -48.2472 	 -87.1129 	 
C 	 -69.2793 	 -49.9707 	 -86.9118 	 
C 	 -68.042 	 -50.5739 	 -86.7066 	 
C 	 -66.9371 	 -49.7218 	 -86.8459 	 
C 	 -67.3029 	 -48.4425 	 -87.2642 	 
H 	 -67.8464 	 -51.5856 	 -86.4111 	 
C 	 -65.5886 	 -50.1913 	 -86.5224 	 
H 	 -65.5539 	 -50.7484 	 -85.5892 	 
H 	 -64.9863 	 -49.289 	 -86.2846 	 
C 	 -64.9455 	 -51.0493 	 -87.6619 	 
H 	 -64.8922 	 -50.3792 	 -88.5438 	 
H 	 -65.6521 	 -51.8208 	 -88.0037 	 
C 	 -63.5623 	 -51.6013 	 -87.4624 	 
H 	 -63.0903 	 -52.1226 	 -88.3348 	 
H 	 -63.6668 	 -52.3721 	 -86.655 	 
H 	 -62.8507 	 -50.8409 	 -87.0563 	 
H 	 -64.9885 	 -44.112 	 -87.2307 	 
H 	 -70.1726 	 -50.3326 	 -86.6098 	 
*
