! wB97X-D3 SP def2-SVP
%pal
nprocs 24
end

* xyz 0 1
S 	 -111.902 	 56.7555 	 -90.7 	 
C 	 -113.315 	 56.4654 	 -91.6911 	 
C 	 -113.8 	 55.2139 	 -91.4028 	 
C 	 -113.143 	 54.5524 	 -90.2898 	 
C 	 -112.107 	 55.2781 	 -89.7147 	 
H 	 -113.316 	 53.6013 	 -89.8656 	 
C 	 -114.765 	 54.4873 	 -92.3304 	 
H 	 -115.795 	 54.5883 	 -91.9483 	 
H 	 -114.559 	 53.4399 	 -92.3286 	 
C 	 -114.853 	 54.949 	 -93.7636 	 
H 	 -114.861 	 56.0481 	 -93.8375 	 
H 	 -113.813 	 54.9072 	 -94.1174 	 
C 	 -115.772 	 54.1507 	 -94.6533 	 
H 	 -116.77 	 53.9803 	 -94.3813 	 
H 	 -115.962 	 54.696 	 -95.5706 	 
H 	 -115.356 	 53.1916 	 -94.8784 	 
S 	 -110.521 	 56.2568 	 -87.7367 	 
C 	 -109.372 	 55.3524 	 -86.8972 	 
C 	 -109.46 	 54.0264 	 -87.2499 	 
C 	 -110.391 	 53.7722 	 -88.3036 	 
C 	 -111.128 	 54.9072 	 -88.6818 	 
H 	 -108.823 	 53.2489 	 -86.7912 	 
C 	 -110.669 	 52.456 	 -88.9408 	 
H 	 -110.887 	 52.6933 	 -89.9835 	 
H 	 -111.603 	 52.0982 	 -88.5022 	 
C 	 -109.54 	 51.4291 	 -88.8767 	 
H 	 -109.953 	 50.6023 	 -89.4239 	 
H 	 -109.273 	 51.0668 	 -87.8924 	 
C 	 -108.236 	 51.7134 	 -89.6608 	 
H 	 -108.389 	 51.7922 	 -90.6993 	 
H 	 -107.533 	 50.9456 	 -89.5098 	 
H 	 -107.826 	 52.6479 	 -89.4889 	 
H 	 -113.658 	 57.1039 	 -92.5055 	 
H 	 -108.631 	 55.7321 	 -86.216 	 
*
