! wB97X-D3 SP def2-SVP
%pal
nprocs 24
end

* xyz 0 1
S 	 -88.7919 	 -2.53775 	 6.83542 	 
C 	 -87.8905 	 -1.37309 	 5.8799 	 
C 	 -86.7392 	 -1.86958 	 5.30884 	 
C 	 -86.5433 	 -3.25411 	 5.69149 	 
C 	 -87.5379 	 -3.76097 	 6.52842 	 
H 	 -85.6695 	 -3.81078 	 5.39587 	 
C 	 -85.9026 	 -1.28854 	 4.15949 	 
H 	 -86.5052 	 -1.18087 	 3.30292 	 
H 	 -85.114 	 -1.98945 	 3.87576 	 
C 	 -85.2195 	 0.0559547 	 4.50448 	 
H 	 -84.9444 	 0.538808 	 3.54651 	 
H 	 -86.0151 	 0.70146 	 4.96406 	 
C 	 -84.1122 	 -0.20538 	 5.63153 	 
H 	 -84.7113 	 -0.307534 	 6.55985 	 
H 	 -83.5214 	 -1.09994 	 5.53956 	 
H 	 -83.4883 	 0.671221 	 5.6736 	 
S 	 -87.0465 	 -6.40428 	 6.37866 	 
C 	 -86.9184 	 -7.37968 	 7.7995 	 
C 	 -87.1609 	 -6.64916 	 8.91807 	 
C 	 -87.6848 	 -5.3558 	 8.5627 	 
C 	 -87.4328 	 -4.99994 	 7.25406 	 
H 	 -87.1687 	 -6.99023 	 9.88598 	 
C 	 -88.0491 	 -4.3552 	 9.63148 	 
H 	 -88.7407 	 -4.88396 	 10.2695 	 
H 	 -88.6377 	 -3.61333 	 9.15082 	 
C 	 -86.883 	 -3.76225 	 10.3462 	 
H 	 -86.3193 	 -3.07402 	 9.75529 	 
H 	 -86.1241 	 -4.32024 	 10.8467 	 
C 	 -87.5066 	 -2.94244 	 11.5524 	 
H 	 -88.2424 	 -3.39409 	 12.2075 	 
H 	 -88.0666 	 -2.13623 	 11.0662 	 
H 	 -86.6822 	 -2.5584 	 12.1624 	 
H 	 -88.3222 	 -0.364657 	 5.73281 	 
H 	 -86.4256 	 -8.33223 	 7.85618 	 
*
