! wB97X-D3 SP def2-SVP
%pal
nprocs 24
end

* xyz 0 1
S 	 -43.1867 	 12.1806 	 26.5233 	 
C 	 -44.8047 	 11.4683 	 26.3809 	 
C 	 -45.8032 	 12.2922 	 26.8821 	 
C 	 -45.3335 	 13.5878 	 27.172 	 
C 	 -43.9406 	 13.6553 	 27.0479 	 
H 	 -45.9337 	 14.4805 	 27.4101 	 
C 	 -47.2852 	 11.8947 	 26.9959 	 
H 	 -47.7281 	 11.9314 	 26.0009 	 
H 	 -47.689 	 12.5386 	 27.7424 	 
C 	 -47.5121 	 10.5733 	 27.6591 	 
H 	 -48.534 	 10.2569 	 27.4939 	 
H 	 -46.9211 	 9.7681 	 27.1611 	 
C 	 -47.164 	 10.4744 	 29.1996 	 
H 	 -47.5989 	 9.60837 	 29.6574 	 
H 	 -46.139 	 10.3952 	 29.366 	 
H 	 -47.6274 	 11.3091 	 29.7537 	 
S 	 -41.7351 	 15.0229 	 28.2482 	 
C 	 -41.3105 	 16.6244 	 27.6541 	 
C 	 -42.2444 	 17.0853 	 26.7585 	 
C 	 -43.2184 	 16.0894 	 26.3304 	 
C 	 -43.129 	 14.9017 	 27.1017 	 
H 	 -42.0678 	 18.1072 	 26.4579 	 
C 	 -44.1522 	 16.3875 	 25.23 	 
H 	 -44.2097 	 17.4795 	 25.1253 	 
H 	 -45.1202 	 15.9298 	 25.5859 	 
C 	 -43.8162 	 15.777 	 23.9039 	 
H 	 -42.8657 	 16.1743 	 23.4469 	 
H 	 -44.5796 	 16.1294 	 23.2596 	 
C 	 -43.9382 	 14.225 	 23.7942 	 
H 	 -43.0431 	 13.7245 	 24.2148 	 
H 	 -43.9203 	 13.9113 	 22.7234 	 
H 	 -44.8145 	 13.8059 	 24.2892 	 
H 	 -44.9561 	 10.4407 	 25.9448 	 
H 	 -40.4843 	 17.2293 	 27.9458 	 
*
