! wB97X-D3 SP def2-SVP
%pal
nprocs 24
end

* xyz 0 1
S 	 -30.4728 	 10.0379 	 -0.238536 	 
C 	 -32.1823 	 9.95359 	 -0.491609 	 
C 	 -32.8053 	 10.3482 	 0.717867 	 
C 	 -31.9053 	 10.7849 	 1.76163 	 
C 	 -30.6025 	 10.8113 	 1.33246 	 
H 	 -31.9749 	 11.0523 	 2.76082 	 
C 	 -34.3495 	 10.2594 	 0.933712 	 
H 	 -34.5753 	 9.86044 	 1.92478 	 
H 	 -34.7236 	 9.4433 	 0.290627 	 
C 	 -35.0942 	 11.5436 	 0.619077 	 
H 	 -35.1184 	 11.7442 	 -0.45268 	 
H 	 -36.1017 	 11.31 	 0.776055 	 
C 	 -34.7478 	 12.7328 	 1.46641 	 
H 	 -33.6999 	 13.0548 	 1.32734 	 
H 	 -35.3082 	 13.6153 	 1.07948 	 
H 	 -34.9275 	 12.6602 	 2.53564 	 
S 	 -27.9106 	 10.5045 	 1.83613 	 
C 	 -27.1636 	 11.445 	 3.14688 	 
C 	 -28.0433 	 12.4146 	 3.58481 	 
C 	 -29.3857 	 12.301 	 3.09402 	 
C 	 -29.4966 	 11.2891 	 2.12759 	 
H 	 -27.6033 	 13.153 	 4.22802 	 
C 	 -30.5686 	 13.1383 	 3.58607 	 
H 	 -31.3692 	 13.0058 	 2.92676 	 
H 	 -30.3042 	 14.1765 	 3.45588 	 
C 	 -31.0559 	 12.8328 	 5.00046 	 
H 	 -30.1285 	 12.9951 	 5.56929 	 
H 	 -31.2492 	 11.7682 	 5.09992 	 
C 	 -32.1509 	 13.8569 	 5.35541 	 
H 	 -32.8454 	 13.8668 	 4.54678 	 
H 	 -31.761 	 14.8618 	 5.48196 	 
H 	 -32.6033 	 13.6402 	 6.31042 	 
H 	 -32.7865 	 9.43948 	 -1.27277 	 
H 	 -26.128 	 11.5024 	 3.39183 	 
*
