! wB97X-D3 SP def2-SVP
%pal
nprocs 24
end

* xyz 0 1
S 	 26.127 	 -6.93633 	 -117.728 	 
C 	 27.2111 	 -7.4547 	 -118.966 	 
C 	 28.5296 	 -7.44554 	 -118.534 	 
C 	 28.7077 	 -7.05401 	 -117.208 	 
C 	 27.4791 	 -6.88154 	 -116.571 	 
H 	 29.6346 	 -7.01191 	 -116.839 	 
C 	 29.7521 	 -7.79707 	 -119.454 	 
H 	 30.3725 	 -6.90819 	 -119.494 	 
H 	 29.3078 	 -8.00387 	 -120.411 	 
C 	 30.658 	 -9.00706 	 -119.09 	 
H 	 31.4431 	 -9.14259 	 -119.819 	 
H 	 31.0895 	 -8.72509 	 -118.119 	 
C 	 29.9443 	 -10.3455 	 -118.784 	 
H 	 29.7238 	 -10.8768 	 -119.691 	 
H 	 30.6061 	 -11.0456 	 -118.241 	 
H 	 29.0859 	 -10.1623 	 -118.253 	 
S 	 26.8094 	 -4.993 	 -114.619 	 
C 	 26.8787 	 -5.46144 	 -112.904 	 
C 	 27.2746 	 -6.76653 	 -112.815 	 
C 	 27.5417 	 -7.43693 	 -114.045 	 
C 	 27.2718 	 -6.63264 	 -115.143 	 
H 	 27.3204 	 -7.23867 	 -111.778 	 
C 	 27.7876 	 -8.89355 	 -114.109 	 
H 	 27.1848 	 -9.11962 	 -115.018 	 
H 	 27.2523 	 -9.40555 	 -113.292 	 
C 	 29.2266 	 -9.30963 	 -114.306 	 
H 	 29.7278 	 -9.16636 	 -113.391 	 
H 	 29.6082 	 -8.47468 	 -114.948 	 
C 	 29.4555 	 -10.7781 	 -114.653 	 
H 	 30.4991 	 -11.0716 	 -114.732 	 
H 	 28.9703 	 -11.1183 	 -115.479 	 
H 	 28.9619 	 -11.3312 	 -113.883 	 
H 	 26.9878 	 -7.62841 	 -120.051 	 
H 	 26.6432 	 -4.77268 	 -112.007 	 
*
