! wB97X-D3 SP def2-SVP
%pal
nprocs 24
end

* xyz 0 1
S 	 -85.7814 	 0.320193 	 -119.437 	 
C 	 -85.6697 	 -1.46401 	 -119.471 	 
C 	 -86.8765 	 -1.97258 	 -119.019 	 
C 	 -87.9525 	 -1.04136 	 -118.868 	 
C 	 -87.529 	 0.280799 	 -119.036 	 
H 	 -88.9978 	 -1.27656 	 -118.68 	 
C 	 -87.1411 	 -3.44584 	 -118.688 	 
H 	 -87.2592 	 -3.83113 	 -119.761 	 
H 	 -88.077 	 -3.65789 	 -118.275 	 
C 	 -86.179 	 -4.213 	 -117.873 	 
H 	 -86.5212 	 -5.29647 	 -117.808 	 
H 	 -85.1691 	 -4.24823 	 -118.317 	 
C 	 -85.9904 	 -3.64554 	 -116.456 	 
H 	 -86.9643 	 -3.44898 	 -115.977 	 
H 	 -85.3161 	 -4.1758 	 -115.79 	 
H 	 -85.448 	 -2.68386 	 -116.66 	 
S 	 -88.0689 	 2.67215 	 -120.345 	 
C 	 -89.2557 	 3.72152 	 -119.547 	 
C 	 -89.8567 	 3.10173 	 -118.425 	 
C 	 -89.2964 	 1.78385 	 -118.218 	 
C 	 -88.3252 	 1.46664 	 -119.086 	 
H 	 -90.6941 	 3.68624 	 -118 	 
C 	 -89.7767 	 0.924481 	 -117.184 	 
H 	 -89.7662 	 1.45106 	 -116.312 	 
H 	 -89.008 	 0.173735 	 -116.972 	 
C 	 -91.164 	 0.34794 	 -117.42 	 
H 	 -91.3168 	 -0.00596933 	 -118.461 	 
H 	 -91.9309 	 1.02789 	 -117.1 	 
C 	 -91.3438 	 -0.91238 	 -116.572 	 
H 	 -91.3262 	 -0.760144 	 -115.528 	 
H 	 -90.6064 	 -1.70778 	 -116.788 	 
H 	 -92.2517 	 -1.46003 	 -116.803 	 
H 	 -84.7635 	 -2.05932 	 -119.418 	 
H 	 -89.4791 	 4.5862 	 -119.973 	 
*
