! wB97X-D3 SP def2-SVP
%pal
nprocs 24
end

* xyz 0 1
S 	 -84.3838 	 -32.7403 	 -77.0394 	 
C 	 -84.4536 	 -32.3886 	 -78.7374 	 
C 	 -85.7739 	 -32.3982 	 -79.2126 	 
C 	 -86.7207 	 -32.5721 	 -78.1365 	 
C 	 -86.0932 	 -32.6405 	 -76.863 	 
H 	 -87.7818 	 -32.5606 	 -78.1139 	 
C 	 -86.1354 	 -32.1569 	 -80.6748 	 
H 	 -87.1521 	 -32.4765 	 -80.7711 	 
H 	 -85.4808 	 -32.7661 	 -81.3455 	 
C 	 -85.8801 	 -30.6402 	 -81.1032 	 
H 	 -86.5751 	 -30.3006 	 -81.8066 	 
H 	 -86.1426 	 -29.9873 	 -80.3357 	 
C 	 -84.5371 	 -30.1825 	 -81.6452 	 
H 	 -83.8794 	 -30.303 	 -80.8092 	 
H 	 -84.1066 	 -30.871 	 -82.4707 	 
H 	 -84.4822 	 -29.177 	 -81.9189 	 
S 	 -86.573 	 -34.2184 	 -74.5651 	 
C 	 -87.8459 	 -33.5861 	 -73.5035 	 
C 	 -88.5144 	 -32.4955 	 -74.0287 	 
C 	 -87.9887 	 -32.0134 	 -75.2569 	 
C 	 -86.8601 	 -32.8059 	 -75.6193 	 
H 	 -89.4001 	 -32.0226 	 -73.4714 	 
C 	 -88.7166 	 -30.8715 	 -76.0499 	 
H 	 -88.1136 	 -30.4423 	 -76.7506 	 
H 	 -88.9907 	 -30.0526 	 -75.3627 	 
C 	 -90.1023 	 -31.2798 	 -76.4396 	 
H 	 -90.8124 	 -31.3406 	 -75.6192 	 
H 	 -90.2185 	 -32.2327 	 -76.911 	 
C 	 -90.8391 	 -30.1593 	 -77.2236 	 
H 	 -91.7922 	 -30.4389 	 -77.579 	 
H 	 -90.1939 	 -29.8813 	 -78.0345 	 
H 	 -91.0383 	 -29.2985 	 -76.5725 	 
H 	 -83.5858 	 -32.2024 	 -79.2973 	 
H 	 -88.1537 	 -33.9076 	 -72.536 	 
*
