! wB97X-D3 SP def2-SVP
%pal
nprocs 24
end

* xyz 0 1
S 	 -108.073 	 27.7555 	 -115.898 	 
C 	 -108.111 	 29.4508 	 -115.421 	 
C 	 -107.874 	 30.3431 	 -116.509 	 
C 	 -107.641 	 29.5269 	 -117.698 	 
C 	 -107.737 	 28.1213 	 -117.591 	 
H 	 -107.348 	 29.8278 	 -118.707 	 
C 	 -107.664 	 31.8684 	 -116.486 	 
H 	 -107.057 	 32.1516 	 -117.307 	 
H 	 -106.986 	 32.0664 	 -115.657 	 
C 	 -108.975 	 32.7948 	 -116.22 	 
H 	 -109.63 	 32.357 	 -115.557 	 
H 	 -108.494 	 33.74 	 -115.944 	 
C 	 -109.788 	 32.9098 	 -117.436 	 
H 	 -109.297 	 33.2983 	 -118.31 	 
H 	 -110.103 	 31.8931 	 -117.841 	 
H 	 -110.653 	 33.5515 	 -117.302 	 
S 	 -106.092 	 26.0276 	 -118.333 	 
C 	 -106.236 	 25.4116 	 -119.987 	 
C 	 -107.184 	 26.1338 	 -120.682 	 
C 	 -107.882 	 27.1069 	 -119.933 	 
C 	 -107.379 	 27.1711 	 -118.662 	 
H 	 -107.281 	 25.8374 	 -121.704 	 
C 	 -108.97 	 28.0164 	 -120.491 	 
H 	 -108.813 	 28.3274 	 -121.51 	 
H 	 -109.036 	 28.9318 	 -119.993 	 
C 	 -110.371 	 27.3156 	 -120.424 	 
H 	 -110.264 	 26.4023 	 -121.031 	 
H 	 -110.924 	 27.9715 	 -121.089 	 
C 	 -111.119 	 27.2634 	 -119.103 	 
H 	 -111.45 	 28.2735 	 -118.827 	 
H 	 -110.472 	 26.9196 	 -118.222 	 
H 	 -112.017 	 26.5695 	 -119.123 	 
H 	 -108.153 	 29.8506 	 -114.412 	 
H 	 -105.623 	 24.5763 	 -120.432 	 
*
