! wB97X-D3 SP def2-SVP
%pal
nprocs 24
end

* xyz 0 1
S 	 -58.8371 	 13.8112 	 -98.617 	 
C 	 -57.7918 	 15.1184 	 -98.1476 	 
C 	 -56.6028 	 15.1163 	 -98.7877 	 
C 	 -56.4102 	 13.9499 	 -99.5259 	 
C 	 -57.5255 	 13.077 	 -99.4833 	 
H 	 -55.6345 	 13.6789 	 -100.141 	 
C 	 -55.48 	 16.1436 	 -98.6662 	 
H 	 -55.7922 	 16.9489 	 -98.038 	 
H 	 -55.4321 	 16.5091 	 -99.6559 	 
C 	 -54.0685 	 15.8016 	 -98.3457 	 
H 	 -53.6182 	 15.1111 	 -99.0758 	 
H 	 -53.3973 	 16.6631 	 -98.5 	 
C 	 -53.8217 	 15.3929 	 -96.8426 	 
H 	 -52.815 	 15.2164 	 -96.4882 	 
H 	 -54.2942 	 16.074 	 -96.1413 	 
H 	 -54.4026 	 14.4515 	 -96.7203 	 
S 	 -57.5158 	 10.3301 	 -99.0395 	 
C 	 -57.7878 	 9.21738 	 -100.385 	 
C 	 -57.7523 	 9.9377 	 -101.57 	 
C 	 -57.7066 	 11.4072 	 -101.393 	 
C 	 -57.7102 	 11.7804 	 -100.059 	 
H 	 -57.9168 	 9.49124 	 -102.496 	 
C 	 -57.6469 	 12.3736 	 -102.596 	 
H 	 -56.5828 	 12.7727 	 -102.686 	 
H 	 -58.2593 	 13.2053 	 -102.291 	 
C 	 -58.2279 	 11.7798 	 -103.926 	 
H 	 -59.3045 	 11.7133 	 -103.806 	 
H 	 -57.6967 	 10.8503 	 -104.147 	 
C 	 -58.0047 	 12.7673 	 -105.056 	 
H 	 -58.7014 	 12.5529 	 -105.849 	 
H 	 -56.995 	 12.644 	 -105.442 	 
H 	 -58.1166 	 13.7965 	 -104.742 	 
H 	 -57.9993 	 15.8073 	 -97.4062 	 
H 	 -57.7366 	 8.1189 	 -100.276 	 
*
