! wB97X-D3 SP def2-SVP
%pal
nprocs 24
end

* xyz 0 1
S 	 -121.114 	 23.7611 	 -111.546 	 
C 	 -120.192 	 25.1751 	 -111.107 	 
C 	 -120.976 	 26.2992 	 -111.1 	 
C 	 -122.338 	 25.9628 	 -111.166 	 
C 	 -122.628 	 24.6198 	 -111.346 	 
H 	 -123.129 	 26.6842 	 -111.135 	 
C 	 -120.469 	 27.7349 	 -111.051 	 
H 	 -119.391 	 27.6883 	 -111.223 	 
H 	 -120.584 	 28.1222 	 -109.949 	 
C 	 -121.193 	 28.6998 	 -111.924 	 
H 	 -121.113 	 28.4759 	 -112.941 	 
H 	 -122.171 	 28.6392 	 -111.644 	 
C 	 -120.862 	 30.2245 	 -111.8 	 
H 	 -121.55 	 30.7715 	 -112.549 	 
H 	 -121.104 	 30.6048 	 -110.83 	 
H 	 -119.865 	 30.3644 	 -112.149 	 
S 	 -124.036 	 22.7702 	 -112.876 	 
C 	 -125.745 	 22.4242 	 -112.491 	 
C 	 -126.222 	 23.4367 	 -111.662 	 
C 	 -125.239 	 24.3275 	 -111.11 	 
C 	 -123.95 	 24.0155 	 -111.568 	 
H 	 -127.253 	 23.4908 	 -111.506 	 
C 	 -125.629 	 25.4555 	 -110.185 	 
H 	 -125.902 	 26.2075 	 -110.869 	 
H 	 -124.733 	 25.8249 	 -109.622 	 
C 	 -126.847 	 25.3386 	 -109.282 	 
H 	 -126.763 	 24.4461 	 -108.677 	 
H 	 -127.668 	 25.1747 	 -109.999 	 
C 	 -127.171 	 26.5972 	 -108.395 	 
H 	 -127.593 	 27.4707 	 -108.887 	 
H 	 -126.298 	 26.9572 	 -107.832 	 
H 	 -127.839 	 26.1793 	 -107.665 	 
H 	 -119.089 	 25.2803 	 -111.206 	 
H 	 -126.361 	 21.8978 	 -113.187 	 
*
