! wB97X-D3 SP def2-SVP
%pal
nprocs 24
end

* xyz 0 1
S 	 -131.753 	 57.7067 	 -59.1206 	 
C 	 -132.4 	 59.1269 	 -59.9095 	 
C 	 -133.185 	 58.7896 	 -60.9973 	 
C 	 -133.375 	 57.356 	 -61.0693 	 
C 	 -132.514 	 56.6206 	 -60.2525 	 
H 	 -133.892 	 56.87 	 -61.8723 	 
C 	 -133.81 	 59.7409 	 -62.0297 	 
H 	 -133.911 	 59.1099 	 -62.8842 	 
H 	 -133.129 	 60.5434 	 -62.2526 	 
C 	 -135.168 	 60.3885 	 -61.6654 	 
H 	 -135.945 	 59.734 	 -61.9279 	 
H 	 -135.2 	 60.6284 	 -60.5927 	 
C 	 -135.435 	 61.706 	 -62.3419 	 
H 	 -134.652 	 62.4183 	 -61.9265 	 
H 	 -135.355 	 61.6244 	 -63.4777 	 
H 	 -136.429 	 61.9821 	 -62.1056 	 
S 	 -132.618 	 54.5094 	 -58.569 	 
C 	 -132.28 	 52.9164 	 -59.2085 	 
C 	 -132.192 	 52.8774 	 -60.545 	 
C 	 -132.285 	 54.1694 	 -61.0734 	 
C 	 -132.452 	 55.184 	 -60.1151 	 
H 	 -132.059 	 51.9217 	 -61.0498 	 
C 	 -132.271 	 54.3273 	 -62.5278 	 
H 	 -132.683 	 55.3286 	 -62.7969 	 
H 	 -132.962 	 53.567 	 -62.9436 	 
C 	 -130.854 	 54.1144 	 -63.0843 	 
H 	 -130.489 	 53.0497 	 -62.9103 	 
H 	 -130.042 	 54.7059 	 -62.6567 	 
C 	 -130.811 	 54.2817 	 -64.6636 	 
H 	 -130.874 	 53.3196 	 -65.1175 	 
H 	 -129.833 	 54.5395 	 -65.0639 	 
H 	 -131.549 	 54.9696 	 -65.1338 	 
H 	 -132.317 	 60.1499 	 -59.6249 	 
H 	 -132.224 	 52.0679 	 -58.5512 	 
*
