! wB97X-D3 SP def2-SVP
%pal
nprocs 24
end

* xyz 0 1
S 	 -99.0297 	 8.78939 	 4.35664 	 
C 	 -98.745 	 7.48495 	 3.15294 	 
C 	 -99.1114 	 6.26237 	 3.64783 	 
C 	 -99.6819 	 6.4613 	 4.97647 	 
C 	 -99.7982 	 7.73747 	 5.52393 	 
H 	 -99.9134 	 5.64452 	 5.70628 	 
C 	 -98.8354 	 4.83716 	 3.04366 	 
H 	 -99.2928 	 4.7939 	 2.08777 	 
H 	 -99.3582 	 4.06644 	 3.65018 	 
C 	 -97.3642 	 4.44729 	 2.92922 	 
H 	 -96.948 	 5.24113 	 2.41251 	 
H 	 -96.8465 	 4.39727 	 3.79718 	 
C 	 -97.0678 	 3.24828 	 2.07239 	 
H 	 -96.0531 	 3.05512 	 1.95035 	 
H 	 -97.4268 	 2.32531 	 2.55166 	 
H 	 -97.5009 	 3.35086 	 1.14537 	 
S 	 -101.448 	 9.24769 	 6.97602 	 
C 	 -101.487 	 9.26829 	 8.70213 	 
C 	 -100.621 	 8.27462 	 9.14542 	 
C 	 -99.9478 	 7.52674 	 8.18915 	 
C 	 -100.189 	 8.05279 	 6.87569 	 
H 	 -100.583 	 8.22234 	 10.2238 	 
C 	 -98.8142 	 6.57066 	 8.41432 	 
H 	 -99.0224 	 5.67786 	 7.79034 	 
H 	 -98.929 	 6.31812 	 9.47659 	 
C 	 -97.4615 	 7.1313 	 8.12056 	 
H 	 -97.4348 	 8.19861 	 8.36702 	 
H 	 -97.2942 	 7.1205 	 7.04388 	 
C 	 -96.3859 	 6.3719 	 8.87609 	 
H 	 -95.4988 	 6.97007 	 8.85964 	 
H 	 -96.1052 	 5.4771 	 8.37262 	 
H 	 -96.4855 	 6.25523 	 9.96738 	 
H 	 -98.2547 	 7.62208 	 2.1931 	 
H 	 -102.215 	 9.90995 	 9.22647 	 
*
