! wB97X-D3 SP def2-SVP
%pal
nprocs 24
end

* xyz 0 1
S 	 -87.7715 	 -46.8193 	 -83.8328 	 
C 	 -88.9129 	 -46.8577 	 -82.4162 	 
C 	 -88.2453 	 -46.6119 	 -81.2068 	 
C 	 -86.8604 	 -46.6945 	 -81.3976 	 
C 	 -86.3756 	 -46.7703 	 -82.732 	 
H 	 -86.1239 	 -46.4487 	 -80.6399 	 
C 	 -88.8168 	 -46.4085 	 -79.8242 	 
H 	 -88.922 	 -47.2678 	 -79.1593 	 
H 	 -89.8518 	 -46.2218 	 -80.0121 	 
C 	 -88.2886 	 -45.2348 	 -78.9758 	 
H 	 -87.3018 	 -45.3618 	 -78.5466 	 
H 	 -88.3314 	 -44.3417 	 -79.5035 	 
C 	 -89.2354 	 -44.9475 	 -77.7977 	 
H 	 -88.7514 	 -44.285 	 -77.1088 	 
H 	 -90.1975 	 -44.5709 	 -78.2347 	 
H 	 -89.5615 	 -45.7749 	 -77.1688 	 
S 	 -84.5968 	 -45.5649 	 -84.5714 	 
C 	 -82.8617 	 -45.7704 	 -84.336 	 
C 	 -82.5971 	 -46.5517 	 -83.2112 	 
C 	 -83.7634 	 -47.0388 	 -82.5857 	 
C 	 -84.9798 	 -46.6506 	 -83.1462 	 
H 	 -81.6115 	 -46.6442 	 -82.8564 	 
C 	 -83.5755 	 -47.7561 	 -81.2379 	 
H 	 -82.9611 	 -48.6219 	 -81.4863 	 
H 	 -84.4678 	 -48.3562 	 -81.0997 	 
C 	 -83.1461 	 -47.1027 	 -79.9406 	 
H 	 -83.877 	 -46.4062 	 -79.5862 	 
H 	 -82.2558 	 -46.5363 	 -80.0681 	 
C 	 -82.9711 	 -48.2574 	 -78.9927 	 
H 	 -82.1705 	 -48.922 	 -79.2684 	 
H 	 -83.8602 	 -48.9343 	 -79.031 	 
H 	 -82.7999 	 -47.917 	 -77.9553 	 
H 	 -89.967 	 -46.9796 	 -82.5147 	 
H 	 -82.1139 	 -45.3824 	 -84.9722 	 
*
