! wB97X-D3 SP def2-SVP
%pal
nprocs 24
end

* xyz 0 1
S 	 -20.262 	 -30.8316 	 -101.552 	 
C 	 -19.4893 	 -29.5974 	 -102.555 	 
C 	 -19.4735 	 -29.9641 	 -103.925 	 
C 	 -19.8382 	 -31.3212 	 -104.084 	 
C 	 -20.1785 	 -32.0037 	 -102.91 	 
H 	 -19.8026 	 -31.9037 	 -104.989 	 
C 	 -19.119 	 -29.097 	 -105.131 	 
H 	 -18.3577 	 -29.5557 	 -105.773 	 
H 	 -18.5226 	 -28.2871 	 -104.756 	 
C 	 -20.3748 	 -28.6561 	 -105.946 	 
H 	 -20.0618 	 -28.2498 	 -106.883 	 
H 	 -20.9372 	 -29.5423 	 -106.205 	 
C 	 -21.3902 	 -27.7879 	 -105.313 	 
H 	 -22.2532 	 -27.5737 	 -105.92 	 
H 	 -21.7463 	 -28.2979 	 -104.387 	 
H 	 -20.9515 	 -26.8104 	 -104.969 	 
S 	 -19.3241 	 -34.4617 	 -102.256 	 
C 	 -20.4684 	 -35.8119 	 -102.255 	 
C 	 -21.7049 	 -35.5277 	 -102.772 	 
C 	 -21.7869 	 -34.0826 	 -103.013 	 
C 	 -20.578 	 -33.3491 	 -102.792 	 
H 	 -22.5163 	 -36.2281 	 -102.943 	 
C 	 -23.1147 	 -33.4031 	 -103.339 	 
H 	 -22.8725 	 -33.0235 	 -104.302 	 
H 	 -23.1848 	 -32.6359 	 -102.579 	 
C 	 -24.4407 	 -34.1426 	 -103.458 	 
H 	 -24.2229 	 -34.9903 	 -103.993 	 
H 	 -25.0335 	 -33.4159 	 -104.022 	 
C 	 -25.119 	 -34.3697 	 -102.073 	 
H 	 -25.1135 	 -33.3944 	 -101.581 	 
H 	 -24.5845 	 -34.9559 	 -101.418 	 
H 	 -26.2367 	 -34.5666 	 -102.106 	 
H 	 -19.3095 	 -28.5664 	 -102.214 	 
H 	 -20.1927 	 -36.7711 	 -101.824 	 
*
