! wB97X-D3 SP def2-SVP
%pal
nprocs 24
end

* xyz 0 1
S 	 -43.2669 	 13.7383 	 -15.5596 	 
C 	 -44.5609 	 13.017 	 -14.58 	 
C 	 -44.8148 	 11.7181 	 -14.9877 	 
C 	 -44.0255 	 11.31 	 -16.1201 	 
C 	 -43.18 	 12.3069 	 -16.5969 	 
H 	 -44.0769 	 10.4341 	 -16.7109 	 
C 	 -45.7623 	 10.772 	 -14.3141 	 
H 	 -46.7477 	 10.8324 	 -14.7651 	 
H 	 -45.8835 	 11.0744 	 -13.2723 	 
C 	 -45.3178 	 9.26615 	 -14.364 	 
H 	 -45.3904 	 8.95523 	 -15.4219 	 
H 	 -44.3408 	 9.10373 	 -13.9741 	 
C 	 -46.2303 	 8.41477 	 -13.5769 	 
H 	 -45.8847 	 7.42402 	 -13.6476 	 
H 	 -46.1138 	 8.66055 	 -12.5821 	 
H 	 -47.2723 	 8.45359 	 -13.9279 	 
S 	 -42.407 	 13.1469 	 -19.0704 	 
C 	 -41.2763 	 12.1839 	 -19.9897 	 
C 	 -40.8381 	 11.1216 	 -19.2347 	 
C 	 -41.3353 	 11.062 	 -17.8977 	 
C 	 -42.232 	 12.0969 	 -17.6852 	 
H 	 -40.0591 	 10.6188 	 -19.7756 	 
C 	 -40.8262 	 10.0507 	 -16.8808 	 
H 	 -40.791 	 10.5412 	 -15.9231 	 
H 	 -39.7704 	 9.87296 	 -17.2072 	 
C 	 -41.6473 	 8.73422 	 -16.6994 	 
H 	 -42.5383 	 8.8594 	 -16.1339 	 
H 	 -41.0782 	 8.13707 	 -15.9868 	 
C 	 -41.905 	 7.98089 	 -18.0044 	 
H 	 -40.9596 	 7.77543 	 -18.5454 	 
H 	 -42.4811 	 8.69777 	 -18.5414 	 
H 	 -42.5002 	 7.04158 	 -17.9604 	 
H 	 -44.9585 	 13.4589 	 -13.6353 	 
H 	 -41.1138 	 12.1308 	 -21.0705 	 
*
