! wB97X-D3 SP def2-SVP
%pal
nprocs 24
end

* xyz 0 1
S 	 -95.8061 	 -28.1339 	 -63.4854 	 
C 	 -95.6509 	 -26.4698 	 -63.8907 	 
C 	 -96.6269 	 -25.6897 	 -63.2107 	 
C 	 -97.4026 	 -26.4996 	 -62.3753 	 
C 	 -97.1413 	 -27.8519 	 -62.3596 	 
H 	 -98.1023 	 -26.0785 	 -61.692 	 
C 	 -96.8579 	 -24.1611 	 -63.3864 	 
H 	 -97.8464 	 -23.9611 	 -62.8414 	 
H 	 -96.9262 	 -24.0189 	 -64.4361 	 
C 	 -95.673 	 -23.3496 	 -62.8493 	 
H 	 -95.6253 	 -23.6808 	 -61.778 	 
H 	 -94.7668 	 -23.5637 	 -63.3878 	 
C 	 -95.9897 	 -21.8263 	 -62.9148 	 
H 	 -95.2461 	 -21.2459 	 -62.4162 	 
H 	 -96.128 	 -21.4758 	 -63.9353 	 
H 	 -96.9909 	 -21.5912 	 -62.4336 	 
S 	 -96.5156 	 -29.8031 	 -60.4517 	 
C 	 -97.8272 	 -30.44 	 -59.4687 	 
C 	 -99.0352 	 -30.1851 	 -60.0894 	 
C 	 -98.9335 	 -29.1701 	 -61.1214 	 
C 	 -97.6772 	 -28.8724 	 -61.4602 	 
H 	 -99.9131 	 -30.4889 	 -59.5759 	 
C 	 -100.169 	 -28.6144 	 -61.7752 	 
H 	 -100.694 	 -29.571 	 -62.1304 	 
H 	 -99.8944 	 -28.0501 	 -62.6741 	 
C 	 -101.077 	 -27.7825 	 -60.8771 	 
H 	 -100.461 	 -27.3655 	 -60.0746 	 
H 	 -101.873 	 -28.3711 	 -60.3829 	 
C 	 -102.013 	 -26.7764 	 -61.6795 	 
H 	 -102.796 	 -27.1988 	 -62.219 	 
H 	 -101.559 	 -26.087 	 -62.3371 	 
H 	 -102.468 	 -26.0964 	 -60.967 	 
H 	 -94.8712 	 -25.9924 	 -64.5572 	 
H 	 -97.8814 	 -31.0822 	 -58.6366 	 
*
