! wB97X-D3 SP def2-SVP
%pal
nprocs 24
end

* xyz 0 1
S 	 -56.3918 	 21.5096 	 24.946 	 
C 	 -56.1398 	 20.0262 	 26.0211 	 
C 	 -57.3952 	 19.4122 	 26.1003 	 
C 	 -58.4234 	 19.9079 	 25.2612 	 
C 	 -58.0826 	 20.9929 	 24.4698 	 
H 	 -59.3913 	 19.4989 	 25.1199 	 
C 	 -57.5534 	 18.1303 	 26.9028 	 
H 	 -58.6247 	 17.8259 	 26.8419 	 
H 	 -57.3425 	 18.3976 	 27.9482 	 
C 	 -56.7419 	 16.982 	 26.3131 	 
H 	 -56.724 	 17.0675 	 25.221 	 
H 	 -55.671 	 16.926 	 26.689 	 
C 	 -57.2916 	 15.5724 	 26.5315 	 
H 	 -56.9333 	 14.8024 	 25.8254 	 
H 	 -57.0112 	 15.2971 	 27.5159 	 
H 	 -58.3912 	 15.6685 	 26.4254 	 
S 	 -58.9239 	 23.4575 	 23.4542 	 
C 	 -59.7741 	 23.4817 	 21.9041 	 
C 	 -60.101 	 22.2092 	 21.5763 	 
C 	 -59.6646 	 21.1291 	 22.4029 	 
C 	 -58.7901 	 21.6328 	 23.3799 	 
H 	 -60.6902 	 22.157 	 20.5962 	 
C 	 -59.6893 	 19.6729 	 21.9114 	 
H 	 -60.6943 	 19.5993 	 21.4714 	 
H 	 -59.598 	 19.1097 	 22.8238 	 
C 	 -58.4623 	 19.2617 	 20.9738 	 
H 	 -58.6079 	 19.8568 	 20.0804 	 
H 	 -58.513 	 18.1753 	 20.7194 	 
C 	 -56.9882 	 19.5397 	 21.5008 	 
H 	 -56.2936 	 19.3483 	 20.8237 	 
H 	 -56.8882 	 18.8032 	 22.2925 	 
H 	 -56.9215 	 20.5791 	 21.9246 	 
H 	 -55.2336 	 19.7672 	 26.5674 	 
H 	 -60.1196 	 24.3735 	 21.4067 	 
*
