! wB97X-D3 SP def2-SVP
%pal
nprocs 24
end

* xyz 0 1
S 	 -62.538 	 9.45546 	 -77.3036 	 
C 	 -61.4951 	 10.8471 	 -77.2259 	 
C 	 -62.2606 	 11.9668 	 -77.2474 	 
C 	 -63.6638 	 11.6989 	 -77.2381 	 
C 	 -64.0055 	 10.3922 	 -77.2249 	 
H 	 -64.3743 	 12.4433 	 -77.1808 	 
C 	 -61.6412 	 13.3891 	 -77.0531 	 
H 	 -61.6773 	 13.8348 	 -78.0366 	 
H 	 -60.5651 	 13.2829 	 -76.7576 	 
C 	 -62.3885 	 14.3391 	 -76.097 	 
H 	 -62.1483 	 15.4462 	 -76.319 	 
H 	 -63.4882 	 14.3548 	 -76.3208 	 
C 	 -61.9394 	 14.0819 	 -74.6201 	 
H 	 -60.8567 	 14.3486 	 -74.5818 	 
H 	 -62.4767 	 14.7562 	 -73.9762 	 
H 	 -62.217 	 13.0652 	 -74.2228 	 
S 	 -65.501 	 8.20228 	 -77.7261 	 
C 	 -67.2571 	 8.23822 	 -77.3801 	 
C 	 -67.5345 	 9.37049 	 -76.6333 	 
C 	 -66.4133 	 10.134 	 -76.2614 	 
C 	 -65.2768 	 9.76649 	 -76.94 	 
H 	 -68.5267 	 9.60602 	 -76.3617 	 
C 	 -66.5314 	 11.4151 	 -75.551 	 
H 	 -66.6529 	 12.1859 	 -76.3883 	 
H 	 -65.5816 	 11.638 	 -75.0274 	 
C 	 -67.636 	 11.6623 	 -74.4738 	 
H 	 -67.2919 	 12.6324 	 -74.0967 	 
H 	 -67.6599 	 10.9354 	 -73.6608 	 
C 	 -69.0818 	 12.1117 	 -74.9406 	 
H 	 -69.6509 	 11.222 	 -75.2593 	 
H 	 -68.9361 	 12.8021 	 -75.7016 	 
H 	 -69.5801 	 12.591 	 -74.1634 	 
H 	 -60.468 	 10.8131 	 -77.1492 	 
H 	 -68.0991 	 7.61845 	 -77.6539 	 
*
