! wB97X-D3 SP def2-SVP
%pal
nprocs 24
end

* xyz 0 1
S 	 21.2413 	 -0.235032 	 -113.49 	 
C 	 19.9224 	 -0.392247 	 -114.643 	 
C 	 19.3766 	 0.763311 	 -115.11 	 
C 	 20.0715 	 1.83465 	 -114.565 	 
C 	 21.1478 	 1.53758 	 -113.81 	 
H 	 19.9413 	 2.88141 	 -114.806 	 
C 	 18.2066 	 0.910098 	 -116.056 	 
H 	 17.9146 	 -0.115627 	 -116.334 	 
H 	 18.43 	 1.3908 	 -117.033 	 
C 	 17.0035 	 1.70806 	 -115.423 	 
H 	 16.6222 	 1.03293 	 -114.698 	 
H 	 17.4137 	 2.66735 	 -115.083 	 
C 	 15.8679 	 1.99798 	 -116.363 	 
H 	 15.3366 	 1.08153 	 -116.823 	 
H 	 15.1574 	 2.62404 	 -115.878 	 
H 	 16.3213 	 2.47235 	 -117.242 	 
S 	 23.5135 	 1.96483 	 -112.694 	 
C 	 23.8718 	 3.42666 	 -111.832 	 
C 	 22.7929 	 4.25212 	 -111.738 	 
C 	 21.6053 	 3.70323 	 -112.291 	 
C 	 21.8687 	 2.50804 	 -112.99 	 
H 	 22.8652 	 5.22275 	 -111.231 	 
C 	 20.3402 	 4.48853 	 -112.176 	 
H 	 19.6716 	 4.17741 	 -112.956 	 
H 	 20.6179 	 5.51688 	 -112.537 	 
C 	 19.5757 	 4.44835 	 -110.812 	 
H 	 18.7854 	 5.14943 	 -110.965 	 
H 	 20.266 	 4.74085 	 -110.041 	 
C 	 19.0972 	 3.06696 	 -110.37 	 
H 	 18.2387 	 2.71256 	 -110.951 	 
H 	 18.7342 	 3.14995 	 -109.367 	 
H 	 19.8606 	 2.26868 	 -110.37 	 
H 	 19.4807 	 -1.3618 	 -114.943 	 
H 	 24.7852 	 3.62171 	 -111.246 	 
*
