! wB97X-D3 SP def2-SVP
%pal
nprocs 24
end

* xyz 0 1
S 	 47.2645 	 -19.8219 	 -114.99 	 
C 	 47.589 	 -21.4238 	 -115.593 	 
C 	 47.3408 	 -22.3713 	 -114.663 	 
C 	 47.0974 	 -21.802 	 -113.372 	 
C 	 46.898 	 -20.4442 	 -113.386 	 
H 	 47.0427 	 -22.3744 	 -112.494 	 
C 	 47.3704 	 -23.8588 	 -114.934 	 
H 	 48.2381 	 -24.3795 	 -114.622 	 
H 	 47.4459 	 -23.9953 	 -116.042 	 
C 	 46.2628 	 -24.6354 	 -114.214 	 
H 	 46.328 	 -24.447 	 -113.116 	 
H 	 45.2922 	 -24.1885 	 -114.516 	 
C 	 46.2566 	 -26.1223 	 -114.508 	 
H 	 46.2321 	 -26.3447 	 -115.559 	 
H 	 47.0893 	 -26.7045 	 -114.246 	 
H 	 45.408 	 -26.6387 	 -114.017 	 
S 	 47.5255 	 -18.0555 	 -112.191 	 
C 	 46.9828 	 -17.7227 	 -110.567 	 
C 	 46.3798 	 -18.8022 	 -110.013 	 
C 	 46.1319 	 -19.8461 	 -110.976 	 
C 	 46.6606 	 -19.5961 	 -112.232 	 
H 	 45.9797 	 -18.6482 	 -109.005 	 
C 	 45.3454 	 -21.0592 	 -110.559 	 
H 	 45.0181 	 -21.4785 	 -111.529 	 
H 	 44.4601 	 -20.6812 	 -109.99 	 
C 	 46.0381 	 -22.148 	 -109.879 	 
H 	 46.1226 	 -21.9298 	 -108.8 	 
H 	 46.9947 	 -22.1638 	 -110.295 	 
C 	 45.4248 	 -23.5273 	 -110.068 	 
H 	 44.3364 	 -23.4607 	 -109.841 	 
H 	 45.9263 	 -24.239 	 -109.364 	 
H 	 45.5194 	 -23.9238 	 -111.038 	 
H 	 47.7092 	 -21.7359 	 -116.657 	 
H 	 47.2608 	 -16.7933 	 -110.026 	 
*
