! wB97X-D3 SP def2-SVP
%pal
nprocs 24
end

* xyz 0 1
S 	 -48.6524 	 9.62136 	 -22.656 	 
C 	 -48.0891 	 8.92091 	 -21.1694 	 
C 	 -48.6115 	 9.64222 	 -20.0795 	 
C 	 -49.7167 	 10.4659 	 -20.4465 	 
C 	 -49.9258 	 10.4982 	 -21.8306 	 
H 	 -50.4518 	 10.8915 	 -19.7933 	 
C 	 -48.3604 	 9.22139 	 -18.6317 	 
H 	 -48.2334 	 8.1142 	 -18.5577 	 
H 	 -49.1616 	 9.41938 	 -17.8612 	 
C 	 -47.2634 	 9.93832 	 -17.9021 	 
H 	 -47.6611 	 10.9121 	 -17.6646 	 
H 	 -46.9828 	 9.4995 	 -16.9346 	 
C 	 -45.9399 	 10.0518 	 -18.7855 	 
H 	 -45.4588 	 9.09363 	 -18.9634 	 
H 	 -46.2473 	 10.5074 	 -19.7754 	 
H 	 -45.2115 	 10.7171 	 -18.2264 	 
S 	 -52.6275 	 10.2964 	 -22.1095 	 
C 	 -53.4435 	 11.6093 	 -22.9828 	 
C 	 -52.6488 	 12.3902 	 -23.777 	 
C 	 -51.2736 	 11.9847 	 -23.5939 	 
C 	 -51.0771 	 11.0129 	 -22.5778 	 
H 	 -53.094 	 13.1764 	 -24.3432 	 
C 	 -50.2178 	 12.9084 	 -24.2111 	 
H 	 -49.2073 	 12.377 	 -24.077 	 
H 	 -50.0854 	 13.8336 	 -23.7276 	 
C 	 -50.3175 	 13.1386 	 -25.7393 	 
H 	 -51.2412 	 13.4149 	 -26.1228 	 
H 	 -50.3357 	 12.1666 	 -26.2113 	 
C 	 -49.2573 	 14.1361 	 -26.1413 	 
H 	 -49.4685 	 15.1272 	 -25.7533 	 
H 	 -49.1933 	 14.1786 	 -27.2143 	 
H 	 -48.2951 	 13.8636 	 -25.7303 	 
H 	 -47.3836 	 8.13685 	 -21.0593 	 
H 	 -54.4522 	 11.5634 	 -23.2531 	 
*
