! wB97X-D3 SP def2-SVP
%pal
nprocs 24
end

* xyz 0 1
S 	 -107.836 	 18.1856 	 -115.507 	 
C 	 -106.319 	 18.4965 	 -116.346 	 
C 	 -105.758 	 19.7207 	 -116.029 	 
C 	 -106.601 	 20.3724 	 -115.07 	 
C 	 -107.732 	 19.7031 	 -114.659 	 
H 	 -106.569 	 21.4281 	 -114.771 	 
C 	 -104.659 	 20.3455 	 -116.827 	 
H 	 -104.87 	 21.3377 	 -117.143 	 
H 	 -104.577 	 19.847 	 -117.788 	 
C 	 -103.302 	 20.4071 	 -116.155 	 
H 	 -102.497 	 20.8298 	 -116.805 	 
H 	 -103.327 	 21.2441 	 -115.462 	 
C 	 -102.856 	 19.1024 	 -115.482 	 
H 	 -102.492 	 18.3775 	 -116.22 	 
H 	 -101.997 	 19.1957 	 -114.835 	 
H 	 -103.662 	 18.6178 	 -114.941 	 
S 	 -109.517 	 18.9183 	 -112.723 	 
C 	 -110.643 	 20.1445 	 -112.139 	 
C 	 -110.286 	 21.4017 	 -112.595 	 
C 	 -109.291 	 21.4289 	 -113.581 	 
C 	 -108.759 	 20.1915 	 -113.793 	 
H 	 -110.748 	 22.3374 	 -112.286 	 
C 	 -109.018 	 22.6215 	 -114.456 	 
H 	 -107.99 	 22.7657 	 -114.101 	 
H 	 -109.611 	 23.4259 	 -113.995 	 
C 	 -109.292 	 22.4358 	 -115.969 	 
H 	 -110.395 	 22.1898 	 -116.074 	 
H 	 -108.867 	 21.4964 	 -116.314 	 
C 	 -109.087 	 23.5917 	 -117.003 	 
H 	 -109.499 	 23.309 	 -117.996 	 
H 	 -108.021 	 23.8076 	 -117.147 	 
H 	 -109.689 	 24.4917 	 -116.893 	 
H 	 -105.92 	 17.8346 	 -117.124 	 
H 	 -111.494 	 20.0111 	 -111.563 	 
*
