! wB97X-D3 SP def2-SVP
%pal
nprocs 24
end

* xyz 0 1
S 	 -107.256 	 58.6067 	 -101.878 	 
C 	 -107.423 	 57.2134 	 -100.802 	 
C 	 -107.578 	 57.6035 	 -99.4736 	 
C 	 -107.731 	 58.954 	 -99.3682 	 
C 	 -107.75 	 59.6789 	 -100.574 	 
H 	 -107.84 	 59.4629 	 -98.4385 	 
C 	 -107.579 	 56.688 	 -98.2644 	 
H 	 -107.15 	 55.7729 	 -98.6322 	 
H 	 -108.6 	 56.5204 	 -98.0857 	 
C 	 -106.641 	 57.1419 	 -97.0416 	 
H 	 -105.584 	 57.3196 	 -97.3516 	 
H 	 -107.026 	 58.1339 	 -96.7617 	 
C 	 -106.851 	 56.1869 	 -95.888 	 
H 	 -106.745 	 55.167 	 -96.2961 	 
H 	 -106.066 	 56.2163 	 -95.096 	 
H 	 -107.855 	 56.2248 	 -95.4207 	 
S 	 -106.744 	 61.932 	 -101.437 	 
C 	 -107.645 	 63.3588 	 -101.324 	 
C 	 -108.958 	 63.2544 	 -100.889 	 
C 	 -109.23 	 61.8323 	 -100.657 	 
C 	 -108.063 	 61.065 	 -100.728 	 
H 	 -109.757 	 63.9896 	 -100.811 	 
C 	 -110.564 	 61.2398 	 -100.324 	 
H 	 -110.781 	 61.0935 	 -99.2697 	 
H 	 -110.547 	 60.2475 	 -100.755 	 
C 	 -111.804 	 61.962 	 -100.925 	 
H 	 -111.681 	 61.678 	 -102.002 	 
H 	 -111.68 	 63.0212 	 -100.867 	 
C 	 -113.219 	 61.4979 	 -100.429 	 
H 	 -113.942 	 62.269 	 -100.812 	 
H 	 -113.237 	 61.4844 	 -99.2764 	 
H 	 -113.412 	 60.5227 	 -100.841 	 
H 	 -107.205 	 56.2257 	 -101.215 	 
H 	 -107.357 	 64.335 	 -101.842 	 
*
