! wB97X-D3 SP def2-SVP
%pal
nprocs 24
end

* xyz 0 1
S 	 -115.949 	 46.0875 	 -112.677 	 
C 	 -116.762 	 44.5585 	 -112.945 	 
C 	 -116.228 	 43.5563 	 -112.123 	 
C 	 -115.058 	 44.0477 	 -111.334 	 
C 	 -114.674 	 45.3394 	 -111.696 	 
H 	 -114.514 	 43.4188 	 -110.637 	 
C 	 -116.74 	 42.1448 	 -112.007 	 
H 	 -115.832 	 41.5721 	 -111.718 	 
H 	 -117.001 	 41.81 	 -113.042 	 
C 	 -118.012 	 41.8782 	 -111.205 	 
H 	 -118.008 	 42.5572 	 -110.311 	 
H 	 -118.855 	 42.2166 	 -111.821 	 
C 	 -118.187 	 40.3753 	 -110.878 	 
H 	 -118.142 	 39.6028 	 -111.665 	 
H 	 -117.672 	 40.0507 	 -109.996 	 
H 	 -119.286 	 40.1687 	 -110.697 	 
S 	 -113.999 	 47.4297 	 -110.237 	 
C 	 -112.475 	 47.4511 	 -109.459 	 
C 	 -111.512 	 46.647 	 -110.037 	 
C 	 -112.23 	 45.7189 	 -110.899 	 
C 	 -113.538 	 46.0477 	 -111.129 	 
H 	 -110.438 	 46.7345 	 -109.816 	 
C 	 -111.464 	 44.587 	 -111.521 	 
H 	 -112.106 	 43.6705 	 -111.465 	 
H 	 -110.618 	 44.3287 	 -110.879 	 
C 	 -110.939 	 44.671 	 -112.944 	 
H 	 -109.949 	 44.0778 	 -112.96 	 
H 	 -110.675 	 45.6564 	 -113.267 	 
C 	 -111.949 	 44.1801 	 -114.023 	 
H 	 -112.247 	 43.1463 	 -113.82 	 
H 	 -111.525 	 44.2888 	 -115.046 	 
H 	 -112.814 	 44.7863 	 -113.949 	 
H 	 -117.445 	 44.3706 	 -113.763 	 
H 	 -112.196 	 48.2755 	 -108.798 	 
*
