! wB97X-D3 SP def2-SVP
%pal
nprocs 24
end

* xyz 0 1
S 	 -46.0291 	 28.0253 	 25.8799 	 
C 	 -47.0984 	 27.5007 	 27.1118 	 
C 	 -46.7219 	 26.233 	 27.5996 	 
C 	 -45.8369 	 25.6465 	 26.6808 	 
C 	 -45.4135 	 26.3469 	 25.6163 	 
H 	 -45.3961 	 24.6208 	 26.9707 	 
C 	 -47.3163 	 25.5975 	 28.8666 	 
H 	 -47.4383 	 24.559 	 28.7043 	 
H 	 -48.3147 	 25.9191 	 28.9933 	 
C 	 -46.4533 	 25.8255 	 30.1775 	 
H 	 -45.3746 	 25.682 	 30.1193 	 
H 	 -46.428 	 26.8614 	 30.3601 	 
C 	 -47.0687 	 25.282 	 31.4783 	 
H 	 -48.005 	 25.826 	 31.4887 	 
H 	 -47.2987 	 24.2862 	 31.4279 	 
H 	 -46.4495 	 25.516 	 32.3573 	 
S 	 -42.9101 	 27.2299 	 24.7702 	 
C 	 -41.8473 	 26.2254 	 23.8408 	 
C 	 -42.5069 	 25.0774 	 23.5098 	 
C 	 -43.8616 	 24.9542 	 23.9872 	 
C 	 -44.24 	 26.0569 	 24.7863 	 
H 	 -42.0937 	 24.3194 	 22.869 	 
C 	 -44.6429 	 23.6579 	 23.989 	 
H 	 -45.7308 	 24.0245 	 23.8367 	 
H 	 -44.5051 	 23.1575 	 24.9987 	 
C 	 -44.3792 	 22.6323 	 22.8275 	 
H 	 -43.2831 	 22.4903 	 22.7181 	 
H 	 -44.6772 	 23.0245 	 21.8635 	 
C 	 -45.2163 	 21.3039 	 23.1039 	 
H 	 -45.0543 	 20.4444 	 22.4744 	 
H 	 -46.2669 	 21.5249 	 23.0978 	 
H 	 -44.9082 	 20.923 	 24.0826 	 
H 	 -47.7567 	 28.2303 	 27.6304 	 
H 	 -40.915 	 26.4432 	 23.4846 	 
*
