! wB97X-D3 SP def2-SVP
%pal
nprocs 24
end

* xyz 0 1
S 	 -52.2266 	 24.4732 	 29.2723 	 
C 	 -53.1319 	 25.8848 	 28.8272 	 
C 	 -53.1979 	 25.9505 	 27.4436 	 
C 	 -52.262 	 25.0939 	 26.8115 	 
C 	 -51.6162 	 24.2912 	 27.6556 	 
H 	 -52.1346 	 25.0099 	 25.7814 	 
C 	 -53.9978 	 26.8897 	 26.5497 	 
H 	 -54.752 	 26.2418 	 26.1273 	 
H 	 -53.4511 	 27.0778 	 25.626 	 
C 	 -54.6725 	 28.1124 	 27.2237 	 
H 	 -55.3815 	 28.493 	 26.4477 	 
H 	 -55.3018 	 27.8533 	 28.0758 	 
C 	 -53.696 	 29.1523 	 27.6978 	 
H 	 -53.2082 	 28.7467 	 28.5783 	 
H 	 -52.9151 	 29.2818 	 26.8597 	 
H 	 -54.1506 	 30.1035 	 28.0063 	 
S 	 -50.991 	 21.9082 	 26.4481 	 
C 	 -49.2298 	 21.5341 	 26.255 	 
C 	 -48.4699 	 22.426 	 26.9623 	 
C 	 -49.2318 	 23.541 	 27.5214 	 
C 	 -50.5744 	 23.3692 	 27.2559 	 
H 	 -47.441 	 22.2027 	 26.9832 	 
C 	 -48.5887 	 24.6375 	 28.4148 	 
H 	 -49.3291 	 25.4341 	 28.5559 	 
H 	 -47.7265 	 25.0534 	 27.9061 	 
C 	 -48.2327 	 24.2398 	 29.8045 	 
H 	 -47.2732 	 23.6972 	 29.8323 	 
H 	 -48.9488 	 23.6685 	 30.3811 	 
C 	 -48.0339 	 25.5019 	 30.6543 	 
H 	 -48.8896 	 26.187 	 30.6635 	 
H 	 -47.1826 	 26.045 	 30.2683 	 
H 	 -47.848 	 25.3039 	 31.761 	 
H 	 -53.7037 	 26.4337 	 29.5174 	 
H 	 -48.9182 	 20.6197 	 25.704 	 
*
