! wB97X-D3 SP def2-SVP
%pal
nprocs 24
end

* xyz 0 1
S 	 -82.1542 	 -12.4888 	 -59.0174 	 
C 	 -81.1495 	 -11.0273 	 -58.9375 	 
C 	 -80.4622 	 -10.8593 	 -60.1636 	 
C 	 -80.6483 	 -11.9857 	 -61.0491 	 
C 	 -81.4411 	 -13.0085 	 -60.5234 	 
H 	 -80.2872 	 -12.0321 	 -62.1242 	 
C 	 -79.7056 	 -9.55499 	 -60.5135 	 
H 	 -79.9503 	 -8.84963 	 -59.7035 	 
H 	 -80.1088 	 -9.30352 	 -61.48 	 
C 	 -78.2306 	 -9.70283 	 -60.743 	 
H 	 -77.9151 	 -9.8883 	 -59.7031 	 
H 	 -78.1571 	 -10.6791 	 -61.2904 	 
C 	 -77.3578 	 -8.61665 	 -61.4217 	 
H 	 -76.4211 	 -9.02243 	 -61.6733 	 
H 	 -77.7606 	 -8.28248 	 -62.3425 	 
H 	 -77.1515 	 -7.74586 	 -60.804 	 
S 	 -80.6648 	 -15.6407 	 -60.8488 	 
C 	 -81.633 	 -16.6645 	 -61.9588 	 
C 	 -82.6212 	 -15.9507 	 -62.5578 	 
C 	 -82.7874 	 -14.5794 	 -62.0532 	 
C 	 -81.7605 	 -14.2944 	 -61.1332 	 
H 	 -83.2579 	 -16.4853 	 -63.2711 	 
C 	 -83.9167 	 -13.6582 	 -62.4981 	 
H 	 -83.9154 	 -12.7641 	 -61.8437 	 
H 	 -84.7993 	 -14.1446 	 -62.2141 	 
C 	 -83.9464 	 -13.3104 	 -64.0683 	 
H 	 -84.9481 	 -12.9842 	 -64.3599 	 
H 	 -83.5928 	 -14.2138 	 -64.6152 	 
C 	 -82.9568 	 -12.1104 	 -64.4185 	 
H 	 -81.9517 	 -12.4315 	 -64.1861 	 
H 	 -83.1839 	 -11.1332 	 -63.8779 	 
H 	 -82.9971 	 -11.7783 	 -65.4392 	 
H 	 -81.257 	 -10.2924 	 -58.1292 	 
H 	 -81.396 	 -17.6594 	 -62.1996 	 
*
