! wB97X-D3 SP def2-SVP
%pal
nprocs 24
end

* xyz 0 1
S 	 -133.851 	 68.5478 	 -55.9752 	 
C 	 -134.382 	 66.9744 	 -56.6383 	 
C 	 -135.771 	 66.8429 	 -56.566 	 
C 	 -136.336 	 67.9466 	 -55.8572 	 
C 	 -135.488 	 68.9795 	 -55.5087 	 
H 	 -137.314 	 67.9502 	 -55.5512 	 
C 	 -136.571 	 65.8116 	 -57.3548 	 
H 	 -135.947 	 64.9475 	 -57.5071 	 
H 	 -136.925 	 66.2031 	 -58.3351 	 
C 	 -137.891 	 65.3747 	 -56.679 	 
H 	 -138.325 	 66.3061 	 -56.2787 	 
H 	 -138.649 	 65.0334 	 -57.4017 	 
C 	 -137.683 	 64.5065 	 -55.4973 	 
H 	 -137.224 	 63.6064 	 -55.9077 	 
H 	 -136.975 	 64.9293 	 -54.7166 	 
H 	 -138.622 	 64.2528 	 -54.9962 	 
S 	 -134.429 	 71.2732 	 -54.4788 	 
C 	 -135.352 	 72.2571 	 -53.4203 	 
C 	 -136.472 	 71.6634 	 -52.9416 	 
C 	 -136.72 	 70.429 	 -53.6357 	 
C 	 -135.779 	 70.1275 	 -54.6222 	 
H 	 -137.077 	 72.0741 	 -52.1585 	 
C 	 -137.901 	 69.4777 	 -53.3076 	 
H 	 -138.289 	 69.6801 	 -52.2652 	 
H 	 -137.452 	 68.4634 	 -53.2591 	 
C 	 -139.08 	 69.4499 	 -54.2714 	 
H 	 -138.698 	 69.5409 	 -55.2677 	 
H 	 -139.615 	 70.36 	 -54.2271 	 
C 	 -139.926 	 68.173 	 -54.1805 	 
H 	 -140.401 	 68.0114 	 -53.1837 	 
H 	 -139.168 	 67.3805 	 -54.2906 	 
H 	 -140.644 	 67.9771 	 -55.0203 	 
H 	 -133.825 	 66.4207 	 -57.344 	 
H 	 -134.901 	 73.1601 	 -52.9263 	 
*
