! wB97X-D3 SP def2-SVP
%pal
nprocs 24
end

* xyz 0 1
S 	 -122.747 	 51.242 	 -36.7773 	 
C 	 -121.743 	 51.3102 	 -38.152 	 
C 	 -122.318 	 52.104 	 -39.1337 	 
C 	 -123.665 	 52.5715 	 -38.7349 	 
C 	 -124.096 	 52.0018 	 -37.527 	 
H 	 -124.321 	 53.2508 	 -39.2069 	 
C 	 -121.628 	 52.4593 	 -40.3896 	 
H 	 -122.191 	 52.0018 	 -41.1976 	 
H 	 -120.691 	 51.9425 	 -40.4022 	 
C 	 -121.449 	 53.933 	 -40.757 	 
H 	 -120.715 	 53.9973 	 -41.5225 	 
H 	 -122.332 	 54.2424 	 -41.2174 	 
C 	 -121.02 	 54.8468 	 -39.5944 	 
H 	 -120.707 	 55.8009 	 -40.0331 	 
H 	 -121.832 	 54.9631 	 -38.8802 	 
H 	 -120.2 	 54.449 	 -38.9815 	 
S 	 -125.432 	 52.452 	 -35.1569 	 
C 	 -127.106 	 52.8798 	 -35.1393 	 
C 	 -127.705 	 52.4798 	 -36.3674 	 
C 	 -126.723 	 52.0657 	 -37.3036 	 
C 	 -125.399 	 52.0663 	 -36.8633 	 
H 	 -128.804 	 52.6096 	 -36.5015 	 
C 	 -127.152 	 51.6829 	 -38.6646 	 
H 	 -127.96 	 50.9546 	 -38.7761 	 
H 	 -126.276 	 51.2876 	 -39.1264 	 
C 	 -127.489 	 52.9153 	 -39.5519 	 
H 	 -126.623 	 53.6455 	 -39.6756 	 
H 	 -128.284 	 53.4789 	 -39.0198 	 
C 	 -127.97 	 52.632 	 -41.0264 	 
H 	 -127.2 	 52.4053 	 -41.7316 	 
H 	 -128.644 	 53.3793 	 -41.4301 	 
H 	 -128.599 	 51.7005 	 -41.027 	 
H 	 -120.671 	 50.9613 	 -38.1634 	 
H 	 -127.721 	 53.1266 	 -34.2634 	 
*
