! wB97X-D3 SP def2-SVP
%pal
nprocs 24
end

* xyz 0 1
S 	 -142.054 	 29.1556 	 -15.811 	 
C 	 -141.007 	 28.8804 	 -14.4186 	 
C 	 -140.18 	 27.8011 	 -14.7076 	 
C 	 -140.649 	 27.0858 	 -15.8127 	 
C 	 -141.652 	 27.6795 	 -16.5462 	 
H 	 -140.285 	 26.181 	 -16.2709 	 
C 	 -139.056 	 27.3403 	 -13.7496 	 
H 	 -138.401 	 28.1636 	 -13.7546 	 
H 	 -138.554 	 26.4447 	 -14.1719 	 
C 	 -139.467 	 27.0528 	 -12.2792 	 
H 	 -138.754 	 27.2756 	 -11.5647 	 
H 	 -140.342 	 27.6872 	 -12.1941 	 
C 	 -139.977 	 25.5959 	 -12.0487 	 
H 	 -140.498 	 25.1776 	 -12.9098 	 
H 	 -139.237 	 24.8839 	 -11.7626 	 
H 	 -140.671 	 25.6546 	 -11.1945 	 
S 	 -141.763 	 28.38 	 -19.3248 	 
C 	 -142.528 	 27.1898 	 -20.3944 	 
C 	 -143.005 	 26.0929 	 -19.7713 	 
C 	 -142.644 	 26.1168 	 -18.3862 	 
C 	 -142.165 	 27.2856 	 -17.8966 	 
H 	 -143.498 	 25.3688 	 -20.4205 	 
C 	 -142.917 	 24.8534 	 -17.5883 	 
H 	 -143.895 	 24.4812 	 -17.8902 	 
H 	 -143.021 	 25.0547 	 -16.5993 	 
C 	 -141.867 	 23.7774 	 -17.7419 	 
H 	 -140.929 	 24.2175 	 -17.5341 	 
H 	 -141.946 	 23.7481 	 -18.864 	 
C 	 -142.185 	 22.4145 	 -17.0789 	 
H 	 -142.178 	 22.5516 	 -15.9636 	 
H 	 -141.405 	 21.6188 	 -17.2945 	 
H 	 -143.183 	 22.0917 	 -17.3297 	 
H 	 -140.839 	 29.5475 	 -13.6199 	 
H 	 -142.773 	 27.2675 	 -21.4512 	 
*
