! wB97X-D3 SP def2-SVP
%pal
nprocs 24
end

* xyz 0 1
S 	 -135.512 	 11.1141 	 -14.5974 	 
C 	 -135.066 	 9.61027 	 -13.6381 	 
C 	 -133.738 	 9.31497 	 -13.7954 	 
C 	 -133.144 	 10.176 	 -14.7491 	 
C 	 -133.879 	 11.2594 	 -15.1749 	 
H 	 -132.128 	 10.0947 	 -15.1593 	 
C 	 -133.095 	 8.00258 	 -13.2078 	 
H 	 -133.96 	 7.36376 	 -12.9934 	 
H 	 -132.717 	 8.14938 	 -12.2215 	 
C 	 -132.038 	 7.27644 	 -14.0947 	 
H 	 -132.549 	 7.01482 	 -15.0996 	 
H 	 -131.176 	 7.87675 	 -14.3952 	 
C 	 -131.616 	 6.00287 	 -13.3507 	 
H 	 -131.443 	 6.17607 	 -12.2974 	 
H 	 -132.408 	 5.2836 	 -13.5589 	 
H 	 -130.759 	 5.5209 	 -13.8564 	 
S 	 -133.521 	 13.987 	 -15.5038 	 
C 	 -133.093 	 14.584 	 -17.1059 	 
C 	 -132.833 	 13.5367 	 -17.9746 	 
C 	 -133.026 	 12.2659 	 -17.3553 	 
C 	 -133.438 	 12.3243 	 -16.0284 	 
H 	 -132.616 	 13.7002 	 -18.9705 	 
C 	 -133.097 	 11.0379 	 -18.2246 	 
H 	 -133.442 	 11.4235 	 -19.1692 	 
H 	 -133.972 	 10.4539 	 -17.9743 	 
C 	 -131.784 	 10.1188 	 -18.4304 	 
H 	 -131.377 	 9.68884 	 -17.4728 	 
H 	 -131.075 	 10.8796 	 -18.6992 	 
C 	 -132.022 	 9.00506 	 -19.4282 	 
H 	 -131.287 	 8.87008 	 -20.1969 	 
H 	 -132.893 	 9.08654 	 -19.9734 	 
H 	 -132.113 	 8.15352 	 -18.802 	 
H 	 -135.815 	 8.96546 	 -13.1201 	 
H 	 -133.09 	 15.6407 	 -17.3314 	 
*
