! wB97X-D3 SP def2-SVP
%pal
nprocs 24
end

* xyz 0 1
S 	 -137.007 	 13.6358 	 0.277058 	 
C 	 -137.134 	 12.5316 	 1.63164 	 
C 	 -135.919 	 12.2979 	 2.25635 	 
C 	 -134.884 	 13.0638 	 1.61402 	 
C 	 -135.324 	 13.8208 	 0.523791 	 
H 	 -133.868 	 13.0884 	 1.92185 	 
C 	 -135.709 	 11.3438 	 3.39526 	 
H 	 -136.395 	 10.6068 	 3.31514 	 
H 	 -135.894 	 11.8734 	 4.29484 	 
C 	 -134.349 	 10.5951 	 3.50294 	 
H 	 -133.581 	 11.3792 	 3.77362 	 
H 	 -134.342 	 9.85258 	 4.37084 	 
C 	 -134.023 	 9.84918 	 2.20382 	 
H 	 -132.998 	 9.59079 	 2.24463 	 
H 	 -134.627 	 9.02314 	 2.16352 	 
H 	 -134.246 	 10.5232 	 1.31595 	 
S 	 -134.893 	 16.1936 	 -0.824106 	 
C 	 -133.386 	 16.3237 	 -1.76012 	 
C 	 -132.648 	 15.1413 	 -1.82793 	 
C 	 -133.256 	 14.0707 	 -1.04043 	 
C 	 -134.456 	 14.5076 	 -0.417463 	 
H 	 -131.658 	 15.1102 	 -2.17654 	 
C 	 -132.574 	 12.7595 	 -0.753397 	 
H 	 -132.306 	 12.4188 	 -1.70143 	 
H 	 -133.205 	 12.0671 	 -0.311898 	 
C 	 -131.321 	 12.9581 	 0.0563767 	 
H 	 -131.493 	 13.5195 	 0.979738 	 
H 	 -130.663 	 13.7042 	 -0.406112 	 
C 	 -130.574 	 11.6304 	 0.370774 	 
H 	 -129.776 	 11.7103 	 1.18084 	 
H 	 -129.923 	 11.2202 	 -0.403727 	 
H 	 -131.247 	 10.807 	 0.699139 	 
H 	 -138.017 	 12.0095 	 1.98358 	 
H 	 -133.118 	 17.2529 	 -2.23694 	 
*
