! wB97X-D3 SP def2-SVP
%pal
nprocs 24
end

* xyz 0 1
S 	 -102.562 	 3.91139 	 -114.102 	 
C 	 -103.147 	 3.8552 	 -115.833 	 
C 	 -103.707 	 2.6378 	 -116.094 	 
C 	 -103.631 	 1.71702 	 -115.011 	 
C 	 -102.978 	 2.20643 	 -113.875 	 
H 	 -104.022 	 0.729841 	 -115.017 	 
C 	 -104.428 	 2.19694 	 -117.339 	 
H 	 -104.011 	 1.38155 	 -117.89 	 
H 	 -104.282 	 3.03138 	 -118.04 	 
C 	 -105.935 	 2.04098 	 -117.15 	 
H 	 -106.142 	 1.18495 	 -116.544 	 
H 	 -106.339 	 2.75856 	 -116.4 	 
C 	 -106.843 	 2.09755 	 -118.412 	 
H 	 -106.862 	 2.98799 	 -118.998 	 
H 	 -106.461 	 1.24493 	 -118.964 	 
H 	 -107.797 	 1.90828 	 -118.041 	 
S 	 -103.598 	 2.05826 	 -111.199 	 
C 	 -103.041 	 0.667759 	 -110.296 	 
C 	 -102.184 	 -0.112913 	 -111.03 	 
C 	 -102.185 	 0.283214 	 -112.405 	 
C 	 -102.765 	 1.49861 	 -112.649 	 
H 	 -101.889 	 -1.02776 	 -110.58 	 
C 	 -101.49 	 -0.549437 	 -113.446 	 
H 	 -101.663 	 -0.0430715 	 -114.435 	 
H 	 -101.836 	 -1.57443 	 -113.42 	 
C 	 -99.9372 	 -0.528398 	 -113.254 	 
H 	 -99.5675 	 -1.06594 	 -112.403 	 
H 	 -99.4792 	 0.553894 	 -113.1 	 
C 	 -99.2871 	 -1.18458 	 -114.471 	 
H 	 -99.5109 	 -0.589517 	 -115.356 	 
H 	 -99.541 	 -2.21107 	 -114.548 	 
H 	 -98.2151 	 -1.17642 	 -114.326 	 
H 	 -103.175 	 4.67584 	 -116.503 	 
H 	 -103.455 	 0.365548 	 -109.357 	 
*
