! wB97X-D3 SP def2-SVP
%pal
nprocs 24
end

* xyz 0 1
S 	 -99.1837 	 5.48603 	 -120.717 	 
C 	 -99.9845 	 4.69926 	 -122.067 	 
C 	 -101.148 	 4.09461 	 -121.72 	 
C 	 -101.467 	 4.3659 	 -120.304 	 
C 	 -100.449 	 4.98906 	 -119.64 	 
H 	 -102.305 	 4.03872 	 -119.859 	 
C 	 -102.081 	 3.26423 	 -122.645 	 
H 	 -101.952 	 3.74741 	 -123.614 	 
H 	 -103.13 	 3.44967 	 -122.356 	 
C 	 -101.98 	 1.70617 	 -122.892 	 
H 	 -102.167 	 1.2338 	 -121.934 	 
H 	 -102.818 	 1.29697 	 -123.433 	 
C 	 -100.68 	 1.15614 	 -123.45 	 
H 	 -100.393 	 1.56112 	 -124.399 	 
H 	 -99.9575 	 1.60364 	 -122.717 	 
H 	 -100.66 	 0.095809 	 -123.56 	 
S 	 -102.11 	 5.60794 	 -117.529 	 
C 	 -101.463 	 6.15072 	 -116.023 	 
C 	 -100.129 	 6.18566 	 -116.084 	 
C 	 -99.544 	 5.83294 	 -117.344 	 
C 	 -100.497 	 5.35665 	 -118.209 	 
H 	 -99.5782 	 6.41588 	 -115.201 	 
C 	 -98.0602 	 5.98555 	 -117.619 	 
H 	 -97.8224 	 6.69134 	 -116.869 	 
H 	 -97.7893 	 6.39884 	 -118.613 	 
C 	 -97.0954 	 4.77565 	 -117.527 	 
H 	 -97.3998 	 4.06042 	 -118.235 	 
H 	 -97.2212 	 4.29763 	 -116.61 	 
C 	 -95.587 	 5.16025 	 -117.898 	 
H 	 -94.8841 	 4.32618 	 -117.727 	 
H 	 -95.4342 	 5.93445 	 -117.262 	 
H 	 -95.4936 	 5.475 	 -118.933 	 
H 	 -99.6523 	 4.89044 	 -123.127 	 
H 	 -101.978 	 6.55833 	 -115.206 	 
*
