! wB97X-D3 SP def2-SVP
%pal
nprocs 24
end

* xyz 0 1
S 	 -99.2324 	 38.5229 	 -80.8202 	 
C 	 -99.197 	 36.7556 	 -80.8497 	 
C 	 -99.3054 	 36.314 	 -82.1642 	 
C 	 -99.4528 	 37.3914 	 -83.078 	 
C 	 -99.543 	 38.6444 	 -82.5101 	 
H 	 -99.5623 	 37.1946 	 -84.1877 	 
C 	 -99.3755 	 34.8731 	 -82.649 	 
H 	 -99.0093 	 34.9012 	 -83.6799 	 
H 	 -100.442 	 34.5175 	 -82.7855 	 
C 	 -98.4999 	 33.8194 	 -81.9814 	 
H 	 -97.4686 	 33.9959 	 -82.1707 	 
H 	 -98.7529 	 33.7268 	 -80.946 	 
C 	 -98.7191 	 32.4723 	 -82.5458 	 
H 	 -99.6736 	 32.0368 	 -82.3819 	 
H 	 -98.4885 	 32.5713 	 -83.6252 	 
H 	 -98.0001 	 31.7974 	 -82.2447 	 
S 	 -101.697 	 40.2954 	 -82.826 	 
C 	 -101.751 	 41.5338 	 -84.0678 	 
C 	 -100.581 	 41.5287 	 -84.8357 	 
C 	 -99.6735 	 40.4865 	 -84.4186 	 
C 	 -100.01 	 39.827 	 -83.2447 	 
H 	 -100.514 	 42.1399 	 -85.6769 	 
C 	 -98.5131 	 40.1177 	 -85.2974 	 
H 	 -97.6853 	 39.7184 	 -84.6917 	 
H 	 -98.0949 	 41.0819 	 -85.7302 	 
C 	 -98.9362 	 39.1908 	 -86.4399 	 
H 	 -99.8433 	 39.6671 	 -86.8059 	 
H 	 -99.1567 	 38.1989 	 -85.9951 	 
C 	 -97.9709 	 39.0591 	 -87.5606 	 
H 	 -97.5837 	 40.0528 	 -87.855 	 
H 	 -98.4485 	 38.5175 	 -88.3638 	 
H 	 -97.1139 	 38.4643 	 -87.1948 	 
H 	 -99.1103 	 36.0868 	 -80.0259 	 
H 	 -102.547 	 42.22 	 -84.3196 	 
*
