! wB97X-D3 SP def2-SVP
%pal
nprocs 24
end

* xyz 0 1
S 	 -48.5814 	 16.8366 	 20.4353 	 
C 	 -49.4549 	 16.2779 	 21.749 	 
C 	 -50.0957 	 15.1073 	 21.5006 	 
C 	 -49.9128 	 14.7345 	 20.1425 	 
C 	 -49.0296 	 15.4793 	 19.4663 	 
H 	 -50.2706 	 13.8956 	 19.6789 	 
C 	 -50.8765 	 14.2918 	 22.4785 	 
H 	 -51.2219 	 13.3836 	 21.9587 	 
H 	 -51.6952 	 14.8953 	 22.8177 	 
C 	 -50.0906 	 13.8131 	 23.6476 	 
H 	 -49.652 	 14.7064 	 24.054 	 
H 	 -50.7826 	 13.5301 	 24.4148 	 
C 	 -49.0261 	 12.7052 	 23.3919 	 
H 	 -49.4491 	 11.8175 	 22.8961 	 
H 	 -48.2439 	 13.1887 	 22.8389 	 
H 	 -48.59 	 12.2255 	 24.3351 	 
S 	 -47.9911 	 13.6681 	 17.629 	 
C 	 -47.6695 	 14.2147 	 16.0515 	 
C 	 -47.9527 	 15.5199 	 15.8087 	 
C 	 -48.4563 	 16.1848 	 16.9791 	 
C 	 -48.5304 	 15.3067 	 18.0826 	 
H 	 -47.9159 	 15.9389 	 14.8169 	 
C 	 -48.9418 	 17.5683 	 16.9021 	 
H 	 -48.0412 	 18.1034 	 16.7392 	 
H 	 -49.55 	 17.8538 	 17.8084 	 
C 	 -49.8357 	 17.9079 	 15.7361 	 
H 	 -50.7128 	 17.2429 	 15.8287 	 
H 	 -49.2624 	 17.7103 	 14.8022 	 
C 	 -50.2188 	 19.4012 	 15.758 	 
H 	 -50.9501 	 19.5665 	 14.9155 	 
H 	 -49.4157 	 20.0176 	 15.5645 	 
H 	 -50.8129 	 19.5731 	 16.7345 	 
H 	 -49.4757 	 16.5994 	 22.7897 	 
H 	 -47.2386 	 13.4733 	 15.3412 	 
*
