! wB97X-D3 SP def2-SVP
%pal
nprocs 24
end

* xyz 0 1
S 	 -108.385 	 3.39302 	 -114.54 	 
C 	 -108.755 	 3.57932 	 -116.251 	 
C 	 -107.647 	 3.38191 	 -117.072 	 
C 	 -106.471 	 3.20168 	 -116.299 	 
C 	 -106.648 	 3.22131 	 -114.908 	 
H 	 -105.477 	 3.11726 	 -116.683 	 
C 	 -107.598 	 3.35543 	 -118.592 	 
H 	 -107.809 	 2.35191 	 -118.881 	 
H 	 -106.606 	 3.50577 	 -118.915 	 
C 	 -108.589 	 4.19101 	 -119.376 	 
H 	 -109.654 	 3.98977 	 -119.206 	 
H 	 -108.41 	 5.25359 	 -119.253 	 
C 	 -108.444 	 3.89868 	 -120.911 	 
H 	 -108.969 	 4.70792 	 -121.404 	 
H 	 -107.394 	 3.9176 	 -121.262 	 
H 	 -108.986 	 2.99698 	 -121.251 	 
S 	 -105.093 	 4.28774 	 -112.912 	 
C 	 -104.323 	 3.27932 	 -111.765 	 
C 	 -104.289 	 1.94 	 -112.174 	 
C 	 -105.047 	 1.77094 	 -113.387 	 
C 	 -105.68 	 2.97409 	 -113.857 	 
H 	 -103.746 	 1.30249 	 -111.548 	 
C 	 -105.235 	 0.439757 	 -114.056 	 
H 	 -104.628 	 -0.219299 	 -113.532 	 
H 	 -104.959 	 0.508565 	 -115.067 	 
C 	 -106.708 	 -0.0889269 	 -114.017 	 
H 	 -106.861 	 -0.739443 	 -114.811 	 
H 	 -107.376 	 0.755222 	 -114.208 	 
C 	 -107.085 	 -0.69582 	 -112.596 	 
H 	 -107.2 	 0.123887 	 -111.824 	 
H 	 -106.499 	 -1.5569 	 -112.226 	 
H 	 -108.065 	 -1.1039 	 -112.706 	 
H 	 -109.75 	 3.53828 	 -116.738 	 
H 	 -103.728 	 3.68328 	 -110.935 	 
*
