! wB97X-D3 SP def2-SVP
%pal
nprocs 24
end

* xyz 0 1
S 	 -100.312 	 15.9653 	 -121.571 	 
C 	 -99.2379 	 16.4795 	 -120.312 	 
C 	 -99.0693 	 15.5238 	 -119.381 	 
C 	 -99.3994 	 14.2101 	 -119.886 	 
C 	 -99.965 	 14.2806 	 -121.201 	 
H 	 -99.2562 	 13.3438 	 -119.317 	 
C 	 -98.4042 	 15.5929 	 -118.064 	 
H 	 -97.6064 	 16.2795 	 -118.096 	 
H 	 -97.7969 	 14.6397 	 -118.045 	 
C 	 -99.3618 	 15.7101 	 -116.769 	 
H 	 -99.9357 	 14.7578 	 -116.654 	 
H 	 -98.7213 	 15.803 	 -115.868 	 
C 	 -100.311 	 16.8643 	 -116.769 	 
H 	 -99.7583 	 17.7924 	 -116.876 	 
H 	 -101.02 	 16.9371 	 -117.595 	 
H 	 -100.941 	 16.867 	 -115.888 	 
S 	 -100.224 	 13.6861 	 -123.847 	 
C 	 -100.707 	 12.0945 	 -124.282 	 
C 	 -100.828 	 11.2431 	 -123.232 	 
C 	 -100.648 	 11.8952 	 -121.988 	 
C 	 -100.395 	 13.2542 	 -122.113 	 
H 	 -101.133 	 10.2279 	 -123.394 	 
C 	 -100.722 	 11.1269 	 -120.703 	 
H 	 -101.573 	 10.4237 	 -120.728 	 
H 	 -100.835 	 11.7342 	 -119.819 	 
C 	 -99.6265 	 10.0858 	 -120.239 	 
H 	 -99.5966 	 9.21983 	 -120.908 	 
H 	 -99.7533 	 9.68127 	 -119.217 	 
C 	 -98.1998 	 10.6256 	 -120.218 	 
H 	 -97.9476 	 11.3124 	 -119.377 	 
H 	 -98.0524 	 11.1963 	 -121.106 	 
H 	 -97.4385 	 9.8559 	 -120.227 	 
H 	 -98.8356 	 17.5045 	 -120.08 	 
H 	 -100.7 	 11.758 	 -125.337 	 
*
