! wB97X-D3 SP def2-SVP
%pal
nprocs 24
end

* xyz 0 1
S 	 -90.1315 	 -47.946 	 -81.2848 	 
C 	 -91.6083 	 -48.378 	 -80.3741 	 
C 	 -91.2796 	 -48.8745 	 -79.0561 	 
C 	 -89.8584 	 -49.0636 	 -78.9013 	 
C 	 -89.1019 	 -48.7019 	 -80.0142 	 
H 	 -89.3717 	 -49.4561 	 -78.0446 	 
C 	 -92.3218 	 -49.1824 	 -78.0028 	 
H 	 -93.2922 	 -48.6343 	 -78.1613 	 
H 	 -91.8309 	 -48.8995 	 -77.0941 	 
C 	 -92.7787 	 -50.6026 	 -77.8253 	 
H 	 -93.5194 	 -50.8606 	 -78.6037 	 
H 	 -92.0106 	 -51.334 	 -77.9611 	 
C 	 -93.4968 	 -50.9488 	 -76.4882 	 
H 	 -93.8635 	 -51.8843 	 -76.5791 	 
H 	 -92.8641 	 -50.7406 	 -75.6088 	 
H 	 -94.3597 	 -50.3001 	 -76.4557 	 
S 	 -87.0002 	 -47.106 	 -80.5769 	 
C 	 -85.3314 	 -47.6773 	 -80.281 	 
C 	 -85.3435 	 -48.9526 	 -79.691 	 
C 	 -86.6132 	 -49.5825 	 -79.6716 	 
C 	 -87.6222 	 -48.7019 	 -80.1321 	 
H 	 -84.3556 	 -49.3467 	 -79.4445 	 
C 	 -86.9145 	 -50.9226 	 -78.9667 	 
H 	 -87.9866 	 -51.0006 	 -78.8108 	 
H 	 -86.4122 	 -50.8301 	 -78.0067 	 
C 	 -86.3475 	 -52.1466 	 -79.6935 	 
H 	 -85.2341 	 -52.2207 	 -79.7357 	 
H 	 -86.5951 	 -52.2999 	 -80.7491 	 
C 	 -86.8658 	 -53.4136 	 -78.9701 	 
H 	 -86.2251 	 -53.5621 	 -78.0778 	 
H 	 -86.7881 	 -54.3049 	 -79.5353 	 
H 	 -87.8927 	 -53.2962 	 -78.6454 	 
H 	 -92.5744 	 -48.1724 	 -80.7912 	 
H 	 -84.4457 	 -47.1119 	 -80.4278 	 
*
