! wB97X-D3 SP def2-SVP
%pal
nprocs 24
end

* xyz 0 1
S 	 -103.392 	 24.0928 	 -110.472 	 
C 	 -103.449 	 22.348 	 -110.696 	 
C 	 -104.7 	 21.9701 	 -111.116 	 
C 	 -105.628 	 23.0677 	 -110.971 	 
C 	 -105.061 	 24.2572 	 -110.772 	 
H 	 -106.7 	 22.9739 	 -111.193 	 
C 	 -105.085 	 20.5997 	 -111.379 	 
H 	 -105.591 	 20.1979 	 -110.49 	 
H 	 -104.184 	 19.9301 	 -111.36 	 
C 	 -105.808 	 20.3128 	 -112.704 	 
H 	 -106.299 	 19.2773 	 -112.702 	 
H 	 -106.703 	 21.026 	 -112.876 	 
C 	 -104.918 	 20.5031 	 -113.915 	 
H 	 -105.593 	 20.5032 	 -114.766 	 
H 	 -104.4 	 21.4784 	 -113.996 	 
H 	 -104.194 	 19.7083 	 -114.071 	 
S 	 -105.557 	 26.2492 	 -108.995 	 
C 	 -106.529 	 27.5613 	 -109.421 	 
C 	 -107.125 	 27.3989 	 -110.648 	 
C 	 -106.735 	 26.1655 	 -111.317 	 
C 	 -105.803 	 25.4699 	 -110.549 	 
H 	 -107.629 	 28.1576 	 -111.161 	 
C 	 -107.159 	 25.9042 	 -112.728 	 
H 	 -108.257 	 26.1397 	 -112.826 	 
H 	 -107.009 	 24.8345 	 -112.779 	 
C 	 -106.367 	 26.686 	 -113.899 	 
H 	 -105.356 	 26.2909 	 -114 	 
H 	 -106.169 	 27.6485 	 -113.588 	 
C 	 -107.11 	 26.5244 	 -115.275 	 
H 	 -107.037 	 25.5133 	 -115.654 	 
H 	 -106.648 	 27.1405 	 -116 	 
H 	 -108.203 	 26.7319 	 -115.291 	 
H 	 -102.548 	 21.8161 	 -110.579 	 
H 	 -106.605 	 28.5295 	 -108.924 	 
*
