! wB97X-D3 SP def2-SVP
%pal
nprocs 24
end

* xyz 0 1
S 	 39.6026 	 -31.4651 	 -118.067 	 
C 	 39.2822 	 -30.8801 	 -119.623 	 
C 	 39.2306 	 -31.8701 	 -120.546 	 
C 	 39.5396 	 -33.1581 	 -119.986 	 
C 	 39.8588 	 -33.076 	 -118.656 	 
H 	 39.4993 	 -34.1196 	 -120.483 	 
C 	 39.0533 	 -31.5328 	 -122.021 	 
H 	 38.7751 	 -30.4507 	 -122.163 	 
H 	 38.201 	 -32.1894 	 -122.38 	 
C 	 40.3178 	 -31.7606 	 -122.821 	 
H 	 40.485 	 -31.024 	 -123.66 	 
H 	 41.1126 	 -31.6584 	 -122.06 	 
C 	 40.4981 	 -33.1426 	 -123.435 	 
H 	 40.2299 	 -34.0414 	 -122.879 	 
H 	 40.0083 	 -33.1685 	 -124.452 	 
H 	 41.5248 	 -33.4212 	 -123.612 	 
S 	 41.7512 	 -35.0425 	 -118.143 	 
C 	 41.6458 	 -35.8593 	 -116.555 	 
C 	 40.4598 	 -35.6095 	 -115.892 	 
C 	 39.6213 	 -34.7128 	 -116.612 	 
C 	 40.2109 	 -34.193 	 -117.753 	 
H 	 40.2 	 -36.2006 	 -115.009 	 
C 	 38.3443 	 -34.2541 	 -115.99 	 
H 	 38.3854 	 -33.2021 	 -115.988 	 
H 	 38.4251 	 -34.5602 	 -114.952 	 
C 	 37.063 	 -34.661 	 -116.672 	 
H 	 37.1451 	 -34.4703 	 -117.685 	 
H 	 36.1672 	 -34.1209 	 -116.207 	 
C 	 36.759 	 -36.1703 	 -116.584 	 
H 	 37.3574 	 -36.723 	 -117.287 	 
H 	 35.7323 	 -36.4711 	 -116.731 	 
H 	 36.9973 	 -36.6299 	 -115.568 	 
H 	 39.1824 	 -29.8096 	 -119.871 	 
H 	 42.3529 	 -36.6848 	 -116.285 	 
*
