! wB97X-D3 SP def2-SVP
%pal
nprocs 24
end

* xyz 0 1
S 	 33.2767 	 -30.8695 	 -115.112 	 
C 	 33.2533 	 -29.8878 	 -113.721 	 
C 	 34.4341 	 -29.9511 	 -112.998 	 
C 	 35.4241 	 -30.8233 	 -113.636 	 
C 	 34.8196 	 -31.6114 	 -114.678 	 
H 	 36.4877 	 -31.0472 	 -113.364 	 
C 	 34.6479 	 -29.134 	 -111.737 	 
H 	 33.7387 	 -28.7419 	 -111.385 	 
H 	 35.1582 	 -28.2077 	 -111.998 	 
C 	 35.3933 	 -29.9129 	 -110.58 	 
H 	 36.294 	 -30.2615 	 -111.027 	 
H 	 35.6903 	 -29.1758 	 -109.8 	 
C 	 34.6498 	 -31.1093 	 -109.889 	 
H 	 33.6964 	 -30.8481 	 -109.482 	 
H 	 34.3338 	 -31.7489 	 -110.701 	 
H 	 35.2588 	 -31.7377 	 -109.265 	 
S 	 35.1205 	 -32.8511 	 -117.094 	 
C 	 36.017 	 -34.3615 	 -117.279 	 
C 	 36.5674 	 -34.6492 	 -116.051 	 
C 	 36.2806 	 -33.7391 	 -114.989 	 
C 	 35.4902 	 -32.6896 	 -115.391 	 
H 	 37.134 	 -35.5693 	 -115.874 	 
C 	 36.651 	 -34.1631 	 -113.593 	 
H 	 36.899 	 -33.1825 	 -113.009 	 
H 	 37.6478 	 -34.7424 	 -113.671 	 
C 	 35.6513 	 -35.0254 	 -112.8 	 
H 	 35.5381 	 -35.9449 	 -113.366 	 
H 	 34.7199 	 -34.4709 	 -112.807 	 
C 	 36.1176 	 -35.2319 	 -111.348 	 
H 	 35.4525 	 -35.9627 	 -110.859 	 
H 	 36.278 	 -34.3263 	 -110.782 	 
H 	 37.086 	 -35.7632 	 -111.451 	 
H 	 32.4316 	 -29.2037 	 -113.562 	 
H 	 36.2583 	 -34.9558 	 -118.136 	 
*
