! wB97X-D3 SP def2-SVP
%pal
nprocs 24
end

* xyz 0 1
S 	 47.7184 	 -35.3064 	 -123.172 	 
C 	 46.6797 	 -34.4418 	 -124.346 	 
C 	 45.7071 	 -33.6531 	 -123.776 	 
C 	 45.7694 	 -33.7961 	 -122.349 	 
C 	 46.6412 	 -34.8068 	 -121.884 	 
H 	 45.2015 	 -33.2737 	 -121.604 	 
C 	 44.525 	 -33.0436 	 -124.481 	 
H 	 43.5628 	 -33.1103 	 -123.844 	 
H 	 44.3742 	 -33.5817 	 -125.383 	 
C 	 44.6913 	 -31.5982 	 -124.805 	 
H 	 45.654 	 -31.5095 	 -125.379 	 
H 	 43.8072 	 -31.3992 	 -125.464 	 
C 	 44.7422 	 -30.5928 	 -123.633 	 
H 	 45.6352 	 -30.7284 	 -123.058 	 
H 	 44.5844 	 -29.5844 	 -123.898 	 
H 	 43.8544 	 -30.8547 	 -123.075 	 
S 	 48.506 	 -34.6828 	 -119.904 	 
C 	 48.1969 	 -35.3458 	 -118.31 	 
C 	 46.8621 	 -35.7397 	 -118.168 	 
C 	 46.16 	 -35.6357 	 -119.452 	 
C 	 46.9159 	 -35.1584 	 -120.514 	 
H 	 46.487 	 -36.0658 	 -117.211 	 
C 	 44.7623 	 -36.0151 	 -119.596 	 
H 	 44.5661 	 -36.785 	 -118.871 	 
H 	 44.5792 	 -36.4322 	 -120.604 	 
C 	 43.816 	 -34.9015 	 -119.366 	 
H 	 43.9242 	 -34.1352 	 -120.202 	 
H 	 44.1797 	 -34.3628 	 -118.528 	 
C 	 42.374 	 -35.2913 	 -119.295 	 
H 	 41.7898 	 -34.432 	 -119.181 	 
H 	 42.2438 	 -35.8249 	 -118.348 	 
H 	 41.9985 	 -35.9286 	 -120.009 	 
H 	 46.6023 	 -34.5488 	 -125.42 	 
H 	 48.8657 	 -35.4047 	 -117.51 	 
*
