! wB97X-D3 SP def2-SVP
%pal
nprocs 24
end

* xyz 0 1
S 	 -70.0678 	 -0.619311 	 14.0001 	 
C 	 -70.6719 	 0.510035 	 12.7906 	 
C 	 -71.9887 	 0.793944 	 13.0557 	 
C 	 -72.4427 	 0.281064 	 14.2923 	 
C 	 -71.4884 	 -0.444304 	 14.9958 	 
H 	 -73.4109 	 0.42341 	 14.7942 	 
C 	 -72.8907 	 1.73861 	 12.2412 	 
H 	 -73.8064 	 1.17655 	 11.9814 	 
H 	 -72.3235 	 2.00774 	 11.2526 	 
C 	 -73.282 	 3.09159 	 12.9343 	 
H 	 -72.4576 	 3.73476 	 13.0871 	 
H 	 -73.7529 	 3.58056 	 12.105 	 
C 	 -74.174 	 3.09788 	 14.1976 	 
H 	 -74.2443 	 4.14993 	 14.5274 	 
H 	 -75.1813 	 2.84746 	 13.9359 	 
H 	 -73.7487 	 2.47006 	 14.9853 	 
S 	 -71.4498 	 -2.9285 	 16.4374 	 
C 	 -71.7691 	 -2.85093 	 18.1286 	 
C 	 -72.1363 	 -1.56838 	 18.5607 	 
C 	 -72.0601 	 -0.625442 	 17.5193 	 
C 	 -71.7081 	 -1.16847 	 16.277 	 
H 	 -72.5 	 -1.54401 	 19.6135 	 
C 	 -72.5171 	 0.803814 	 17.6883 	 
H 	 -73.1692 	 0.713162 	 18.5249 	 
H 	 -73.1671 	 1.27904 	 16.9242 	 
C 	 -71.4293 	 1.82636 	 17.9068 	 
H 	 -71.1278 	 2.24633 	 16.9505 	 
H 	 -70.5418 	 1.35989 	 18.3221 	 
C 	 -71.8352 	 2.93665 	 18.9762 	 
H 	 -71.0296 	 3.37311 	 19.6265 	 
H 	 -72.5764 	 2.4284 	 19.6314 	 
H 	 -72.3616 	 3.74834 	 18.4301 	 
H 	 -69.9834 	 0.843391 	 12.0221 	 
H 	 -71.9939 	 -3.74775 	 18.6966 	 
*
