! wB97X-D3 SP def2-SVP
%pal
nprocs 24
end

* xyz 0 1
S 	 -54.2528 	 9.59488 	 -105.454 	 
C 	 -52.8507 	 10.3398 	 -104.709 	 
C 	 -52.879 	 10.1742 	 -103.332 	 
C 	 -53.8486 	 9.2378 	 -102.942 	 
C 	 -54.8213 	 9.02715 	 -103.878 	 
H 	 -53.9506 	 8.86194 	 -101.956 	 
C 	 -51.8958 	 10.7794 	 -102.385 	 
H 	 -52.4101 	 11.3153 	 -101.567 	 
H 	 -51.5838 	 11.6711 	 -102.9 	 
C 	 -50.6374 	 9.89072 	 -102.132 	 
H 	 -50.3826 	 9.38763 	 -103.133 	 
H 	 -49.7756 	 10.5206 	 -101.941 	 
C 	 -50.7941 	 8.94966 	 -100.975 	 
H 	 -51.5262 	 8.25603 	 -101.394 	 
H 	 -49.8911 	 8.44207 	 -100.823 	 
H 	 -51.1981 	 9.44281 	 -100.075 	 
S 	 -57.4873 	 9.22896 	 -103.588 	 
C 	 -58.4584 	 7.81811 	 -103.607 	 
C 	 -57.714 	 6.6547 	 -103.767 	 
C 	 -56.3047 	 6.93313 	 -103.729 	 
C 	 -56.0652 	 8.28534 	 -103.665 	 
H 	 -58.0521 	 5.63964 	 -103.794 	 
C 	 -55.2812 	 5.82983 	 -103.916 	 
H 	 -54.4833 	 6.28015 	 -104.469 	 
H 	 -55.7843 	 5.0926 	 -104.579 	 
C 	 -54.7675 	 5.4559 	 -102.499 	 
H 	 -55.5884 	 5.20239 	 -101.91 	 
H 	 -54.321 	 6.29464 	 -102.038 	 
C 	 -53.7115 	 4.26519 	 -102.493 	 
H 	 -53.3795 	 4.08945 	 -101.438 	 
H 	 -52.9105 	 4.37816 	 -103.218 	 
H 	 -54.2431 	 3.40575 	 -102.764 	 
H 	 -52.15 	 10.8279 	 -105.302 	 
H 	 -59.5131 	 7.84459 	 -103.532 	 
*
