! wB97X-D3 SP def2-SVP
%pal
nprocs 24
end

* xyz 0 1
S 	 -99.8053 	 3.51984 	 -107.866 	 
C 	 -101.076 	 4.39204 	 -106.95 	 
C 	 -100.524 	 4.85358 	 -105.719 	 
C 	 -99.1479 	 4.51331 	 -105.587 	 
C 	 -98.6244 	 3.69023 	 -106.54 	 
H 	 -98.5276 	 4.7839 	 -104.765 	 
C 	 -101.311 	 5.71883 	 -104.745 	 
H 	 -100.745 	 5.78795 	 -103.845 	 
H 	 -102.294 	 5.20021 	 -104.727 	 
C 	 -101.677 	 7.22013 	 -105.253 	 
H 	 -100.799 	 7.8306 	 -105.241 	 
H 	 -102.204 	 7.0746 	 -106.231 	 
C 	 -102.644 	 7.95543 	 -104.366 	 
H 	 -103.601 	 7.51839 	 -104.293 	 
H 	 -102.234 	 7.97947 	 -103.362 	 
H 	 -102.666 	 9.00751 	 -104.709 	 
S 	 -96.5146 	 3.38061 	 -108.197 	 
C 	 -95.1009 	 2.45303 	 -107.637 	 
C 	 -95.2043 	 2.18436 	 -106.278 	 
C 	 -96.4352 	 2.64842 	 -105.675 	 
C 	 -97.24 	 3.34502 	 -106.609 	 
H 	 -94.3932 	 1.51236 	 -105.811 	 
C 	 -96.9244 	 2.11461 	 -104.29 	 
H 	 -96.8463 	 0.989038 	 -104.377 	 
H 	 -97.9615 	 2.34076 	 -104.287 	 
C 	 -96.1262 	 2.726 	 -103.128 	 
H 	 -96.2988 	 3.84541 	 -103.294 	 
H 	 -95.0801 	 2.45994 	 -103.162 	 
C 	 -96.4685 	 2.21059 	 -101.694 	 
H 	 -95.6618 	 2.38691 	 -101.006 	 
H 	 -96.7078 	 1.12561 	 -101.565 	 
H 	 -97.3111 	 2.70277 	 -101.257 	 
H 	 -102.084 	 4.54246 	 -107.294 	 
H 	 -94.2668 	 1.9708 	 -108.185 	 
*
