! wB97X-D3 SP def2-SVP
%pal
nprocs 24
end

* xyz 0 1
S 	 -77.8612 	 -2.27759 	 8.97019 	 
C 	 -79.6335 	 -2.15426 	 8.76879 	 
C 	 -80.128 	 -1.17671 	 9.55739 	 
C 	 -79.1126 	 -0.452212 	 10.2296 	 
C 	 -77.8701 	 -1.02238 	 10.1971 	 
H 	 -79.2483 	 0.416281 	 10.9024 	 
C 	 -81.5639 	 -0.785289 	 9.73398 	 
H 	 -81.9622 	 -0.435889 	 8.73936 	 
H 	 -81.6729 	 0.013669 	 10.4312 	 
C 	 -82.3476 	 -1.92994 	 10.3581 	 
H 	 -83.4249 	 -1.71862 	 10.2987 	 
H 	 -82.2608 	 -2.92526 	 9.85873 	 
C 	 -82.0235 	 -2.17209 	 11.8601 	 
H 	 -81.028 	 -2.54413 	 12.0008 	 
H 	 -82.0512 	 -1.25526 	 12.4263 	 
H 	 -82.7067 	 -2.93359 	 12.2402 	 
S 	 -76.2977 	 -1.38063 	 12.4507 	 
C 	 -75.0129 	 -0.231766 	 12.8298 	 
C 	 -74.9829 	 0.727322 	 11.8182 	 
C 	 -75.8629 	 0.482718 	 10.7161 	 
C 	 -76.7327 	 -0.554022 	 10.9675 	 
H 	 -74.2153 	 1.46431 	 11.8083 	 
C 	 -75.7242 	 1.1365 	 9.31628 	 
H 	 -75.6063 	 2.20869 	 9.41703 	 
H 	 -76.5662 	 0.973798 	 8.6506 	 
C 	 -74.5374 	 0.753711 	 8.43677 	 
H 	 -73.654 	 1.02897 	 8.98403 	 
H 	 -74.5759 	 1.28721 	 7.46856 	 
C 	 -74.5495 	 -0.709524 	 7.97053 	 
H 	 -74.8452 	 -1.27443 	 8.85474 	 
H 	 -73.5755 	 -1.11465 	 7.61772 	 
H 	 -75.3523 	 -0.864686 	 7.29474 	 
H 	 -80.2581 	 -2.78622 	 8.18941 	 
H 	 -74.1896 	 -0.520795 	 13.5414 	 
*
