! wB97X-D3 SP def2-SVP
%pal
nprocs 24
end

* xyz 0 1
S 	 43.1158 	 -23.4923 	 -114.535 	 
C 	 41.8885 	 -22.6242 	 -113.634 	 
C 	 42.3951 	 -21.4796 	 -113.029 	 
C 	 43.7034 	 -21.2106 	 -113.495 	 
C 	 44.2596 	 -22.1806 	 -114.262 	 
H 	 44.2922 	 -20.3429 	 -113.254 	 
C 	 41.784 	 -20.5185 	 -112 	 
H 	 40.7355 	 -20.7219 	 -111.917 	 
H 	 41.9021 	 -19.5402 	 -112.378 	 
C 	 42.3714 	 -20.6063 	 -110.524 	 
H 	 43.4633 	 -20.4321 	 -110.725 	 
H 	 42.065 	 -19.8099 	 -109.747 	 
C 	 42.0636 	 -21.9207 	 -109.798 	 
H 	 42.381 	 -22.7701 	 -110.443 	 
H 	 42.4234 	 -21.8911 	 -108.811 	 
H 	 40.9348 	 -22.1004 	 -109.75 	 
S 	 45.4468 	 -22.241 	 -116.76 	 
C 	 47.1187 	 -21.8125 	 -116.868 	 
C 	 47.7325 	 -21.8858 	 -115.649 	 
C 	 46.788 	 -21.8585 	 -114.553 	 
C 	 45.5288 	 -22.1422 	 -114.999 	 
H 	 48.7922 	 -21.8029 	 -115.713 	 
C 	 47.1881 	 -22.0399 	 -113.105 	 
H 	 48.053 	 -22.6969 	 -113.203 	 
H 	 46.4413 	 -22.5831 	 -112.511 	 
C 	 47.6402 	 -20.8351 	 -112.315 	 
H 	 46.8279 	 -20.1103 	 -112.079 	 
H 	 48.3417 	 -20.2797 	 -112.915 	 
C 	 48.2758 	 -21.1381 	 -110.972 	 
H 	 47.5098 	 -21.5311 	 -110.4 	 
H 	 48.7545 	 -20.2639 	 -110.443 	 
H 	 48.9693 	 -21.9043 	 -111.172 	 
H 	 40.8213 	 -22.9278 	 -113.641 	 
H 	 47.6138 	 -21.9014 	 -117.795 	 
*
