! wB97X-D3 SP def2-SVP
%pal
nprocs 24
end

* xyz 0 1
S 	 -132.366 	 21.1426 	 -17.9651 	 
C 	 -131.276 	 19.9054 	 -17.4629 	 
C 	 -131.195 	 18.8653 	 -18.3738 	 
C 	 -131.92 	 19.1456 	 -19.5284 	 
C 	 -132.732 	 20.2738 	 -19.4545 	 
H 	 -132 	 18.4416 	 -20.3082 	 
C 	 -130.146 	 17.7541 	 -18.4285 	 
H 	 -129.419 	 17.8535 	 -17.6662 	 
H 	 -129.65 	 17.9381 	 -19.3464 	 
C 	 -130.628 	 16.3607 	 -18.6093 	 
H 	 -131.426 	 16.3528 	 -19.4172 	 
H 	 -129.785 	 15.6767 	 -18.9494 	 
C 	 -131.058 	 15.8977 	 -17.1749 	 
H 	 -130.185 	 15.7884 	 -16.5309 	 
H 	 -131.75 	 16.5667 	 -16.6726 	 
H 	 -131.549 	 14.9103 	 -17.2345 	 
S 	 -134.051 	 22.4755 	 -20.3488 	 
C 	 -135.363 	 22.2007 	 -21.5511 	 
C 	 -135.41 	 20.9127 	 -22.141 	 
C 	 -134.475 	 20.0255 	 -21.4597 	 
C 	 -133.73 	 20.714 	 -20.4653 	 
H 	 -136.104 	 20.7181 	 -22.956 	 
C 	 -134.495 	 18.5792 	 -21.728 	 
H 	 -135.554 	 18.4256 	 -21.8035 	 
H 	 -134.33 	 18.0699 	 -20.7617 	 
C 	 -133.77 	 17.9162 	 -22.906 	 
H 	 -132.631 	 18.008 	 -22.873 	 
H 	 -133.954 	 18.5232 	 -23.7599 	 
C 	 -134.195 	 16.4984 	 -23.2357 	 
H 	 -133.98 	 15.7835 	 -22.3784 	 
H 	 -133.641 	 16.1445 	 -24.0857 	 
H 	 -135.255 	 16.389 	 -23.4486 	 
H 	 -130.535 	 19.8944 	 -16.6124 	 
H 	 -136.025 	 23.0139 	 -21.8315 	 
*
