! wB97X-D3 SP def2-SVP
%pal
nprocs 24
end

* xyz 0 1
S 	 -63.362 	 -0.873146 	 -21.3565 	 
C 	 -64.2885 	 -0.715167 	 -19.8916 	 
C 	 -63.7102 	 -1.48746 	 -18.904 	 
C 	 -62.3997 	 -1.91825 	 -19.2972 	 
C 	 -62.0725 	 -1.68534 	 -20.6416 	 
H 	 -61.6993 	 -2.41735 	 -18.7914 	 
C 	 -64.2559 	 -1.77597 	 -17.5301 	 
H 	 -64.7707 	 -0.930162 	 -17.0519 	 
H 	 -63.363 	 -1.69694 	 -16.9297 	 
C 	 -64.9642 	 -3.09596 	 -17.4297 	 
H 	 -64.6251 	 -3.87584 	 -18.0874 	 
H 	 -64.7814 	 -3.46407 	 -16.4197 	 
C 	 -66.4356 	 -2.92377 	 -17.5237 	 
H 	 -66.6575 	 -2.30011 	 -18.4099 	 
H 	 -67.1479 	 -3.78154 	 -17.2721 	 
H 	 -66.7314 	 -2.19281 	 -16.8291 	 
S 	 -60.5047 	 -0.634024 	 -22.4594 	 
C 	 -59.141 	 -1.55761 	 -23.1398 	 
C 	 -58.9528 	 -2.79606 	 -22.5115 	 
C 	 -59.9611 	 -2.94944 	 -21.4617 	 
C 	 -60.9272 	 -1.96814 	 -21.4647 	 
H 	 -58.244 	 -3.56012 	 -22.9078 	 
C 	 -60.1575 	 -4.25582 	 -20.701 	 
H 	 -60.4379 	 -4.14119 	 -19.6449 	 
H 	 -59.1706 	 -4.79066 	 -20.6907 	 
C 	 -61.1567 	 -5.21313 	 -21.3401 	 
H 	 -60.8654 	 -6.19862 	 -20.894 	 
H 	 -60.9701 	 -5.30297 	 -22.4402 	 
C 	 -62.5778 	 -4.91088 	 -20.9651 	 
H 	 -63.2632 	 -5.76236 	 -21.1815 	 
H 	 -63.0016 	 -3.97692 	 -21.3387 	 
H 	 -62.7576 	 -4.73494 	 -19.8492 	 
H 	 -65.2719 	 -0.349777 	 -19.8428 	 
H 	 -58.4675 	 -1.15355 	 -23.928 	 
*
