! wB97X-D3 SP def2-SVP
%pal
nprocs 24
end

* xyz 0 1
S 	 -105.806 	 17.7252 	 -108.424 	 
C 	 -104.079 	 17.5667 	 -108.195 	 
C 	 -103.368 	 18.4891 	 -108.906 	 
C 	 -104.258 	 19.2749 	 -109.694 	 
C 	 -105.597 	 18.9595 	 -109.608 	 
H 	 -103.917 	 20.06 	 -110.403 	 
C 	 -101.849 	 18.6435 	 -108.99 	 
H 	 -101.469 	 18.837 	 -110.007 	 
H 	 -101.526 	 17.7036 	 -108.692 	 
C 	 -101.355 	 19.8726 	 -108.18 	 
H 	 -101.657 	 19.5803 	 -107.179 	 
H 	 -100.299 	 19.9648 	 -108.363 	 
C 	 -101.989 	 21.1917 	 -108.392 	 
H 	 -102.009 	 21.4382 	 -109.412 	 
H 	 -102.978 	 21.1202 	 -107.985 	 
H 	 -101.471 	 21.9984 	 -107.863 	 
S 	 -107.701 	 20.7343 	 -109.392 	 
C 	 -108.828 	 20.8707 	 -110.701 	 
C 	 -108.438 	 20.0804 	 -111.766 	 
C 	 -107.302 	 19.3131 	 -111.532 	 
C 	 -106.759 	 19.5913 	 -110.318 	 
H 	 -108.953 	 19.9841 	 -112.703 	 
C 	 -106.714 	 18.3607 	 -112.565 	 
H 	 -107.345 	 17.4762 	 -112.578 	 
H 	 -105.766 	 17.9484 	 -112.18 	 
C 	 -106.477 	 18.7237 	 -114.003 	 
H 	 -107.497 	 18.9541 	 -114.352 	 
H 	 -106.383 	 17.7321 	 -114.393 	 
C 	 -105.434 	 19.7839 	 -114.25 	 
H 	 -105.675 	 20.7205 	 -113.72 	 
H 	 -105.366 	 20.1131 	 -115.27 	 
H 	 -104.501 	 19.3646 	 -113.937 	 
H 	 -103.585 	 16.8807 	 -107.497 	 
H 	 -109.759 	 21.4701 	 -110.746 	 
*
