! wB97X-D3 SP def2-SVP
%pal
nprocs 24
end

* xyz 0 1
S 	 -122.36 	 51.2748 	 -36.894 	 
C 	 -121.212 	 52.3549 	 -36.1224 	 
C 	 -121.709 	 53.6687 	 -36.37 	 
C 	 -123.121 	 53.6335 	 -36.5832 	 
C 	 -123.625 	 52.4171 	 -36.8601 	 
H 	 -123.832 	 54.4797 	 -36.5017 	 
C 	 -120.902 	 54.8973 	 -36.0907 	 
H 	 -120.128 	 54.7541 	 -36.8428 	 
H 	 -120.403 	 54.9029 	 -35.1741 	 
C 	 -121.494 	 56.2933 	 -36.3216 	 
H 	 -120.678 	 56.9851 	 -36.584 	 
H 	 -122.065 	 56.3094 	 -37.226 	 
C 	 -122.301 	 56.8528 	 -35.125 	 
H 	 -122.951 	 57.6696 	 -35.5512 	 
H 	 -123.097 	 56.0415 	 -34.7657 	 
H 	 -121.66 	 57.1944 	 -34.3251 	 
S 	 -126.014 	 51.3626 	 -35.835 	 
C 	 -127.449 	 51.4312 	 -36.7734 	 
C 	 -127.203 	 52.0546 	 -38.0108 	 
C 	 -125.856 	 52.4106 	 -38.2397 	 
C 	 -125.038 	 52.0771 	 -37.1511 	 
H 	 -127.972 	 52.1482 	 -38.7152 	 
C 	 -125.352 	 53.176 	 -39.4449 	 
H 	 -125.831 	 52.7149 	 -40.3124 	 
H 	 -124.331 	 52.9243 	 -39.5557 	 
C 	 -125.518 	 54.7265 	 -39.2721 	 
H 	 -125.324 	 54.9449 	 -38.1964 	 
H 	 -126.562 	 54.9326 	 -39.6146 	 
C 	 -124.55 	 55.4443 	 -40.2518 	 
H 	 -123.478 	 55.2529 	 -40.0645 	 
H 	 -124.753 	 56.5197 	 -40.1307 	 
H 	 -124.707 	 55.182 	 -41.3071 	 
H 	 -120.165 	 52.2132 	 -36.113 	 
H 	 -128.363 	 51.0467 	 -36.4385 	 
*
