! wB97X-D3 SP def2-SVP
%pal
nprocs 24
end

* xyz 0 1
S 	 -107.746 	 59.9281 	 -6.19917 	 
C 	 -107.475 	 60.9276 	 -4.72591 	 
C 	 -108.224 	 62.1305 	 -4.79717 	 
C 	 -109.098 	 62.0863 	 -6.00623 	 
C 	 -108.916 	 61.006 	 -6.82744 	 
H 	 -109.811 	 62.9101 	 -6.34676 	 
C 	 -108.228 	 63.2512 	 -3.67271 	 
H 	 -108.819 	 62.9062 	 -2.8253 	 
H 	 -108.753 	 64.0489 	 -4.27441 	 
C 	 -106.925 	 63.8748 	 -3.18693 	 
H 	 -106.371 	 63.0265 	 -2.78714 	 
H 	 -106.322 	 64.2834 	 -3.99943 	 
C 	 -107.026 	 64.864 	 -1.98693 	 
H 	 -107.384 	 65.8058 	 -2.34929 	 
H 	 -107.818 	 64.5491 	 -1.35495 	 
H 	 -106.129 	 65.0916 	 -1.42588 	 
S 	 -109.096 	 61.3029 	 -9.57668 	 
C 	 -110.403 	 60.4939 	 -10.5359 	 
C 	 -111.33 	 59.9555 	 -9.66204 	 
C 	 -110.981 	 60.1068 	 -8.25538 	 
C 	 -109.75 	 60.7134 	 -8.03997 	 
H 	 -112.235 	 59.5543 	 -9.98516 	 
C 	 -111.855 	 59.5622 	 -7.11296 	 
H 	 -111.3 	 59.8088 	 -6.23272 	 
H 	 -111.792 	 58.4189 	 -7.26217 	 
C 	 -113.254 	 60.0303 	 -7.17782 	 
H 	 -113.712 	 59.8199 	 -8.06308 	 
H 	 -113.197 	 61.1742 	 -7.26657 	 
C 	 -114.095 	 59.6308 	 -5.97504 	 
H 	 -113.896 	 60.2645 	 -5.1314 	 
H 	 -113.946 	 58.5485 	 -5.74126 	 
H 	 -115.045 	 59.9449 	 -6.30307 	 
H 	 -106.8 	 60.7789 	 -3.90341 	 
H 	 -110.551 	 60.3409 	 -11.6546 	 
*
