! wB97X-D3 SP def2-SVP
%pal
nprocs 24
end

* xyz 0 1
S 	 -47.8988 	 11.5005 	 33.5942 	 
C 	 -46.1662 	 11.5554 	 33.2513 	 
C 	 -45.8867 	 12.7132 	 32.6359 	 
C 	 -46.9579 	 13.6334 	 32.6447 	 
C 	 -48.0527 	 13.2207 	 33.3398 	 
H 	 -46.9394 	 14.5572 	 32.1115 	 
C 	 -44.5673 	 13.037 	 31.9557 	 
H 	 -43.8668 	 12.4507 	 32.4572 	 
H 	 -44.4291 	 14.0945 	 32.1388 	 
C 	 -44.6877 	 12.6023 	 30.5245 	 
H 	 -45.6024 	 12.8601 	 29.9906 	 
H 	 -43.8738 	 13.0236 	 30.0407 	 
C 	 -44.7561 	 11.1006 	 30.2802 	 
H 	 -44.0011 	 10.543 	 30.9003 	 
H 	 -45.7834 	 10.7346 	 30.4538 	 
H 	 -44.6026 	 10.9362 	 29.2452 	 
S 	 -50.6773 	 13.212 	 32.6771 	 
C 	 -51.6567 	 14.5923 	 33.2588 	 
C 	 -50.8909 	 15.5628 	 33.857 	 
C 	 -49.5528 	 15.2037 	 33.914 	 
C 	 -49.2596 	 13.956 	 33.4196 	 
H 	 -51.3078 	 16.4155 	 34.4354 	 
C 	 -48.5625 	 16.1327 	 34.6295 	 
H 	 -47.6553 	 15.5527 	 34.7579 	 
H 	 -48.8632 	 16.3338 	 35.6233 	 
C 	 -48.3456 	 17.5253 	 33.9971 	 
H 	 -47.9258 	 18.1707 	 34.7432 	 
H 	 -49.2427 	 17.9578 	 33.6836 	 
C 	 -47.402 	 17.5519 	 32.8234 	 
H 	 -46.4097 	 17.1896 	 33.1707 	 
H 	 -47.4176 	 18.6524 	 32.5336 	 
H 	 -47.7956 	 16.9585 	 31.9782 	 
H 	 -45.5298 	 10.6344 	 33.266 	 
H 	 -52.7508 	 14.5972 	 33.3484 	 
*
