! wB97X-D3 SP def2-SVP
%pal
nprocs 24
end

* xyz 0 1
S 	 27.1708 	 -24.9901 	 -121.863 	 
C 	 28.5131 	 -24.7356 	 -122.964 	 
C 	 28.0748 	 -24.2458 	 -124.172 	 
C 	 26.6783 	 -23.837 	 -124.186 	 
C 	 26.0877 	 -24.1125 	 -122.985 	 
H 	 26.1342 	 -23.373 	 -124.995 	 
C 	 28.9994 	 -23.6682 	 -125.278 	 
H 	 30.0098 	 -23.9391 	 -125.045 	 
H 	 29.0497 	 -22.563 	 -125.152 	 
C 	 28.4962 	 -24.09 	 -126.667 	 
H 	 28.4429 	 -25.2285 	 -126.633 	 
H 	 27.5081 	 -23.6388 	 -126.945 	 
C 	 29.4651 	 -23.6947 	 -127.767 	 
H 	 30.4027 	 -24.3067 	 -127.659 	 
H 	 29.027 	 -23.839 	 -128.772 	 
H 	 29.6396 	 -22.5674 	 -127.607 	 
S 	 23.7837 	 -25.4033 	 -122.262 	 
C 	 22.2637 	 -24.5746 	 -122.201 	 
C 	 22.4972 	 -23.2167 	 -122.399 	 
C 	 23.8482 	 -22.8872 	 -122.803 	 
C 	 24.6595 	 -23.999 	 -122.738 	 
H 	 21.6483 	 -22.5592 	 -122.378 	 
C 	 24.181 	 -21.4074 	 -123.144 	 
H 	 23.2206 	 -20.934 	 -123.392 	 
H 	 24.829 	 -21.3537 	 -123.914 	 
C 	 24.8216 	 -20.5242 	 -122.064 	 
H 	 24.1555 	 -20.2771 	 -121.244 	 
H 	 25.0908 	 -19.5767 	 -122.533 	 
C 	 26.1424 	 -21.1083 	 -121.537 	 
H 	 26.7032 	 -20.3367 	 -120.943 	 
H 	 26.7952 	 -21.3921 	 -122.32 	 
H 	 26.0174 	 -21.9212 	 -120.946 	 
H 	 29.5761 	 -25.0893 	 -122.695 	 
H 	 21.3366 	 -24.9664 	 -121.888 	 
*
