! wB97X-D3 SP def2-SVP
%pal
nprocs 24
end

* xyz 0 1
S 	 -110.163 	 2.72682 	 -113.632 	 
C 	 -110.499 	 4.06594 	 -114.757 	 
C 	 -109.38 	 4.39105 	 -115.545 	 
C 	 -108.287 	 3.56006 	 -115.151 	 
C 	 -108.494 	 2.70632 	 -114.112 	 
H 	 -107.268 	 3.6176 	 -115.516 	 
C 	 -109.427 	 5.07725 	 -116.897 	 
H 	 -110.382 	 4.84359 	 -117.345 	 
H 	 -108.716 	 4.72537 	 -117.59 	 
C 	 -109.224 	 6.55072 	 -116.769 	 
H 	 -110.205 	 6.98568 	 -116.491 	 
H 	 -108.561 	 6.84512 	 -116.004 	 
C 	 -108.822 	 7.15024 	 -118.097 	 
H 	 -107.908 	 6.64612 	 -118.473 	 
H 	 -109.558 	 7.09951 	 -118.86 	 
H 	 -108.604 	 8.15177 	 -117.875 	 
S 	 -107.349 	 2.14109 	 -111.65 	 
C 	 -106.285 	 0.781944 	 -111.565 	 
C 	 -106.092 	 0.102157 	 -112.735 	 
C 	 -106.793 	 0.817528 	 -113.777 	 
C 	 -107.572 	 1.85468 	 -113.375 	 
H 	 -105.448 	 -0.650927 	 -113.023 	 
C 	 -106.855 	 0.122906 	 -115.136 	 
H 	 -105.883 	 -0.260371 	 -115.495 	 
H 	 -107.289 	 0.745496 	 -115.874 	 
C 	 -107.643 	 -1.22566 	 -115.002 	 
H 	 -107.116 	 -1.83048 	 -114.353 	 
H 	 -107.577 	 -1.64165 	 -115.969 	 
C 	 -109.028 	 -1.05815 	 -114.438 	 
H 	 -109.608 	 -0.330797 	 -115.045 	 
H 	 -108.881 	 -0.637245 	 -113.45 	 
H 	 -109.587 	 -2.0011 	 -114.156 	 
H 	 -111.437 	 4.54127 	 -114.961 	 
H 	 -105.796 	 0.56067 	 -110.635 	 
*
