! wB97X-D3 SP def2-SVP
%pal
nprocs 24
end

* xyz 0 1
S 	 37.8223 	 -7.73027 	 -112.713 	 
C 	 39.1837 	 -7.47408 	 -113.769 	 
C 	 39.2078 	 -6.20245 	 -114.288 	 
C 	 38.0967 	 -5.45297 	 -113.756 	 
C 	 37.2338 	 -6.07469 	 -112.921 	 
H 	 37.8152 	 -4.48346 	 -114.071 	 
C 	 40.2867 	 -5.57596 	 -115.161 	 
H 	 41.1608 	 -6.23183 	 -115.069 	 
H 	 40.6072 	 -4.6368 	 -114.701 	 
C 	 39.9314 	 -5.14739 	 -116.597 	 
H 	 39.5417 	 -6.01457 	 -117.049 	 
H 	 39.1077 	 -4.45149 	 -116.629 	 
C 	 41.0114 	 -4.51734 	 -117.395 	 
H 	 41.5373 	 -3.72344 	 -116.854 	 
H 	 41.7899 	 -5.23085 	 -117.652 	 
H 	 40.6536 	 -3.95025 	 -118.302 	 
S 	 34.4605 	 -5.85486 	 -113.435 	 
C 	 33.4725 	 -4.99745 	 -112.249 	 
C 	 34.246 	 -4.56157 	 -111.184 	 
C 	 35.5944 	 -5.02698 	 -111.262 	 
C 	 35.9652 	 -5.60494 	 -112.414 	 
H 	 33.6616 	 -4.13598 	 -110.306 	 
C 	 36.5284 	 -4.7596 	 -110.076 	 
H 	 36.7578 	 -3.67125 	 -109.899 	 
H 	 37.4845 	 -5.20347 	 -110.442 	 
C 	 36.0584 	 -5.42884 	 -108.779 	 
H 	 36.9244 	 -5.26263 	 -108.172 	 
H 	 35.9447 	 -6.52154 	 -108.805 	 
C 	 34.8339 	 -4.75989 	 -108.071 	 
H 	 33.9508 	 -5.21662 	 -108.606 	 
H 	 34.779 	 -3.63777 	 -108.145 	 
H 	 34.6772 	 -5.04038 	 -106.991 	 
H 	 40.0771 	 -8.07241 	 -113.755 	 
H 	 32.3899 	 -5.00206 	 -112.185 	 
*
