! wB97X-D3 SP def2-SVP
%pal
nprocs 24
end

* xyz 0 1
S 	 -107.68 	 61.3119 	 -97.2914 	 
C 	 -106.486 	 61.4685 	 -96.0196 	 
C 	 -106.06 	 60.1465 	 -95.5683 	 
C 	 -106.996 	 59.2039 	 -96.0172 	 
C 	 -108.063 	 59.6837 	 -96.7547 	 
H 	 -106.95 	 58.1253 	 -95.8231 	 
C 	 -104.931 	 59.8689 	 -94.5646 	 
H 	 -105.312 	 59.208 	 -93.8397 	 
H 	 -104.853 	 60.7656 	 -94.035 	 
C 	 -103.537 	 59.4311 	 -95.1418 	 
H 	 -102.755 	 59.1085 	 -94.4154 	 
H 	 -103.627 	 58.5434 	 -95.7203 	 
C 	 -102.908 	 60.5024 	 -96.1095 	 
H 	 -101.974 	 60.1575 	 -96.5564 	 
H 	 -103.551 	 60.7818 	 -96.8825 	 
H 	 -102.574 	 61.4053 	 -95.5148 	 
S 	 -109.65 	 59.4872 	 -98.9008 	 
C 	 -111.092 	 58.4992 	 -98.961 	 
C 	 -111.055 	 57.685 	 -97.8551 	 
C 	 -110.045 	 58.0023 	 -96.8606 	 
C 	 -109.177 	 59.0055 	 -97.3417 	 
H 	 -111.764 	 56.8697 	 -97.659 	 
C 	 -109.799 	 57.1534 	 -95.5853 	 
H 	 -110.81 	 57.0096 	 -95.209 	 
H 	 -109.309 	 57.7867 	 -94.8113 	 
C 	 -109.083 	 55.7489 	 -95.8216 	 
H 	 -108.134 	 55.9885 	 -96.3249 	 
H 	 -109.751 	 55.1748 	 -96.5128 	 
C 	 -108.644 	 54.9678 	 -94.6099 	 
H 	 -109.513 	 54.783 	 -93.9692 	 
H 	 -108.119 	 55.6102 	 -94.0174 	 
H 	 -108.033 	 54.0405 	 -94.8469 	 
H 	 -105.87 	 62.3723 	 -95.7672 	 
H 	 -111.759 	 58.3912 	 -99.8021 	 
*
