! wB97X-D3 SP def2-SVP
%pal
nprocs 24
end

* xyz 0 1
S 	 -122.264 	 56.2592 	 -35.4033 	 
C 	 -121.303 	 54.9909 	 -34.7072 	 
C 	 -120.81 	 55.3171 	 -33.4694 	 
C 	 -121.365 	 56.5782 	 -32.9779 	 
C 	 -122.308 	 57.0918 	 -33.8554 	 
H 	 -121.104 	 57.0278 	 -32.0408 	 
C 	 -119.773 	 54.4371 	 -32.6662 	 
H 	 -120.143 	 54.4008 	 -31.6787 	 
H 	 -118.849 	 54.8757 	 -32.4952 	 
C 	 -119.526 	 53.0343 	 -33.2396 	 
H 	 -119.151 	 53.1006 	 -34.2255 	 
H 	 -118.787 	 52.5135 	 -32.5747 	 
C 	 -120.757 	 52.1747 	 -33.2797 	 
H 	 -120.494 	 51.3456 	 -33.9423 	 
H 	 -121.094 	 51.7434 	 -32.3337 	 
H 	 -121.512 	 52.6086 	 -33.9599 	 
S 	 -122.957 	 59.6149 	 -34.9585 	 
C 	 -123.564 	 60.8345 	 -33.8454 	 
C 	 -124.11 	 60.226 	 -32.7381 	 
C 	 -123.762 	 58.8366 	 -32.632 	 
C 	 -123.01 	 58.3613 	 -33.6995 	 
H 	 -124.689 	 60.8271 	 -32.0504 	 
C 	 -124.028 	 58.0719 	 -31.3111 	 
H 	 -123.924 	 56.9859 	 -31.4724 	 
H 	 -125.033 	 58.3044 	 -31.018 	 
C 	 -123.135 	 58.5048 	 -30.2274 	 
H 	 -123.475 	 59.4972 	 -29.9565 	 
H 	 -122.104 	 58.5439 	 -30.4802 	 
C 	 -123.259 	 57.5535 	 -29.0087 	 
H 	 -122.528 	 57.9129 	 -28.2789 	 
H 	 -123.099 	 56.5057 	 -29.3525 	 
H 	 -124.291 	 57.605 	 -28.5584 	 
H 	 -120.967 	 54.1534 	 -35.2401 	 
H 	 -123.805 	 61.8443 	 -34.1439 	 
*
