! wB97X-D3 SP def2-SVP
%pal
nprocs 24
end

* xyz 0 1
S 	 -58.3848 	 -54.2083 	 -84.5559 	 
C 	 -59.7813 	 -53.4599 	 -83.813 	 
C 	 -60.6966 	 -54.3796 	 -83.3186 	 
C 	 -60.1676 	 -55.6952 	 -83.496 	 
C 	 -58.9635 	 -55.7821 	 -84.1025 	 
H 	 -60.6259 	 -56.594 	 -83.2557 	 
C 	 -62.0519 	 -54.1092 	 -82.666 	 
H 	 -62.8147 	 -54.9395 	 -82.9043 	 
H 	 -62.6166 	 -53.223 	 -83.0952 	 
C 	 -61.9358 	 -53.8631 	 -81.1016 	 
H 	 -61.1885 	 -54.5148 	 -80.6616 	 
H 	 -61.7843 	 -52.8333 	 -80.86 	 
C 	 -63.268 	 -54.2183 	 -80.4492 	 
H 	 -64.0279 	 -53.5021 	 -80.6466 	 
H 	 -63.5169 	 -55.3061 	 -80.7385 	 
H 	 -63.2414 	 -54.1231 	 -79.4283 	 
S 	 -56.4308 	 -57.0034 	 -84.0665 	 
C 	 -56.3334 	 -58.6656 	 -84.5599 	 
C 	 -57.4977 	 -59.2174 	 -85.0108 	 
C 	 -58.6264 	 -58.3047 	 -84.8458 	 
C 	 -58.2172 	 -57.0188 	 -84.442 	 
H 	 -57.4867 	 -60.2518 	 -85.3437 	 
C 	 -59.9517 	 -58.7052 	 -85.238 	 
H 	 -59.9502 	 -59.0735 	 -86.2872 	 
H 	 -60.612 	 -57.831 	 -85.2186 	 
C 	 -60.7464 	 -59.7573 	 -84.3529 	 
H 	 -60.7075 	 -59.5026 	 -83.2841 	 
H 	 -60.1645 	 -60.7172 	 -84.3647 	 
C 	 -62.2334 	 -59.9371 	 -84.7804 	 
H 	 -62.8139 	 -59.0238 	 -84.5556 	 
H 	 -62.7142 	 -60.7852 	 -84.2502 	 
H 	 -62.3555 	 -60.1541 	 -85.8743 	 
H 	 -59.9172 	 -52.3455 	 -83.713 	 
H 	 -55.3914 	 -59.2336 	 -84.5735 	 
*
