! wB97X-D3 SP def2-SVP
%pal
nprocs 24
end

* xyz 0 1
S 	 -100.939 	 50.9137 	 -101.539 	 
C 	 -101.263 	 52.5813 	 -101.361 	 
C 	 -100.222 	 53.2267 	 -100.736 	 
C 	 -99.0098 	 52.3958 	 -100.571 	 
C 	 -99.1837 	 51.1319 	 -101.225 	 
H 	 -98.1077 	 52.7817 	 -100.085 	 
C 	 -100.061 	 54.6678 	 -100.257 	 
H 	 -99.2285 	 54.7317 	 -99.5655 	 
H 	 -100.938 	 54.9718 	 -99.7124 	 
C 	 -100.001 	 55.7504 	 -101.306 	 
H 	 -99.0456 	 55.7651 	 -101.767 	 
H 	 -100.603 	 55.6122 	 -102.219 	 
C 	 -100.328 	 57.0953 	 -100.725 	 
H 	 -100.011 	 57.256 	 -99.7056 	 
H 	 -99.9885 	 57.855 	 -101.441 	 
H 	 -101.452 	 57.1075 	 -100.607 	 
S 	 -97.0957 	 49.6061 	 -100.138 	 
C 	 -96.2729 	 48.5106 	 -101.188 	 
C 	 -96.6535 	 48.5296 	 -102.493 	 
C 	 -97.7449 	 49.4327 	 -102.644 	 
C 	 -98.1398 	 50.0378 	 -101.455 	 
H 	 -96.2285 	 47.8836 	 -103.314 	 
C 	 -98.2924 	 49.7264 	 -104.003 	 
H 	 -97.4553 	 49.9416 	 -104.738 	 
H 	 -98.7939 	 50.7214 	 -103.848 	 
C 	 -99.2882 	 48.6357 	 -104.417 	 
H 	 -100.01 	 48.912 	 -105.226 	 
H 	 -99.8771 	 48.3296 	 -103.61 	 
C 	 -98.6635 	 47.406 	 -105.032 	 
H 	 -97.6956 	 47.714 	 -105.481 	 
H 	 -99.3313 	 46.9931 	 -105.779 	 
H 	 -98.5736 	 46.603 	 -104.327 	 
H 	 -102.248 	 52.9542 	 -101.503 	 
H 	 -95.3515 	 48.0525 	 -100.876 	 
*
