! wB97X-D3 SP def2-SVP
%pal
nprocs 24
end

* xyz 0 1
S 	 -138.008 	 26.2467 	 -20.0629 	 
C 	 -139.157 	 25.0873 	 -20.6479 	 
C 	 -138.518 	 24.1062 	 -21.3776 	 
C 	 -137.086 	 24.3895 	 -21.518 	 
C 	 -136.693 	 25.4991 	 -20.7654 	 
H 	 -136.408 	 23.8145 	 -22.0632 	 
C 	 -139.166 	 22.8799 	 -21.9928 	 
H 	 -139.222 	 22.945 	 -23.0762 	 
H 	 -140.176 	 22.9655 	 -21.6481 	 
C 	 -138.484 	 21.5118 	 -21.7284 	 
H 	 -138.929 	 20.6581 	 -22.3059 	 
H 	 -137.491 	 21.5334 	 -22.2608 	 
C 	 -138.176 	 21.1492 	 -20.3128 	 
H 	 -139.082 	 21.4868 	 -19.7843 	 
H 	 -138.033 	 20.0654 	 -20.2623 	 
H 	 -137.354 	 21.7513 	 -19.9567 	 
S 	 -135.201 	 27.4579 	 -21.701 	 
C 	 -133.568 	 27.7386 	 -21.0517 	 
C 	 -133.172 	 26.6957 	 -20.2742 	 
C 	 -134.208 	 25.7158 	 -20.0613 	 
C 	 -135.379 	 26.0226 	 -20.8003 	 
H 	 -132.219 	 26.716 	 -19.7282 	 
C 	 -134.057 	 24.4644 	 -19.1767 	 
H 	 -134.889 	 23.7874 	 -19.3531 	 
H 	 -134.133 	 24.7389 	 -18.1025 	 
C 	 -132.685 	 23.7258 	 -19.2736 	 
H 	 -132.67 	 22.8715 	 -18.6297 	 
H 	 -131.863 	 24.2994 	 -18.8263 	 
C 	 -132.324 	 23.2083 	 -20.6725 	 
H 	 -133.089 	 22.6331 	 -21.2044 	 
H 	 -131.424 	 22.6175 	 -20.3414 	 
H 	 -131.998 	 24.0313 	 -21.3432 	 
H 	 -140.188 	 25.1126 	 -20.4935 	 
H 	 -132.863 	 28.5169 	 -21.2906 	 
*
