! wB97X-D3 SP def2-SVP
%pal
nprocs 24
end

* xyz 0 1
S 	 -140.255 	 8.9813 	 5.20417 	 
C 	 -139.232 	 9.20826 	 3.81912 	 
C 	 -138.475 	 8.02891 	 3.59049 	 
C 	 -138.61 	 7.10781 	 4.65898 	 
C 	 -139.514 	 7.46573 	 5.63096 	 
H 	 -138.173 	 6.1008 	 4.66121 	 
C 	 -137.631 	 7.74146 	 2.34117 	 
H 	 -138.282 	 7.23584 	 1.63004 	 
H 	 -136.937 	 6.93391 	 2.6002 	 
C 	 -136.831 	 8.87142 	 1.75476 	 
H 	 -137.371 	 9.78434 	 1.64265 	 
H 	 -136.01 	 9.14809 	 2.46906 	 
C 	 -136.134 	 8.54111 	 0.434984 	 
H 	 -135.547 	 9.44442 	 0.132096 	 
H 	 -135.346 	 7.75927 	 0.450404 	 
H 	 -136.77 	 8.22021 	 -0.383296 	 
S 	 -139.943 	 4.96886 	 6.70123 	 
C 	 -140.242 	 4.84728 	 8.41475 	 
C 	 -140.267 	 6.07625 	 9.06441 	 
C 	 -140.052 	 7.17491 	 8.15822 	 
C 	 -139.839 	 6.72502 	 6.84656 	 
H 	 -140.681 	 6.20269 	 10.0218 	 
C 	 -140.175 	 8.62818 	 8.53438 	 
H 	 -141.078 	 9.12322 	 8.08312 	 
H 	 -139.31 	 9.14104 	 8.06159 	 
C 	 -140.095 	 8.95148 	 10.025 	 
H 	 -139.074 	 8.64022 	 10.3605 	 
H 	 -140.824 	 8.31668 	 10.5463 	 
C 	 -140.342 	 10.4875 	 10.1527 	 
H 	 -139.803 	 11.0684 	 9.40762 	 
H 	 -140.033 	 10.8873 	 11.08 	 
H 	 -141.41 	 10.7414 	 10.013 	 
H 	 -139.444 	 10.0314 	 3.05809 	 
H 	 -140.359 	 3.84885 	 8.88895 	 
*
