! wB97X-D3 SP def2-SVP
%pal
nprocs 24
end

* xyz 0 1
S 	 -40.5821 	 -0.840202 	 15.2652 	 
C 	 -40.2518 	 -1.15991 	 16.9434 	 
C 	 -39.6946 	 -2.41509 	 17.1806 	 
C 	 -39.9944 	 -3.18121 	 16.019 	 
C 	 -40.6248 	 -2.55273 	 14.9771 	 
H 	 -39.9174 	 -4.27236 	 15.8909 	 
C 	 -39.2161 	 -3.02518 	 18.4692 	 
H 	 -38.4006 	 -3.75764 	 18.2893 	 
H 	 -40.136 	 -3.53652 	 18.8603 	 
C 	 -38.7599 	 -2.1234 	 19.6429 	 
H 	 -38.1742 	 -2.70463 	 20.3749 	 
H 	 -38.0623 	 -1.42313 	 19.1805 	 
C 	 -39.9639 	 -1.468 	 20.4971 	 
H 	 -40.441 	 -0.691938 	 19.9379 	 
H 	 -40.7088 	 -2.22827 	 20.5192 	 
H 	 -39.7071 	 -1.24388 	 21.5239 	 
S 	 -40.2455 	 -4.34936 	 12.869 	 
C 	 -41.5359 	 -4.52343 	 11.6794 	 
C 	 -42.6426 	 -3.77825 	 12.002 	 
C 	 -42.4277 	 -2.92119 	 13.1134 	 
C 	 -41.2123 	 -3.18291 	 13.7779 	 
H 	 -43.5427 	 -3.89944 	 11.3509 	 
C 	 -43.3861 	 -1.82685 	 13.5321 	 
H 	 -43.2769 	 -1.01703 	 12.8269 	 
H 	 -43.0196 	 -1.40404 	 14.4443 	 
C 	 -44.8532 	 -2.20939 	 13.6851 	 
H 	 -45.0297 	 -3.13857 	 14.2653 	 
H 	 -45.1894 	 -2.4451 	 12.7123 	 
C 	 -45.6597 	 -1.08434 	 14.1437 	 
H 	 -46.7522 	 -1.36245 	 14.1917 	 
H 	 -45.5995 	 -0.282012 	 13.4461 	 
H 	 -45.3408 	 -0.600434 	 15.038 	 
H 	 -40.0788 	 -0.360171 	 17.6989 	 
H 	 -41.5176 	 -5.03417 	 10.702 	 
*
