! wB97X-D3 SP def2-SVP
%pal
nprocs 24
end

* xyz 0 1
S 	 -31.8619 	 -5.3342 	 7.62796 	 
C 	 -31.0926 	 -4.22391 	 8.81571 	 
C 	 -32.0003 	 -3.86959 	 9.83313 	 
C 	 -33.2563 	 -4.50587 	 9.6215 	 
C 	 -33.4089 	 -5.35504 	 8.55528 	 
H 	 -34.1273 	 -4.44953 	 10.319 	 
C 	 -31.5767 	 -3.13671 	 11.0693 	 
H 	 -30.5866 	 -3.60328 	 11.2643 	 
H 	 -32.2005 	 -3.42132 	 11.9527 	 
C 	 -31.237 	 -1.65929 	 10.8907 	 
H 	 -30.4226 	 -1.67795 	 10.1868 	 
H 	 -32.0667 	 -1.18038 	 10.3802 	 
C 	 -30.8748 	 -0.845139 	 12.1916 	 
H 	 -29.9991 	 -1.22357 	 12.686 	 
H 	 -30.8437 	 0.28555 	 12.0261 	 
H 	 -31.7481 	 -1.02258 	 12.8915 	 
S 	 -34.0373 	 -7.87471 	 7.82361 	 
C 	 -35.7852 	 -8.28994 	 7.79078 	 
C 	 -36.5974 	 -7.22933 	 8.02195 	 
C 	 -35.8701 	 -6.05019 	 8.35983 	 
C 	 -34.4936 	 -6.22807 	 8.31282 	 
H 	 -37.6812 	 -7.39192 	 7.8375 	 
C 	 -36.5874 	 -4.72345 	 8.55506 	 
H 	 -37.3505 	 -4.61829 	 7.79652 	 
H 	 -35.7799 	 -4.00829 	 8.398 	 
C 	 -37.2639 	 -4.77266 	 9.93861 	 
H 	 -36.3676 	 -4.95533 	 10.714 	 
H 	 -37.9454 	 -5.54031 	 10.0808 	 
C 	 -37.9741 	 -3.49299 	 10.3444 	 
H 	 -39.0654 	 -3.6688 	 10.0996 	 
H 	 -37.7057 	 -2.62597 	 9.75042 	 
H 	 -37.8264 	 -3.36356 	 11.4205 	 
H 	 -30.097 	 -3.76788 	 8.67159 	 
H 	 -36.1049 	 -9.24549 	 7.5879 	 
*
