! wB97X-D3 SP def2-SVP
%pal
nprocs 24
end

* xyz 0 1
S 	 -99.1364 	 2.10365 	 -106.376 	 
C 	 -100.468 	 2.73117 	 -105.472 	 
C 	 -100.053 	 3.78328 	 -104.734 	 
C 	 -98.664 	 4.09707 	 -104.924 	 
C 	 -97.9773 	 3.21836 	 -105.737 	 
H 	 -98.1575 	 4.8632 	 -104.439 	 
C 	 -100.931 	 4.62938 	 -103.731 	 
H 	 -101.817 	 4.99378 	 -104.21 	 
H 	 -100.484 	 5.63014 	 -103.649 	 
C 	 -101.276 	 4.06496 	 -102.388 	 
H 	 -101.469 	 2.9369 	 -102.427 	 
H 	 -100.359 	 4.2623 	 -101.895 	 
C 	 -102.462 	 4.72227 	 -101.739 	 
H 	 -103.406 	 4.41077 	 -102.201 	 
H 	 -102.524 	 4.74233 	 -100.652 	 
H 	 -102.421 	 5.8034 	 -101.951 	 
S 	 -96.1312 	 2.74948 	 -107.739 	 
C 	 -94.4987 	 2.66658 	 -107.345 	 
C 	 -94.2168 	 3.09047 	 -106.071 	 
C 	 -95.3841 	 3.50602 	 -105.379 	 
C 	 -96.5371 	 3.09226 	 -106.054 	 
H 	 -93.1423 	 2.95991 	 -105.76 	 
C 	 -95.3615 	 3.92622 	 -103.907 	 
H 	 -94.5158 	 3.4962 	 -103.428 	 
H 	 -96.2085 	 3.48398 	 -103.388 	 
C 	 -95.3432 	 5.46528 	 -103.577 	 
H 	 -96.0536 	 5.99247 	 -104.213 	 
H 	 -94.3571 	 5.92754 	 -103.758 	 
C 	 -95.5293 	 5.73009 	 -102.081 	 
H 	 -94.7906 	 5.27526 	 -101.442 	 
H 	 -96.4756 	 5.31528 	 -101.669 	 
H 	 -95.6478 	 6.82998 	 -101.897 	 
H 	 -101.484 	 2.35702 	 -105.43 	 
H 	 -93.6898 	 2.49578 	 -108.155 	 
*
