! wB97X-D3 SP def2-SVP
%pal
nprocs 24
end

* xyz 0 1
S 	 10.2284 	 -16.1627 	 -118.64 	 
C 	 9.08651 	 -15.9664 	 -119.94 	 
C 	 8.00852 	 -16.7922 	 -119.671 	 
C 	 8.21119 	 -17.7401 	 -118.681 	 
C 	 9.36551 	 -17.5153 	 -117.994 	 
H 	 7.54644 	 -18.5983 	 -118.462 	 
C 	 6.68959 	 -16.6997 	 -120.532 	 
H 	 6.98599 	 -16.4483 	 -121.534 	 
H 	 6.15591 	 -15.8511 	 -120.21 	 
C 	 5.77975 	 -17.8844 	 -120.527 	 
H 	 6.23891 	 -18.7652 	 -120.862 	 
H 	 5.39609 	 -18.1666 	 -119.539 	 
C 	 4.53453 	 -17.7971 	 -121.414 	 
H 	 4.82096 	 -17.6092 	 -122.439 	 
H 	 3.91167 	 -18.7424 	 -121.247 	 
H 	 3.89992 	 -16.975 	 -121.197 	 
S 	 9.79331 	 -20.0894 	 -116.958 	 
C 	 10.8047 	 -20.2736 	 -115.493 	 
C 	 11.1283 	 -19.0707 	 -114.976 	 
C 	 10.6697 	 -17.9179 	 -115.754 	 
C 	 9.9357 	 -18.3348 	 -116.919 	 
H 	 11.7194 	 -19.0493 	 -114.096 	 
C 	 10.8181 	 -16.5238 	 -115.237 	 
H 	 10.5514 	 -15.7208 	 -115.936 	 
H 	 11.8541 	 -16.426 	 -115.105 	 
C 	 10.0954 	 -16.143 	 -113.949 	 
H 	 10.4333 	 -15.1217 	 -113.687 	 
H 	 10.5573 	 -16.6122 	 -113.135 	 
C 	 8.59116 	 -16.296 	 -113.948 	 
H 	 8.13106 	 -15.9048 	 -113.034 	 
H 	 8.34506 	 -17.3479 	 -114.079 	 
H 	 8.12553 	 -15.788 	 -114.835 	 
H 	 9.08901 	 -15.234 	 -120.737 	 
H 	 11.1245 	 -21.2537 	 -115.064 	 
*
