! wB97X-D3 SP def2-SVP
%pal
nprocs 24
end

* xyz 0 1
S 	 -36.2072 	 -11.6704 	 18.4147 	 
C 	 -36.3757 	 -9.89425 	 18.5544 	 
C 	 -35.1502 	 -9.23943 	 18.7066 	 
C 	 -34.1262 	 -10.119 	 18.4081 	 
C 	 -34.4771 	 -11.4523 	 18.2327 	 
H 	 -33.0981 	 -9.84568 	 18.2845 	 
C 	 -34.9494 	 -7.79768 	 19.0766 	 
H 	 -34.213 	 -7.64765 	 19.8959 	 
H 	 -35.7777 	 -7.38191 	 19.5317 	 
C 	 -34.4918 	 -6.94241 	 17.9345 	 
H 	 -34.4997 	 -5.88232 	 18.3073 	 
H 	 -33.4592 	 -7.10648 	 17.5328 	 
C 	 -35.5295 	 -6.82087 	 16.7948 	 
H 	 -35.371 	 -6.22295 	 15.8419 	 
H 	 -35.5855 	 -7.85009 	 16.4537 	 
H 	 -36.4692 	 -6.50298 	 17.1774 	 
S 	 -32.8414 	 -13.4559 	 19.0143 	 
C 	 -32.1137 	 -14.527 	 17.7863 	 
C 	 -32.6873 	 -14.3608 	 16.5631 	 
C 	 -33.578 	 -13.1698 	 16.5626 	 
C 	 -33.5829 	 -12.4761 	 17.77 	 
H 	 -32.376 	 -15.0259 	 15.7218 	 
C 	 -34.2093 	 -12.8152 	 15.2521 	 
H 	 -33.6757 	 -13.2003 	 14.4288 	 
H 	 -34.2613 	 -11.7293 	 15.1399 	 
C 	 -35.6521 	 -13.2941 	 15.1685 	 
H 	 -36.3295 	 -12.9575 	 15.9784 	 
H 	 -35.706 	 -14.3799 	 15.1285 	 
C 	 -36.2861 	 -12.8679 	 13.8233 	 
H 	 -37.3831 	 -12.9779 	 13.8372 	 
H 	 -35.8744 	 -13.4137 	 12.9198 	 
H 	 -36.2256 	 -11.7844 	 13.5168 	 
H 	 -37.2157 	 -9.35479 	 18.8503 	 
H 	 -31.354 	 -15.275 	 18.0683 	 
*
