! wB97X-D3 SP def2-SVP
%pal
nprocs 24
end

* xyz 0 1
S 	 -40.1204 	 -41.6423 	 -81.2708 	 
C 	 -39.9959 	 -40.0483 	 -80.5156 	 
C 	 -38.7 	 -39.8844 	 -80.0216 	 
C 	 -37.8528 	 -40.9666 	 -80.3366 	 
C 	 -38.3768 	 -41.9227 	 -81.1279 	 
H 	 -36.7898 	 -41.1421 	 -80.0464 	 
C 	 -38.2781 	 -38.6867 	 -79.2123 	 
H 	 -38.5709 	 -38.9454 	 -78.1708 	 
H 	 -38.9134 	 -37.8279 	 -79.5826 	 
C 	 -36.8078 	 -38.2054 	 -79.0115 	 
H 	 -36.0675 	 -39.0318 	 -78.8512 	 
H 	 -36.5558 	 -37.7491 	 -79.9611 	 
C 	 -36.6407 	 -37.2294 	 -77.8529 	 
H 	 -37.2482 	 -37.47 	 -76.9977 	 
H 	 -35.6481 	 -37.234 	 -77.4281 	 
H 	 -36.9295 	 -36.279 	 -78.1604 	 
S 	 -38.1768 	 -44.7315 	 -80.8054 	 
C 	 -37.0836 	 -45.5927 	 -81.8447 	 
C 	 -36.1866 	 -44.7748 	 -82.452 	 
C 	 -36.5589 	 -43.3659 	 -82.2854 	 
C 	 -37.6685 	 -43.1423 	 -81.5153 	 
H 	 -35.2619 	 -45.0822 	 -82.9499 	 
C 	 -35.7998 	 -42.3196 	 -82.9343 	 
H 	 -34.8419 	 -42.6853 	 -83.0801 	 
H 	 -35.7308 	 -41.4922 	 -82.2462 	 
C 	 -36.2604 	 -41.8418 	 -84.3146 	 
H 	 -37.1967 	 -41.399 	 -84.1256 	 
H 	 -36.5189 	 -42.6742 	 -85.0007 	 
C 	 -35.2829 	 -40.8333 	 -84.8424 	 
H 	 -34.3207 	 -41.326 	 -84.7948 	 
H 	 -35.2271 	 -39.931 	 -84.1583 	 
H 	 -35.6469 	 -40.5392 	 -85.827 	 
H 	 -40.7227 	 -39.2494 	 -80.526 	 
H 	 -37.0526 	 -46.6361 	 -81.8853 	 
*
