! wB97X-D3 SP def2-SVP
%pal
nprocs 24
end

* xyz 0 1
S 	 -139.854 	 10.077 	 1.84832 	 
C 	 -141.094 	 9.36747 	 0.815699 	 
C 	 -140.522 	 8.48619 	 -0.0479331 	 
C 	 -139.06 	 8.4977 	 -0.0212159 	 
C 	 -138.5 	 9.39967 	 0.898532 	 
H 	 -138.389 	 8.02883 	 -0.749021 	 
C 	 -141.241 	 7.73203 	 -1.09368 	 
H 	 -140.662 	 7.67525 	 -2.03693 	 
H 	 -142.072 	 8.2949 	 -1.39577 	 
C 	 -141.622 	 6.28288 	 -0.729853 	 
H 	 -140.665 	 5.72151 	 -0.723608 	 
H 	 -142.125 	 6.34519 	 0.234129 	 
C 	 -142.67 	 5.62302 	 -1.71367 	 
H 	 -142.585 	 4.56575 	 -1.60027 	 
H 	 -143.722 	 5.92921 	 -1.62168 	 
H 	 -142.326 	 5.96317 	 -2.65752 	 
S 	 -136.47 	 11.3371 	 1.02142 	 
C 	 -134.827 	 10.7663 	 1.14006 	 
C 	 -134.754 	 9.42356 	 1.30943 	 
C 	 -136.009 	 8.81135 	 1.31885 	 
C 	 -137.105 	 9.64328 	 1.10524 	 
H 	 -133.837 	 8.91118 	 1.45613 	 
C 	 -136.034 	 7.30282 	 1.44514 	 
H 	 -136.991 	 6.98074 	 1.74795 	 
H 	 -135.395 	 6.9868 	 2.26427 	 
C 	 -135.491 	 6.68419 	 0.163124 	 
H 	 -134.392 	 6.57613 	 0.286532 	 
H 	 -135.657 	 7.21752 	 -0.675474 	 
C 	 -136.002 	 5.23744 	 0.00171041 	 
H 	 -135.537 	 4.69369 	 -0.775721 	 
H 	 -137.139 	 5.22658 	 -0.17358 	 
H 	 -135.824 	 4.6907 	 0.942874 	 
H 	 -142.183 	 9.57779 	 0.771537 	 
H 	 -133.975 	 11.4949 	 1.08096 	 
*
