! wB97X-D3 SP def2-SVP
%pal
nprocs 24
end

* xyz 0 1
S 	 -43.5717 	 8.50316 	 29.8733 	 
C 	 -45.2009 	 8.10955 	 30.4627 	 
C 	 -46.1275 	 8.91238 	 29.857 	 
C 	 -45.5608 	 9.8859 	 29.0508 	 
C 	 -44.1676 	 9.82402 	 28.986 	 
H 	 -46.0531 	 10.5934 	 28.4573 	 
C 	 -47.5915 	 8.78042 	 30.0364 	 
H 	 -47.88 	 7.90006 	 29.548 	 
H 	 -47.986 	 9.62722 	 29.5084 	 
C 	 -48.157 	 8.78361 	 31.4799 	 
H 	 -49.3124 	 8.72432 	 31.3507 	 
H 	 -47.7878 	 7.88661 	 32.0431 	 
C 	 -47.7926 	 10.0239 	 32.3293 	 
H 	 -48.0969 	 9.83723 	 33.3283 	 
H 	 -46.6869 	 10.1717 	 32.2866 	 
H 	 -48.133 	 10.9832 	 31.9251 	 
S 	 -41.9242 	 9.78199 	 27.4182 	 
C 	 -41.246 	 11.3023 	 26.8638 	 
C 	 -42.0195 	 12.3483 	 27.2288 	 
C 	 -43.08 	 12.0811 	 28.1188 	 
C 	 -43.1647 	 10.692 	 28.3569 	 
H 	 -41.7913 	 13.3203 	 26.8295 	 
C 	 -44.1163 	 13.0783 	 28.6961 	 
H 	 -43.6251 	 13.7583 	 29.3943 	 
H 	 -44.8938 	 12.5985 	 29.3776 	 
C 	 -44.9519 	 13.8519 	 27.6341 	 
H 	 -44.2677 	 14.489 	 27.0355 	 
H 	 -45.5551 	 14.592 	 28.2166 	 
C 	 -45.8153 	 12.9361 	 26.679 	 
H 	 -45.3382 	 12.0965 	 26.219 	 
H 	 -46.1145 	 13.5205 	 25.8699 	 
H 	 -46.6401 	 12.6654 	 27.2766 	 
H 	 -45.441 	 7.3252 	 31.1698 	 
H 	 -40.6511 	 11.4742 	 26.0629 	 
*
