! wB97X-D3 SP def2-SVP
%pal
nprocs 24
end

* xyz 0 1
S 	 -65.3851 	 -56.7629 	 -82.8472 	 
C 	 -66.531 	 -58.0229 	 -83.2612 	 
C 	 -66.904 	 -58.6937 	 -82.115 	 
C 	 -66.219 	 -58.2009 	 -81.0048 	 
C 	 -65.2834 	 -57.2143 	 -81.2109 	 
H 	 -66.4076 	 -58.5462 	 -79.9943 	 
C 	 -68.0276 	 -59.6798 	 -81.9281 	 
H 	 -67.8411 	 -60.2554 	 -81.0351 	 
H 	 -67.9507 	 -60.4372 	 -82.8106 	 
C 	 -69.4164 	 -59.0118 	 -81.968 	 
H 	 -69.5652 	 -58.5263 	 -82.8683 	 
H 	 -70.0381 	 -59.8514 	 -81.9986 	 
C 	 -69.8294 	 -58.0736 	 -80.7329 	 
H 	 -69.0586 	 -57.3356 	 -80.5188 	 
H 	 -70.8248 	 -57.5954 	 -80.8482 	 
H 	 -69.9283 	 -58.6197 	 -79.8447 	 
S 	 -63.3383 	 -55.2794 	 -80.9265 	 
C 	 -62.9769 	 -54.6754 	 -79.3396 	 
C 	 -63.5609 	 -55.4197 	 -78.3276 	 
C 	 -64.3832 	 -56.4346 	 -78.8323 	 
C 	 -64.4887 	 -56.4908 	 -80.2605 	 
H 	 -63.5166 	 -55.2133 	 -77.2677 	 
C 	 -65.1506 	 -57.3001 	 -77.8224 	 
H 	 -66.2209 	 -57.192 	 -77.9504 	 
H 	 -64.9501 	 -56.9634 	 -76.8396 	 
C 	 -64.7505 	 -58.8213 	 -77.708 	 
H 	 -63.6702 	 -58.9336 	 -77.8635 	 
H 	 -65.3157 	 -59.331 	 -78.4652 	 
C 	 -65.102 	 -59.3586 	 -76.3171 	 
H 	 -66.1451 	 -59.3845 	 -76.3192 	 
H 	 -64.5738 	 -58.7075 	 -75.6515 	 
H 	 -64.7371 	 -60.4002 	 -76.1088 	 
H 	 -67.0368 	 -58.0488 	 -84.2195 	 
H 	 -62.2127 	 -53.9676 	 -78.9929 	 
*
