! wB97X-D3 SP def2-SVP
%pal
nprocs 24
end

* xyz 0 1
S 	 -108.241 	 50.2752 	 -115.006 	 
C 	 -108.457 	 48.6159 	 -115.552 	 
C 	 -109.589 	 48.0805 	 -115.042 	 
C 	 -110.411 	 49.0384 	 -114.406 	 
C 	 -109.802 	 50.2766 	 -114.19 	 
H 	 -111.438 	 49.0042 	 -113.995 	 
C 	 -110.127 	 46.6542 	 -115.316 	 
H 	 -110.883 	 46.4317 	 -114.637 	 
H 	 -109.247 	 45.982 	 -115.335 	 
C 	 -110.961 	 46.3648 	 -116.601 	 
H 	 -110.36 	 46.4188 	 -117.534 	 
H 	 -111.281 	 45.3267 	 -116.601 	 
C 	 -112.315 	 47.131 	 -116.637 	 
H 	 -112.263 	 47.7475 	 -115.677 	 
H 	 -112.412 	 47.6616 	 -117.566 	 
H 	 -113.177 	 46.3388 	 -116.548 	 
S 	 -111.962 	 52.0649 	 -114.017 	 
C 	 -111.754 	 53.3987 	 -112.982 	 
C 	 -110.64 	 53.3231 	 -112.166 	 
C 	 -109.845 	 52.2173 	 -112.508 	 
C 	 -110.38 	 51.4586 	 -113.509 	 
H 	 -110.427 	 54.0434 	 -111.386 	 
C 	 -108.48 	 52.0663 	 -111.798 	 
H 	 -107.919 	 52.9915 	 -111.939 	 
H 	 -107.968 	 51.4464 	 -112.494 	 
C 	 -108.52 	 51.4607 	 -110.411 	 
H 	 -107.493 	 51.4242 	 -110.06 	 
H 	 -108.877 	 50.4742 	 -110.545 	 
C 	 -109.404 	 52.2259 	 -109.355 	 
H 	 -110.443 	 52.1246 	 -109.522 	 
H 	 -109.062 	 53.2941 	 -109.367 	 
H 	 -109.113 	 51.8695 	 -108.357 	 
H 	 -107.658 	 48.0652 	 -116.026 	 
H 	 -112.297 	 54.2851 	 -112.94 	 
*
