! wB97X-D3 SP def2-SVP
%pal
nprocs 24
end

* xyz 0 1
S 	 -98.3462 	 15.4395 	 -119.242 	 
C 	 -96.7055 	 16.0711 	 -119.107 	 
C 	 -95.9909 	 15.4262 	 -118.091 	 
C 	 -96.8161 	 14.4274 	 -117.439 	 
C 	 -98.0375 	 14.2227 	 -118.038 	 
H 	 -96.4653 	 13.7579 	 -116.674 	 
C 	 -94.5047 	 15.5985 	 -117.758 	 
H 	 -94.1383 	 16.2448 	 -118.554 	 
H 	 -94.0127 	 14.7162 	 -118.047 	 
C 	 -94.0959 	 16.1094 	 -116.471 	 
H 	 -93.003 	 16.2368 	 -116.437 	 
H 	 -94.7439 	 17.0192 	 -116.215 	 
C 	 -94.5409 	 15.1882 	 -115.301 	 
H 	 -95.5328 	 15.3413 	 -114.824 	 
H 	 -94.5013 	 14.1357 	 -115.544 	 
H 	 -93.7232 	 15.1855 	 -114.525 	 
S 	 -100.75 	 13.8095 	 -117.706 	 
C 	 -101.349 	 12.1632 	 -117.466 	 
C 	 -100.283 	 11.3306 	 -117.167 	 
C 	 -98.9639 	 11.9443 	 -117.298 	 
C 	 -99.0607 	 13.2836 	 -117.672 	 
H 	 -100.559 	 10.363 	 -116.989 	 
C 	 -97.6708 	 11.1234 	 -117.187 	 
H 	 -97.9505 	 10.2046 	 -116.717 	 
H 	 -97.0611 	 11.6004 	 -116.481 	 
C 	 -96.8803 	 11.0158 	 -118.481 	 
H 	 -95.7992 	 10.977 	 -118.273 	 
H 	 -97.0083 	 11.9927 	 -118.927 	 
C 	 -97.51 	 9.85866 	 -119.307 	 
H 	 -98.496 	 10.1045 	 -119.546 	 
H 	 -97.5883 	 8.88886 	 -118.754 	 
H 	 -96.982 	 9.74162 	 -120.213 	 
H 	 -96.2678 	 16.8143 	 -119.842 	 
H 	 -102.355 	 11.8047 	 -117.569 	 
*
