! wB97X-D3 SP def2-SVP
%pal
nprocs 24
end

* xyz 0 1
S 	 -79.9315 	 -43.5892 	 -93.1838 	 
C 	 -78.8777 	 -42.7362 	 -94.3824 	 
C 	 -79.5133 	 -42.6104 	 -95.6413 	 
C 	 -80.9228 	 -42.9797 	 -95.5111 	 
C 	 -81.373 	 -43.3002 	 -94.2273 	 
H 	 -81.6623 	 -42.8486 	 -96.3523 	 
C 	 -78.8717 	 -42.1054 	 -96.883 	 
H 	 -79.2941 	 -42.5442 	 -97.8002 	 
H 	 -77.8045 	 -42.3171 	 -96.7843 	 
C 	 -78.9234 	 -40.5565 	 -97.2359 	 
H 	 -79.9443 	 -40.1998 	 -97.2092 	 
H 	 -78.4781 	 -39.9793 	 -96.3793 	 
C 	 -78.3078 	 -40.2009 	 -98.5574 	 
H 	 -78.7794 	 -40.822 	 -99.333 	 
H 	 -78.4242 	 -39.1905 	 -98.8949 	 
H 	 -77.2141 	 -40.1673 	 -98.568 	 
S 	 -83.1971 	 -45.3015 	 -93.5264 	 
C 	 -84.873 	 -44.8668 	 -93.2595 	 
C 	 -85.0629 	 -43.5009 	 -93.3877 	 
C 	 -83.8517 	 -42.7976 	 -93.879 	 
C 	 -82.7032 	 -43.5704 	 -93.8342 	 
H 	 -86.021 	 -42.9975 	 -93.2848 	 
C 	 -83.9248 	 -41.3241 	 -94.2448 	 
H 	 -84.96 	 -41.1298 	 -94.5314 	 
H 	 -83.3429 	 -41.1692 	 -95.1655 	 
C 	 -83.3046 	 -40.4263 	 -93.1514 	 
H 	 -83.5194 	 -39.408 	 -93.4382 	 
H 	 -82.2343 	 -40.4557 	 -93.0803 	 
C 	 -83.7539 	 -40.7527 	 -91.7121 	 
H 	 -83.3993 	 -39.9316 	 -90.9914 	 
H 	 -83.3125 	 -41.6992 	 -91.3834 	 
H 	 -84.8429 	 -40.8506 	 -91.6941 	 
H 	 -77.857 	 -42.6427 	 -94.1451 	 
H 	 -85.5141 	 -45.6463 	 -92.8509 	 
*
