! wB97X-D3 SP def2-SVP
%pal
nprocs 24
end

* xyz 0 1
S 	 -123.01 	 62.3187 	 -59.9311 	 
C 	 -124.381 	 62.3015 	 -61.0212 	 
C 	 -125.25 	 61.2561 	 -60.6088 	 
C 	 -124.834 	 60.5948 	 -59.4023 	 
C 	 -123.693 	 61.1545 	 -58.8157 	 
H 	 -125.339 	 59.8145 	 -58.9291 	 
C 	 -126.536 	 60.8861 	 -61.3071 	 
H 	 -126.409 	 59.948 	 -61.8076 	 
H 	 -126.717 	 61.6234 	 -62.1087 	 
C 	 -127.699 	 60.8521 	 -60.3726 	 
H 	 -128.649 	 60.6482 	 -60.9028 	 
H 	 -127.561 	 60.1825 	 -59.5344 	 
C 	 -127.911 	 62.1313 	 -59.672 	 
H 	 -127.682 	 63.0401 	 -60.3399 	 
H 	 -128.943 	 62.2457 	 -59.2986 	 
H 	 -127.319 	 62.2772 	 -58.7662 	 
S 	 -123.456 	 62.1835 	 -56.2654 	 
C 	 -123.031 	 61.1071 	 -54.9696 	 
C 	 -122.978 	 59.8437 	 -55.4537 	 
C 	 -123.017 	 59.6147 	 -56.8556 	 
C 	 -123.326 	 60.8595 	 -57.482 	 
H 	 -122.677 	 59.1055 	 -54.6567 	 
C 	 -122.769 	 58.3497 	 -57.58 	 
H 	 -123.453 	 58.1776 	 -58.336 	 
H 	 -123.011 	 57.6006 	 -56.8762 	 
C 	 -121.386 	 58.1852 	 -58.2044 	 
H 	 -121.066 	 59.0342 	 -58.9032 	 
H 	 -121.326 	 57.2749 	 -58.7868 	 
C 	 -120.368 	 58.12 	 -57.0849 	 
H 	 -120.685 	 57.3816 	 -56.3062 	 
H 	 -120.262 	 59.1047 	 -56.5602 	 
H 	 -119.348 	 57.8399 	 -57.4513 	 
H 	 -124.643 	 62.9933 	 -61.7847 	 
H 	 -123.018 	 61.3006 	 -53.8752 	 
*
