! wB97X-D3 SP def2-SVP
%pal
nprocs 24
end

* xyz 0 1
S 	 -106.891 	 65.067 	 -11.3969 	 
C 	 -105.625 	 66.1771 	 -11.8366 	 
C 	 -104.739 	 66.3658 	 -10.8276 	 
C 	 -104.939 	 65.4163 	 -9.80643 	 
C 	 -106.024 	 64.5812 	 -9.98774 	 
H 	 -104.34 	 65.2943 	 -8.94313 	 
C 	 -103.606 	 67.414 	 -10.8768 	 
H 	 -104.112 	 68.35 	 -10.7142 	 
H 	 -103.36 	 67.4627 	 -11.9484 	 
C 	 -102.343 	 67.1071 	 -10.0113 	 
H 	 -102.608 	 67.1296 	 -8.88817 	 
H 	 -101.923 	 66.1036 	 -10.3396 	 
C 	 -101.228 	 68.0917 	 -10.2843 	 
H 	 -100.484 	 67.8444 	 -9.5596 	 
H 	 -100.869 	 67.9309 	 -11.3115 	 
H 	 -101.519 	 69.1235 	 -10.2652 	 
S 	 -106.507 	 61.9421 	 -9.95091 	 
C 	 -106.791 	 61.1027 	 -8.43544 	 
C 	 -106.942 	 61.9806 	 -7.37485 	 
C 	 -106.681 	 63.3253 	 -7.77224 	 
C 	 -106.406 	 63.4434 	 -9.11306 	 
H 	 -107.236 	 61.6137 	 -6.41025 	 
C 	 -106.559 	 64.5028 	 -6.81156 	 
H 	 -105.728 	 65.2355 	 -7.03824 	 
H 	 -106.297 	 64.1882 	 -5.82308 	 
C 	 -107.95 	 65.1495 	 -6.5226 	 
H 	 -107.964 	 65.9108 	 -5.65879 	 
H 	 -108.548 	 64.3019 	 -6.19248 	 
C 	 -108.478 	 65.8843 	 -7.7329 	 
H 	 -108.007 	 66.8186 	 -8.08972 	 
H 	 -109.516 	 66.1527 	 -7.46041 	 
H 	 -108.443 	 65.1388 	 -8.57791 	 
H 	 -105.688 	 66.8605 	 -12.6588 	 
H 	 -107.036 	 60.0599 	 -8.25233 	 
*
