! wB97X-D3 SP def2-SVP
%pal
nprocs 24
end

* xyz 0 1
S 	 18.9623 	 -4.64725 	 -113.716 	 
C 	 19.7873 	 -4.29547 	 -112.254 	 
C 	 19.8658 	 -5.43705 	 -111.426 	 
C 	 19.1686 	 -6.56312 	 -111.969 	 
C 	 18.6167 	 -6.30522 	 -113.213 	 
H 	 19.081 	 -7.55493 	 -111.577 	 
C 	 20.4 	 -5.45486 	 -110.021 	 
H 	 19.5579 	 -5.86018 	 -109.537 	 
H 	 20.4327 	 -4.47455 	 -109.656 	 
C 	 21.6363 	 -6.21971 	 -109.607 	 
H 	 22.5664 	 -5.79274 	 -109.899 	 
H 	 21.6642 	 -6.22852 	 -108.51 	 
C 	 21.6888 	 -7.73433 	 -109.924 	 
H 	 22.4782 	 -8.27755 	 -109.566 	 
H 	 20.7919 	 -8.25035 	 -109.563 	 
H 	 21.8542 	 -7.85822 	 -111.012 	 
S 	 18.2826 	 -6.95846 	 -115.881 	 
C 	 17.709 	 -8.50745 	 -116.308 	 
C 	 17.1063 	 -9.20734 	 -115.238 	 
C 	 17.3773 	 -8.52171 	 -113.984 	 
C 	 18.0569 	 -7.24595 	 -114.178 	 
H 	 16.5991 	 -10.1412 	 -115.388 	 
C 	 16.9032 	 -9.1146 	 -112.633 	 
H 	 17.7333 	 -8.97848 	 -111.921 	 
H 	 16.7098 	 -10.2167 	 -112.778 	 
C 	 15.7083 	 -8.36273 	 -112.074 	 
H 	 14.9221 	 -8.14978 	 -112.726 	 
H 	 16.0996 	 -7.34226 	 -111.836 	 
C 	 15.1552 	 -9.08936 	 -110.821 	 
H 	 14.4291 	 -8.4438 	 -110.34 	 
H 	 15.9988 	 -9.30849 	 -110.132 	 
H 	 14.7646 	 -10.027 	 -111.072 	 
H 	 20.2129 	 -3.3474 	 -112.138 	 
H 	 17.5185 	 -8.84419 	 -117.317 	 
*
