! wB97X-D3 SP def2-SVP
%pal
nprocs 24
end

* xyz 0 1
S 	 9.17246 	 -18.2419 	 -113.67 	 
C 	 7.74674 	 -17.6404 	 -114.51 	 
C 	 6.56674 	 -18.2035 	 -114.011 	 
C 	 6.83664 	 -19.1359 	 -112.958 	 
C 	 8.14647 	 -19.2436 	 -112.613 	 
H 	 6.0775 	 -19.5901 	 -112.319 	 
C 	 5.17839 	 -17.9725 	 -114.528 	 
H 	 4.99537 	 -16.895 	 -114.307 	 
H 	 4.47964 	 -18.4875 	 -113.922 	 
C 	 5.01781 	 -18.2374 	 -115.966 	 
H 	 5.64958 	 -17.5329 	 -116.486 	 
H 	 5.56542 	 -19.1863 	 -116.173 	 
C 	 3.60338 	 -18.0908 	 -116.377 	 
H 	 3.43326 	 -17.8132 	 -117.414 	 
H 	 3.13642 	 -18.9476 	 -116.121 	 
H 	 3.07713 	 -17.2985 	 -115.886 	 
S 	 8.32415 	 -21.6628 	 -111.347 	 
C 	 9.09837 	 -21.8368 	 -109.77 	 
C 	 9.5122 	 -20.6035 	 -109.308 	 
C 	 9.33876 	 -19.5257 	 -110.288 	 
C 	 8.65576 	 -19.9245 	 -111.456 	 
H 	 9.88712 	 -20.6309 	 -108.311 	 
C 	 9.87594 	 -18.1606 	 -109.986 	 
H 	 9.99172 	 -17.5775 	 -110.944 	 
H 	 10.9066 	 -18.351 	 -109.603 	 
C 	 9.17928 	 -17.4268 	 -108.859 	 
H 	 9.8814 	 -16.6561 	 -108.593 	 
H 	 8.9638 	 -18.1593 	 -108.059 	 
C 	 7.81424 	 -16.7614 	 -109.185 	 
H 	 7.06304 	 -17.5624 	 -109.211 	 
H 	 7.93292 	 -16.2318 	 -110.176 	 
H 	 7.57355 	 -16.1029 	 -108.319 	 
H 	 7.68127 	 -16.8696 	 -115.323 	 
H 	 9.31697 	 -22.7882 	 -109.179 	 
*
