! wB97X-D3 SP def2-SVP
%pal
nprocs 24
end

* xyz 0 1
S 	 -91.3809 	 -32.0526 	 -73.1383 	 
C 	 -91.7838 	 -32.6755 	 -74.6663 	 
C 	 -91.5652 	 -31.7111 	 -75.6291 	 
C 	 -91.2369 	 -30.4359 	 -75.0503 	 
C 	 -91.3109 	 -30.4544 	 -73.6869 	 
H 	 -91.1145 	 -29.5025 	 -75.6457 	 
C 	 -91.6958 	 -31.877 	 -77.1159 	 
H 	 -90.911 	 -32.6341 	 -77.2999 	 
H 	 -91.4252 	 -30.9642 	 -77.7006 	 
C 	 -92.9276 	 -32.3594 	 -77.6983 	 
H 	 -92.8113 	 -32.4903 	 -78.7596 	 
H 	 -93.2076 	 -33.3307 	 -77.1944 	 
C 	 -94.1036 	 -31.4327 	 -77.5485 	 
H 	 -93.8011 	 -30.3691 	 -77.7487 	 
H 	 -94.899 	 -31.8142 	 -78.2024 	 
H 	 -94.4632 	 -31.5374 	 -76.517 	 
S 	 -91.0104 	 -29.5879 	 -71.0892 	 
C 	 -91.3228 	 -27.8882 	 -70.6747 	 
C 	 -91.6857 	 -27.1799 	 -71.778 	 
C 	 -91.7931 	 -27.9724 	 -72.9526 	 
C 	 -91.4282 	 -29.2894 	 -72.7828 	 
H 	 -91.9483 	 -26.1354 	 -71.6686 	 
C 	 -92.3427 	 -27.2707 	 -74.1931 	 
H 	 -93.3772 	 -26.8048 	 -74.0284 	 
H 	 -92.6073 	 -28.0158 	 -74.9798 	 
C 	 -91.452 	 -26.2304 	 -74.8333 	 
H 	 -90.5051 	 -26.6984 	 -74.9346 	 
H 	 -91.3822 	 -25.2329 	 -74.3025 	 
C 	 -91.8605 	 -25.9746 	 -76.33 	 
H 	 -92.844 	 -25.6238 	 -76.4735 	 
H 	 -91.8405 	 -26.9018 	 -76.9278 	 
H 	 -91.1334 	 -25.2108 	 -76.7328 	 
H 	 -92.1393 	 -33.6368 	 -75.0462 	 
H 	 -91.323 	 -27.452 	 -69.6399 	 
*
