! wB97X-D3 SP def2-SVP
%pal
nprocs 24
end

* xyz 0 1
S 	 47.6112 	 -18.3296 	 -106.647 	 
C 	 45.9845 	 -18.0205 	 -107.151 	 
C 	 45.6128 	 -16.6879 	 -107.006 	 
C 	 46.7218 	 -15.9189 	 -106.552 	 
C 	 47.9439 	 -16.5994 	 -106.349 	 
H 	 46.6136 	 -14.8879 	 -106.387 	 
C 	 44.2522 	 -16.0876 	 -107.318 	 
H 	 44.1702 	 -15.2539 	 -106.573 	 
H 	 43.5667 	 -16.8743 	 -107.132 	 
C 	 44.1588 	 -15.5738 	 -108.77 	 
H 	 44.7 	 -14.6092 	 -108.87 	 
H 	 44.6141 	 -16.3796 	 -109.415 	 
C 	 42.6937 	 -15.468 	 -109.234 	 
H 	 42.5923 	 -14.9783 	 -110.215 	 
H 	 42.2429 	 -16.4642 	 -109.357 	 
H 	 42.1776 	 -14.814 	 -108.545 	 
S 	 50.0191 	 -16.9063 	 -104.424 	 
C 	 51.1096 	 -15.614 	 -104.171 	 
C 	 50.8214 	 -14.4838 	 -104.902 	 
C 	 49.728 	 -14.7283 	 -105.803 	 
C 	 49.14 	 -16.0331 	 -105.738 	 
H 	 51.4692 	 -13.5981 	 -104.832 	 
C 	 49.3219 	 -13.587 	 -106.779 	 
H 	 49.6 	 -12.6628 	 -106.235 	 
H 	 48.26 	 -13.522 	 -106.986 	 
C 	 49.9622 	 -13.5158 	 -108.241 	 
H 	 51.0509 	 -13.5849 	 -108.001 	 
H 	 49.7228 	 -12.5642 	 -108.743 	 
C 	 49.4209 	 -14.6452 	 -109.115 	 
H 	 48.3679 	 -14.4509 	 -109.31 	 
H 	 49.5714 	 -15.6098 	 -108.627 	 
H 	 49.9679 	 -14.7126 	 -110.063 	 
H 	 45.1503 	 -18.7332 	 -107.375 	 
H 	 51.949 	 -15.7541 	 -103.596 	 
*
