! wB97X-D3 SP def2-SVP
%pal
nprocs 24
end

* xyz 0 1
S 	 -102.081 	 -5.16474 	 -105.968 	 
C 	 -101.495 	 -5.83923 	 -107.495 	 
C 	 -101.849 	 -5.08794 	 -108.592 	 
C 	 -102.354 	 -3.84768 	 -108.246 	 
C 	 -102.526 	 -3.70221 	 -106.878 	 
H 	 -102.59 	 -3.05702 	 -108.895 	 
C 	 -101.474 	 -5.43832 	 -110.048 	 
H 	 -102.319 	 -5.85556 	 -110.505 	 
H 	 -100.721 	 -6.24893 	 -109.909 	 
C 	 -100.821 	 -4.22023 	 -110.717 	 
H 	 -101.419 	 -3.358 	 -110.679 	 
H 	 -99.8754 	 -4.22476 	 -110.302 	 
C 	 -100.416 	 -4.59956 	 -112.174 	 
H 	 -100.017 	 -5.676 	 -112.303 	 
H 	 -101.175 	 -4.58129 	 -112.96 	 
H 	 -99.6662 	 -3.93385 	 -112.496 	 
S 	 -101.984 	 -1.83324 	 -104.882 	 
C 	 -103.24 	 -0.784427 	 -104.283 	 
C 	 -104.333 	 -0.830812 	 -105.078 	 
C 	 -104.194 	 -1.76647 	 -106.147 	 
C 	 -103.001 	 -2.46658 	 -106.184 	 
H 	 -105.278 	 -0.258597 	 -104.952 	 
C 	 -105.35 	 -1.99799 	 -107.051 	 
H 	 -104.943 	 -2.50234 	 -107.935 	 
H 	 -105.891 	 -1.05578 	 -107.319 	 
C 	 -106.362 	 -2.9733 	 -106.388 	 
H 	 -106.606 	 -2.57695 	 -105.374 	 
H 	 -105.808 	 -3.90177 	 -106.121 	 
C 	 -107.585 	 -3.23393 	 -107.339 	 
H 	 -107.18 	 -3.8891 	 -108.125 	 
H 	 -108 	 -2.37009 	 -107.785 	 
H 	 -108.34 	 -3.73147 	 -106.753 	 
H 	 -100.967 	 -6.7924 	 -107.492 	 
H 	 -103.091 	 -0.0470532 	 -103.498 	 
*
