! wB97X-D3 SP def2-SVP
%pal
nprocs 24
end

* xyz 0 1
S 	 -101.608 	 -1.85827 	 -103.198 	 
C 	 -101.998 	 -2.95387 	 -104.519 	 
C 	 -103.315 	 -3.40567 	 -104.371 	 
C 	 -103.882 	 -3.06477 	 -103.13 	 
C 	 -103.119 	 -2.20099 	 -102.352 	 
H 	 -104.716 	 -3.53762 	 -102.655 	 
C 	 -104.1 	 -3.97997 	 -105.537 	 
H 	 -104.914 	 -4.56436 	 -105.157 	 
H 	 -103.537 	 -4.63062 	 -106.214 	 
C 	 -104.703 	 -2.95666 	 -106.437 	 
H 	 -105.443 	 -2.47174 	 -105.899 	 
H 	 -103.989 	 -2.22894 	 -106.668 	 
C 	 -105.485 	 -3.53205 	 -107.608 	 
H 	 -105.966 	 -2.72284 	 -108.093 	 
H 	 -104.803 	 -4.05864 	 -108.225 	 
H 	 -106.244 	 -4.22217 	 -107.265 	 
S 	 -102.209 	 -2.41017 	 -99.7805 	 
C 	 -102.915 	 -1.46112 	 -98.5015 	 
C 	 -104.056 	 -0.862777 	 -98.9715 	 
C 	 -104.27 	 -1.02322 	 -100.425 	 
C 	 -103.332 	 -1.84571 	 -100.993 	 
H 	 -104.71 	 -0.293884 	 -98.3447 	 
C 	 -105.309 	 -0.280965 	 -101.227 	 
H 	 -105.293 	 -0.586366 	 -102.296 	 
H 	 -105.069 	 0.77425 	 -101.123 	 
C 	 -106.73 	 -0.450535 	 -100.689 	 
H 	 -107.343 	 0.188222 	 -101.325 	 
H 	 -106.712 	 -0.0562068 	 -99.6333 	 
C 	 -107.347 	 -1.87992 	 -100.764 	 
H 	 -108.346 	 -1.77468 	 -100.391 	 
H 	 -106.961 	 -2.69546 	 -100.207 	 
H 	 -107.431 	 -2.1522 	 -101.819 	 
H 	 -101.452 	 -2.97872 	 -105.483 	 
H 	 -102.544 	 -1.30044 	 -97.514 	 
*
