! wB97X-D3 SP def2-SVP
%pal
nprocs 24
end

* xyz 0 1
S 	 -55.3137 	 12.4769 	 21.9842 	 
C 	 -55.9114 	 12.6879 	 20.3701 	 
C 	 -56.5399 	 11.5513 	 19.9967 	 
C 	 -56.6464 	 10.4815 	 21.0056 	 
C 	 -55.8299 	 10.8084 	 22.0783 	 
H 	 -57.0729 	 9.55285 	 20.922 	 
C 	 -57.1873 	 11.3076 	 18.6365 	 
H 	 -56.654 	 10.4503 	 18.2234 	 
H 	 -56.9483 	 12.1348 	 18.0418 	 
C 	 -58.6685 	 11.2071 	 18.7598 	 
H 	 -58.8071 	 10.3063 	 19.3122 	 
H 	 -59.0973 	 12.0521 	 19.331 	 
C 	 -59.446 	 11.0937 	 17.4413 	 
H 	 -59.417 	 10.0491 	 17.0148 	 
H 	 -60.4786 	 11.2273 	 17.329 	 
H 	 -59.0518 	 11.7746 	 16.7675 	 
S 	 -56.8485 	 10.6657 	 24.6267 	 
C 	 -56.6524 	 9.1625 	 25.4992 	 
C 	 -55.9135 	 8.24299 	 24.8636 	 
C 	 -55.3649 	 8.76278 	 23.6225 	 
C 	 -55.7447 	 10.0987 	 23.343 	 
H 	 -55.6737 	 7.26468 	 25.2496 	 
C 	 -54.5973 	 7.89537 	 22.7158 	 
H 	 -53.9703 	 7.18417 	 23.26 	 
H 	 -53.9233 	 8.47768 	 22.0778 	 
C 	 -55.3914 	 7.09158 	 21.6368 	 
H 	 -54.7064 	 6.38487 	 21.2302 	 
H 	 -55.6612 	 7.84111 	 20.9623 	 
C 	 -56.6523 	 6.25889 	 21.9791 	 
H 	 -56.4993 	 5.54511 	 22.8774 	 
H 	 -56.9396 	 5.69525 	 21.1029 	 
H 	 -57.5364 	 6.90377 	 22.2172 	 
H 	 -55.7192 	 13.4944 	 19.669 	 
H 	 -57.0647 	 8.89631 	 26.4344 	 
*
