! wB97X-D3 SP def2-SVP
%pal
nprocs 24
end

* xyz 0 1
S 	 -93.5092 	 45.0569 	 -92.8167 	 
C 	 -92.9272 	 44.1006 	 -91.4427 	 
C 	 -93.8256 	 44.1588 	 -90.3841 	 
C 	 -94.9774 	 44.8892 	 -90.7284 	 
C 	 -94.954 	 45.4709 	 -91.9651 	 
H 	 -95.8453 	 44.9615 	 -90.052 	 
C 	 -93.573 	 43.5388 	 -88.9929 	 
H 	 -94.518 	 43.2516 	 -88.515 	 
H 	 -93.1583 	 44.2642 	 -88.2837 	 
C 	 -92.9013 	 42.1312 	 -88.952 	 
H 	 -91.9477 	 42.2175 	 -89.5724 	 
H 	 -92.5807 	 41.8529 	 -87.8757 	 
C 	 -93.8688 	 41.1019 	 -89.6356 	 
H 	 -94.7495 	 40.8303 	 -89.029 	 
H 	 -94.2655 	 41.5759 	 -90.5192 	 
H 	 -93.382 	 40.2356 	 -90.0812 	 
S 	 -95.5352 	 48.1538 	 -91.9477 	 
C 	 -96.942 	 48.8355 	 -92.7754 	 
C 	 -97.6474 	 47.7484 	 -93.2418 	 
C 	 -97.118 	 46.4546 	 -92.9805 	 
C 	 -95.9289 	 46.549 	 -92.3666 	 
H 	 -98.6191 	 47.8473 	 -93.7086 	 
C 	 -97.8722 	 45.2291 	 -93.4077 	 
H 	 -97.2944 	 44.2714 	 -93.7933 	 
H 	 -98.465 	 45.5341 	 -94.2872 	 
C 	 -98.8958 	 44.753 	 -92.3617 	 
H 	 -99.8497 	 45.3056 	 -92.4936 	 
H 	 -98.5726 	 45.0461 	 -91.326 	 
C 	 -99.1478 	 43.2201 	 -92.3182 	 
H 	 -99.6105 	 42.9727 	 -91.338 	 
H 	 -98.2548 	 42.5955 	 -92.4945 	 
H 	 -99.7846 	 43.0484 	 -93.1615 	 
H 	 -91.991 	 43.6027 	 -91.4343 	 
H 	 -97.216 	 49.8192 	 -92.8888 	 
*
