! wB97X-D3 SP def2-SVP
%pal
nprocs 24
end

* xyz 0 1
S 	 -107.683 	 54.4491 	 -101.746 	 
C 	 -109.23 	 53.7584 	 -101.376 	 
C 	 -109.824 	 54.3955 	 -100.317 	 
C 	 -108.979 	 55.4293 	 -99.8094 	 
C 	 -107.793 	 55.6394 	 -100.455 	 
H 	 -109.138 	 55.9892 	 -98.9258 	 
C 	 -111.091 	 53.9361 	 -99.7375 	 
H 	 -110.844 	 52.8864 	 -99.3879 	 
H 	 -111.875 	 53.978 	 -100.533 	 
C 	 -111.546 	 54.7362 	 -98.442 	 
H 	 -110.752 	 54.8515 	 -97.6871 	 
H 	 -111.614 	 55.77 	 -98.6957 	 
C 	 -112.922 	 54.1567 	 -97.8794 	 
H 	 -113.07 	 54.7754 	 -96.9603 	 
H 	 -113.746 	 54.3308 	 -98.6661 	 
H 	 -112.739 	 53.1194 	 -97.6134 	 
S 	 -105.583 	 56.2686 	 -98.9299 	 
C 	 -104.633 	 57.6636 	 -99.3128 	 
C 	 -105.169 	 58.2972 	 -100.4 	 
C 	 -106.331 	 57.7059 	 -100.98 	 
C 	 -106.785 	 56.6339 	 -100.196 	 
H 	 -104.542 	 59.0633 	 -100.885 	 
C 	 -107.05 	 58.3841 	 -102.149 	 
H 	 -107.655 	 57.6111 	 -102.585 	 
H 	 -106.398 	 58.628 	 -102.994 	 
C 	 -107.909 	 59.6257 	 -101.734 	 
H 	 -108.287 	 60.0506 	 -102.557 	 
H 	 -107.214 	 60.3662 	 -101.249 	 
C 	 -109.007 	 59.3523 	 -100.709 	 
H 	 -109.591 	 58.5079 	 -100.983 	 
H 	 -109.674 	 60.1774 	 -100.612 	 
H 	 -108.598 	 59.0803 	 -99.7345 	 
H 	 -109.584 	 52.8702 	 -101.917 	 
H 	 -103.633 	 57.9272 	 -98.8799 	 
*
