! wB97X-D3 SP def2-SVP
%pal
nprocs 24
end

* xyz 0 1
S 	 -108.602 	 1.84222 	 -109.526 	 
C 	 -108.589 	 3.41094 	 -110.354 	 
C 	 -107.657 	 4.28318 	 -109.767 	 
C 	 -106.872 	 3.59132 	 -108.761 	 
C 	 -107.179 	 2.2632 	 -108.576 	 
H 	 -106.051 	 3.91315 	 -108.091 	 
C 	 -107.61 	 5.76171 	 -110.003 	 
H 	 -106.655 	 6.13486 	 -109.786 	 
H 	 -108.269 	 6.35954 	 -109.335 	 
C 	 -107.982 	 6.32476 	 -111.453 	 
H 	 -107.445 	 5.77563 	 -112.253 	 
H 	 -109.026 	 6.04905 	 -111.64 	 
C 	 -107.87 	 7.91517 	 -111.678 	 
H 	 -106.855 	 8.34635 	 -111.627 	 
H 	 -108.184 	 8.1921 	 -112.719 	 
H 	 -108.449 	 8.50061 	 -110.947 	 
S 	 -105.829 	 -0.0392499 	 -108.239 	 
C 	 -105.432 	 -0.65441 	 -106.686 	 
C 	 -105.937 	 0.121268 	 -105.676 	 
C 	 -106.553 	 1.29064 	 -106.195 	 
C 	 -106.592 	 1.34238 	 -107.586 	 
H 	 -105.654 	 -0.102555 	 -104.648 	 
C 	 -107.127 	 2.30501 	 -105.273 	 
H 	 -107.438 	 3.13101 	 -105.85 	 
H 	 -106.369 	 2.75208 	 -104.583 	 
C 	 -108.33 	 1.75435 	 -104.463 	 
H 	 -108.812 	 2.57951 	 -103.875 	 
H 	 -107.97 	 0.918318 	 -103.85 	 
C 	 -109.417 	 1.39323 	 -105.468 	 
H 	 -110.371 	 1.14031 	 -105.049 	 
H 	 -108.983 	 0.587855 	 -106.109 	 
H 	 -109.56 	 2.17771 	 -106.214 	 
H 	 -109.469 	 3.74546 	 -110.91 	 
H 	 -104.805 	 -1.55026 	 -106.4 	 
*
