! wB97X-D3 SP def2-SVP
%pal
nprocs 24
end

* xyz 0 1
S 	 -5.12687 	 -22.0406 	 -107.707 	 
C 	 -5.3398 	 -23.0217 	 -106.244 	 
C 	 -4.91676 	 -22.3132 	 -105.123 	 
C 	 -4.7575 	 -20.9098 	 -105.407 	 
C 	 -4.89173 	 -20.597 	 -106.759 	 
H 	 -4.57266 	 -20.1483 	 -104.715 	 
C 	 -4.7697 	 -22.8536 	 -103.719 	 
H 	 -3.82297 	 -22.47 	 -103.29 	 
H 	 -4.49371 	 -23.8744 	 -103.758 	 
C 	 -6.03608 	 -22.4565 	 -102.772 	 
H 	 -6.20258 	 -21.3771 	 -102.539 	 
H 	 -6.9803 	 -22.7781 	 -103.244 	 
C 	 -6.03508 	 -23.1782 	 -101.405 	 
H 	 -5.2891 	 -22.7052 	 -100.651 	 
H 	 -6.96291 	 -23.1087 	 -100.921 	 
H 	 -5.91007 	 -24.2503 	 -101.366 	 
S 	 -4.00226 	 -18.7828 	 -108.614 	 
C 	 -4.66635 	 -17.1805 	 -108.463 	 
C 	 -5.67661 	 -17.0339 	 -107.606 	 
C 	 -5.86609 	 -18.2052 	 -106.839 	 
C 	 -5.03662 	 -19.2561 	 -107.271 	 
H 	 -6.19139 	 -16.1548 	 -107.341 	 
C 	 -6.88068 	 -18.2789 	 -105.663 	 
H 	 -7.27054 	 -19.2637 	 -105.537 	 
H 	 -7.76225 	 -17.6082 	 -105.895 	 
C 	 -6.46243 	 -17.7331 	 -104.329 	 
H 	 -5.82806 	 -18.4022 	 -103.727 	 
H 	 -7.35062 	 -17.6994 	 -103.654 	 
C 	 -5.79398 	 -16.3155 	 -104.379 	 
H 	 -4.8247 	 -16.3227 	 -104.931 	 
H 	 -5.69445 	 -15.888 	 -103.336 	 
H 	 -6.47613 	 -15.6689 	 -104.945 	 
H 	 -5.41078 	 -24.0822 	 -106.213 	 
H 	 -4.40147 	 -16.3456 	 -109.098 	 
*
