! wB97X-D3 SP def2-SVP
%pal
nprocs 24
end

* xyz 0 1
S 	 -133.491 	 60.4108 	 -59.9615 	 
C 	 -133.317 	 62.2203 	 -59.7573 	 
C 	 -134.322 	 62.7977 	 -58.9833 	 
C 	 -135.301 	 61.7933 	 -58.6938 	 
C 	 -135.019 	 60.4896 	 -59.0556 	 
H 	 -136.159 	 62.065 	 -58.0794 	 
C 	 -134.21 	 64.1311 	 -58.3817 	 
H 	 -133.265 	 64.2975 	 -57.7381 	 
H 	 -134.959 	 64.2249 	 -57.5847 	 
C 	 -134.594 	 65.3114 	 -59.2509 	 
H 	 -135.678 	 65.2537 	 -59.4192 	 
H 	 -134.465 	 66.2438 	 -58.7021 	 
C 	 -133.72 	 65.4567 	 -60.4885 	 
H 	 -134.256 	 66.1654 	 -61.1239 	 
H 	 -132.791 	 65.8803 	 -60.1345 	 
H 	 -133.619 	 64.594 	 -61.0857 	 
S 	 -136.497 	 58.5105 	 -60.351 	 
C 	 -137.497 	 57.4348 	 -59.3632 	 
C 	 -137.351 	 57.6539 	 -58.0113 	 
C 	 -136.347 	 58.6564 	 -57.8004 	 
C 	 -135.846 	 59.3291 	 -58.9061 	 
H 	 -137.973 	 57.0976 	 -57.3271 	 
C 	 -136.028 	 59.0178 	 -56.4084 	 
H 	 -136.872 	 59.3157 	 -55.8874 	 
H 	 -135.473 	 59.9572 	 -56.3924 	 
C 	 -135.198 	 57.9777 	 -55.5971 	 
H 	 -135.754 	 57.06 	 -55.5219 	 
H 	 -134.966 	 58.3439 	 -54.6091 	 
C 	 -133.831 	 57.7841 	 -56.1979 	 
H 	 -133.133 	 57.0716 	 -55.7028 	 
H 	 -133.268 	 58.7588 	 -56.2383 	 
H 	 -133.994 	 57.5134 	 -57.2796 	 
H 	 -132.508 	 62.7789 	 -60.2112 	 
H 	 -138.419 	 56.9088 	 -59.6267 	 
*
