! wB97X-D3 SP def2-SVP
%pal
nprocs 24
end

* xyz 0 1
S 	 -131.634 	 1.82784 	 3.4544 	 
C 	 -130.15 	 0.940479 	 3.11246 	 
C 	 -129.175 	 1.15307 	 4.05988 	 
C 	 -129.505 	 2.20156 	 4.99357 	 
C 	 -130.785 	 2.71272 	 4.7164 	 
H 	 -129.01 	 2.63875 	 5.86505 	 
C 	 -127.856 	 0.438036 	 4.1149 	 
H 	 -127.015 	 1.03083 	 4.50047 	 
H 	 -127.567 	 0.231712 	 3.07971 	 
C 	 -127.852 	 -0.801338 	 4.97136 	 
H 	 -126.87 	 -1.15381 	 5.0535 	 
H 	 -128.161 	 -0.69027 	 6.01917 	 
C 	 -128.718 	 -1.92715 	 4.29934 	 
H 	 -129.802 	 -1.75186 	 4.4874 	 
H 	 -128.476 	 -2.17054 	 3.22834 	 
H 	 -128.562 	 -2.84417 	 4.72417 	 
S 	 -132.176 	 5.00723 	 4.69666 	 
C 	 -132.387 	 5.92211 	 6.19321 	 
C 	 -132.315 	 5.05569 	 7.23811 	 
C 	 -131.715 	 3.8395 	 6.96865 	 
C 	 -131.446 	 3.68748 	 5.55681 	 
H 	 -132.613 	 5.46808 	 8.26449 	 
C 	 -131.466 	 2.73252 	 8.06299 	 
H 	 -131.236 	 3.15628 	 9.06205 	 
H 	 -130.561 	 2.17021 	 7.64902 	 
C 	 -132.673 	 1.77825 	 8.17977 	 
H 	 -132.957 	 1.5017 	 7.21727 	 
H 	 -133.504 	 2.39306 	 8.6328 	 
C 	 -132.259 	 0.520355 	 9.03798 	 
H 	 -131.978 	 0.781769 	 10.086 	 
H 	 -131.309 	 0.119057 	 8.68906 	 
H 	 -133.006 	 -0.257586 	 9.29117 	 
H 	 -130.047 	 0.203686 	 2.29431 	 
H 	 -132.763 	 6.94481 	 6.25781 	 
*
