! wB97X-D3 SP def2-SVP
%pal
nprocs 24
end

* xyz 0 1
S 	 -108.872 	 42.1229 	 -9.77261 	 
C 	 -108.702 	 42.4693 	 -8.06982 	 
C 	 -109.807 	 43.1954 	 -7.53279 	 
C 	 -110.768 	 43.462 	 -8.53667 	 
C 	 -110.354 	 43.1989 	 -9.80649 	 
H 	 -111.701 	 44.0172 	 -8.31572 	 
C 	 -110.077 	 43.5019 	 -6.01037 	 
H 	 -109.388 	 42.7411 	 -5.54042 	 
H 	 -111.149 	 43.3143 	 -5.84069 	 
C 	 -109.503 	 44.8778 	 -5.50749 	 
H 	 -109.271 	 44.8329 	 -4.4445 	 
H 	 -108.559 	 45.018 	 -6.05008 	 
C 	 -110.459 	 46.0652 	 -5.79963 	 
H 	 -110.139 	 47.0882 	 -5.62033 	 
H 	 -111.006 	 46.0277 	 -6.69013 	 
H 	 -111.204 	 46.0986 	 -5.05235 	 
S 	 -111.448 	 41.9461 	 -12.0471 	 
C 	 -111.965 	 42.8568 	 -13.3913 	 
C 	 -112.397 	 44.1299 	 -12.9463 	 
C 	 -111.788 	 44.4277 	 -11.6284 	 
C 	 -111.099 	 43.3623 	 -11.0553 	 
H 	 -112.943 	 44.7591 	 -13.6327 	 
C 	 -111.835 	 45.8514 	 -11.0364 	 
H 	 -111.52 	 45.7251 	 -10.0086 	 
H 	 -112.851 	 46.136 	 -11.0643 	 
C 	 -111.05 	 46.9454 	 -11.7318 	 
H 	 -111.413 	 47.1045 	 -12.7493 	 
H 	 -110.098 	 46.5385 	 -11.8923 	 
C 	 -110.867 	 48.3482 	 -11.0266 	 
H 	 -109.935 	 48.695 	 -11.4547 	 
H 	 -110.655 	 48.0456 	 -10.0502 	 
H 	 -111.634 	 49.1227 	 -11.1215 	 
H 	 -107.813 	 42.2724 	 -7.46743 	 
H 	 -112.124 	 42.4954 	 -14.3936 	 
*
