! wB97X-D3 SP def2-SVP
%pal
nprocs 24
end

* xyz 0 1
S 	 -23.6091 	 -34.6602 	 -91.8885 	 
C 	 -22.2329 	 -35.5845 	 -92.4826 	 
C 	 -21.2466 	 -34.6822 	 -92.8957 	 
C 	 -21.6046 	 -33.295 	 -92.7667 	 
C 	 -22.8757 	 -33.1245 	 -92.2977 	 
H 	 -20.9419 	 -32.4731 	 -92.9732 	 
C 	 -19.9012 	 -35.0874 	 -93.488 	 
H 	 -20.1122 	 -35.8278 	 -94.2118 	 
H 	 -19.3709 	 -35.5641 	 -92.619 	 
C 	 -18.855 	 -34.0343 	 -94.0752 	 
H 	 -19.3083 	 -33.5548 	 -94.9197 	 
H 	 -18.6236 	 -33.2172 	 -93.3147 	 
C 	 -17.5332 	 -34.7672 	 -94.3553 	 
H 	 -16.8107 	 -34.1175 	 -94.7438 	 
H 	 -17.2038 	 -35.2482 	 -93.4895 	 
H 	 -17.7182 	 -35.5177 	 -95.167 	 
S 	 -24.8447 	 -31.5867 	 -93.1612 	 
C 	 -24.9754 	 -29.8598 	 -92.798 	 
C 	 -23.9134 	 -29.5291 	 -92.0368 	 
C 	 -23.0952 	 -30.592 	 -91.6108 	 
C 	 -23.5065 	 -31.8137 	 -92.1354 	 
H 	 -23.7331 	 -28.4807 	 -91.7977 	 
C 	 -21.8946 	 -30.3321 	 -90.754 	 
H 	 -21.3073 	 -31.1777 	 -90.8099 	 
H 	 -22.2667 	 -30.279 	 -89.7562 	 
C 	 -20.8551 	 -29.2268 	 -91.2816 	 
H 	 -20.028 	 -29.196 	 -90.598 	 
H 	 -21.4074 	 -28.2542 	 -91.2267 	 
C 	 -20.2908 	 -29.5289 	 -92.6304 	 
H 	 -21.0524 	 -29.9239 	 -93.2892 	 
H 	 -19.4931 	 -30.3328 	 -92.5075 	 
H 	 -19.7778 	 -28.7203 	 -93.012 	 
H 	 -22.1832 	 -36.691 	 -92.5772 	 
H 	 -25.7988 	 -29.2553 	 -93.0923 	 
*
