! wB97X-D3 SP def2-SVP
%pal
nprocs 24
end

* xyz 0 1
S 	 -105.928 	 54.5509 	 -81.8803 	 
C 	 -107.142 	 55.2915 	 -82.9811 	 
C 	 -108.409 	 54.9952 	 -82.5635 	 
C 	 -108.445 	 54.1103 	 -81.4519 	 
C 	 -107.221 	 53.6491 	 -81.0365 	 
H 	 -109.328 	 53.7917 	 -80.9515 	 
C 	 -109.724 	 55.6049 	 -83.207 	 
H 	 -109.692 	 56.6433 	 -82.8865 	 
H 	 -110.538 	 55.1146 	 -82.7262 	 
C 	 -109.696 	 55.3693 	 -84.7979 	 
H 	 -108.883 	 55.996 	 -85.1666 	 
H 	 -109.43 	 54.3018 	 -84.905 	 
C 	 -110.977 	 55.7072 	 -85.462 	 
H 	 -110.853 	 55.6319 	 -86.4935 	 
H 	 -111.724 	 54.956 	 -85.0993 	 
H 	 -111.223 	 56.7863 	 -85.1746 	 
S 	 -107.992 	 52.612 	 -78.581 	 
C 	 -107.191 	 51.1758 	 -78.0277 	 
C 	 -106.093 	 50.8313 	 -78.7825 	 
C 	 -105.977 	 51.6834 	 -79.9647 	 
C 	 -106.948 	 52.6534 	 -80.0023 	 
H 	 -105.514 	 50.0207 	 -78.4364 	 
C 	 -104.778 	 51.4017 	 -80.9639 	 
H 	 -103.966 	 51.0127 	 -80.3139 	 
H 	 -104.507 	 52.3475 	 -81.4073 	 
C 	 -105.214 	 50.3723 	 -82.0739 	 
H 	 -104.408 	 50.4506 	 -82.7758 	 
H 	 -106.122 	 50.8141 	 -82.5231 	 
C 	 -105.404 	 48.9711 	 -81.4912 	 
H 	 -105.383 	 48.2178 	 -82.2193 	 
H 	 -106.372 	 48.8003 	 -80.9739 	 
H 	 -104.665 	 48.6741 	 -80.7627 	 
H 	 -106.827 	 56.0428 	 -83.7111 	 
H 	 -107.557 	 50.6483 	 -77.1792 	 
*
