! wB97X-D3 SP def2-SVP
%pal
nprocs 16
end

* xyz 0 1
S 	 5.24481 	 -11.8124 	 60.2753 	 
C 	 4.78815 	 -11.2429 	 61.8594 	 
C 	 3.69976 	 -12.0015 	 62.2731 	 
C 	 3.50087 	 -13.2097 	 61.4993 	 
C 	 4.15878 	 -13.1903 	 60.3101 	 
H 	 2.7734 	 -13.9241 	 61.7297 	 
C 	 2.78311 	 -11.7184 	 63.4312 	 
H 	 1.83994 	 -11.3457 	 63.1537 	 
H 	 3.22433 	 -10.8541 	 63.8905 	 
C 	 2.68248 	 -12.8733 	 64.5343 	 
H 	 2.44851 	 -13.7281 	 63.9118 	 
H 	 3.70843 	 -13.0455 	 64.7975 	 
C 	 1.78384 	 -12.5085 	 65.683 	 
H 	 0.746299 	 -12.3422 	 65.219 	 
H 	 1.69502 	 -13.3066 	 66.4297 	 
H 	 2.02339 	 -11.5686 	 66.2016 	 
S 	 4.26988 	 -13.5717 	 57.4954 	 
C 	 4.29364 	 -15.1792 	 56.8022 	 
C 	 4.09695 	 -16.0847 	 57.8515 	 
C 	 4.02117 	 -15.5567 	 59.1545 	 
C 	 4.17486 	 -14.1861 	 59.1937 	 
H 	 4.04218 	 -17.1372 	 57.5688 	 
C 	 3.87872 	 -16.4263 	 60.42 	 
H 	 3.55703 	 -17.3694 	 60.0175 	 
H 	 3.13498 	 -15.9373 	 61.0185 	 
C 	 5.10781 	 -16.5264 	 61.3188 	 
H 	 5.30176 	 -15.5508 	 61.7854 	 
H 	 5.8494 	 -16.7947 	 60.5723 	 
C 	 4.7695 	 -17.4972 	 62.4636 	 
H 	 4.56975 	 -18.5369 	 62.0309 	 
H 	 3.98144 	 -17.0879 	 63.0655 	 
H 	 5.61151 	 -17.7113 	 63.146 	 
H 	 5.00296 	 -10.2579 	 62.3306 	 
H 	 4.53052 	 -15.3865 	 55.7919 	 
*
