! wB97X-D3 SP def2-SVP
%pal
nprocs 16
end

* xyz 0 1
S 	 -4.46608 	 30.4563 	 48.6681 	 
C 	 -4.94886 	 29.4579 	 50.0152 	 
C 	 -5.81314 	 30.0593 	 50.81 	 
C 	 -6.14856 	 31.3838 	 50.2464 	 
C 	 -5.46886 	 31.7533 	 49.1829 	 
H 	 -6.87591 	 32.034 	 50.7042 	 
C 	 -6.6548 	 29.4987 	 51.9416 	 
H 	 -6.11191 	 28.5589 	 52.2835 	 
H 	 -7.5243 	 29.0545 	 51.5262 	 
C 	 -7.1582 	 30.4056 	 53.0509 	 
H 	 -7.76495 	 31.2202 	 52.7738 	 
H 	 -7.71636 	 29.7815 	 53.7524 	 
C 	 -5.90465 	 30.995 	 53.7922 	 
H 	 -5.22767 	 30.3301 	 54.3165 	 
H 	 -5.35547 	 31.6485 	 53.0965 	 
H 	 -6.25305 	 31.7369 	 54.553 	 
S 	 -6.03148 	 32.6748 	 46.6926 	 
C 	 -5.80127 	 34.3718 	 46.3531 	 
C 	 -5.3009 	 35.0307 	 47.4955 	 
C 	 -5.12694 	 34.2071 	 48.5921 	 
C 	 -5.58808 	 32.8995 	 48.3588 	 
H 	 -5.06141 	 36.111 	 47.435 	 
C 	 -4.41716 	 34.6891 	 49.8334 	 
H 	 -3.84777 	 35.5996 	 49.6508 	 
H 	 -3.61919 	 34.0403 	 50.1303 	 
C 	 -5.27105 	 34.8429 	 51.0603 	 
H 	 -5.98923 	 33.9956 	 51.342 	 
H 	 -5.90605 	 35.8129 	 50.8354 	 
C 	 -4.44457 	 35.1732 	 52.3493 	 
H 	 -3.93124 	 34.2505 	 52.5259 	 
H 	 -5.13169 	 35.4434 	 53.1627 	 
H 	 -3.79288 	 35.995 	 52.2219 	 
H 	 -4.73044 	 28.372 	 50.0602 	 
H 	 -6.07085 	 34.9746 	 45.4541 	 
*
