! wB97X-D3 SP def2-SVP
%pal
nprocs 16
end

* xyz 0 1
S 	 -96.9729 	 38.4811 	 121.456 	 
C 	 -96.6549 	 37.6657 	 123.025 	 
C 	 -96.83 	 38.5742 	 124.089 	 
C 	 -97.5685 	 39.7508 	 123.684 	 
C 	 -97.8526 	 39.7268 	 122.325 	 
H 	 -97.9485 	 40.5837 	 124.28 	 
C 	 -96.3307 	 38.157 	 125.42 	 
H 	 -95.5801 	 37.3262 	 125.324 	 
H 	 -97.1636 	 37.7509 	 125.932 	 
C 	 -95.7549 	 39.3424 	 126.177 	 
H 	 -94.968 	 39.8609 	 125.572 	 
H 	 -96.5432 	 40.0728 	 126.281 	 
C 	 -95.1915 	 39.0021 	 127.568 	 
H 	 -94.8219 	 39.8655 	 128.117 	 
H 	 -95.8827 	 38.535 	 128.285 	 
H 	 -94.3926 	 38.3344 	 127.387 	 
S 	 -97.2974 	 41.8659 	 120.709 	 
C 	 -98.5191 	 43.0912 	 120.404 	 
C 	 -99.6282 	 42.8664 	 121.175 	 
C 	 -99.6034 	 41.5789 	 121.732 	 
C 	 -98.3829 	 40.8761 	 121.6 	 
H 	 -100.306 	 43.679 	 121.306 	 
C 	 -100.769 	 41.1507 	 122.648 	 
H 	 -100.817 	 41.9026 	 123.502 	 
H 	 -100.492 	 40.278 	 123.184 	 
C 	 -102.148 	 40.8342 	 121.985 	 
H 	 -102.044 	 40.4308 	 120.953 	 
H 	 -102.687 	 41.7441 	 121.779 	 
C 	 -103.031 	 39.7445 	 122.628 	 
H 	 -103.376 	 40.0898 	 123.647 	 
H 	 -102.496 	 38.8368 	 122.808 	 
H 	 -103.889 	 39.4809 	 121.972 	 
H 	 -95.8962 	 36.8525 	 123.108 	 
H 	 -98.561 	 43.9349 	 119.753 	 
*
