! wB97X-D3 SP def2-SVP
%pal
nprocs 16
end

* xyz 0 1
S 	 -31.3955 	 67.034 	 138.412 	 
C 	 -30.613 	 68.5923 	 138.496 	 
C 	 -31.0858 	 69.3254 	 139.581 	 
C 	 -31.9864 	 68.6266 	 140.476 	 
C 	 -32.2404 	 67.3524 	 139.951 	 
H 	 -32.4681 	 69.1663 	 141.32 	 
C 	 -30.5585 	 70.748 	 139.92 	 
H 	 -29.7702 	 71.0011 	 139.32 	 
H 	 -30.0249 	 70.6553 	 140.876 	 
C 	 -31.6796 	 71.7904 	 140.122 	 
H 	 -32.5002 	 71.3172 	 140.799 	 
H 	 -31.3027 	 72.674 	 140.582 	 
C 	 -32.3557 	 72.3513 	 138.856 	 
H 	 -33.1856 	 72.9875 	 139.154 	 
H 	 -31.6127 	 72.9655 	 138.379 	 
H 	 -32.6813 	 71.4504 	 138.263 	 
S 	 -34.1061 	 65.3597 	 139.585 	 
C 	 -34.8716 	 64.6964 	 140.983 	 
C 	 -34.3806 	 65.1341 	 142.149 	 
C 	 -33.4368 	 66.1868 	 141.947 	 
C 	 -33.1356 	 66.3953 	 140.622 	 
H 	 -34.6522 	 64.6927 	 143.093 	 
C 	 -32.5899 	 66.6265 	 143.171 	 
H 	 -31.7905 	 67.3482 	 142.956 	 
H 	 -32.0316 	 65.7208 	 143.534 	 
C 	 -33.4209 	 67.2716 	 144.214 	 
H 	 -34.1417 	 66.4702 	 144.539 	 
H 	 -34.0511 	 68.0867 	 143.762 	 
C 	 -32.6315 	 67.7138 	 145.463 	 
H 	 -32.1777 	 66.843 	 145.968 	 
H 	 -33.1721 	 68.2352 	 146.235 	 
H 	 -31.7666 	 68.2899 	 145.179 	 
H 	 -30.0297 	 69.0243 	 137.717 	 
H 	 -35.5732 	 63.9482 	 140.883 	 
*
