! wB97X-D3 SP def2-SVP
%pal
nprocs 16
end

* xyz 0 1
S 	 -40.9149 	 -7.56554 	 101.257 	 
C 	 -41.785 	 -8.38873 	 99.893 	 
C 	 -42.2701 	 -7.37333 	 99.0689 	 
C 	 -41.9371 	 -6.08508 	 99.508 	 
C 	 -41.1495 	 -5.99769 	 100.627 	 
H 	 -42.2082 	 -5.15643 	 98.9022 	 
C 	 -43.0764 	 -7.65295 	 97.7702 	 
H 	 -44.072 	 -7.41573 	 98.071 	 
H 	 -42.9797 	 -8.73399 	 97.5895 	 
C 	 -42.8648 	 -6.6991 	 96.5979 	 
H 	 -43.6098 	 -6.80816 	 95.8736 	 
H 	 -42.8001 	 -5.63056 	 96.8849 	 
C 	 -41.5334 	 -6.88851 	 95.8968 	 
H 	 -41.0815 	 -7.85318 	 96.2278 	 
H 	 -41.668 	 -6.84092 	 94.8941 	 
H 	 -40.8392 	 -6.15925 	 96.2704 	 
S 	 -38.7924 	 -4.74326 	 101.364 	 
C 	 -38.8999 	 -3.17853 	 102.11 	 
C 	 -40.1452 	 -2.60696 	 102.125 	 
C 	 -41.1282 	 -3.48608 	 101.602 	 
C 	 -40.5792 	 -4.78852 	 101.293 	 
H 	 -40.2835 	 -1.60573 	 102.579 	 
C 	 -42.5617 	 -3.0916 	 101.756 	 
H 	 -43.1475 	 -3.67488 	 101.008 	 
H 	 -42.6125 	 -2.02587 	 101.609 	 
C 	 -43.1012 	 -3.39178 	 103.139 	 
H 	 -42.5035 	 -2.86973 	 103.865 	 
H 	 -42.9265 	 -4.48922 	 103.227 	 
C 	 -44.6032 	 -3.04229 	 103.25 	 
H 	 -44.6966 	 -1.9968 	 103.27 	 
H 	 -44.8863 	 -3.2275 	 104.303 	 
H 	 -45.3188 	 -3.53562 	 102.612 	 
H 	 -41.7809 	 -9.49133 	 99.7178 	 
H 	 -38.097 	 -2.55197 	 102.442 	 
*
