! wB97X-D3 SP def2-SVP
%pal
nprocs 16
end

* xyz 0 1
S 	 -78.0625 	 38.4589 	 135.435 	 
C 	 -77.1411 	 37.2212 	 136.185 	 
C 	 -77.7331 	 35.9774 	 135.936 	 
C 	 -78.9495 	 36.0049 	 135.188 	 
C 	 -79.2246 	 37.299 	 134.758 	 
H 	 -79.4772 	 35.0987 	 134.855 	 
C 	 -77.0887 	 34.7637 	 136.599 	 
H 	 -77.5045 	 33.8589 	 136.027 	 
H 	 -77.6151 	 34.6456 	 137.591 	 
C 	 -75.573 	 34.6898 	 136.781 	 
H 	 -75.3315 	 35.6404 	 137.34 	 
H 	 -75.2517 	 33.823 	 137.421 	 
C 	 -74.7235 	 34.5684 	 135.494 	 
H 	 -74.9222 	 35.4182 	 134.847 	 
H 	 -73.7253 	 34.7612 	 135.799 	 
H 	 -74.7092 	 33.6745 	 134.854 	 
S 	 -81.5962 	 38.6762 	 134.647 	 
C 	 -82.6055 	 38.5856 	 133.222 	 
C 	 -81.9772 	 37.8946 	 132.264 	 
C 	 -80.6386 	 37.4387 	 132.614 	 
C 	 -80.3513 	 37.686 	 133.954 	 
H 	 -82.3777 	 37.925 	 131.263 	 
C 	 -79.8009 	 36.7122 	 131.612 	 
H 	 -80.5879 	 36.3647 	 130.892 	 
H 	 -79.5799 	 35.7827 	 132.125 	 
C 	 -78.608 	 37.3947 	 130.829 	 
H 	 -77.8643 	 37.763 	 131.546 	 
H 	 -78.8314 	 38.2992 	 130.226 	 
C 	 -78.0362 	 36.4504 	 129.785 	 
H 	 -77.5495 	 35.5117 	 130.141 	 
H 	 -77.3261 	 37.0154 	 129.242 	 
H 	 -78.7687 	 36.207 	 129.024 	 
H 	 -76.2756 	 37.3864 	 136.738 	 
H 	 -83.4401 	 39.1679 	 132.941 	 
*
