! wB97X-D3 SP def2-SVP
%pal
nprocs 16
end

* xyz 0 1
S 	 -0.195036 	 27.6152 	 39.1182 	 
C 	 -0.689249 	 28.1363 	 37.4506 	 
C 	 0.337522 	 27.7283 	 36.6201 	 
C 	 1.38252 	 26.9355 	 37.2519 	 
C 	 1.14507 	 26.6706 	 38.5658 	 
H 	 2.21783 	 26.4914 	 36.8046 	 
C 	 0.31541 	 28.0453 	 35.1663 	 
H 	 1.34341 	 27.8714 	 34.7697 	 
H 	 0.191147 	 29.1035 	 35.1419 	 
C 	 -0.749565 	 27.2321 	 34.3202 	 
H 	 -0.538236 	 26.1453 	 34.3968 	 
H 	 -1.75893 	 27.4123 	 34.6568 	 
C 	 -0.564014 	 27.5224 	 32.9026 	 
H 	 -1.24106 	 26.9763 	 32.2699 	 
H 	 -0.835046 	 28.6159 	 32.7096 	 
H 	 0.43739 	 27.4724 	 32.4999 	 
S 	 2.56031 	 26.9094 	 40.8279 	 
C 	 3.38024 	 25.5549 	 41.5126 	 
C 	 2.99683 	 24.3271 	 40.909 	 
C 	 2.31232 	 24.5868 	 39.6748 	 
C 	 2.01681 	 25.9483 	 39.5321 	 
H 	 3.46192 	 23.3886 	 41.2529 	 
C 	 1.98123 	 23.4471 	 38.7893 	 
H 	 2.87655 	 22.8729 	 38.5141 	 
H 	 1.73654 	 24.0044 	 37.864 	 
C 	 0.809475 	 22.5723 	 39.3511 	 
H 	 1.21962 	 22.1574 	 40.2935 	 
H 	 0.654766 	 21.8065 	 38.6137 	 
C 	 -0.427152 	 23.3692 	 39.8447 	 
H 	 -0.187577 	 23.8835 	 40.7043 	 
H 	 -1.33187 	 22.8052 	 40.12 	 
H 	 -0.673393 	 24.1467 	 39.1493 	 
H 	 -1.49061 	 28.8426 	 37.1997 	 
H 	 3.99725 	 25.6276 	 42.3945 	 
*
