! wB97X-D3 SP def2-SVP
%pal
nprocs 16
end

* xyz 0 1
S 	 -51.8556 	 61.0927 	 128.632 	 
C 	 -50.7367 	 60.6347 	 127.422 	 
C 	 -49.403 	 60.9028 	 127.779 	 
C 	 -49.4611 	 61.4374 	 129.111 	 
C 	 -50.6952 	 61.6544 	 129.673 	 
H 	 -48.5568 	 61.8332 	 129.48 	 
C 	 -48.1789 	 60.3733 	 127.146 	 
H 	 -47.5251 	 61.2018 	 127.009 	 
H 	 -48.3705 	 60.0079 	 126.141 	 
C 	 -47.3234 	 59.2425 	 127.797 	 
H 	 -46.9024 	 59.5753 	 128.739 	 
H 	 -48.0492 	 58.4738 	 128.059 	 
C 	 -46.1798 	 58.6655 	 126.957 	 
H 	 -45.5757 	 57.9992 	 127.479 	 
H 	 -46.5792 	 58.1128 	 126.137 	 
H 	 -45.4767 	 59.4875 	 126.575 	 
S 	 -52.5982 	 63.0506 	 130.946 	 
C 	 -52.177 	 63.7777 	 132.46 	 
C 	 -50.9513 	 63.3516 	 132.952 	 
C 	 -50.2931 	 62.4601 	 132.063 	 
C 	 -51.0304 	 62.3262 	 130.892 	 
H 	 -50.5344 	 63.7625 	 133.884 	 
C 	 -48.9291 	 61.9101 	 132.462 	 
H 	 -48.4324 	 62.5563 	 133.165 	 
H 	 -48.4112 	 61.9754 	 131.548 	 
C 	 -48.967 	 60.4181 	 132.911 	 
H 	 -49.8436 	 60.2712 	 133.498 	 
H 	 -48.0414 	 60.2007 	 133.49 	 
C 	 -49.0769 	 59.345 	 131.784 	 
H 	 -49.9409 	 59.3969 	 131.059 	 
H 	 -49.1148 	 58.3107 	 132.26 	 
H 	 -48.1537 	 59.4086 	 131.307 	 
H 	 -50.9888 	 60.3537 	 126.432 	 
H 	 -52.7705 	 64.5271 	 132.935 	 
*
