! wB97X-D3 SP def2-SVP
%pal
nprocs 16
end

* xyz 0 1
S 	 41.1755 	 16.2951 	 79.2574 	 
C 	 39.6717 	 17.1334 	 79.0964 	 
C 	 38.6126 	 16.2247 	 79.0363 	 
C 	 39.0395 	 14.8689 	 78.9073 	 
C 	 40.424 	 14.7141 	 78.9809 	 
H 	 38.2951 	 14.1462 	 78.8268 	 
C 	 37.0951 	 16.5346 	 78.9583 	 
H 	 36.6538 	 15.5776 	 78.9039 	 
H 	 36.8738 	 17.0593 	 77.9789 	 
C 	 36.5953 	 16.9963 	 80.2793 	 
H 	 37.0673 	 16.374 	 81.0289 	 
H 	 36.9198 	 18.0083 	 80.579 	 
C 	 35.1002 	 16.738 	 80.2842 	 
H 	 34.6747 	 17.1378 	 81.182 	 
H 	 34.6583 	 17.2777 	 79.471 	 
H 	 34.8689 	 15.6953 	 80.0579 	 
S 	 40.6874 	 12.0875 	 79.7547 	 
C 	 42.0717 	 11.1661 	 79.2823 	 
C 	 42.9835 	 11.9093 	 78.5838 	 
C 	 42.5365 	 13.235 	 78.3592 	 
C 	 41.2794 	 13.5053 	 78.9358 	 
H 	 43.8173 	 11.4667 	 78.1536 	 
C 	 43.3692 	 14.1711 	 77.4688 	 
H 	 44.2386 	 13.7153 	 77.1131 	 
H 	 43.9121 	 14.765 	 78.1896 	 
C 	 42.7206 	 15.0276 	 76.3931 	 
H 	 43.4248 	 15.7759 	 76.0821 	 
H 	 41.8512 	 15.5721 	 76.8729 	 
C 	 42.285 	 14.3247 	 75.0792 	 
H 	 41.5987 	 13.4548 	 75.2286 	 
H 	 43.1828 	 14.0818 	 74.5389 	 
H 	 41.6016 	 15.0146 	 74.5638 	 
H 	 39.5961 	 18.1691 	 79.1605 	 
H 	 42.1851 	 10.1386 	 79.268 	 
*
