! wB97X-D3 SP def2-SVP
%pal
nprocs 16
end

* xyz 0 1
S 	 -40.7036 	 34.302 	 81.0921 	 
C 	 -41.0113 	 35.625 	 79.9979 	 
C 	 -42.3 	 35.5857 	 79.496 	 
C 	 -43.0958 	 34.5648 	 80.1211 	 
C 	 -42.4479 	 33.8458 	 81.1233 	 
H 	 -44.0939 	 34.4162 	 79.963 	 
C 	 -42.7458 	 36.4299 	 78.3667 	 
H 	 -42.9606 	 35.6804 	 77.5902 	 
H 	 -41.8767 	 37.0521 	 78.0166 	 
C 	 -44.0182 	 37.2665 	 78.6471 	 
H 	 -44.7501 	 36.6879 	 79.0836 	 
H 	 -43.6265 	 38.1003 	 79.2472 	 
C 	 -44.5678 	 37.8144 	 77.234 	 
H 	 -44.8426 	 36.9877 	 76.552 	 
H 	 -45.5262 	 38.3385 	 77.4267 	 
H 	 -43.8121 	 38.48 	 76.7733 	 
S 	 -44.7189 	 32.5131 	 82.0919 	 
C 	 -44.4974 	 31.0276 	 82.9033 	 
C 	 -43.2279 	 30.7469 	 83.2276 	 
C 	 -42.315 	 31.7003 	 82.6777 	 
C 	 -42.9718 	 32.7663 	 81.9416 	 
H 	 -42.9882 	 29.7986 	 83.7362 	 
C 	 -40.771 	 31.4102 	 82.5986 	 
H 	 -40.4971 	 30.7522 	 83.4698 	 
H 	 -40.1967 	 32.2325 	 82.9682 	 
C 	 -40.2129 	 30.685 	 81.2979 	 
H 	 -40.5124 	 31.3117 	 80.3706 	 
H 	 -40.7151 	 29.7568 	 81.1444 	 
C 	 -38.6727 	 30.4918 	 81.4155 	 
H 	 -38.1857 	 31.4089 	 81.6434 	 
H 	 -38.4013 	 30.0426 	 80.4925 	 
H 	 -38.3934 	 29.8591 	 82.2537 	 
H 	 -40.2812 	 36.3818 	 79.6208 	 
H 	 -45.3292 	 30.334 	 83.0765 	 
*
