! wB97X-D3 SP def2-SVP
%pal
nprocs 16
end

* xyz 0 1
S 	 -4.52956 	 -15.5224 	 81.2219 	 
C 	 -2.78656 	 -15.7358 	 80.8953 	 
C 	 -1.95332 	 -15.739 	 82.0274 	 
C 	 -2.73585 	 -15.2386 	 83.1126 	 
C 	 -4.1029 	 -15.1942 	 82.8605 	 
H 	 -2.42678 	 -15.057 	 84.1274 	 
C 	 -0.515287 	 -16.081 	 82.086 	 
H 	 -0.413822 	 -17.0102 	 81.4926 	 
H 	 -0.403319 	 -16.4574 	 83.1456 	 
C 	 0.467454 	 -14.9496 	 81.7753 	 
H 	 0.368955 	 -14.7936 	 80.6696 	 
H 	 -0.00485407 	 -14.1529 	 82.4095 	 
C 	 1.89387 	 -15.2784 	 82.2349 	 
H 	 1.91581 	 -15.7416 	 83.2427 	 
H 	 2.48993 	 -15.7661 	 81.4639 	 
H 	 2.38449 	 -14.3448 	 82.2732 	 
S 	 -5.81123 	 -16.2532 	 84.7099 	 
C 	 -6.60215 	 -15.1348 	 85.8246 	 
C 	 -6.0051 	 -13.8888 	 85.8712 	 
C 	 -5.19841 	 -13.7152 	 84.7444 	 
C 	 -5.04009 	 -14.8807 	 83.9135 	 
H 	 -6.256 	 -13.2154 	 86.6347 	 
C 	 -4.75167 	 -12.3686 	 84.3689 	 
H 	 -3.71145 	 -12.6081 	 83.9738 	 
H 	 -4.55302 	 -11.8022 	 85.2949 	 
C 	 -5.63147 	 -11.5921 	 83.3822 	 
H 	 -6.70062 	 -11.484 	 83.7447 	 
H 	 -5.69343 	 -12.0636 	 82.4046 	 
C 	 -4.98641 	 -10.203 	 83.1278 	 
H 	 -5.61826 	 -9.46336 	 82.7425 	 
H 	 -4.02832 	 -10.2703 	 82.5364 	 
H 	 -4.672 	 -9.79393 	 84.0279 	 
H 	 -2.31708 	 -15.9663 	 79.95 	 
H 	 -7.26685 	 -15.4006 	 86.611 	 
*
