! wB97X-D3 SP def2-SVP
%pal
nprocs 16
end

* xyz 0 1
S 	 -89.2802 	 48.2157 	 129.525 	 
C 	 -89.9599 	 47.8913 	 127.878 	 
C 	 -88.8669 	 47.5798 	 127.016 	 
C 	 -87.5965 	 47.7628 	 127.592 	 
C 	 -87.6484 	 48.0186 	 128.922 	 
H 	 -86.6141 	 47.7035 	 127.099 	 
C 	 -89.0008 	 47.2737 	 125.492 	 
H 	 -87.9347 	 47.457 	 125.187 	 
H 	 -89.6301 	 48.031 	 125.129 	 
C 	 -89.367 	 45.8943 	 124.957 	 
H 	 -89.2577 	 45.9706 	 123.861 	 
H 	 -88.7378 	 45.1331 	 125.357 	 
C 	 -90.8463 	 45.6509 	 125.272 	 
H 	 -91.4602 	 46.4402 	 124.874 	 
H 	 -91.2173 	 44.6836 	 125.058 	 
H 	 -90.9252 	 45.7525 	 126.406 	 
S 	 -86.7879 	 47.6304 	 131.546 	 
C 	 -85.1391 	 47.9832 	 131.927 	 
C 	 -84.4874 	 48.6091 	 130.886 	 
C 	 -85.2147 	 48.6439 	 129.698 	 
C 	 -86.5214 	 48.1297 	 129.852 	 
H 	 -83.4948 	 49.0272 	 130.998 	 
C 	 -84.6393 	 49.2695 	 128.428 	 
H 	 -84.0436 	 50.2323 	 128.718 	 
H 	 -85.3052 	 49.412 	 127.581 	 
C 	 -83.5788 	 48.4048 	 127.765 	 
H 	 -84.0266 	 47.4613 	 127.429 	 
H 	 -82.8555 	 48.1354 	 128.518 	 
C 	 -83.025 	 48.9836 	 126.405 	 
H 	 -82.2899 	 48.242 	 125.966 	 
H 	 -82.3927 	 49.8571 	 126.48 	 
H 	 -83.8636 	 49.2594 	 125.74 	 
H 	 -91.0242 	 47.6938 	 127.612 	 
H 	 -84.6907 	 47.9555 	 132.929 	 
*
