! wB97X-D3 SP def2-SVP
%pal
nprocs 16
end

* xyz 0 1
S 	 13.6671 	 6.96242 	 82.9758 	 
C 	 14.2016 	 8.5176 	 82.371 	 
C 	 14.4017 	 9.49757 	 83.33 	 
C 	 14.1078 	 8.98964 	 84.6142 	 
C 	 13.7239 	 7.66943 	 84.6484 	 
H 	 14.2649 	 9.54904 	 85.5119 	 
C 	 15.0506 	 10.8175 	 83.0812 	 
H 	 14.9458 	 11.1803 	 82.0835 	 
H 	 16.0349 	 10.58 	 83.2349 	 
C 	 14.7647 	 12.0735 	 84.0813 	 
H 	 15.1768 	 11.985 	 85.0862 	 
H 	 15.222 	 13.0149 	 83.8096 	 
C 	 13.2673 	 12.451 	 84.0368 	 
H 	 12.9513 	 12.7479 	 83.0721 	 
H 	 12.5904 	 11.6573 	 84.2934 	 
H 	 13.0819 	 13.2229 	 84.7348 	 
S 	 14.2398 	 7.02612 	 87.3271 	 
C 	 13.025 	 6.15116 	 88.1283 	 
C 	 11.8568 	 5.91982 	 87.3993 	 
C 	 12.0011 	 6.41666 	 86.0631 	 
C 	 13.2559 	 7.00162 	 85.8518 	 
H 	 11.0443 	 5.44874 	 87.8835 	 
C 	 10.8652 	 6.44551 	 85.0644 	 
H 	 10.4844 	 5.42558 	 85.1672 	 
H 	 11.0883 	 6.60211 	 83.9519 	 
C 	 9.67742 	 7.33832 	 85.5195 	 
H 	 9.48315 	 7.13586 	 86.5266 	 
H 	 8.80943 	 6.92473 	 84.9439 	 
C 	 9.78363 	 8.8815 	 85.2954 	 
H 	 10.0332 	 9.04479 	 84.2534 	 
H 	 10.5304 	 9.2281 	 86.0232 	 
H 	 8.92975 	 9.55513 	 85.5125 	 
H 	 14.5154 	 8.61932 	 81.3231 	 
H 	 13.0511 	 5.99902 	 89.1713 	 
*
