! wB97X-D3 SP def2-SVP
%pal
nprocs 16
end

* xyz 0 1
S 	 15.2818 	 20.4108 	 41.222 	 
C 	 15.7781 	 18.8096 	 40.7129 	 
C 	 14.7272 	 18.1621 	 40.1479 	 
C 	 13.512 	 18.8255 	 40.0988 	 
C 	 13.6621 	 20.0792 	 40.6735 	 
H 	 12.6013 	 18.5271 	 39.6061 	 
C 	 14.9556 	 16.8044 	 39.4087 	 
H 	 14.1247 	 16.1288 	 39.6069 	 
H 	 15.7017 	 16.1968 	 39.9576 	 
C 	 15.1669 	 16.7455 	 37.8334 	 
H 	 15.0464 	 15.6987 	 37.4864 	 
H 	 14.5359 	 17.4267 	 37.3771 	 
C 	 16.518 	 17.3033 	 37.4968 	 
H 	 16.7544 	 17.3311 	 36.3823 	 
H 	 16.5306 	 18.4265 	 37.5869 	 
H 	 17.3403 	 16.7815 	 38.0523 	 
S 	 13.4521 	 22.719 	 39.9885 	 
C 	 11.8695 	 23.3274 	 39.7275 	 
C 	 10.8767 	 22.5536 	 40.2312 	 
C 	 11.4069 	 21.3282 	 40.849 	 
C 	 12.7641 	 21.1853 	 40.5381 	 
H 	 9.84681 	 22.777 	 40.1663 	 
C 	 10.6441 	 20.2065 	 41.4837 	 
H 	 11.2012 	 19.2791 	 41.4255 	 
H 	 9.77485 	 19.9405 	 40.888 	 
C 	 10.1906 	 20.5052 	 42.9422 	 
H 	 11.0925 	 20.508 	 43.5048 	 
H 	 9.58934 	 19.6488 	 43.3631 	 
C 	 9.47267 	 21.7989 	 43.2139 	 
H 	 9.97128 	 22.6644 	 42.8377 	 
H 	 9.2691 	 22.0484 	 44.2851 	 
H 	 8.51364 	 21.7902 	 42.7212 	 
H 	 16.7427 	 18.3307 	 40.8065 	 
H 	 11.7309 	 24.2578 	 39.2569 	 
*
