! wB97X-D3 SP def2-SVP
%pal
nprocs 16
end

* xyz 0 1
S 	 2.1716 	 14.218 	 87.2212 	 
C 	 1.55148 	 14.4868 	 85.641 	 
C 	 2.40992 	 15.3316 	 84.967 	 
C 	 3.71171 	 15.3164 	 85.5504 	 
C 	 3.76201 	 14.8063 	 86.8022 	 
H 	 4.5989 	 15.6873 	 85.0874 	 
C 	 2.1244 	 15.9272 	 83.5767 	 
H 	 3.06128 	 16.4326 	 83.2549 	 
H 	 1.43174 	 16.7408 	 83.6826 	 
C 	 1.61801 	 15.008 	 82.4892 	 
H 	 2.10298 	 14.0207 	 82.4571 	 
H 	 0.582383 	 14.7147 	 82.7856 	 
C 	 1.81503 	 15.4804 	 81.0945 	 
H 	 1.37346 	 16.4746 	 80.9763 	 
H 	 2.85065 	 15.6822 	 80.801 	 
H 	 1.30668 	 14.8274 	 80.3796 	 
S 	 4.8367 	 13.2826 	 88.8509 	 
C 	 6.35519 	 13.736 	 89.5961 	 
C 	 6.98649 	 14.7754 	 88.8728 	 
C 	 6.20377 	 15.1465 	 87.7331 	 
C 	 4.92091 	 14.6378 	 87.7237 	 
H 	 8.00016 	 15.041 	 89.2323 	 
C 	 6.64121 	 16.2616 	 86.707 	 
H 	 7.25464 	 16.9315 	 87.3248 	 
H 	 5.84877 	 16.9708 	 86.4456 	 
C 	 7.51362 	 15.7038 	 85.5242 	 
H 	 6.8111 	 15.2682 	 84.8055 	 
H 	 8.1259 	 14.8646 	 85.7816 	 
C 	 8.4704 	 16.7967 	 84.9983 	 
H 	 9.13662 	 17.2246 	 85.7079 	 
H 	 8.07226 	 17.6508 	 84.5441 	 
H 	 9.15802 	 16.3037 	 84.2452 	 
H 	 0.509003 	 14.2311 	 85.3497 	 
H 	 6.7959 	 13.3712 	 90.4963 	 
*
