! wB97X-D3 SP def2-SVP
%pal
nprocs 16
end

* xyz 0 1
S 	 66.2914 	 -5.15599 	 87.2291 	 
C 	 64.95 	 -4.79485 	 88.3501 	 
C 	 65.4926 	 -4.14606 	 89.4742 	 
C 	 66.9246 	 -3.88849 	 89.3814 	 
C 	 67.5384 	 -4.46681 	 88.3118 	 
H 	 67.5362 	 -3.37387 	 90.1609 	 
C 	 64.7352 	 -3.7219 	 90.6954 	 
H 	 64.7738 	 -4.57096 	 91.3993 	 
H 	 63.6136 	 -3.64494 	 90.3624 	 
C 	 64.9612 	 -2.34355 	 91.3807 	 
H 	 65.9224 	 -2.20713 	 91.8291 	 
H 	 64.7752 	 -1.61833 	 90.6403 	 
C 	 63.9078 	 -2.1102 	 92.4299 	 
H 	 64.0159 	 -1.22061 	 93.0971 	 
H 	 62.8849 	 -2.07346 	 91.9741 	 
H 	 63.9001 	 -2.93311 	 93.19 	 
S 	 69.7025 	 -6.02813 	 88.589 	 
C 	 71.3212 	 -5.3243 	 88.3785 	 
C 	 71.2541 	 -4.00292 	 87.9911 	 
C 	 69.9481 	 -3.5066 	 87.8032 	 
C 	 68.9954 	 -4.51336 	 88.0405 	 
H 	 72.1567 	 -3.43271 	 87.9374 	 
C 	 69.5393 	 -2.05826 	 87.5202 	 
H 	 68.5119 	 -2.09968 	 87.4509 	 
H 	 69.9073 	 -1.74214 	 86.575 	 
C 	 70.0244 	 -1.02813 	 88.5235 	 
H 	 71.0954 	 -1.02839 	 88.6597 	 
H 	 69.6744 	 -1.27624 	 89.5388 	 
C 	 69.3737 	 0.333712 	 88.2552 	 
H 	 68.3069 	 0.395465 	 88.4893 	 
H 	 69.5795 	 0.726932 	 87.2482 	 
H 	 69.952 	 1.09893 	 88.9469 	 
H 	 63.9328 	 -5.03134 	 88.189 	 
H 	 72.2898 	 -5.76037 	 88.6394 	 
*
