! wB97X-D3 SP def2-SVP
%pal
nprocs 16
end

* xyz 0 1
S 	 33.47 	 -1.65476 	 68.0492 	 
C 	 33.1241 	 -0.00710928 	 67.5606 	 
C 	 33.6095 	 0.876768 	 68.4611 	 
C 	 34.318 	 0.220275 	 69.5121 	 
C 	 34.4585 	 -1.15072 	 69.3385 	 
H 	 34.8288 	 0.660063 	 70.3176 	 
C 	 33.5308 	 2.40501 	 68.4454 	 
H 	 33.4295 	 3.00325 	 69.3922 	 
H 	 32.4649 	 2.62167 	 68.0264 	 
C 	 34.7192 	 2.97774 	 67.6359 	 
H 	 35.5592 	 2.3535 	 67.7278 	 
H 	 34.4431 	 3.04121 	 66.6328 	 
C 	 35.1365 	 4.41329 	 68.0796 	 
H 	 35.7472 	 4.7984 	 67.2723 	 
H 	 34.2312 	 5.12837 	 68.0781 	 
H 	 35.5875 	 4.4303 	 69.0051 	 
S 	 34.2617 	 -3.21486 	 71.1406 	 
C 	 35.7535 	 -3.78 	 71.8668 	 
C 	 36.8463 	 -3.08931 	 71.4027 	 
C 	 36.5269 	 -2.04984 	 70.4674 	 
C 	 35.1966 	 -2.08675 	 70.1569 	 
H 	 37.8515 	 -3.3053 	 71.7124 	 
C 	 37.5952 	 -1.06317 	 69.9255 	 
H 	 38.3387 	 -0.893964 	 70.6664 	 
H 	 37.1265 	 -0.0390314 	 69.8207 	 
C 	 38.2665 	 -1.43691 	 68.5777 	 
H 	 37.4897 	 -1.29254 	 67.7958 	 
H 	 38.6349 	 -2.47455 	 68.5853 	 
C 	 39.5082 	 -0.633216 	 68.2943 	 
H 	 39.9194 	 -0.725621 	 67.2164 	 
H 	 40.3445 	 -0.884622 	 68.9327 	 
H 	 39.3158 	 0.486432 	 68.4115 	 
H 	 32.4057 	 0.253155 	 66.771 	 
H 	 35.7487 	 -4.54027 	 72.6617 	 
*
