! wB97X-D3 SP def2-SVP
%pal
nprocs 16
end

* xyz 0 1
S 	 -63.134 	 47.207 	 123.776 	 
C 	 -63.6437 	 48.3142 	 124.997 	 
C 	 -64.9301 	 48.8319 	 124.796 	 
C 	 -65.5727 	 48.0845 	 123.781 	 
C 	 -64.7919 	 47.2295 	 123.082 	 
H 	 -66.5884 	 48.1049 	 123.492 	 
C 	 -65.6953 	 49.7651 	 125.622 	 
H 	 -65.0161 	 50.5101 	 126.016 	 
H 	 -66.0197 	 49.3187 	 126.57 	 
C 	 -66.9428 	 50.3664 	 124.968 	 
H 	 -66.625 	 50.7806 	 124.035 	 
H 	 -67.7715 	 49.6283 	 124.712 	 
C 	 -67.6443 	 51.3623 	 125.87 	 
H 	 -67.0445 	 52.2161 	 125.994 	 
H 	 -68.6228 	 51.6801 	 125.492 	 
H 	 -67.788 	 50.9427 	 126.895 	 
S 	 -63.945 	 46.201 	 120.661 	 
C 	 -64.9512 	 44.9761 	 119.974 	 
C 	 -66.1452 	 44.7308 	 120.606 	 
C 	 -66.2401 	 45.6083 	 121.711 	 
C 	 -65.1024 	 46.3748 	 121.944 	 
H 	 -66.8901 	 44.0383 	 120.326 	 
C 	 -67.4766 	 45.5657 	 122.582 	 
H 	 -67.39 	 46.022 	 123.566 	 
H 	 -67.537 	 44.4864 	 122.91 	 
C 	 -68.7834 	 45.9207 	 122.004 	 
H 	 -68.8866 	 45.4252 	 121.014 	 
H 	 -68.6377 	 46.9905 	 121.81 	 
C 	 -70.0603 	 45.5329 	 122.84 	 
H 	 -71.0294 	 45.8684 	 122.521 	 
H 	 -69.9313 	 45.7148 	 123.89 	 
H 	 -70.0533 	 44.4532 	 122.783 	 
H 	 -63.0166 	 48.8621 	 125.599 	 
H 	 -64.6813 	 44.4712 	 119.059 	 
*
