! wB97X-D3 SP def2-SVP
%pal
nprocs 16
end

* xyz 0 1
S 	 -110.486 	 54.5364 	 113.691 	 
C 	 -110.983 	 54.542 	 112.01 	 
C 	 -110.43 	 53.4792 	 111.255 	 
C 	 -109.62 	 52.6927 	 112.107 	 
C 	 -109.696 	 53.0329 	 113.471 	 
H 	 -109.076 	 51.7534 	 111.839 	 
C 	 -110.443 	 53.392 	 109.726 	 
H 	 -111.259 	 54.0497 	 109.404 	 
H 	 -110.822 	 52.3584 	 109.504 	 
C 	 -109.266 	 53.6705 	 108.822 	 
H 	 -108.755 	 54.5719 	 109.174 	 
H 	 -108.563 	 52.8893 	 108.806 	 
C 	 -109.669 	 54.0682 	 107.43 	 
H 	 -110.027 	 55.1248 	 107.338 	 
H 	 -108.87 	 53.9408 	 106.696 	 
H 	 -110.43 	 53.409 	 107.015 	 
S 	 -107.473 	 52.9881 	 115.024 	 
C 	 -107.141 	 51.5749 	 115.993 	 
C 	 -108.264 	 50.8224 	 116.277 	 
C 	 -109.336 	 51.225 	 115.424 	 
C 	 -109.063 	 52.3467 	 114.578 	 
H 	 -108.198 	 49.98 	 116.902 	 
C 	 -110.493 	 50.3375 	 115.221 	 
H 	 -110.257 	 49.3384 	 115.493 	 
H 	 -110.701 	 50.3001 	 114.172 	 
C 	 -111.759 	 50.6671 	 116.063 	 
H 	 -111.306 	 50.8625 	 117.02 	 
H 	 -112.443 	 49.8031 	 116.131 	 
C 	 -112.5 	 51.8823 	 115.443 	 
H 	 -112.062 	 52.875 	 115.61 	 
H 	 -113.409 	 52.1002 	 115.839 	 
H 	 -112.649 	 51.6599 	 114.426 	 
H 	 -111.704 	 55.2486 	 111.61 	 
H 	 -106.251 	 51.4151 	 116.548 	 
*
