! wB97X-D3 SP def2-SVP
%pal
nprocs 16
end

* xyz 0 1
S 	 37.6699 	 8.60419 	 90.0516 	 
C 	 38.5122 	 7.09497 	 89.5649 	 
C 	 38.0637 	 6.64656 	 88.3515 	 
C 	 37.2041 	 7.58465 	 87.6959 	 
C 	 36.9472 	 8.72414 	 88.4608 	 
H 	 36.7333 	 7.50879 	 86.7769 	 
C 	 38.555 	 5.31988 	 87.5619 	 
H 	 37.7368 	 4.95869 	 86.9545 	 
H 	 38.7841 	 4.56121 	 88.3334 	 
C 	 39.6937 	 5.55481 	 86.6102 	 
H 	 39.3408 	 6.16582 	 85.8201 	 
H 	 40.5187 	 6.07644 	 87.0756 	 
C 	 40.1874 	 4.19281 	 86.0282 	 
H 	 39.3234 	 3.7453 	 85.5273 	 
H 	 41.1203 	 4.18044 	 85.5778 	 
H 	 40.4161 	 3.61265 	 86.8609 	 
S 	 34.576 	 10.0507 	 89.0521 	 
C 	 34.09 	 11.2912 	 87.9631 	 
C 	 34.9294 	 11.517 	 86.8646 	 
C 	 36.0581 	 10.5922 	 86.9422 	 
C 	 36.0673 	 9.78334 	 88.0855 	 
H 	 34.711 	 12.3274 	 86.1682 	 
C 	 37.221 	 10.5748 	 85.9349 	 
H 	 36.8145 	 10.9712 	 85.0346 	 
H 	 37.5266 	 9.5441 	 85.6994 	 
C 	 38.4571 	 11.4175 	 86.2002 	 
H 	 38.133 	 12.4724 	 86.2004 	 
H 	 39.1822 	 11.2747 	 85.3326 	 
C 	 39.1811 	 11.1354 	 87.5 	 
H 	 39.7154 	 10.1563 	 87.6433 	 
H 	 38.5224 	 11.2372 	 88.2704 	 
H 	 39.9865 	 11.8969 	 87.5668 	 
H 	 39.21 	 6.54018 	 90.194 	 
H 	 33.0902 	 11.7695 	 88.046 	 
*
