! wB97X-D3 SP def2-SVP
%pal
nprocs 16
end

* xyz 0 1
S 	 11.4201 	 32.6451 	 58.8809 	 
C 	 13.1279 	 32.2585 	 58.6358 	 
C 	 13.9501 	 33.2792 	 59.1061 	 
C 	 13.1662 	 34.4336 	 59.5347 	 
C 	 11.8091 	 34.2871 	 59.3024 	 
H 	 13.6685 	 35.3391 	 59.9349 	 
C 	 15.4686 	 33.1321 	 59.4026 	 
H 	 16.003 	 33.9407 	 58.964 	 
H 	 15.812 	 32.2218 	 58.9955 	 
C 	 15.7971 	 33.1406 	 60.9546 	 
H 	 15.2645 	 33.8767 	 61.4837 	 
H 	 15.4352 	 32.2454 	 61.3105 	 
C 	 17.2849 	 33.4511 	 61.3012 	 
H 	 17.705 	 34.4261 	 61.0196 	 
H 	 17.4895 	 33.3105 	 62.3745 	 
H 	 17.9824 	 32.7911 	 60.8293 	 
S 	 10.3163 	 35.2852 	 61.4045 	 
C 	 9.08682 	 36.4994 	 60.9622 	 
C 	 9.07906 	 36.8 	 59.6241 	 
C 	 10.1252 	 36.1483 	 58.9302 	 
C 	 10.8698 	 35.3491 	 59.7412 	 
H 	 8.29299 	 37.3883 	 59.2382 	 
C 	 10.2553 	 36.3305 	 57.4061 	 
H 	 11.1689 	 35.8349 	 57.0634 	 
H 	 10.5106 	 37.3383 	 57.2676 	 
C 	 8.97457 	 36.0134 	 56.5621 	 
H 	 9.20219 	 36.1121 	 55.4871 	 
H 	 8.17058 	 36.7043 	 56.7188 	 
C 	 8.52045 	 34.5508 	 56.5295 	 
H 	 9.16326 	 33.8364 	 56.0897 	 
H 	 7.61134 	 34.4415 	 55.9882 	 
H 	 8.51578 	 34.1797 	 57.566 	 
H 	 13.4443 	 31.2071 	 58.423 	 
H 	 8.37177 	 36.9034 	 61.6008 	 
*
