! wB97X-D3 SP def2-SVP
%pal
nprocs 16
end

* xyz 0 1
S 	 -79.9282 	 43.8063 	 125.844 	 
C 	 -81.2149 	 44.4179 	 124.824 	 
C 	 -81.3157 	 43.6525 	 123.618 	 
C 	 -80.3949 	 42.5796 	 123.573 	 
C 	 -79.5491 	 42.4669 	 124.695 	 
H 	 -80.3472 	 41.7778 	 122.803 	 
C 	 -82.1636 	 43.8895 	 122.437 	 
H 	 -81.6335 	 43.5783 	 121.57 	 
H 	 -82.1258 	 44.9581 	 122.365 	 
C 	 -83.5844 	 43.272 	 122.494 	 
H 	 -84.1305 	 43.3985 	 121.598 	 
H 	 -83.4976 	 42.1636 	 122.616 	 
C 	 -84.492 	 43.826 	 123.617 	 
H 	 -83.9116 	 43.6864 	 124.581 	 
H 	 -84.625 	 44.889 	 123.561 	 
H 	 -85.4639 	 43.3081 	 123.719 	 
S 	 -77.1165 	 41.9319 	 125.967 	 
C 	 -76.4607 	 40.3355 	 125.808 	 
C 	 -77.3571 	 39.4124 	 125.322 	 
C 	 -78.5125 	 40.0586 	 124.803 	 
C 	 -78.5368 	 41.4661 	 125.098 	 
H 	 -77.0032 	 38.3642 	 125.31 	 
C 	 -79.6201 	 39.3271 	 123.991 	 
H 	 -79.5377 	 39.6568 	 122.983 	 
H 	 -80.5549 	 39.6384 	 124.443 	 
C 	 -79.5451 	 37.7792 	 124.036 	 
H 	 -79.6282 	 37.3941 	 125.099 	 
H 	 -78.5684 	 37.3541 	 123.623 	 
C 	 -80.7274 	 37.1707 	 123.167 	 
H 	 -80.9492 	 37.5433 	 122.144 	 
H 	 -81.5854 	 37.5019 	 123.796 	 
H 	 -80.7239 	 36.0905 	 123.123 	 
H 	 -81.7847 	 45.2678 	 125.164 	 
H 	 -75.5159 	 40.1274 	 126.214 	 
*
