! wB97X-D3 SP def2-SVP
%pal
nprocs 16
end

* xyz 0 1
S 	 -90.3853 	 41.5761 	 113.144 	 
C 	 -88.7915 	 42.0643 	 113.936 	 
C 	 -88.9985 	 42.991 	 114.941 	 
C 	 -90.4118 	 43.2757 	 115.146 	 
C 	 -91.2409 	 42.5141 	 114.324 	 
H 	 -90.7897 	 43.9196 	 115.942 	 
C 	 -87.9819 	 43.7038 	 115.816 	 
H 	 -88.3719 	 44.662 	 116.181 	 
H 	 -87.2981 	 44.175 	 115.159 	 
C 	 -87.3158 	 42.9135 	 116.952 	 
H 	 -86.7321 	 42.1319 	 116.498 	 
H 	 -86.7266 	 43.6777 	 117.381 	 
C 	 -88.3033 	 42.3061 	 117.947 	 
H 	 -89.0482 	 41.6943 	 117.462 	 
H 	 -87.8466 	 41.7058 	 118.764 	 
H 	 -88.8366 	 43.173 	 118.379 	 
S 	 -92.8763 	 43.6103 	 112.264 	 
C 	 -94.5791 	 43.5086 	 112.442 	 
C 	 -94.9076 	 43.1597 	 113.714 	 
C 	 -93.78 	 42.7722 	 114.507 	 
C 	 -92.5585 	 42.8141 	 113.842 	 
H 	 -95.9269 	 43.2595 	 113.969 	 
C 	 -94.0282 	 42.3486 	 115.911 	 
H 	 -93.1256 	 41.7934 	 116.229 	 
H 	 -94.9625 	 41.7431 	 115.842 	 
C 	 -94.2786 	 43.4485 	 116.97 	 
H 	 -94.4926 	 42.9535 	 117.897 	 
H 	 -95.1055 	 43.993 	 116.516 	 
C 	 -93.2156 	 44.5028 	 117.337 	 
H 	 -92.9372 	 45.0405 	 116.431 	 
H 	 -92.3409 	 43.9227 	 117.6 	 
H 	 -93.6319 	 45.1715 	 118.133 	 
H 	 -87.893 	 41.578 	 113.624 	 
H 	 -95.3031 	 43.7733 	 111.661 	 
*
