! wB97X-D3 SP def2-SVP
%pal
nprocs 16
end

* xyz 0 1
S 	 -6.26351 	 61.6 	 48.2795 	 
C 	 -6.70543 	 61.9315 	 49.8821 	 
C 	 -7.4091 	 60.863 	 50.4912 	 
C 	 -7.38306 	 59.7137 	 49.6205 	 
C 	 -6.68606 	 59.8896 	 48.402 	 
H 	 -7.76669 	 58.7177 	 49.8139 	 
C 	 -8.02854 	 60.7917 	 51.8924 	 
H 	 -8.41319 	 59.7724 	 52.0286 	 
H 	 -8.91433 	 61.4407 	 51.66 	 
C 	 -7.27223 	 61.2871 	 53.1607 	 
H 	 -6.40028 	 60.6046 	 53.3292 	 
H 	 -6.83541 	 62.1988 	 52.8344 	 
C 	 -8.15868 	 61.4269 	 54.3914 	 
H 	 -8.56391 	 60.4444 	 54.6742 	 
H 	 -7.54939 	 61.6639 	 55.2927 	 
H 	 -9.03984 	 62.0885 	 54.1859 	 
S 	 -7.8526 	 58.3894 	 46.4062 	 
C 	 -6.82286 	 57.4733 	 45.3109 	 
C 	 -5.49225 	 57.6447 	 45.7303 	 
C 	 -5.31311 	 58.5398 	 46.8232 	 
C 	 -6.5357 	 59.0607 	 47.3118 	 
H 	 -4.72631 	 56.9841 	 45.3133 	 
C 	 -3.99904 	 58.5885 	 47.5285 	 
H 	 -3.77 	 57.5666 	 47.8654 	 
H 	 -4.0312 	 58.9696 	 48.5692 	 
C 	 -2.76144 	 59.1245 	 46.7576 	 
H 	 -2.56875 	 58.7195 	 45.6853 	 
H 	 -1.90377 	 58.8232 	 47.3452 	 
C 	 -2.79719 	 60.6571 	 46.7526 	 
H 	 -3.67931 	 61.0698 	 46.3166 	 
H 	 -2.01916 	 61.0036 	 46.1727 	 
H 	 -2.60083 	 61.0045 	 47.7657 	 
H 	 -6.42816 	 62.7919 	 50.4438 	 
H 	 -7.05742 	 56.7663 	 44.6138 	 
*
