! wB97X-D3 SP def2-SVP
%pal
nprocs 16
end

* xyz 0 1
S 	 -2.13735 	 -10.4683 	 65.2179 	 
C 	 -3.23894 	 -10.0351 	 66.5262 	 
C 	 -3.21 	 -10.9125 	 67.5665 	 
C 	 -2.51023 	 -12.0892 	 67.23 	 
C 	 -1.83551 	 -12.0306 	 65.9985 	 
H 	 -2.3976 	 -12.9947 	 67.7441 	 
C 	 -4.00671 	 -10.7763 	 68.797 	 
H 	 -5.0637 	 -10.9596 	 68.4761 	 
H 	 -4.09465 	 -9.76419 	 69.1346 	 
C 	 -3.69875 	 -11.6751 	 70.0146 	 
H 	 -2.70258 	 -11.9349 	 69.8967 	 
H 	 -3.88363 	 -11.1769 	 71.0078 	 
C 	 -4.52514 	 -12.9153 	 69.9231 	 
H 	 -5.48328 	 -12.754 	 70.4031 	 
H 	 -4.69297 	 -13.4189 	 68.9383 	 
H 	 -4.03817 	 -13.7324 	 70.5279 	 
S 	 0.587442 	 -12.5242 	 64.9396 	 
C 	 1.07645 	 -14.1069 	 64.3203 	 
C 	 0.00976083 	 -15.0104 	 64.4506 	 
C 	 -1.13574 	 -14.3523 	 65.0354 	 
C 	 -1.00906 	 -13.0213 	 65.3282 	 
H 	 0.113091 	 -16.0677 	 64.0527 	 
C 	 -2.42965 	 -15.166 	 65.1015 	 
H 	 -2.65024 	 -15.4162 	 64.0566 	 
H 	 -3.24373 	 -14.521 	 65.4221 	 
C 	 -2.49028 	 -16.4179 	 65.8939 	 
H 	 -1.88918 	 -17.246 	 65.4972 	 
H 	 -3.4809 	 -16.7276 	 65.7431 	 
C 	 -2.35308 	 -16.3949 	 67.3981 	 
H 	 -1.38495 	 -16.2183 	 67.7774 	 
H 	 -2.83845 	 -17.2694 	 67.8222 	 
H 	 -2.94089 	 -15.5826 	 67.8357 	 
H 	 -3.94693 	 -9.26087 	 66.4224 	 
H 	 2.05527 	 -14.3576 	 63.9333 	 
*
