! wB97X-D3 SP def2-SVP
%pal
nprocs 16
end

* xyz 0 1
S 	 -8.86958 	 34.7614 	 53.4228 	 
C 	 -9.09444 	 33.38 	 54.4674 	 
C 	 -8.51777 	 32.2278 	 53.948 	 
C 	 -7.78243 	 32.4476 	 52.725 	 
C 	 -7.8554 	 33.8004 	 52.3757 	 
H 	 -7.21382 	 31.7921 	 52.089 	 
C 	 -8.54783 	 30.829 	 54.6191 	 
H 	 -9.64629 	 30.6077 	 54.403 	 
H 	 -8.31024 	 31.0163 	 55.6596 	 
C 	 -7.57918 	 29.7936 	 54.0383 	 
H 	 -7.96192 	 28.8131 	 54.3893 	 
H 	 -7.61665 	 29.8958 	 52.9498 	 
C 	 -6.09852 	 29.9208 	 54.5363 	 
H 	 -5.96733 	 29.5756 	 55.5282 	 
H 	 -5.5056 	 29.2033 	 53.9266 	 
H 	 -5.72365 	 30.8754 	 54.2692 	 
S 	 -5.94924 	 35.6929 	 51.7249 	 
C 	 -5.3843 	 35.8751 	 50.0682 	 
C 	 -6.05764 	 34.9951 	 49.2197 	 
C 	 -7.04631 	 34.2176 	 49.9126 	 
C 	 -7.10369 	 34.4652 	 51.276 	 
H 	 -5.80834 	 34.9706 	 48.1977 	 
C 	 -7.86628 	 33.196 	 49.1558 	 
H 	 -8.26684 	 33.6461 	 48.1964 	 
H 	 -8.70539 	 32.8775 	 49.781 	 
C 	 -7.05934 	 31.9559 	 48.8406 	 
H 	 -6.38513 	 31.6151 	 49.6561 	 
H 	 -6.31051 	 32.2373 	 48.111 	 
C 	 -7.89218 	 30.6506 	 48.3646 	 
H 	 -8.31616 	 30.7522 	 47.3021 	 
H 	 -8.70911 	 30.2994 	 49.1034 	 
H 	 -7.14932 	 29.8452 	 48.3296 	 
H 	 -9.6261 	 33.3416 	 55.3874 	 
H 	 -4.65524 	 36.5818 	 49.6884 	 
*
