! wB97X-D3 SP def2-SVP
%pal
nprocs 16
end

* xyz 0 1
S 	 -82.128 	 44.833 	 123.517 	 
C 	 -82.3676 	 43.1267 	 123.474 	 
C 	 -81.5703 	 42.4778 	 124.302 	 
C 	 -80.7172 	 43.3724 	 125.066 	 
C 	 -80.8724 	 44.6601 	 124.631 	 
H 	 -80.0071 	 43.0883 	 125.806 	 
C 	 -81.4614 	 40.9472 	 124.352 	 
H 	 -82.1221 	 40.5688 	 123.574 	 
H 	 -81.9517 	 40.7431 	 125.263 	 
C 	 -80.0726 	 40.4199 	 124.081 	 
H 	 -79.4068 	 40.6488 	 124.893 	 
H 	 -80.1295 	 39.3302 	 124.146 	 
C 	 -79.5436 	 40.5496 	 122.684 	 
H 	 -80.1695 	 40.0394 	 121.945 	 
H 	 -79.3081 	 41.5704 	 122.323 	 
H 	 -78.6941 	 39.8983 	 122.605 	 
S 	 -80.7949 	 47.3395 	 125.346 	 
C 	 -79.3238 	 47.9533 	 126.115 	 
C 	 -78.414 	 46.9972 	 126.204 	 
C 	 -78.8084 	 45.7373 	 125.646 	 
C 	 -80.1273 	 45.7703 	 125.187 	 
H 	 -77.4821 	 47.2896 	 126.71 	 
C 	 -77.7338 	 44.6435 	 125.482 	 
H 	 -76.9539 	 45.2114 	 124.966 	 
H 	 -77.9836 	 43.8427 	 124.745 	 
C 	 -77.239 	 44.0968 	 126.806 	 
H 	 -78.1131 	 44.0834 	 127.524 	 
H 	 -76.478 	 44.7169 	 127.212 	 
C 	 -76.569 	 42.6912 	 126.735 	 
H 	 -75.9259 	 42.4325 	 127.595 	 
H 	 -76.0455 	 42.5922 	 125.817 	 
H 	 -77.3269 	 41.9426 	 126.68 	 
H 	 -83.1318 	 42.7313 	 122.824 	 
H 	 -79.2078 	 48.9048 	 126.524 	 
*
