! wB97X-D3 SP def2-SVP
%pal
nprocs 16
end

* xyz 0 1
S 	 -52.2926 	 40.9724 	 103.884 	 
C 	 -51.2854 	 42.3914 	 104.152 	 
C 	 -51.5279 	 43.0414 	 105.357 	 
C 	 -52.5994 	 42.4114 	 106.093 	 
C 	 -53.0535 	 41.2871 	 105.411 	 
H 	 -53.016 	 42.6461 	 107.043 	 
C 	 -50.8317 	 44.3423 	 105.898 	 
H 	 -49.8001 	 44.1142 	 106.234 	 
H 	 -51.3598 	 44.8912 	 106.652 	 
C 	 -50.6087 	 45.4436 	 104.855 	 
H 	 -49.8768 	 45.1549 	 104.146 	 
H 	 -51.6028 	 45.4925 	 104.404 	 
C 	 -50.1786 	 46.7294 	 105.544 	 
H 	 -50.0681 	 47.5869 	 104.883 	 
H 	 -50.9621 	 47.0055 	 106.296 	 
H 	 -49.2098 	 46.5153 	 106.045 	 
S 	 -55.5362 	 40.1894 	 104.94 	 
C 	 -56.5501 	 39.5043 	 106.227 	 
C 	 -55.809 	 39.6746 	 107.392 	 
C 	 -54.4718 	 40.1763 	 107.262 	 
C 	 -54.1297 	 40.4883 	 105.962 	 
H 	 -56.347 	 39.3755 	 108.381 	 
C 	 -53.595 	 40.3212 	 108.53 	 
H 	 -52.9863 	 41.2605 	 108.342 	 
H 	 -52.8863 	 39.5315 	 108.433 	 
C 	 -54.1721 	 40.4506 	 110.012 	 
H 	 -53.4231 	 40.4742 	 110.751 	 
H 	 -54.7522 	 39.5389 	 110.233 	 
C 	 -54.9269 	 41.6939 	 110.262 	 
H 	 -55.7307 	 41.8345 	 109.591 	 
H 	 -54.2371 	 42.5175 	 110.227 	 
H 	 -55.3664 	 41.7129 	 111.22 	 
H 	 -50.7625 	 42.9859 	 103.433 	 
H 	 -57.5247 	 39.1948 	 106.114 	 
*
