! wB97X-D3 SP def2-SVP
%pal
nprocs 16
end

* xyz 0 1
S 	 31.626 	 13.7137 	 69.1607 	 
C 	 30.3019 	 14.8029 	 68.6607 	 
C 	 29.0767 	 14.2366 	 68.8503 	 
C 	 29.2024 	 12.9145 	 69.3262 	 
C 	 30.4922 	 12.4709 	 69.4689 	 
H 	 28.4095 	 12.2339 	 69.4363 	 
C 	 27.7722 	 14.9775 	 68.8295 	 
H 	 27.9558 	 15.928 	 69.4609 	 
H 	 26.9651 	 14.3777 	 69.2119 	 
C 	 27.3778 	 15.3998 	 67.4242 	 
H 	 27.9794 	 16.1316 	 66.9205 	 
H 	 27.3224 	 14.5421 	 66.7744 	 
C 	 25.8779 	 15.8356 	 67.3709 	 
H 	 25.2925 	 15.0233 	 66.9539 	 
H 	 25.4121 	 15.8794 	 68.3263 	 
H 	 25.6922 	 16.8249 	 66.8549 	 
S 	 32.5457 	 10.5868 	 69.4774 	 
C 	 32.2639 	 9.01154 	 70.2086 	 
C 	 31.0674 	 9.01809 	 70.8414 	 
C 	 30.2592 	 10.1546 	 70.6992 	 
C 	 30.8758 	 11.1352 	 69.9099 	 
H 	 30.8573 	 8.2087 	 71.5129 	 
C 	 28.9336 	 10.3166 	 71.3276 	 
H 	 28.5042 	 9.33133 	 71.676 	 
H 	 28.2091 	 10.7806 	 70.6955 	 
C 	 29.1283 	 11.1165 	 72.591 	 
H 	 29.5668 	 12.0862 	 72.4573 	 
H 	 29.8323 	 10.5946 	 73.1906 	 
C 	 27.8081 	 11.3601 	 73.3625 	 
H 	 27.0324 	 11.8238 	 72.8135 	 
H 	 28.0501 	 12.0535 	 74.0669 	 
H 	 27.3415 	 10.4441 	 73.7475 	 
H 	 30.4378 	 15.8178 	 68.3848 	 
H 	 33.0427 	 8.23749 	 70.4184 	 
*
