! wB97X-D3 SP def2-SVP
%pal
nprocs 16
end

* xyz 0 1
S 	 -43.1256 	 41.113 	 80.6247 	 
C 	 -43.0642 	 41.1146 	 78.8529 	 
C 	 -44.2345 	 40.6003 	 78.3047 	 
C 	 -45.2313 	 40.3997 	 79.3183 	 
C 	 -44.8871 	 40.7673 	 80.5922 	 
H 	 -46.2743 	 40.0535 	 79.1867 	 
C 	 -44.4637 	 40.1435 	 76.8611 	 
H 	 -44.0312 	 40.9943 	 76.2603 	 
H 	 -45.4703 	 40.0388 	 76.5313 	 
C 	 -43.6166 	 38.8597 	 76.5331 	 
H 	 -43.4768 	 38.6963 	 75.462 	 
H 	 -42.5448 	 39.009 	 76.932 	 
C 	 -44.2609 	 37.5484 	 76.961 	 
H 	 -44.5865 	 37.4712 	 77.9826 	 
H 	 -45.1119 	 37.3972 	 76.3332 	 
H 	 -43.5882 	 36.6815 	 76.7789 	 
S 	 -45.7927 	 42.3334 	 82.6675 	 
C 	 -46.6227 	 41.581 	 84.0283 	 
C 	 -47.1275 	 40.3217 	 83.6875 	 
C 	 -46.466 	 39.8577 	 82.425 	 
C 	 -45.7233 	 40.8086 	 81.7737 	 
H 	 -47.7311 	 39.7031 	 84.3408 	 
C 	 -46.7827 	 38.4144 	 81.9571 	 
H 	 -47.2172 	 38.4009 	 80.936 	 
H 	 -47.696 	 38.1166 	 82.524 	 
C 	 -45.7226 	 37.2945 	 82.0007 	 
H 	 -45.0213 	 37.3667 	 81.22 	 
H 	 -46.1009 	 36.2665 	 81.8438 	 
C 	 -44.8475 	 37.198 	 83.3242 	 
H 	 -45.4322 	 37.2228 	 84.2485 	 
H 	 -44.2103 	 38.0423 	 83.2659 	 
H 	 -44.2626 	 36.3084 	 83.3328 	 
H 	 -42.2384 	 41.2946 	 78.2972 	 
H 	 -46.9768 	 42.0346 	 84.9367 	 
*
