! wB97X-D3 SP def2-SVP
%pal
nprocs 16
end

* xyz 0 1
S 	 -30.3413 	 69.8547 	 104.095 	 
C 	 -30.2524 	 68.5934 	 102.835 	 
C 	 -29.4538 	 67.539 	 103.15 	 
C 	 -28.9513 	 67.68 	 104.478 	 
C 	 -29.276 	 68.8979 	 105.095 	 
H 	 -28.3214 	 67.0012 	 105.012 	 
C 	 -29.0221 	 66.3785 	 102.249 	 
H 	 -28.1093 	 65.9892 	 102.641 	 
H 	 -28.7463 	 66.8572 	 101.331 	 
C 	 -30.0817 	 65.2461 	 101.987 	 
H 	 -30.2479 	 64.8955 	 103.049 	 
H 	 -30.9176 	 65.7735 	 101.589 	 
C 	 -29.6283 	 64.1589 	 100.962 	 
H 	 -30.2087 	 63.2901 	 100.893 	 
H 	 -29.5626 	 64.6803 	 99.9518 	 
H 	 -28.6651 	 63.8256 	 101.283 	 
S 	 -27.1211 	 69.0284 	 106.742 	 
C 	 -27.2795 	 69.6054 	 108.379 	 
C 	 -28.6297 	 69.8405 	 108.71 	 
C 	 -29.5975 	 69.561 	 107.653 	 
C 	 -28.8676 	 69.2183 	 106.46 	 
H 	 -28.8518 	 70.1979 	 109.715 	 
C 	 -31.0951 	 69.4828 	 107.842 	 
H 	 -31.5698 	 69.8441 	 106.994 	 
H 	 -31.4 	 70.2506 	 108.52 	 
C 	 -31.7185 	 68.0628 	 108.165 	 
H 	 -31.4171 	 67.3799 	 107.401 	 
H 	 -32.7812 	 68.1636 	 108.04 	 
C 	 -31.2029 	 67.4215 	 109.509 	 
H 	 -31.8065 	 66.5507 	 109.852 	 
H 	 -31.3666 	 68.2301 	 110.227 	 
H 	 -30.1696 	 67.2223 	 109.536 	 
H 	 -30.7694 	 68.7048 	 101.886 	 
H 	 -26.4473 	 69.8161 	 108.992 	 
*
