! wB97X-D3 SP def2-SVP
%pal
nprocs 16
end

* xyz 0 1
S 	 12.3144 	 14.5451 	 82.8757 	 
C 	 13.8278 	 15.2979 	 82.6673 	 
C 	 14.538 	 14.6169 	 81.7289 	 
C 	 13.9887 	 13.3479 	 81.3985 	 
C 	 12.8325 	 13.0959 	 82.0828 	 
H 	 14.4175 	 12.5314 	 80.9086 	 
C 	 15.8873 	 15.1369 	 81.1715 	 
H 	 16.6066 	 14.3099 	 81.1436 	 
H 	 16.2005 	 15.8225 	 81.9363 	 
C 	 15.7152 	 15.7739 	 79.7859 	 
H 	 15.368 	 16.7911 	 79.8655 	 
H 	 16.7141 	 15.9829 	 79.3076 	 
C 	 14.9221 	 15.0505 	 78.7087 	 
H 	 14.8032 	 15.7819 	 77.9049 	 
H 	 15.5353 	 14.3602 	 78.1713 	 
H 	 13.9592 	 14.6592 	 79.0428 	 
S 	 10.2359 	 12.4543 	 81.4572 	 
C 	 9.76893 	 10.7836 	 81.3283 	 
C 	 10.857 	 9.96789 	 81.3763 	 
C 	 12.1022 	 10.6457 	 81.5728 	 
C 	 11.9406 	 11.9973 	 81.7973 	 
H 	 10.7659 	 8.83946 	 81.2274 	 
C 	 13.4179 	 9.92259 	 81.8727 	 
H 	 13.1337 	 9.17546 	 82.5959 	 
H 	 14.0222 	 10.6148 	 82.5135 	 
C 	 14.0518 	 9.3976 	 80.683 	 
H 	 13.3956 	 8.68248 	 80.2207 	 
H 	 14.8793 	 8.85687 	 81.0659 	 
C 	 14.6017 	 10.3618 	 79.5325 	 
H 	 15.5039 	 10.8332 	 79.9137 	 
H 	 13.8955 	 11.1364 	 78.9689 	 
H 	 15.1351 	 9.82441 	 78.7702 	 
H 	 14.1234 	 16.2629 	 82.891 	 
H 	 8.82117 	 10.4407 	 81.0148 	 
*
