! wB97X-D3 SP def2-SVP
%pal
nprocs 16
end

* xyz 0 1
S 	 6.77662 	 -13.9067 	 60.016 	 
C 	 7.22214 	 -12.2542 	 60.6134 	 
C 	 6.44544 	 -11.9591 	 61.6935 	 
C 	 5.67014 	 -13.0483 	 62.1172 	 
C 	 5.55949 	 -14.1127 	 61.2746 	 
H 	 4.99944 	 -13.0197 	 62.9602 	 
C 	 6.4612 	 -10.6613 	 62.4179 	 
H 	 5.8505 	 -10.8126 	 63.2977 	 
H 	 6.06221 	 -9.83231 	 61.85 	 
C 	 7.87147 	 -10.3341 	 62.9622 	 
H 	 8.53402 	 -10.0888 	 62.1328 	 
H 	 7.89859 	 -9.44323 	 63.6008 	 
C 	 8.58316 	 -11.3554 	 63.8976 	 
H 	 8.96704 	 -12.2525 	 63.4628 	 
H 	 9.41746 	 -10.8797 	 64.4496 	 
H 	 7.77979 	 -11.6189 	 64.6756 	 
S 	 5.87066 	 -16.7221 	 61.9516 	 
C 	 4.50827 	 -17.7746 	 62.0198 	 
C 	 3.28718 	 -17.0767 	 62.0728 	 
C 	 3.48234 	 -15.6438 	 61.7284 	 
C 	 4.8352 	 -15.3408 	 61.5524 	 
H 	 2.41453 	 -17.6284 	 62.3269 	 
C 	 2.23999 	 -14.7592 	 61.4588 	 
H 	 2.1679 	 -14.0646 	 62.2831 	 
H 	 1.32849 	 -15.3581 	 61.4881 	 
C 	 2.22547 	 -14.149 	 60.0786 	 
H 	 2.0453 	 -14.9559 	 59.2975 	 
H 	 3.18198 	 -13.6789 	 59.8246 	 
C 	 1.26049 	 -13.0256 	 59.8243 	 
H 	 0.224383 	 -13.3214 	 59.9641 	 
H 	 1.40793 	 -12.6792 	 58.8021 	 
H 	 1.45595 	 -12.1524 	 60.5048 	 
H 	 7.86041 	 -11.4829 	 60.1727 	 
H 	 4.46337 	 -18.8778 	 62.1295 	 
*
