! wB97X-D3 SP def2-SVP
%pal
nprocs 16
end

* xyz 0 1
S 	 54.8099 	 6.78021 	 75.8116 	 
C 	 54.763 	 8.2463 	 76.6393 	 
C 	 54.4075 	 9.21339 	 75.7105 	 
C 	 54.3239 	 8.80348 	 74.3329 	 
C 	 54.614 	 7.49825 	 74.2373 	 
H 	 54.0291 	 9.36238 	 73.4421 	 
C 	 54.2856 	 10.6739 	 76.1581 	 
H 	 55.0134 	 10.9213 	 76.9145 	 
H 	 53.355 	 10.7839 	 76.597 	 
C 	 54.256 	 11.7044 	 74.9893 	 
H 	 55.2176 	 11.6847 	 74.4365 	 
H 	 53.4057 	 11.4591 	 74.2828 	 
C 	 53.9524 	 13.1087 	 75.5253 	 
H 	 53.6723 	 13.8858 	 74.7398 	 
H 	 53.1226 	 13.0505 	 76.2082 	 
H 	 54.8801 	 13.4954 	 75.9656 	 
S 	 53.6338 	 5.25914 	 72.7529 	 
C 	 54.1649 	 5.10438 	 71.1251 	 
C 	 55.0605 	 6.05576 	 70.743 	 
C 	 55.3365 	 6.99716 	 71.8078 	 
C 	 54.6752 	 6.71485 	 72.9688 	 
H 	 55.3633 	 6.07388 	 69.6809 	 
C 	 56.3473 	 8.15558 	 71.6812 	 
H 	 56.7507 	 8.32723 	 72.6491 	 
H 	 55.6539 	 8.98435 	 71.4476 	 
C 	 57.2865 	 8.06983 	 70.4696 	 
H 	 57.8782 	 9.02391 	 70.3741 	 
H 	 56.702 	 7.88106 	 69.5538 	 
C 	 58.4096 	 6.99374 	 70.5687 	 
H 	 58.9526 	 6.85978 	 69.5799 	 
H 	 57.9025 	 6.07047 	 70.874 	 
H 	 59.0375 	 7.07837 	 71.4798 	 
H 	 54.6543 	 8.49009 	 77.6678 	 
H 	 53.5831 	 4.46087 	 70.4387 	 
*
