! wB97X-D3 SP def2-SVP
%pal
nprocs 16
end

* xyz 0 1
S 	 11.4297 	 22.2102 	 47.3403 	 
C 	 12.7071 	 23.0417 	 48.2772 	 
C 	 12.112 	 23.7552 	 49.2419 	 
C 	 10.7139 	 23.4637 	 49.3561 	 
C 	 10.1728 	 22.5442 	 48.4929 	 
H 	 9.99167 	 23.9024 	 50.009 	 
C 	 12.773 	 24.7963 	 50.1558 	 
H 	 12.2095 	 25.6982 	 50.1514 	 
H 	 13.6675 	 25.0151 	 49.6484 	 
C 	 13.1936 	 24.3358 	 51.5258 	 
H 	 12.2372 	 24.1634 	 52.1254 	 
H 	 13.6569 	 23.3943 	 51.3052 	 
C 	 14.0175 	 25.4622 	 52.1717 	 
H 	 14.3851 	 25.1028 	 53.1372 	 
H 	 14.9322 	 25.6407 	 51.5674 	 
H 	 13.4164 	 26.3514 	 52.3168 	 
S 	 8.0856 	 22.0542 	 46.6706 	 
C 	 6.41705 	 22.0839 	 47.1937 	 
C 	 6.38661 	 22.2325 	 48.5635 	 
C 	 7.66583 	 22.4402 	 49.1548 	 
C 	 8.73782 	 22.2732 	 48.2758 	 
H 	 5.45784 	 22.2596 	 49.1242 	 
C 	 7.78637 	 22.4217 	 50.6281 	 
H 	 6.7969 	 22.7915 	 50.9736 	 
H 	 8.43891 	 23.1756 	 51.0351 	 
C 	 8.35135 	 21.125 	 51.2812 	 
H 	 8.74068 	 21.4065 	 52.2405 	 
H 	 9.14682 	 20.816 	 50.6757 	 
C 	 7.32256 	 19.9785 	 51.3725 	 
H 	 7.7515 	 19.098 	 51.8684 	 
H 	 7.06328 	 19.6819 	 50.3592 	 
H 	 6.5278 	 20.2752 	 51.9947 	 
H 	 13.7493 	 23.2004 	 47.9489 	 
H 	 5.50823 	 22.1386 	 46.5665 	 
*
