! wB97X-D3 SP def2-SVP
%pal
nprocs 16
end

* xyz 0 1
S 	 0.970579 	 29.907 	 38.1451 	 
C 	 2.16213 	 29.0646 	 37.1821 	 
C 	 1.80119 	 29.014 	 35.8586 	 
C 	 0.533161 	 29.6562 	 35.5809 	 
C 	 0.00589269 	 30.2575 	 36.6993 	 
H 	 -0.0501917 	 29.6168 	 34.6195 	 
C 	 2.44642 	 28.2911 	 34.7082 	 
H 	 3.46422 	 27.9853 	 34.9377 	 
H 	 2.51089 	 28.97 	 33.9 	 
C 	 1.653 	 27.023 	 34.259 	 
H 	 1.38498 	 26.4186 	 35.102 	 
H 	 0.723198 	 27.2563 	 33.8825 	 
C 	 2.38917 	 26.0544 	 33.3055 	 
H 	 1.96567 	 25.0551 	 33.1506 	 
H 	 2.3891 	 26.4702 	 32.3024 	 
H 	 3.42959 	 25.9021 	 33.5644 	 
S 	 -2.49728 	 30.2039 	 37.8951 	 
C 	 -3.65466 	 31.4061 	 37.4214 	 
C 	 -3.33599 	 32.1006 	 36.2762 	 
C 	 -1.96542 	 31.8303 	 35.8735 	 
C 	 -1.31017 	 30.9069 	 36.7299 	 
H 	 -4.03613 	 32.705 	 35.7436 	 
C 	 -1.31479 	 32.4311 	 34.6282 	 
H 	 -2.1263 	 32.5397 	 33.8829 	 
H 	 -0.587578 	 31.7586 	 34.196 	 
C 	 -0.790575 	 33.8991 	 34.8901 	 
H 	 -1.54907 	 34.4277 	 35.4686 	 
H 	 -0.741328 	 34.428 	 33.9683 	 
C 	 0.534132 	 33.9543 	 35.6757 	 
H 	 0.563543 	 33.6737 	 36.7166 	 
H 	 0.873896 	 35.0536 	 35.7765 	 
H 	 1.32268 	 33.4601 	 35.1215 	 
H 	 3.09116 	 28.6107 	 37.5605 	 
H 	 -4.6792 	 31.5694 	 37.8211 	 
*
