! wB97X-D3 SP def2-SVP
%pal
nprocs 16
end

* xyz 0 1
S 	 -66.0066 	 51.3483 	 125.202 	 
C 	 -67.2876 	 52.2984 	 125.947 	 
C 	 -66.7424 	 53.4503 	 126.545 	 
C 	 -65.3216 	 53.5942 	 126.29 	 
C 	 -64.7858 	 52.4865 	 125.599 	 
H 	 -64.6158 	 54.3155 	 126.579 	 
C 	 -67.4768 	 54.4709 	 127.385 	 
H 	 -68.4614 	 54.5832 	 126.872 	 
H 	 -67.0361 	 55.4412 	 127.167 	 
C 	 -67.477 	 54.1546 	 128.9 	 
H 	 -66.521 	 53.9517 	 129.261 	 
H 	 -67.8498 	 54.9888 	 129.532 	 
C 	 -68.3797 	 52.9319 	 129.209 	 
H 	 -69.3291 	 53.007 	 128.666 	 
H 	 -67.8534 	 52.1086 	 128.863 	 
H 	 -68.6377 	 52.7108 	 130.312 	 
S 	 -62.911 	 50.5153 	 125.612 	 
C 	 -61.2012 	 50.7998 	 125.398 	 
C 	 -61.0483 	 52.0879 	 124.975 	 
C 	 -62.2566 	 52.8884 	 124.97 	 
C 	 -63.385 	 52.1342 	 125.349 	 
H 	 -60.0222 	 52.3965 	 124.659 	 
C 	 -62.2546 	 54.3352 	 124.532 	 
H 	 -61.3296 	 54.8036 	 124.89 	 
H 	 -63.0998 	 54.8471 	 124.957 	 
C 	 -62.2942 	 54.5786 	 123.072 	 
H 	 -63.0641 	 54.0846 	 122.437 	 
H 	 -61.3109 	 54.2341 	 122.742 	 
C 	 -62.2128 	 56.0877 	 122.799 	 
H 	 -62.3264 	 56.3229 	 121.781 	 
H 	 -61.255 	 56.4355 	 123.071 	 
H 	 -62.984 	 56.637 	 123.313 	 
H 	 -68.3447 	 52.0743 	 126.124 	 
H 	 -60.47 	 49.9999 	 125.445 	 
*
