! wB97X-D3 SP def2-SVP
%pal
nprocs 16
end

* xyz 0 1
S 	 -81.9474 	 36.4929 	 135.277 	 
C 	 -80.3287 	 36.3239 	 136.076 	 
C 	 -79.3619 	 36.0292 	 135.194 	 
C 	 -79.8363 	 35.7971 	 133.88 	 
C 	 -81.1482 	 36.2295 	 133.713 	 
H 	 -79.4598 	 35.6588 	 132.939 	 
C 	 -77.9216 	 35.6308 	 135.548 	 
H 	 -77.5852 	 34.7224 	 135.075 	 
H 	 -77.8992 	 35.4816 	 136.706 	 
C 	 -76.894 	 36.8251 	 135.367 	 
H 	 -77.1313 	 37.5838 	 136.043 	 
H 	 -75.9382 	 36.4405 	 135.78 	 
C 	 -76.5964 	 37.2133 	 133.932 	 
H 	 -77.4862 	 37.716 	 133.537 	 
H 	 -75.8429 	 37.9743 	 133.974 	 
H 	 -76.3758 	 36.3663 	 133.293 	 
S 	 -83.3581 	 35.3687 	 132.404 	 
C 	 -83.5501 	 35.6605 	 130.685 	 
C 	 -82.5443 	 36.4906 	 130.187 	 
C 	 -81.6027 	 36.8463 	 131.21 	 
C 	 -81.8546 	 36.319 	 132.444 	 
H 	 -82.4684 	 36.7427 	 129.09 	 
C 	 -80.3624 	 37.707 	 130.974 	 
H 	 -80.1812 	 37.7473 	 129.894 	 
H 	 -79.4039 	 37.1488 	 131.205 	 
C 	 -80.3157 	 39.0796 	 131.639 	 
H 	 -79.4829 	 39.6032 	 131.095 	 
H 	 -80.0049 	 38.9552 	 132.689 	 
C 	 -81.6707 	 39.8336 	 131.442 	 
H 	 -82.5404 	 39.4582 	 131.953 	 
H 	 -81.9602 	 39.9486 	 130.432 	 
H 	 -81.4869 	 40.7816 	 131.895 	 
H 	 -80.2086 	 36.3792 	 137.152 	 
H 	 -84.3783 	 35.3025 	 130.133 	 
*
