! wB97X-D3 SP def2-SVP
%pal
nprocs 16
end

* xyz 0 1
S 	 -52.8139 	 29.3409 	 93.9213 	 
C 	 -51.1351 	 28.7369 	 94.14 	 
C 	 -50.7105 	 28.0816 	 92.9793 	 
C 	 -51.7152 	 27.9509 	 92.0093 	 
C 	 -52.9321 	 28.4909 	 92.4394 	 
H 	 -51.5033 	 27.4498 	 91.0368 	 
C 	 -49.3247 	 27.5087 	 92.7729 	 
H 	 -48.64 	 27.9606 	 93.5121 	 
H 	 -48.8694 	 27.8098 	 91.8183 	 
C 	 -49.1798 	 25.9455 	 92.6546 	 
H 	 -49.7616 	 25.5836 	 91.7945 	 
H 	 -48.1542 	 25.7056 	 92.5179 	 
C 	 -49.7406 	 25.2874 	 93.8513 	 
H 	 -49.4252 	 24.2309 	 93.8879 	 
H 	 -49.3589 	 25.7507 	 94.7816 	 
H 	 -50.764 	 25.4425 	 93.9851 	 
S 	 -55.1499 	 29.8344 	 91.5733 	 
C 	 -56.2386 	 29.0524 	 90.5129 	 
C 	 -55.8754 	 27.7278 	 90.2356 	 
C 	 -54.6319 	 27.297 	 90.9161 	 
C 	 -54.1524 	 28.33 	 91.7499 	 
H 	 -56.493 	 27.1199 	 89.5172 	 
C 	 -54.0946 	 25.871 	 90.7636 	 
H 	 -53.256 	 25.8911 	 90.0886 	 
H 	 -54.8061 	 25.1744 	 90.3287 	 
C 	 -53.7074 	 25.2091 	 92.0824 	 
H 	 -54.444 	 25.5147 	 92.8025 	 
H 	 -52.8124 	 25.6975 	 92.4084 	 
C 	 -53.5522 	 23.6937 	 92.1097 	 
H 	 -52.5597 	 23.4771 	 91.7125 	 
H 	 -54.2769 	 23.1826 	 91.4688 	 
H 	 -53.6478 	 23.338 	 93.1508 	 
H 	 -50.4769 	 28.8317 	 94.9083 	 
H 	 -57.068 	 29.5288 	 89.9824 	 
*
