! wB97X-D3 SP def2-SVP
%pal
nprocs 16
end

* xyz 0 1
S 	 -33.5989 	 46.4726 	 97.6223 	 
C 	 -33.9656 	 45.0859 	 96.596 	 
C 	 -33.5368 	 45.2531 	 95.3002 	 
C 	 -32.9021 	 46.5449 	 95.1076 	 
C 	 -32.9068 	 47.3348 	 96.2473 	 
H 	 -32.5655 	 47.0249 	 94.1839 	 
C 	 -33.5824 	 44.2409 	 94.1652 	 
H 	 -33.4404 	 43.3032 	 94.6387 	 
H 	 -32.7647 	 44.4616 	 93.5308 	 
C 	 -34.9173 	 44.4384 	 93.3953 	 
H 	 -34.9441 	 45.4847 	 93.0992 	 
H 	 -34.9025 	 43.997 	 92.3696 	 
C 	 -36.1964 	 44.0378 	 94.1723 	 
H 	 -37.115 	 44.0553 	 93.5629 	 
H 	 -36.187 	 43.033 	 94.562 	 
H 	 -36.4291 	 44.6966 	 95.0299 	 
S 	 -33.836 	 49.8939 	 96.0414 	 
C 	 -32.6956 	 51.2124 	 96.2049 	 
C 	 -31.4158 	 50.7655 	 96.2343 	 
C 	 -31.3457 	 49.3306 	 96.27 	 
C 	 -32.58 	 48.7077 	 96.266 	 
H 	 -30.5953 	 51.4004 	 96.2774 	 
C 	 -29.9941 	 48.6766 	 96.2661 	 
H 	 -29.2315 	 49.2411 	 95.7552 	 
H 	 -30.2555 	 47.7807 	 95.7946 	 
C 	 -29.3409 	 48.4242 	 97.6732 	 
H 	 -28.3656 	 47.9624 	 97.6633 	 
H 	 -30.055 	 47.6952 	 98.1225 	 
C 	 -29.3013 	 49.6595 	 98.517 	 
H 	 -28.6995 	 49.5846 	 99.441 	 
H 	 -30.3185 	 49.7435 	 98.8574 	 
H 	 -29.1195 	 50.5675 	 97.9936 	 
H 	 -34.3182 	 44.1144 	 96.991 	 
H 	 -32.9168 	 52.2812 	 96.3046 	 
*
