! wB97X-D3 SP def2-SVP
%pal
nprocs 16
end

* xyz 0 1
S 	 7.86543 	 22.1893 	 42.328 	 
C 	 6.47305 	 23.1906 	 42.4392 	 
C 	 6.81398 	 24.5578 	 42.4961 	 
C 	 8.21386 	 24.7611 	 42.4608 	 
C 	 8.91463 	 23.6435 	 42.2861 	 
H 	 8.7524 	 25.6844 	 42.4684 	 
C 	 5.76281 	 25.6367 	 42.5368 	 
H 	 4.76779 	 25.1614 	 42.4508 	 
H 	 5.77263 	 26.0255 	 41.5836 	 
C 	 5.85436 	 26.6637 	 43.6729 	 
H 	 5.95155 	 26.1092 	 44.5738 	 
H 	 6.83729 	 27.1453 	 43.5298 	 
C 	 4.66473 	 27.597 	 43.6151 	 
H 	 3.74072 	 27.0632 	 43.7389 	 
H 	 4.66025 	 28.1985 	 44.5181 	 
H 	 4.61297 	 28.1529 	 42.7242 	 
S 	 11.235 	 23.699 	 43.7889 	 
C 	 12.7838 	 23.4161 	 42.9927 	 
C 	 12.6482 	 23.2477 	 41.5892 	 
C 	 11.2829 	 23.4154 	 41.1361 	 
C 	 10.4052 	 23.5673 	 42.2071 	 
H 	 13.5402 	 22.9923 	 41.0702 	 
C 	 10.8427 	 23.0517 	 39.7337 	 
H 	 9.76467 	 23.2686 	 39.5416 	 
H 	 10.8667 	 21.9906 	 39.6386 	 
C 	 11.5961 	 23.7879 	 38.6229 	 
H 	 12.7242 	 23.4778 	 38.543 	 
H 	 11.5166 	 24.914 	 38.7899 	 
C 	 10.825 	 23.4745 	 37.2603 	 
H 	 11.4805 	 23.779 	 36.3912 	 
H 	 9.83669 	 23.8949 	 37.1527 	 
H 	 10.6246 	 22.4445 	 37.1425 	 
H 	 5.4582 	 22.8171 	 42.5014 	 
H 	 13.7865 	 23.3708 	 43.411 	 
*
