! wB97X-D3 SP def2-SVP
%pal
nprocs 16
end

* xyz 0 1
S 	 43.7556 	 14.7868 	 50.3883 	 
C 	 44.7072 	 14.7098 	 51.8901 	 
C 	 44.6655 	 13.4251 	 52.4123 	 
C 	 43.7445 	 12.6047 	 51.7604 	 
C 	 43.235 	 13.0997 	 50.5945 	 
H 	 43.4244 	 11.6484 	 52.0402 	 
C 	 45.3369 	 12.9368 	 53.7221 	 
H 	 46.3672 	 13.1272 	 53.5734 	 
H 	 45.1355 	 11.8219 	 53.7581 	 
C 	 44.8002 	 13.5505 	 55.0202 	 
H 	 45.2321 	 14.5718 	 55.2255 	 
H 	 43.76 	 13.8636 	 54.792 	 
C 	 44.8478 	 12.74 	 56.267 	 
H 	 44.6151 	 11.6913 	 56.075 	 
H 	 45.9444 	 12.7528 	 56.4779 	 
H 	 44.3134 	 13.1483 	 57.146 	 
S 	 40.6323 	 13.0905 	 49.439 	 
C 	 40.3456 	 11.9296 	 48.1888 	 
C 	 41.4342 	 11.2089 	 47.8867 	 
C 	 42.5897 	 11.4306 	 48.699 	 
C 	 42.313 	 12.4445 	 49.6262 	 
H 	 41.4007 	 10.3921 	 47.2143 	 
C 	 43.9292 	 10.5922 	 48.6479 	 
H 	 44.7936 	 11.2827 	 48.7061 	 
H 	 44.1075 	 10.1866 	 47.6103 	 
C 	 44.075 	 9.42866 	 49.6625 	 
H 	 44.2862 	 9.83326 	 50.6656 	 
H 	 44.8396 	 8.86365 	 49.3437 	 
C 	 42.9184 	 8.43256 	 49.8226 	 
H 	 43.255 	 7.79423 	 50.64 	 
H 	 42.6847 	 7.70046 	 49.0369 	 
H 	 41.9688 	 8.9092 	 50.153 	 
H 	 45.3209 	 15.5193 	 52.2396 	 
H 	 39.4074 	 11.9333 	 47.7062 	 
*
