! wB97X-D3 SP def2-SVP
%pal
nprocs 16
end

* xyz 0 1
S 	 -27.3418 	 51.9855 	 109.636 	 
C 	 -25.9481 	 53.0651 	 109.653 	 
C 	 -26.3122 	 54.384 	 109.416 	 
C 	 -27.691 	 54.5535 	 109.26 	 
C 	 -28.3634 	 53.3582 	 109.184 	 
H 	 -28.1796 	 55.4658 	 109.027 	 
C 	 -25.4048 	 55.5833 	 109.248 	 
H 	 -25.6427 	 56.2438 	 108.418 	 
H 	 -24.3631 	 55.3966 	 109.005 	 
C 	 -25.5261 	 56.5859 	 110.486 	 
H 	 -25.9531 	 57.601 	 110.207 	 
H 	 -26.1414 	 56.2399 	 111.317 	 
C 	 -24.1491 	 56.9041 	 111.033 	 
H 	 -24.2142 	 57.5131 	 111.923 	 
H 	 -23.6512 	 55.9924 	 111.195 	 
H 	 -23.4575 	 57.3936 	 110.313 	 
S 	 -30.6643 	 53.1995 	 110.573 	 
C 	 -32.1576 	 52.7424 	 109.72 	 
C 	 -31.937 	 52.8047 	 108.396 	 
C 	 -30.5899 	 52.8256 	 107.995 	 
C 	 -29.7954 	 53.1844 	 109.08 	 
H 	 -32.7837 	 52.6693 	 107.669 	 
C 	 -30.1714 	 52.7107 	 106.525 	 
H 	 -30.8959 	 51.9355 	 106.125 	 
H 	 -29.2098 	 52.2646 	 106.564 	 
C 	 -30.1367 	 53.9498 	 105.697 	 
H 	 -29.8149 	 53.714 	 104.717 	 
H 	 -29.341 	 54.7203 	 105.952 	 
C 	 -31.4791 	 54.6927 	 105.567 	 
H 	 -32.3475 	 53.9416 	 105.49 	 
H 	 -31.458 	 55.351 	 104.681 	 
H 	 -31.7071 	 55.2649 	 106.409 	 
H 	 -24.9271 	 52.7813 	 109.937 	 
H 	 -33.1742 	 52.6126 	 110.1 	 
*
