! wB97X-D3 SP def2-SVP
%pal
nprocs 16
end

* xyz 0 1
S 	 -57.3277 	 49.9574 	 133.153 	 
C 	 -55.9777 	 49.0627 	 132.521 	 
C 	 -55.4185 	 48.1695 	 133.446 	 
C 	 -55.8891 	 48.4243 	 134.722 	 
C 	 -56.8034 	 49.4005 	 134.737 	 
H 	 -55.7297 	 47.7626 	 135.665 	 
C 	 -54.2296 	 47.2345 	 133.168 	 
H 	 -53.8632 	 47.5227 	 132.086 	 
H 	 -54.7295 	 46.2249 	 133.104 	 
C 	 -53.0003 	 47.2313 	 134.047 	 
H 	 -52.6059 	 48.2476 	 134.028 	 
H 	 -53.3915 	 46.9594 	 135.045 	 
C 	 -51.9566 	 46.1344 	 133.558 	 
H 	 -51.9208 	 46.2849 	 132.508 	 
H 	 -50.9971 	 46.3004 	 134.008 	 
H 	 -52.2409 	 45.049 	 133.703 	 
S 	 -59.3194 	 49.2979 	 135.756 	 
C 	 -59.6714 	 49.9192 	 137.375 	 
C 	 -58.5271 	 50.4178 	 137.958 	 
C 	 -57.2975 	 50.2955 	 137.134 	 
C 	 -57.621 	 49.7337 	 135.887 	 
H 	 -58.5952 	 50.8516 	 138.935 	 
C 	 -55.9114 	 50.8698 	 137.485 	 
H 	 -55.0937 	 50.2665 	 137.176 	 
H 	 -55.8141 	 50.9214 	 138.544 	 
C 	 -55.752 	 52.2985 	 137.013 	 
H 	 -54.7235 	 52.637 	 137.249 	 
H 	 -56.3181 	 52.9464 	 137.691 	 
C 	 -55.6954 	 52.5707 	 135.499 	 
H 	 -56.6351 	 52.4078 	 134.941 	 
H 	 -54.8359 	 52.1142 	 135.039 	 
H 	 -55.488 	 53.6751 	 135.531 	 
H 	 -55.6542 	 49.2198 	 131.491 	 
H 	 -60.682 	 49.9745 	 137.756 	 
*
