! wB97X-D3 SP def2-SVP
%pal
nprocs 16
end

* xyz 0 1
S 	 10.9751 	 -11.2149 	 88.2564 	 
C 	 11.9842 	 -12.4135 	 87.5404 	 
C 	 11.677 	 -13.66 	 88.0689 	 
C 	 10.6921 	 -13.6208 	 89.1449 	 
C 	 10.2934 	 -12.3172 	 89.4551 	 
H 	 10.1007 	 -14.4156 	 89.6231 	 
C 	 12.3205 	 -14.9132 	 87.6377 	 
H 	 12.6232 	 -14.7756 	 86.5741 	 
H 	 11.6035 	 -15.7291 	 87.796 	 
C 	 13.6623 	 -15.1247 	 88.36 	 
H 	 14.1913 	 -16.0977 	 88.1629 	 
H 	 14.3787 	 -14.3963 	 87.8698 	 
C 	 13.5983 	 -14.9828 	 89.909 	 
H 	 12.9233 	 -15.7078 	 90.4419 	 
H 	 14.6597 	 -15.1239 	 90.2013 	 
H 	 13.2548 	 -13.9761 	 90.1621 	 
S 	 7.64918 	 -11.3356 	 89.6417 	 
C 	 6.82236 	 -11.5227 	 91.2011 	 
C 	 7.6575 	 -12.131 	 92.1281 	 
C 	 8.95819 	 -12.4054 	 91.6166 	 
C 	 9.17928 	 -12.0125 	 90.3065 	 
H 	 7.3844 	 -12.3582 	 93.1308 	 
C 	 9.99329 	 -12.9965 	 92.4588 	 
H 	 10.1473 	 -14.0308 	 92.133 	 
H 	 9.68279 	 -12.9563 	 93.5017 	 
C 	 11.287 	 -12.1031 	 92.4294 	 
H 	 11.1619 	 -10.9894 	 92.433 	 
H 	 11.9327 	 -12.2566 	 91.6032 	 
C 	 12.1345 	 -12.3465 	 93.7557 	 
H 	 11.8642 	 -13.2484 	 94.2696 	 
H 	 11.9138 	 -11.4926 	 94.3813 	 
H 	 13.1472 	 -12.2585 	 93.6221 	 
H 	 12.661 	 -12.3213 	 86.7545 	 
H 	 5.84099 	 -11.1433 	 91.4418 	 
*
