! wB97X-D3 SP def2-SVP
%pal
nprocs 16
end

* xyz 0 1
S 	 67.9746 	 29.1318 	 72.429 	 
C 	 67.546 	 28.7312 	 70.75 	 
C 	 68.6593 	 28.2236 	 70.1004 	 
C 	 69.8783 	 28.309 	 70.8666 	 
C 	 69.6127 	 28.4444 	 72.1897 	 
H 	 70.8676 	 28.0954 	 70.5668 	 
C 	 68.79 	 27.7654 	 68.6247 	 
H 	 69.6655 	 28.1909 	 68.1316 	 
H 	 67.8839 	 28.1065 	 68.228 	 
C 	 68.8012 	 26.2685 	 68.3564 	 
H 	 68.1466 	 25.8048 	 69.0589 	 
H 	 68.2263 	 26.0314 	 67.4798 	 
C 	 70.1283 	 25.4916 	 68.321 	 
H 	 70.8675 	 25.7721 	 67.5839 	 
H 	 70.5414 	 25.4248 	 69.3284 	 
H 	 69.7813 	 24.462 	 68.0461 	 
S 	 70.816 	 30.0132 	 74.11 	 
C 	 71.9564 	 29.2645 	 75.2439 	 
C 	 72.138 	 27.9524 	 74.9116 	 
C 	 71.4605 	 27.5023 	 73.7065 	 
C 	 70.6649 	 28.5264 	 73.2306 	 
H 	 72.7945 	 27.285 	 75.4688 	 
C 	 71.5585 	 26.0796 	 73.3186 	 
H 	 70.8438 	 25.7991 	 72.5364 	 
H 	 71.2627 	 25.4401 	 74.1989 	 
C 	 72.9442 	 25.4442 	 72.8732 	 
H 	 72.7489 	 24.4062 	 72.7911 	 
H 	 73.7029 	 25.3279 	 73.6777 	 
C 	 73.5297 	 25.931 	 71.5541 	 
H 	 74.5189 	 25.4494 	 71.4456 	 
H 	 73.5983 	 27.0507 	 71.5746 	 
H 	 72.9238 	 25.4647 	 70.7166 	 
H 	 66.6655 	 28.9172 	 70.2776 	 
H 	 72.5042 	 29.7127 	 76.0023 	 
*
