! wB97X-D3 SP def2-SVP
%pal
nprocs 16
end

* xyz 0 1
S 	 43.3913 	 14.3677 	 89.4232 	 
C 	 44.7572 	 14.8704 	 88.5439 	 
C 	 44.8396 	 14.5361 	 87.2262 	 
C 	 43.5859 	 13.9238 	 86.8981 	 
C 	 42.6272 	 13.9582 	 87.8844 	 
H 	 43.2045 	 13.584 	 85.9217 	 
C 	 46.0433 	 14.6896 	 86.3058 	 
H 	 46.9136 	 14.6891 	 86.9229 	 
H 	 46.1879 	 15.7029 	 85.9794 	 
C 	 46.3044 	 13.6436 	 85.2153 	 
H 	 45.6245 	 13.9203 	 84.4026 	 
H 	 47.2996 	 13.8302 	 84.8305 	 
C 	 46.0844 	 12.1504 	 85.4303 	 
H 	 45.1228 	 11.9056 	 85.9211 	 
H 	 46.2417 	 11.513 	 84.4949 	 
H 	 46.8032 	 11.8433 	 86.1228 	 
S 	 40.0499 	 14.5449 	 88.516 	 
C 	 38.7716 	 13.4792 	 88.0567 	 
C 	 39.247 	 12.4228 	 87.3076 	 
C 	 40.6553 	 12.3558 	 87.2942 	 
C 	 41.2462 	 13.4503 	 87.8333 	 
H 	 38.6156 	 11.6755 	 86.8404 	 
C 	 41.36 	 11.2912 	 86.5807 	 
H 	 41.2203 	 10.3416 	 87.0269 	 
H 	 42.4112 	 11.5127 	 86.5398 	 
C 	 40.9203 	 11.1602 	 85.1363 	 
H 	 41.0516 	 12.1138 	 84.5423 	 
H 	 39.8184 	 10.9282 	 85.1915 	 
C 	 41.6023 	 9.97971 	 84.3767 	 
H 	 41.0105 	 9.89881 	 83.4447 	 
H 	 41.5576 	 9.00107 	 84.8691 	 
H 	 42.5874 	 10.2316 	 84.066 	 
H 	 45.5713 	 15.4227 	 89.0632 	 
H 	 37.7049 	 13.7364 	 88.2054 	 
*
