! wB97X-D3 SP def2-SVP
%pal
nprocs 16
end

* xyz 0 1
S 	 12.2372 	 25.3496 	 48.1914 	 
C 	 12.5305 	 23.6468 	 48.5164 	 
C 	 11.6008 	 22.8002 	 47.8799 	 
C 	 10.5346 	 23.5566 	 47.316 	 
C 	 10.7358 	 24.9494 	 47.3152 	 
H 	 9.64191 	 23.1235 	 46.9337 	 
C 	 11.41 	 21.3118 	 48.1252 	 
H 	 11.3869 	 20.9452 	 47.1162 	 
H 	 10.4174 	 21.2196 	 48.6201 	 
C 	 12.5357 	 20.6524 	 48.9375 	 
H 	 13.5247 	 20.9764 	 48.5521 	 
H 	 12.515 	 20.9119 	 49.944 	 
C 	 12.4015 	 19.1545 	 48.9583 	 
H 	 12.2947 	 18.5852 	 47.9794 	 
H 	 13.2761 	 18.7002 	 49.6018 	 
H 	 11.4019 	 18.8942 	 49.3329 	 
S 	 10.8062 	 27.439 	 46.0577 	 
C 	 9.2644 	 28.115 	 45.4476 	 
C 	 8.17622 	 27.3106 	 45.8146 	 
C 	 8.59563 	 26.1135 	 46.4819 	 
C 	 9.94525 	 26.0404 	 46.6974 	 
H 	 7.16257 	 27.6452 	 45.548 	 
C 	 7.53273 	 25.2337 	 47.0929 	 
H 	 6.67715 	 25.8649 	 47.2879 	 
H 	 7.83757 	 24.8081 	 48.0522 	 
C 	 7.04153 	 24.1277 	 46.209 	 
H 	 6.65946 	 23.3459 	 46.8358 	 
H 	 7.7413 	 23.5688 	 45.6226 	 
C 	 5.99229 	 24.5007 	 45.2006 	 
H 	 6.18114 	 25.4161 	 44.6898 	 
H 	 5.01738 	 24.8079 	 45.6012 	 
H 	 5.83851 	 23.7274 	 44.4479 	 
H 	 13.3291 	 23.1802 	 49.0967 	 
H 	 9.12417 	 28.9968 	 44.8363 	 
*
