! wB97X-D3 SP def2-SVP
%pal
nprocs 16
end

* xyz 0 1
S 	 -95.1635 	 53.6266 	 122.405 	 
C 	 -95.2518 	 53.159 	 120.642 	 
C 	 -94.5795 	 51.9937 	 120.457 	 
C 	 -94.1754 	 51.4047 	 121.649 	 
C 	 -94.3087 	 52.1791 	 122.835 	 
H 	 -93.7488 	 50.4157 	 121.621 	 
C 	 -94.4939 	 51.371 	 119.088 	 
H 	 -93.4484 	 51.007 	 118.932 	 
H 	 -94.6713 	 52.1527 	 118.325 	 
C 	 -95.367 	 50.1231 	 118.932 	 
H 	 -95.0553 	 49.748 	 117.958 	 
H 	 -95.0284 	 49.2923 	 119.579 	 
C 	 -96.8873 	 50.3501 	 119.076 	 
H 	 -97.4412 	 49.4863 	 118.897 	 
H 	 -97.0857 	 50.5708 	 120.158 	 
H 	 -97.3472 	 51.034 	 118.4 	 
S 	 -93.5616 	 53.3674 	 125.265 	 
C 	 -93.0359 	 52.2128 	 126.553 	 
C 	 -93.0236 	 50.9333 	 126.109 	 
C 	 -93.5651 	 50.7607 	 124.831 	 
C 	 -93.8778 	 51.9367 	 124.202 	 
H 	 -92.6658 	 50.099 	 126.709 	 
C 	 -93.9056 	 49.339 	 124.313 	 
H 	 -92.8951 	 48.9231 	 123.929 	 
H 	 -94.586 	 49.4118 	 123.527 	 
C 	 -94.5051 	 48.3281 	 125.316 	 
H 	 -95.3786 	 48.8672 	 125.808 	 
H 	 -93.8317 	 48.1594 	 126.197 	 
C 	 -94.9454 	 46.9774 	 124.745 	 
H 	 -94.0665 	 46.5874 	 124.247 	 
H 	 -95.6863 	 47.2345 	 124.038 	 
H 	 -95.4031 	 46.222 	 125.464 	 
H 	 -95.6904 	 53.7675 	 119.917 	 
H 	 -92.5566 	 52.5148 	 127.487 	 
*
