! wB97X-D3 SP def2-SVP
%pal
nprocs 16
end

* xyz 0 1
S 	 -8.33376 	 50.2743 	 43.7187 	 
C 	 -10.0091 	 50.0414 	 43.9801 	 
C 	 -10.4587 	 48.8719 	 43.421 	 
C 	 -9.49801 	 48.2781 	 42.5539 	 
C 	 -8.34456 	 49.0269 	 42.4583 	 
H 	 -9.62698 	 47.3275 	 42.0019 	 
C 	 -11.8677 	 48.3165 	 43.6613 	 
H 	 -12.5427 	 48.7697 	 42.8321 	 
H 	 -12.4318 	 48.6174 	 44.6227 	 
C 	 -11.9233 	 46.8411 	 43.6169 	 
H 	 -12.9796 	 46.7125 	 43.7822 	 
H 	 -11.7378 	 46.3663 	 42.5874 	 
C 	 -11.2131 	 46.1696 	 44.765 	 
H 	 -11.2119 	 46.6422 	 45.7208 	 
H 	 -11.6451 	 45.1952 	 44.9966 	 
H 	 -10.226 	 46.0007 	 44.436 	 
S 	 -7.06965 	 50.2837 	 40.2725 	 
C 	 -5.93399 	 49.2918 	 39.3127 	 
C 	 -5.59439 	 48.1343 	 39.9778 	 
C 	 -6.43935 	 47.8464 	 41.1286 	 
C 	 -7.2961 	 48.9305 	 41.4513 	 
H 	 -4.97882 	 47.4092 	 39.559 	 
C 	 -6.41073 	 46.5147 	 41.846 	 
H 	 -6.97307 	 45.8199 	 41.3283 	 
H 	 -6.83639 	 46.7504 	 42.8194 	 
C 	 -4.98221 	 46.0456 	 42.1301 	 
H 	 -4.40918 	 46.8646 	 42.555 	 
H 	 -4.46335 	 46.0141 	 41.1655 	 
C 	 -4.92628 	 44.8511 	 43.0703 	 
H 	 -5.41788 	 43.9825 	 42.6114 	 
H 	 -5.50469 	 44.8906 	 44.0275 	 
H 	 -3.96574 	 44.5169 	 43.3786 	 
H 	 -10.5955 	 50.66 	 44.6671 	 
H 	 -5.39504 	 49.651 	 38.4529 	 
*
