! wB97X-D3 SP def2-SVP
%pal
nprocs 16
end

* xyz 0 1
S 	 47.7361 	 11.1816 	 52.4954 	 
C 	 46.5823 	 10.0463 	 51.8095 	 
C 	 46.4939 	 10.1643 	 50.439 	 
C 	 47.3893 	 11.1092 	 49.8473 	 
C 	 48.1147 	 11.7409 	 50.7862 	 
H 	 47.5074 	 11.3181 	 48.8328 	 
C 	 45.6383 	 9.24693 	 49.5172 	 
H 	 44.6172 	 9.66505 	 49.5645 	 
H 	 45.6237 	 8.24223 	 49.9594 	 
C 	 45.9071 	 9.23863 	 47.9847 	 
H 	 46.9258 	 9.09777 	 47.7187 	 
H 	 45.5916 	 8.23734 	 47.7384 	 
C 	 45.2416 	 10.3259 	 47.1654 	 
H 	 45.3123 	 11.2834 	 47.589 	 
H 	 45.7206 	 10.3585 	 46.187 	 
H 	 44.1463 	 10.1851 	 47.1884 	 
S 	 50.6856 	 12.168 	 51.5853 	 
C 	 51.4581 	 13.5853 	 51.1134 	 
C 	 50.7426 	 14.3931 	 50.2288 	 
C 	 49.5498 	 13.7594 	 49.7797 	 
C 	 49.2682 	 12.6139 	 50.5558 	 
H 	 51.0514 	 15.4049 	 50.0531 	 
C 	 48.5009 	 14.5261 	 49.0093 	 
H 	 48.0086 	 13.8623 	 48.3259 	 
H 	 48.9796 	 15.2865 	 48.3084 	 
C 	 47.5788 	 15.2825 	 49.8994 	 
H 	 47.9741 	 16.011 	 50.6204 	 
H 	 46.9388 	 14.6127 	 50.5292 	 
C 	 46.5842 	 16.0698 	 49.0276 	 
H 	 46.1189 	 16.6692 	 49.7513 	 
H 	 45.7852 	 15.4588 	 48.5326 	 
H 	 47.0475 	 16.7471 	 48.3325 	 
H 	 45.9945 	 9.35615 	 52.4172 	 
H 	 52.3953 	 13.9649 	 51.6131 	 
*
