! wB97X-D3 SP def2-SVP
%pal
nprocs 16
end

* xyz 0 1
S 	 -107.651 	 51.8101 	 115.134 	 
C 	 -109.013 	 52.3121 	 116.212 	 
C 	 -108.623 	 53.3347 	 117.04 	 
C 	 -107.332 	 53.7661 	 116.709 	 
C 	 -106.872 	 53.304 	 115.528 	 
H 	 -106.87 	 54.5845 	 117.167 	 
C 	 -109.539 	 53.9532 	 118.075 	 
H 	 -108.907 	 54.1003 	 118.997 	 
H 	 -110.393 	 53.2617 	 118.312 	 
C 	 -110.124 	 55.2987 	 117.666 	 
H 	 -110.546 	 55.2436 	 116.62 	 
H 	 -111.044 	 55.4196 	 118.276 	 
C 	 -109.318 	 56.6526 	 117.623 	 
H 	 -110.071 	 57.4569 	 117.588 	 
H 	 -108.948 	 56.8257 	 118.663 	 
H 	 -108.507 	 56.7384 	 116.887 	 
S 	 -104.273 	 52.6693 	 114.583 	 
C 	 -103.384 	 54.0054 	 113.837 	 
C 	 -104.052 	 55.2366 	 113.939 	 
C 	 -105.318 	 55.1457 	 114.568 	 
C 	 -105.677 	 53.7944 	 114.903 	 
H 	 -103.435 	 56.0186 	 113.495 	 
C 	 -106.163 	 56.3085 	 114.674 	 
H 	 -105.543 	 57.2609 	 114.836 	 
H 	 -106.631 	 56.2488 	 115.618 	 
C 	 -107.208 	 56.4228 	 113.535 	 
H 	 -106.68 	 56.601 	 112.598 	 
H 	 -107.662 	 57.4495 	 113.791 	 
C 	 -108.306 	 55.3802 	 113.446 	 
H 	 -108.602 	 55.0271 	 114.44 	 
H 	 -107.874 	 54.5354 	 112.936 	 
H 	 -109.106 	 55.7288 	 112.832 	 
H 	 -110.041 	 51.9346 	 116.239 	 
H 	 -102.272 	 53.9855 	 113.652 	 
*
