! wB97X-D3 SP def2-SVP
%pal
nprocs 16
end

* xyz 0 1
S 	 9.06144 	 -6.01498 	 62.9965 	 
C 	 8.8418 	 -4.32275 	 63.4439 	 
C 	 10.09 	 -3.74515 	 63.5955 	 
C 	 11.1588 	 -4.6595 	 63.6296 	 
C 	 10.771 	 -5.95622 	 63.3524 	 
H 	 12.1946 	 -4.37971 	 63.7013 	 
C 	 10.3766 	 -2.31398 	 63.7085 	 
H 	 9.52571 	 -1.72837 	 63.3398 	 
H 	 11.2595 	 -1.97869 	 63.1013 	 
C 	 10.7042 	 -1.82736 	 65.1005 	 
H 	 10.7958 	 -0.764729 	 64.9287 	 
H 	 9.78081 	 -1.90294 	 65.724 	 
C 	 11.8716 	 -2.46401 	 65.9027 	 
H 	 11.6047 	 -3.49078 	 66.1144 	 
H 	 12.6997 	 -2.21803 	 65.2266 	 
H 	 12.0172 	 -1.93893 	 66.8827 	 
S 	 11.4923 	 -8.26533 	 61.9991 	 
C 	 12.8142 	 -9.1723 	 62.6407 	 
C 	 13.1835 	 -8.7692 	 63.9199 	 
C 	 12.4292 	 -7.64302 	 64.3175 	 
C 	 11.5929 	 -7.11913 	 63.3275 	 
H 	 13.9609 	 -9.29055 	 64.4231 	 
C 	 12.6121 	 -6.96583 	 65.62 	 
H 	 11.9607 	 -6.0473 	 65.629 	 
H 	 13.6159 	 -6.61291 	 65.79 	 
C 	 11.9923 	 -7.67863 	 66.8314 	 
H 	 12.4013 	 -8.75566 	 67.0018 	 
H 	 10.8921 	 -7.73418 	 66.6074 	 
C 	 12.212 	 -6.95481 	 68.1165 	 
H 	 11.3727 	 -7.05847 	 68.7937 	 
H 	 12.2259 	 -5.87103 	 67.9774 	 
H 	 13.1171 	 -7.17993 	 68.6464 	 
H 	 7.9223 	 -3.79649 	 63.406 	 
H 	 12.965 	 -10.1531 	 62.2709 	 
*
