! wB97X-D3 SP def2-SVP
%pal
nprocs 16
end

* xyz 0 1
S 	 -17.6437 	 33.9903 	 40.665 	 
C 	 -16.8186 	 34.7792 	 42.0032 	 
C 	 -15.919 	 35.7289 	 41.6012 	 
C 	 -15.6948 	 35.6383 	 40.1471 	 
C 	 -16.603 	 34.7828 	 39.4814 	 
H 	 -14.9689 	 36.1433 	 39.4818 	 
C 	 -15.2197 	 36.767 	 42.4478 	 
H 	 -15.9962 	 37.4526 	 42.823 	 
H 	 -14.4355 	 37.2533 	 41.8863 	 
C 	 -14.5544 	 36.2609 	 43.829 	 
H 	 -14.2926 	 37.06 	 44.4689 	 
H 	 -15.1435 	 35.5681 	 44.3573 	 
C 	 -13.2728 	 35.5269 	 43.5585 	 
H 	 -12.7358 	 35.2946 	 44.4485 	 
H 	 -13.3256 	 34.5547 	 43.0358 	 
H 	 -12.4716 	 36.1305 	 43.052 	 
S 	 -18.1558 	 34.3763 	 37.2365 	 
C 	 -17.345 	 33.9599 	 35.7541 	 
C 	 -15.9679 	 33.7192 	 35.9643 	 
C 	 -15.5535 	 33.9935 	 37.2596 	 
C 	 -16.591 	 34.4532 	 38.0432 	 
H 	 -15.3685 	 33.42 	 35.104 	 
C 	 -14.0912 	 33.6723 	 37.6852 	 
H 	 -13.8966 	 32.7461 	 37.1193 	 
H 	 -14.0281 	 33.352 	 38.6852 	 
C 	 -13.0347 	 34.7384 	 37.368 	 
H 	 -13.4776 	 35.669 	 37.7655 	 
H 	 -13.0338 	 34.781 	 36.3162 	 
C 	 -11.6727 	 34.6199 	 38.0176 	 
H 	 -11.13 	 33.7308 	 37.5991 	 
H 	 -11.6983 	 34.5166 	 39.1188 	 
H 	 -11.1013 	 35.4714 	 37.8857 	 
H 	 -17.1354 	 34.5635 	 43.0098 	 
H 	 -17.6496 	 33.9229 	 34.7154 	 
*
