! wB97X-D3 SP def2-SVP
%pal
nprocs 16
end

* xyz 0 1
S 	 -20.243 	 -3.93198 	 79.1936 	 
C 	 -20.4448 	 -5.44545 	 78.2037 	 
C 	 -20.5979 	 -6.49856 	 79.0437 	 
C 	 -20.5301 	 -6.19078 	 80.4466 	 
C 	 -20.3627 	 -4.85278 	 80.6981 	 
H 	 -20.539 	 -6.88746 	 81.2521 	 
C 	 -20.9767 	 -7.85383 	 78.5282 	 
H 	 -21.0625 	 -8.50937 	 79.4448 	 
H 	 -20.1675 	 -8.40632 	 78.0365 	 
C 	 -22.3718 	 -7.84823 	 77.8391 	 
H 	 -22.4421 	 -7.21855 	 76.9533 	 
H 	 -22.7057 	 -8.80666 	 77.4886 	 
C 	 -23.6232 	 -7.41088 	 78.7112 	 
H 	 -23.8576 	 -8.06503 	 79.5444 	 
H 	 -23.2722 	 -6.4262 	 79.1076 	 
H 	 -24.4995 	 -7.3336 	 78.1389 	 
S 	 -21.4604 	 -3.26826 	 82.7108 	 
C 	 -20.4147 	 -2.69072 	 83.998 	 
C 	 -19.1879 	 -3.32949 	 83.937 	 
C 	 -19.056 	 -4.29287 	 82.88 	 
C 	 -20.1788 	 -4.2744 	 82.0609 	 
H 	 -18.4883 	 -2.99969 	 84.671 	 
C 	 -17.744 	 -5.06494 	 82.6493 	 
H 	 -17.9335 	 -6.08311 	 82.3551 	 
H 	 -17.2154 	 -5.16797 	 83.6251 	 
C 	 -16.884 	 -4.32805 	 81.6923 	 
H 	 -16.2227 	 -3.69778 	 82.2949 	 
H 	 -17.3589 	 -3.60414 	 80.9818 	 
C 	 -15.9886 	 -5.27379 	 80.8527 	 
H 	 -15.3232 	 -5.86919 	 81.438 	 
H 	 -15.4252 	 -4.7528 	 80.0789 	 
H 	 -16.6339 	 -6.04343 	 80.2739 	 
H 	 -20.5264 	 -5.42275 	 77.1025 	 
H 	 -20.6826 	 -1.91038 	 84.6652 	 
*
