! wB97X-D3 SP def2-SVP
%pal
nprocs 16
end

* xyz 0 1
S 	 -41.6329 	 51.4022 	 102.755 	 
C 	 -42.1428 	 51.1969 	 104.409 	 
C 	 -42.9325 	 52.2212 	 104.87 	 
C 	 -43.2625 	 53.1491 	 103.878 	 
C 	 -42.7337 	 52.8442 	 102.636 	 
H 	 -43.8534 	 54.0159 	 103.921 	 
C 	 -43.3843 	 52.417 	 106.316 	 
H 	 -42.8155 	 53.195 	 106.836 	 
H 	 -43.2504 	 51.4792 	 106.805 	 
C 	 -44.8687 	 52.7697 	 106.325 	 
H 	 -45.0962 	 53.0699 	 107.295 	 
H 	 -45.2253 	 53.674 	 105.781 	 
C 	 -45.805 	 51.5536 	 106.022 	 
H 	 -45.3416 	 50.9008 	 105.32 	 
H 	 -45.8897 	 51.0004 	 106.916 	 
H 	 -46.8151 	 51.8484 	 105.744 	 
S 	 -43.4714 	 52.9252 	 100.029 	 
C 	 -43.0508 	 54.3046 	 99.0899 	 
C 	 -42.5037 	 55.3598 	 99.8137 	 
C 	 -42.437 	 55.0055 	 101.188 	 
C 	 -42.753 	 53.6841 	 101.436 	 
H 	 -42.2361 	 56.3234 	 99.4346 	 
C 	 -41.8934 	 55.9073 	 102.279 	 
H 	 -40.9163 	 55.5517 	 102.377 	 
H 	 -42.3088 	 55.6917 	 103.254 	 
C 	 -41.809 	 57.3929 	 102.091 	 
H 	 -42.7069 	 57.9068 	 101.745 	 
H 	 -41.1722 	 57.602 	 101.202 	 
C 	 -41.184 	 58.0827 	 103.328 	 
H 	 -41.9971 	 58.2571 	 104.021 	 
H 	 -40.5593 	 58.965 	 103.162 	 
H 	 -40.5304 	 57.2662 	 103.854 	 
H 	 -41.6069 	 50.5284 	 105.036 	 
H 	 -43.2876 	 54.4878 	 98.1071 	 
*
