! wB97X-D3 SP def2-SVP
%pal
nprocs 16
end

* xyz 0 1
S 	 -104.154 	 43.072 	 125.631 	 
C 	 -103.103 	 41.8062 	 126.163 	 
C 	 -102.085 	 42.1761 	 127.03 	 
C 	 -102.354 	 43.5193 	 127.483 	 
C 	 -103.3 	 44.1657 	 126.677 	 
H 	 -101.656 	 44.1091 	 128.094 	 
C 	 -101.137 	 41.2868 	 127.694 	 
H 	 -100.437 	 42.0083 	 128.095 	 
H 	 -100.518 	 40.7201 	 126.909 	 
C 	 -101.658 	 40.3234 	 128.806 	 
H 	 -102.031 	 40.791 	 129.705 	 
H 	 -102.616 	 40.0194 	 128.461 	 
C 	 -100.691 	 39.1869 	 129.082 	 
H 	 -100.455 	 38.6856 	 128.122 	 
H 	 -99.7589 	 39.5246 	 129.534 	 
H 	 -101.18 	 38.5378 	 129.893 	 
S 	 -105.157 	 46.1904 	 126.772 	 
C 	 -104.676 	 47.8748 	 126.79 	 
C 	 -103.345 	 47.9924 	 126.435 	 
C 	 -102.646 	 46.7767 	 126.526 	 
C 	 -103.508 	 45.6195 	 126.558 	 
H 	 -102.898 	 48.9447 	 126.172 	 
C 	 -101.068 	 46.7607 	 126.492 	 
H 	 -100.672 	 45.7636 	 126.502 	 
H 	 -100.652 	 47.0475 	 127.485 	 
C 	 -100.369 	 47.4755 	 125.313 	 
H 	 -100.865 	 48.4113 	 125.241 	 
H 	 -100.657 	 46.9874 	 124.365 	 
C 	 -98.8809 	 47.6724 	 125.576 	 
H 	 -98.3031 	 46.7742 	 125.744 	 
H 	 -98.6738 	 48.2962 	 126.379 	 
H 	 -98.4282 	 48.1397 	 124.722 	 
H 	 -102.908 	 40.8257 	 125.711 	 
H 	 -105.33 	 48.7148 	 126.804 	 
*
