! wB97X-D3 SP def2-SVP
%pal
nprocs 16
end

* xyz 0 1
S 	 -75.0071 	 51.9831 	 138.299 	 
C 	 -74.0243 	 51.9237 	 139.752 	 
C 	 -74.8456 	 51.7785 	 140.899 	 
C 	 -76.2051 	 51.8006 	 140.543 	 
C 	 -76.4608 	 51.9244 	 139.222 	 
H 	 -77.1192 	 51.6864 	 141.13 	 
C 	 -74.2385 	 51.6818 	 142.29 	 
H 	 -74.0258 	 52.6632 	 142.674 	 
H 	 -73.3099 	 51.1961 	 142.19 	 
C 	 -75.1117 	 50.9726 	 143.362 	 
H 	 -76.1158 	 51.4498 	 143.336 	 
H 	 -75.3344 	 49.9373 	 143.073 	 
C 	 -74.4933 	 51.0331 	 144.8 	 
H 	 -74.5084 	 52.0612 	 145.215 	 
H 	 -74.9726 	 50.4779 	 145.626 	 
H 	 -73.5777 	 50.5836 	 144.93 	 
S 	 -78.2534 	 53.4766 	 137.758 	 
C 	 -79.8479 	 52.8392 	 137.303 	 
C 	 -80.1303 	 51.7817 	 138.116 	 
C 	 -78.9604 	 51.2844 	 138.842 	 
C 	 -77.8098 	 52.0408 	 138.593 	 
H 	 -81.0807 	 51.2956 	 138.042 	 
C 	 -79.1247 	 50.1809 	 139.843 	 
H 	 -80.1711 	 50.0197 	 140.006 	 
H 	 -78.8515 	 50.6548 	 140.808 	 
C 	 -78.3619 	 48.8876 	 139.584 	 
H 	 -78.1489 	 48.4449 	 140.545 	 
H 	 -77.3968 	 49.2767 	 139.215 	 
C 	 -78.9265 	 47.8003 	 138.703 	 
H 	 -78.313 	 46.8371 	 138.531 	 
H 	 -79.104 	 48.0881 	 137.663 	 
H 	 -79.9165 	 47.5485 	 139.102 	 
H 	 -72.9045 	 51.7884 	 139.639 	 
H 	 -80.5068 	 53.3165 	 136.596 	 
*
