! wB97X-D3 SP def2-SVP
%pal
nprocs 16
end

* xyz 0 1
S 	 64.0205 	 -2.79815 	 90.8286 	 
C 	 62.7178 	 -3.09997 	 92.032 	 
C 	 63.2212 	 -3.42136 	 93.2805 	 
C 	 64.6116 	 -3.13196 	 93.3653 	 
C 	 65.1686 	 -2.80629 	 92.156 	 
H 	 65.3373 	 -3.13723 	 94.202 	 
C 	 62.4941 	 -3.71669 	 94.5423 	 
H 	 61.791 	 -2.85737 	 94.6293 	 
H 	 63.1674 	 -3.64523 	 95.4439 	 
C 	 61.7431 	 -5.10161 	 94.5749 	 
H 	 61.23 	 -5.01689 	 95.4695 	 
H 	 60.9865 	 -5.18709 	 93.7676 	 
C 	 62.6729 	 -6.24709 	 94.6729 	 
H 	 63.116 	 -6.55699 	 93.736 	 
H 	 63.55 	 -6.02394 	 95.2736 	 
H 	 62.2984 	 -7.12355 	 95.232 	 
S 	 67.0771 	 -3.08387 	 90.2435 	 
C 	 68.7822 	 -2.78996 	 90.6033 	 
C 	 68.8678 	 -2.15053 	 91.7536 	 
C 	 67.6451 	 -1.99296 	 92.456 	 
C 	 66.5026 	 -2.43444 	 91.7788 	 
H 	 69.8554 	 -1.93371 	 92.0635 	 
C 	 67.5779 	 -1.22768 	 93.7705 	 
H 	 67.7058 	 -2.0027 	 94.5454 	 
H 	 66.5477 	 -0.918675 	 93.9285 	 
C 	 68.5048 	 -0.0247423 	 93.8627 	 
H 	 68.6027 	 0.627178 	 93.023 	 
H 	 69.4183 	 -0.435319 	 94.1268 	 
C 	 68.2097 	 0.813478 	 95.1415 	 
H 	 68.6992 	 0.477603 	 96.0588 	 
H 	 67.1126 	 0.880453 	 95.2166 	 
H 	 68.5162 	 1.85313 	 95.0316 	 
H 	 61.6487 	 -3.23127 	 91.8435 	 
H 	 69.6586 	 -2.94537 	 89.9258 	 
*
