! wB97X-D3 SP def2-SVP
%pal
nprocs 16
end

* xyz 0 1
S 	 1.54648 	 -4.42747 	 79.2269 	 
C 	 1.27629 	 -6.15092 	 78.7905 	 
C 	 -0.0667346 	 -6.40612 	 78.8938 	 
C 	 -0.788012 	 -5.50372 	 79.768 	 
C 	 -0.0745653 	 -4.32914 	 80.0015 	 
H 	 -1.89476 	 -5.58259 	 79.9424 	 
C 	 -0.661054 	 -7.67005 	 78.5205 	 
H 	 -0.0719782 	 -8.20653 	 77.8185 	 
H 	 -1.52898 	 -7.452 	 77.8439 	 
C 	 -0.998306 	 -8.68114 	 79.6678 	 
H 	 -1.63246 	 -9.414 	 79.1631 	 
H 	 -0.0481012 	 -9.10689 	 80.0864 	 
C 	 -1.70926 	 -8.25916 	 81.0258 	 
H 	 -1.70312 	 -9.12412 	 81.6511 	 
H 	 -1.23191 	 -7.53342 	 81.5478 	 
H 	 -2.74274 	 -7.9261 	 80.7827 	 
S 	 0.742677 	 -2.81119 	 82.1264 	 
C 	 -0.307012 	 -1.78587 	 82.9359 	 
C 	 -1.41662 	 -1.52242 	 82.1941 	 
C 	 -1.60399 	 -2.38414 	 81.0419 	 
C 	 -0.470139 	 -3.2494 	 80.9018 	 
H 	 -1.96491 	 -0.619788 	 82.4442 	 
C 	 -2.75667 	 -2.21516 	 79.9995 	 
H 	 -2.93944 	 -3.17518 	 79.5217 	 
H 	 -2.3632 	 -1.57309 	 79.2109 	 
C 	 -4.08079 	 -1.65676 	 80.576 	 
H 	 -4.825 	 -1.4709 	 79.8268 	 
H 	 -3.86143 	 -0.658283 	 80.967 	 
C 	 -4.70496 	 -2.57377 	 81.634 	 
H 	 -4.78136 	 -3.65672 	 81.2648 	 
H 	 -5.77175 	 -2.3272 	 81.8558 	 
H 	 -4.13158 	 -2.66095 	 82.6488 	 
H 	 2.04295 	 -6.84036 	 78.4428 	 
H 	 0.0116241 	 -1.0771 	 83.8004 	 
*
