! wB97X-D3 SP def2-SVP
%pal
nprocs 16
end

* xyz 0 1
S 	 45.8831 	 11.3811 	 75.2579 	 
C 	 44.4901 	 10.6163 	 75.9358 	 
C 	 44.2882 	 11.0079 	 77.2658 	 
C 	 45.3199 	 11.8618 	 77.7905 	 
C 	 46.3029 	 12.0803 	 76.8111 	 
H 	 45.2784 	 12.4276 	 78.7634 	 
C 	 43.0163 	 10.6816 	 77.985 	 
H 	 42.2796 	 10.5833 	 77.1611 	 
H 	 42.6881 	 11.5139 	 78.5356 	 
C 	 42.9196 	 9.4254 	 78.8668 	 
H 	 43.4797 	 8.60839 	 78.4361 	 
H 	 43.4967 	 9.62375 	 79.802 	 
C 	 41.4219 	 9.10454 	 79.1944 	 
H 	 41.1352 	 8.22338 	 78.5753 	 
H 	 41.1943 	 8.61882 	 80.1408 	 
H 	 40.643 	 9.83932 	 79.0406 	 
S 	 48.8824 	 11.4976 	 77.1359 	 
C 	 49.9811 	 12.6873 	 77.6964 	 
C 	 49.4521 	 13.8908 	 77.8979 	 
C 	 48.0377 	 13.8789 	 77.5909 	 
C 	 47.6053 	 12.6576 	 77.1781 	 
H 	 49.9793 	 14.7442 	 78.1964 	 
C 	 47.1984 	 15.1379 	 77.7785 	 
H 	 47.4547 	 15.654 	 78.7078 	 
H 	 46.1064 	 14.9251 	 77.9499 	 
C 	 47.3469 	 16.2391 	 76.7095 	 
H 	 47.4444 	 15.9932 	 75.6768 	 
H 	 48.293 	 16.7138 	 76.9522 	 
C 	 46.2147 	 17.3008 	 76.7758 	 
H 	 46.2608 	 18.0511 	 75.9723 	 
H 	 46.1989 	 17.8394 	 77.7524 	 
H 	 45.251 	 16.8366 	 76.683 	 
H 	 43.7632 	 9.97275 	 75.4276 	 
H 	 51.0274 	 12.5763 	 77.8811 	 
*
