! wB97X-D3 SP def2-SVP
%pal
nprocs 16
end

* xyz 0 1
S 	 7.61324 	 -15.5821 	 66.098 	 
C 	 7.67501 	 -15.3522 	 64.3374 	 
C 	 8.2251 	 -14.1235 	 63.9856 	 
C 	 8.79432 	 -13.4387 	 65.1103 	 
C 	 8.49925 	 -14.0264 	 66.3488 	 
H 	 9.37806 	 -12.5215 	 65.0892 	 
C 	 8.26466 	 -13.5009 	 62.5854 	 
H 	 8.47593 	 -14.3281 	 61.8781 	 
H 	 9.05747 	 -12.7851 	 62.3214 	 
C 	 6.83674 	 -12.94 	 62.0312 	 
H 	 6.74406 	 -11.9391 	 62.254 	 
H 	 6.81781 	 -13.0262 	 60.9302 	 
C 	 5.52479 	 -13.5608 	 62.4234 	 
H 	 4.80544 	 -12.7074 	 62.3348 	 
H 	 5.3044 	 -14.4274 	 61.8367 	 
H 	 5.40241 	 -13.8285 	 63.4423 	 
S 	 9.60548 	 -14.6583 	 68.8785 	 
C 	 10.2201 	 -13.3743 	 69.9294 	 
C 	 9.79957 	 -12.1535 	 69.4613 	 
C 	 9.0768 	 -12.2484 	 68.215 	 
C 	 8.91879 	 -13.536 	 67.6684 	 
H 	 10.2107 	 -11.3025 	 70.0285 	 
C 	 8.46103 	 -10.9659 	 67.5952 	 
H 	 7.6037 	 -11.3105 	 67.0817 	 
H 	 9.12448 	 -10.7226 	 66.7741 	 
C 	 8.19669 	 -9.73477 	 68.415 	 
H 	 8.31124 	 -8.84973 	 67.7636 	 
H 	 8.95084 	 -9.67036 	 69.1921 	 
C 	 6.72851 	 -9.75498 	 69.0625 	 
H 	 6.64294 	 -8.93056 	 69.7524 	 
H 	 6.54298 	 -10.6967 	 69.7105 	 
H 	 5.94532 	 -9.65019 	 68.3527 	 
H 	 7.2095 	 -15.9435 	 63.5167 	 
H 	 10.8314 	 -13.5246 	 70.7966 	 
*
