! wB97X-D3 SP def2-SVP
%pal
nprocs 16
end

* xyz 0 1
S 	 62.3077 	 18.5754 	 76.6984 	 
C 	 61.4139 	 19.9138 	 77.5673 	 
C 	 60.8496 	 19.3452 	 78.7151 	 
C 	 61.3349 	 18.0325 	 79.0338 	 
C 	 62.1855 	 17.4875 	 78.0789 	 
H 	 61.0523 	 17.511 	 79.8971 	 
C 	 59.7682 	 19.9676 	 79.5729 	 
H 	 59.4925 	 20.8816 	 79.0932 	 
H 	 60.0576 	 20.0327 	 80.6155 	 
C 	 58.4202 	 19.1788 	 79.686 	 
H 	 58.5493 	 18.1071 	 79.9555 	 
H 	 57.8476 	 19.5488 	 80.5734 	 
C 	 57.576 	 19.3421 	 78.3978 	 
H 	 56.5982 	 18.962 	 78.579 	 
H 	 57.3735 	 20.3718 	 78.1603 	 
H 	 58.1704 	 18.9044 	 77.5806 	 
S 	 64.3301 	 16.002 	 77.229 	 
C 	 64.3008 	 14.2972 	 77.4736 	 
C 	 63.279 	 13.8405 	 78.2672 	 
C 	 62.395 	 14.9055 	 78.4874 	 
C 	 62.7945 	 16.1482 	 78.0128 	 
H 	 63.2776 	 12.7862 	 78.4849 	 
C 	 61.1387 	 14.5954 	 79.2674 	 
H 	 60.4982 	 15.3856 	 78.9317 	 
H 	 61.3138 	 14.7942 	 80.3285 	 
C 	 60.4671 	 13.2529 	 79.0399 	 
H 	 61.0243 	 12.3513 	 79.276 	 
H 	 60.2709 	 13.0704 	 77.9804 	 
C 	 59.1896 	 13.1082 	 79.8627 	 
H 	 58.6788 	 14.0112 	 80.126 	 
H 	 59.4295 	 12.5896 	 80.7628 	 
H 	 58.5433 	 12.4643 	 79.322 	 
H 	 61.2047 	 20.8949 	 77.1179 	 
H 	 65.1339 	 13.6653 	 77.2112 	 
*
