! wB97X-D3 SP def2-SVP
%pal
nprocs 16
end

* xyz 0 1
S 	 -13.9318 	 38.9403 	 36.6743 	 
C 	 -15.3679 	 38.9801 	 37.7669 	 
C 	 -15.9984 	 37.6955 	 37.7574 	 
C 	 -15.4637 	 36.8142 	 36.6747 	 
C 	 -14.3479 	 37.3688 	 36.0383 	 
H 	 -15.825 	 35.8646 	 36.4384 	 
C 	 -17.1595 	 37.213 	 38.6151 	 
H 	 -17.8633 	 36.5551 	 38.1177 	 
H 	 -17.763 	 38.0886 	 38.818 	 
C 	 -16.8045 	 36.4823 	 39.9324 	 
H 	 -16.1818 	 37.2068 	 40.4814 	 
H 	 -17.6659 	 36.1321 	 40.4374 	 
C 	 -15.8926 	 35.2538 	 39.7755 	 
H 	 -16.3841 	 34.5254 	 39.0686 	 
H 	 -14.9726 	 35.461 	 39.1892 	 
H 	 -15.6969 	 34.7461 	 40.7085 	 
S 	 -11.6461 	 36.7083 	 35.5387 	 
C 	 -11.3137 	 35.3377 	 34.5355 	 
C 	 -12.3744 	 34.9805 	 33.7732 	 
C 	 -13.5811 	 35.6652 	 34.1612 	 
C 	 -13.4301 	 36.6098 	 35.1616 	 
H 	 -12.2519 	 34.153 	 33.0177 	 
C 	 -14.7962 	 35.2647 	 33.4288 	 
H 	 -14.5604 	 34.9465 	 32.3507 	 
H 	 -15.4539 	 36.1034 	 33.3269 	 
C 	 -15.6191 	 34.0833 	 34.1512 	 
H 	 -16.4269 	 33.686 	 33.5308 	 
H 	 -16.1991 	 34.4904 	 35.0039 	 
C 	 -14.8156 	 32.8308 	 34.6374 	 
H 	 -15.4622 	 31.953 	 34.8926 	 
H 	 -14.0395 	 32.9908 	 35.3783 	 
H 	 -14.2734 	 32.5058 	 33.7945 	 
H 	 -15.7869 	 39.7228 	 38.377 	 
H 	 -10.3091 	 35.0498 	 34.3353 	 
*
