! wB97X-D3 SP def2-SVP
%pal
nprocs 16
end

* xyz 0 1
S 	 -44.7867 	 13.7882 	 80.6812 	 
C 	 -44.0682 	 12.6741 	 79.5449 	 
C 	 -42.7303 	 12.7655 	 79.488 	 
C 	 -42.2721 	 13.9092 	 80.2652 	 
C 	 -43.2904 	 14.6256 	 80.8885 	 
H 	 -41.2863 	 14.3911 	 80.3583 	 
C 	 -41.7924 	 11.8261 	 78.6279 	 
H 	 -41.2077 	 12.4197 	 77.9124 	 
H 	 -42.4633 	 11.2382 	 78.0887 	 
C 	 -40.7825 	 11.0239 	 79.4748 	 
H 	 -40.1762 	 10.3631 	 78.7758 	 
H 	 -40.0226 	 11.7141 	 79.8253 	 
C 	 -41.3231 	 10.1816 	 80.6098 	 
H 	 -41.2296 	 10.8287 	 81.5336 	 
H 	 -42.3734 	 9.92702 	 80.5191 	 
H 	 -40.766 	 9.32665 	 80.9948 	 
S 	 -41.6529 	 16.7724 	 81.453 	 
C 	 -41.9454 	 17.7892 	 82.819 	 
C 	 -43.0918 	 17.3783 	 83.4705 	 
C 	 -43.7049 	 16.1925 	 82.9304 	 
C 	 -43.0248 	 15.7182 	 81.8088 	 
H 	 -43.4239 	 17.8691 	 84.3508 	 
C 	 -45.0224 	 15.6798 	 83.5579 	 
H 	 -45.8888 	 15.9352 	 82.8789 	 
H 	 -45.3043 	 16.4284 	 84.3403 	 
C 	 -44.9719 	 14.3466 	 84.1243 	 
H 	 -45.1233 	 13.5654 	 83.2946 	 
H 	 -45.959 	 14.2774 	 84.5954 	 
C 	 -43.8715 	 13.9887 	 85.1337 	 
H 	 -43.8766 	 12.9563 	 85.4959 	 
H 	 -43.91 	 14.6693 	 85.9982 	 
H 	 -42.9155 	 14.067 	 84.6871 	 
H 	 -44.593 	 11.9767 	 78.8653 	 
H 	 -41.2311 	 18.58 	 83.1176 	 
*
