! wB97X-D3 SP def2-SVP
%pal
nprocs 16
end

* xyz 0 1
S 	 39.1986 	 12.4377 	 82.8131 	 
C 	 40.9309 	 12.6052 	 82.9794 	 
C 	 41.6285 	 12.2059 	 81.8608 	 
C 	 40.7086 	 11.7288 	 80.8757 	 
C 	 39.3632 	 11.8502 	 81.1576 	 
H 	 41.0842 	 11.284 	 79.97 	 
C 	 43.1181 	 12.0339 	 81.7609 	 
H 	 43.5005 	 11.2801 	 81.0798 	 
H 	 43.49 	 11.6678 	 82.7164 	 
C 	 43.7759 	 13.3785 	 81.6349 	 
H 	 43.8074 	 13.9648 	 82.6006 	 
H 	 44.8043 	 13.2295 	 81.3477 	 
C 	 43.3034 	 14.119 	 80.4889 	 
H 	 43.4898 	 13.5854 	 79.6273 	 
H 	 42.2928 	 14.4277 	 80.5974 	 
H 	 43.8108 	 15.1242 	 80.2936 	 
S 	 36.9612 	 10.4746 	 80.9652 	 
C 	 36.0678 	 10.4035 	 79.4122 	 
C 	 36.801 	 11.0951 	 78.4164 	 
C 	 38.0203 	 11.6794 	 78.8725 	 
C 	 38.2392 	 11.4738 	 80.2594 	 
H 	 36.4593 	 11.1458 	 77.3774 	 
C 	 38.9497 	 12.3635 	 77.9343 	 
H 	 39.6905 	 13.1117 	 78.388 	 
H 	 38.3137 	 12.9292 	 77.2742 	 
C 	 39.74 	 11.3766 	 77.0726 	 
H 	 39.1036 	 10.6566 	 76.5456 	 
H 	 40.2474 	 10.6788 	 77.8177 	 
C 	 40.7097 	 11.9861 	 76.1045 	 
H 	 41.1978 	 11.3333 	 75.3569 	 
H 	 41.5388 	 12.6144 	 76.4526 	 
H 	 40.0771 	 12.6274 	 75.5304 	 
H 	 41.5473 	 12.8425 	 83.8703 	 
H 	 35.2231 	 9.85773 	 79.2438 	 
*
