! wB97X-D3 SP def2-SVP
%pal
nprocs 16
end

* xyz 0 1
S 	 -0.462076 	 3.40005 	 82.0759 	 
C 	 0.769963 	 3.72409 	 80.9316 	 
C 	 0.283874 	 4.34283 	 79.7743 	 
C 	 -1.18271 	 4.40552 	 79.8202 	 
C 	 -1.74917 	 3.90576 	 80.9979 	 
H 	 -1.85607 	 4.8644 	 79.1551 	 
C 	 1.10951 	 4.74783 	 78.5205 	 
H 	 1.17334 	 3.78454 	 78.042 	 
H 	 2.16362 	 5.14666 	 78.8866 	 
C 	 0.515322 	 5.82619 	 77.658 	 
H 	 -0.534031 	 5.63704 	 77.657 	 
H 	 0.526991 	 6.84305 	 78.0266 	 
C 	 1.08743 	 6.00919 	 76.1935 	 
H 	 0.368151 	 6.59922 	 75.6075 	 
H 	 1.84791 	 6.7675 	 76.0508 	 
H 	 1.49915 	 5.12727 	 75.7088 	 
S 	 -4.10742 	 2.53177 	 81.0458 	 
C 	 -5.59263 	 3.33525 	 81.4967 	 
C 	 -5.3456 	 4.69504 	 81.7294 	 
C 	 -3.90524 	 5.014 	 81.7282 	 
C 	 -3.12349 	 3.94932 	 81.3243 	 
H 	 -6.11484 	 5.36835 	 82.0398 	 
C 	 -3.29751 	 6.30914 	 82.234 	 
H 	 -2.16568 	 6.25746 	 82.302 	 
H 	 -3.57484 	 6.45094 	 83.2882 	 
C 	 -3.77748 	 7.56765 	 81.4349 	 
H 	 -4.85084 	 7.69178 	 81.701 	 
H 	 -3.74544 	 7.35148 	 80.3753 	 
C 	 -2.91858 	 8.86649 	 81.7612 	 
H 	 -3.1797 	 9.65492 	 81.0259 	 
H 	 -1.87057 	 8.80066 	 81.6173 	 
H 	 -3.0384 	 9.24243 	 82.7804 	 
H 	 1.79179 	 3.48346 	 81.1458 	 
H 	 -6.56903 	 2.8641 	 81.5713 	 
*
