! wB97X-D3 SP def2-SVP
%pal
nprocs 16
end

* xyz 0 1
S 	 49.3489 	 12.266 	 83.3873 	 
C 	 48.4478 	 13.7386 	 83.3039 	 
C 	 47.8251 	 13.9422 	 82.0825 	 
C 	 48.1516 	 12.865 	 81.1944 	 
C 	 49.0081 	 11.9261 	 81.6866 	 
H 	 47.802 	 12.8133 	 80.2122 	 
C 	 47.0068 	 15.1093 	 81.692 	 
H 	 46.5737 	 15.5962 	 82.5374 	 
H 	 46.0469 	 14.8234 	 81.1897 	 
C 	 47.721 	 16.1746 	 80.8186 	 
H 	 48.4854 	 16.6606 	 81.3614 	 
H 	 48.229 	 15.4987 	 80.0312 	 
C 	 46.8543 	 17.2173 	 80.1235 	 
H 	 46.0165 	 17.6558 	 80.7536 	 
H 	 47.3975 	 18.0105 	 79.7814 	 
H 	 46.3055 	 16.8305 	 79.2603 	 
S 	 50.1962 	 10.9875 	 79.3487 	 
C 	 50.8795 	 9.43028 	 79.2936 	 
C 	 50.6523 	 8.73318 	 80.4723 	 
C 	 49.8742 	 9.46251 	 81.4362 	 
C 	 49.5508 	 10.7641 	 80.9842 	 
H 	 51.1106 	 7.75753 	 80.5669 	 
C 	 49.5049 	 8.82589 	 82.7767 	 
H 	 48.9533 	 7.91803 	 82.5234 	 
H 	 48.7249 	 9.46392 	 83.2236 	 
C 	 50.6704 	 8.60363 	 83.8095 	 
H 	 51.2478 	 9.57535 	 83.9189 	 
H 	 51.4148 	 7.96185 	 83.3036 	 
C 	 50.074 	 8.12113 	 85.1476 	 
H 	 50.9232 	 7.7359 	 85.721 	 
H 	 49.2749 	 7.40901 	 84.8979 	 
H 	 49.4945 	 8.94379 	 85.6877 	 
H 	 48.5105 	 14.4858 	 84.0231 	 
H 	 51.5469 	 8.99731 	 78.4948 	 
*
