! wB97X-D3 SP def2-SVP
%pal
nprocs 16
end

* xyz 0 1
S 	 21.3706 	 -1.12231 	 81.8305 	 
C 	 22.6883 	 -0.454135 	 81.0011 	 
C 	 22.5009 	 0.916562 	 80.8064 	 
C 	 21.1553 	 1.27793 	 81.0735 	 
C 	 20.4333 	 0.359947 	 81.819 	 
H 	 20.7398 	 2.29593 	 80.9769 	 
C 	 23.446 	 1.98231 	 80.265 	 
H 	 22.8866 	 2.53444 	 79.4785 	 
H 	 24.2898 	 1.42175 	 79.7958 	 
C 	 24.0952 	 2.84972 	 81.3417 	 
H 	 23.2333 	 3.17896 	 81.9879 	 
H 	 24.7627 	 2.17496 	 82.0089 	 
C 	 24.9582 	 4.02088 	 80.7585 	 
H 	 25.1938 	 4.76889 	 81.5597 	 
H 	 25.8027 	 3.70222 	 80.1341 	 
H 	 24.2727 	 4.52067 	 80.1229 	 
S 	 19.031 	 1.09261 	 84.1333 	 
C 	 17.3144 	 1.03873 	 84.0763 	 
C 	 16.8101 	 0.759388 	 82.8356 	 
C 	 17.8367 	 0.536372 	 81.8683 	 
C 	 19.1282 	 0.479376 	 82.5156 	 
H 	 15.7517 	 0.823959 	 82.7322 	 
C 	 17.6005 	 0.397472 	 80.4015 	 
H 	 18.4655 	 0.794354 	 79.915 	 
H 	 16.7669 	 1.15144 	 80.2527 	 
C 	 17.0455 	 -1.02772 	 79.8737 	 
H 	 16.1569 	 -1.31048 	 80.4384 	 
H 	 17.8155 	 -1.77683 	 80.0847 	 
C 	 16.7165 	 -0.953421 	 78.3626 	 
H 	 16.1765 	 -1.7908 	 78.0572 	 
H 	 17.4671 	 -0.780864 	 77.624 	 
H 	 15.9378 	 -0.185513 	 78.3056 	 
H 	 23.7337 	 -0.918274 	 81.1003 	 
H 	 16.6543 	 1.32304 	 84.8541 	 
*
