! wB97X-D3 SP def2-SVP
%pal
nprocs 16
end

* xyz 0 1
S 	 -4.25612 	 -13.714 	 80.294 	 
C 	 -3.58019 	 -12.2001 	 79.6011 	 
C 	 -4.52957 	 -11.2174 	 79.8174 	 
C 	 -5.6425 	 -11.6315 	 80.5812 	 
C 	 -5.66971 	 -12.9206 	 81.0025 	 
H 	 -6.57853 	 -11.0513 	 80.7687 	 
C 	 -4.41451 	 -9.73488 	 79.4281 	 
H 	 -3.40678 	 -9.37562 	 79.6178 	 
H 	 -5.09826 	 -9.07938 	 79.9984 	 
C 	 -4.73702 	 -9.48561 	 77.9689 	 
H 	 -4.01805 	 -9.99098 	 77.2483 	 
H 	 -5.64125 	 -10.0141 	 77.6263 	 
C 	 -4.91138 	 -8.02828 	 77.6697 	 
H 	 -5.08397 	 -7.97249 	 76.5991 	 
H 	 -5.77383 	 -7.51762 	 78.1223 	 
H 	 -4.0214 	 -7.56525 	 77.904 	 
S 	 -8.13409 	 -13.9293 	 80.8357 	 
C 	 -9.02909 	 -14.6598 	 82.1456 	 
C 	 -8.21868 	 -14.8367 	 83.2227 	 
C 	 -6.95651 	 -14.1515 	 83.0092 	 
C 	 -6.69584 	 -13.6945 	 81.7149 	 
H 	 -8.56134 	 -15.2611 	 84.1818 	 
C 	 -5.90209 	 -14.0942 	 84.1044 	 
H 	 -4.97511 	 -13.6356 	 83.8763 	 
H 	 -5.59009 	 -15.1011 	 84.3905 	 
C 	 -6.43097 	 -13.3527 	 85.3 	 
H 	 -7.07654 	 -12.4986 	 84.9889 	 
H 	 -5.54025 	 -12.9043 	 85.8268 	 
C 	 -6.9799 	 -14.1905 	 86.4307 	 
H 	 -7.67166 	 -15.0073 	 86.2656 	 
H 	 -7.38091 	 -13.5908 	 87.2186 	 
H 	 -6.1631 	 -14.719 	 86.8444 	 
H 	 -2.6576 	 -12.0448 	 78.9858 	 
H 	 -10.0461 	 -14.9265 	 82.0518 	 
*
