! wB97X-D3 SP def2-SVP
%pal
nprocs 16
end

* xyz 0 1
S 	 -7.45783 	 32.8843 	 48.9352 	 
C 	 -6.92756 	 31.8239 	 50.2044 	 
C 	 -5.52735 	 31.8881 	 50.322 	 
C 	 -4.89587 	 32.7221 	 49.3631 	 
C 	 -5.83171 	 33.4033 	 48.5461 	 
H 	 -3.77437 	 32.9018 	 49.3593 	 
C 	 -4.79315 	 31.2862 	 51.442 	 
H 	 -5.29249 	 31.3473 	 52.4489 	 
H 	 -3.86259 	 31.9358 	 51.4996 	 
C 	 -4.27643 	 29.8649 	 51.2153 	 
H 	 -3.68332 	 29.8037 	 50.2959 	 
H 	 -3.49 	 29.5128 	 51.9102 	 
C 	 -5.39511 	 28.7666 	 51.2769 	 
H 	 -5.66737 	 28.7012 	 52.3052 	 
H 	 -6.36503 	 28.8061 	 50.7565 	 
H 	 -4.85834 	 27.8144 	 50.9959 	 
S 	 -6.50326 	 34.3797 	 46.0417 	 
C 	 -5.29844 	 35.405 	 45.2161 	 
C 	 -4.29428 	 35.7833 	 46.0132 	 
C 	 -4.36238 	 35.1691 	 47.2978 	 
C 	 -5.46796 	 34.3561 	 47.4768 	 
H 	 -3.53357 	 36.4061 	 45.5678 	 
C 	 -3.07067 	 35.2985 	 48.18 	 
H 	 -2.25847 	 35.9309 	 47.6479 	 
H 	 -2.50124 	 34.3843 	 48.2628 	 
C 	 -3.38092 	 35.9204 	 49.5851 	 
H 	 -3.90179 	 35.1473 	 50.0981 	 
H 	 -4.17396 	 36.6215 	 49.3942 	 
C 	 -2.18185 	 36.4234 	 50.2971 	 
H 	 -1.44095 	 35.5948 	 50.5614 	 
H 	 -2.56353 	 37.0095 	 51.1669 	 
H 	 -1.48822 	 37.048 	 49.6508 	 
H 	 -7.60574 	 31.2201 	 50.808 	 
H 	 -5.32176 	 35.6508 	 44.1284 	 
*
