! wB97X-D3 SP def2-SVP
%pal
nprocs 16
end

* xyz 0 1
S 	 -98.0501 	 41.3782 	 125.963 	 
C 	 -98.623 	 41.0245 	 127.599 	 
C 	 -97.6234 	 41.2862 	 128.529 	 
C 	 -96.5166 	 41.8718 	 128.015 	 
C 	 -96.6136 	 42.0679 	 126.664 	 
H 	 -95.5729 	 42.0174 	 128.518 	 
C 	 -97.8459 	 40.9432 	 130.056 	 
H 	 -98.2041 	 39.9689 	 130.164 	 
H 	 -98.6727 	 41.57 	 130.474 	 
C 	 -96.649 	 41.0965 	 131.031 	 
H 	 -96.0936 	 42.0283 	 130.9 	 
H 	 -96.9506 	 41.3206 	 132.048 	 
C 	 -95.5909 	 39.9975 	 130.876 	 
H 	 -95.264 	 39.9029 	 129.853 	 
H 	 -94.6939 	 40.2241 	 131.421 	 
H 	 -96.0565 	 39.0686 	 131.14 	 
S 	 -94.5194 	 41.1484 	 125.056 	 
C 	 -93.3568 	 42.2259 	 124.277 	 
C 	 -93.5858 	 43.507 	 124.848 	 
C 	 -94.8663 	 43.6785 	 125.492 	 
C 	 -95.5013 	 42.469 	 125.786 	 
H 	 -92.8861 	 44.2949 	 124.538 	 
C 	 -95.318 	 45.0273 	 125.997 	 
H 	 -94.4289 	 45.6923 	 126.199 	 
H 	 -95.801 	 44.9906 	 126.988 	 
C 	 -96.1611 	 45.8114 	 124.979 	 
H 	 -97.1656 	 45.3712 	 124.783 	 
H 	 -95.7614 	 45.8191 	 124.037 	 
C 	 -96.4048 	 47.2328 	 125.514 	 
H 	 -96.9267 	 47.3034 	 126.514 	 
H 	 -96.8649 	 47.8445 	 124.691 	 
H 	 -95.4974 	 47.8632 	 125.712 	 
H 	 -99.6217 	 40.6481 	 127.895 	 
H 	 -92.54 	 42.076 	 123.6 	 
*
