! wB97X-D3 SP def2-SVP
%pal
nprocs 16
end

* xyz 0 1
S 	 34.7739 	 0.658048 	 69.5897 	 
C 	 34.767 	 2.36734 	 69.0736 	 
C 	 33.5386 	 2.97216 	 69.4184 	 
C 	 32.7146 	 2.14209 	 70.2526 	 
C 	 33.2792 	 0.931319 	 70.5203 	 
H 	 31.6914 	 2.28881 	 70.6202 	 
C 	 33.0794 	 4.34603 	 69.0641 	 
H 	 32.0437 	 4.26359 	 69.1093 	 
H 	 33.2314 	 4.5476 	 67.9749 	 
C 	 33.7511 	 5.52461 	 69.7365 	 
H 	 34.8739 	 5.53867 	 69.7686 	 
H 	 33.4349 	 6.49915 	 69.2923 	 
C 	 33.2165 	 5.57374 	 71.2229 	 
H 	 33.5296 	 6.39773 	 71.8443 	 
H 	 32.134 	 5.57909 	 71.1654 	 
H 	 33.6892 	 4.7445 	 71.6563 	 
S 	 31.309 	 -0.942321 	 71.001 	 
C 	 31.3559 	 -1.81722 	 72.5575 	 
C 	 32.4887 	 -1.53435 	 73.284 	 
C 	 33.3075 	 -0.548507 	 72.6155 	 
C 	 32.7685 	 -0.048824 	 71.4297 	 
H 	 32.7089 	 -2.01169 	 74.228 	 
C 	 34.5753 	 -0.0341406 	 73.2173 	 
H 	 35.3709 	 -0.116951 	 72.5795 	 
H 	 34.8421 	 -0.731381 	 74.0637 	 
C 	 34.3813 	 1.42775 	 73.7898 	 
H 	 33.8615 	 2.1 	 73.1919 	 
H 	 35.3553 	 1.80467 	 73.6595 	 
C 	 33.8417 	 1.54134 	 75.2635 	 
H 	 33.791 	 2.51532 	 75.7531 	 
H 	 34.4231 	 0.978091 	 75.906 	 
H 	 32.8156 	 1.2008 	 75.4028 	 
H 	 35.5677 	 2.93605 	 68.5597 	 
H 	 30.6815 	 -2.56373 	 72.9022 	 
*
