! wB97X-D3 SP def2-SVP
%pal
nprocs 16
end

* xyz 0 1
S 	 15.0179 	 18.6042 	 41.0817 	 
C 	 16.2427 	 18.1014 	 39.8981 	 
C 	 15.7135 	 17.1421 	 39.0626 	 
C 	 14.3029 	 16.9104 	 39.2296 	 
C 	 13.7564 	 17.8447 	 40.124 	 
H 	 13.7215 	 16.3309 	 38.593 	 
C 	 16.5836 	 16.4423 	 38.0444 	 
H 	 16.5279 	 15.3807 	 38.1524 	 
H 	 17.6222 	 16.5755 	 38.3999 	 
C 	 16.5665 	 16.9315 	 36.6584 	 
H 	 15.575 	 16.887 	 36.1433 	 
H 	 16.954 	 17.9696 	 36.6312 	 
C 	 17.522 	 16.1819 	 35.7274 	 
H 	 17.6191 	 16.9382 	 34.8416 	 
H 	 18.5033 	 16.1982 	 36.3075 	 
H 	 17.2133 	 15.2116 	 35.4122 	 
S 	 11.2132 	 17.739 	 39.3501 	 
C 	 9.92669 	 17.9455 	 40.4815 	 
C 	 10.3548 	 18.033 	 41.8155 	 
C 	 11.7741 	 17.8927 	 41.9181 	 
C 	 12.4163 	 17.8638 	 40.6431 	 
H 	 9.65928 	 18.1507 	 42.6784 	 
C 	 12.405 	 17.8822 	 43.3329 	 
H 	 12.7554 	 18.8341 	 43.7509 	 
H 	 13.3646 	 17.3746 	 43.1416 	 
C 	 11.5106 	 17.2399 	 44.4187 	 
H 	 10.9344 	 16.4129 	 43.9787 	 
H 	 10.7854 	 17.9871 	 44.6985 	 
C 	 12.3724 	 16.9775 	 45.6362 	 
H 	 11.6641 	 17.0249 	 46.455 	 
H 	 12.9796 	 17.8696 	 45.8615 	 
H 	 12.9195 	 16.0894 	 45.563 	 
H 	 17.2832 	 18.3111 	 40.0136 	 
H 	 8.91287 	 18.095 	 40.2685 	 
*
