! wB97X-D3 SP def2-SVP
%pal
nprocs 16
end

* xyz 0 1
S 	 11.9661 	 23.4619 	 46.6446 	 
C 	 11.6469 	 21.7809 	 47.112 	 
C 	 12.3483 	 20.8434 	 46.3375 	 
C 	 13.2117 	 21.565 	 45.4345 	 
C 	 13.2087 	 22.9529 	 45.5538 	 
H 	 13.8791 	 21.175 	 44.7071 	 
C 	 12.2445 	 19.3029 	 46.2647 	 
H 	 12.9309 	 18.9309 	 45.5307 	 
H 	 11.2827 	 19.0462 	 45.9167 	 
C 	 12.5269 	 18.4265 	 47.4791 	 
H 	 11.8087 	 18.5562 	 48.3066 	 
H 	 12.4796 	 17.3971 	 47.1194 	 
C 	 13.8611 	 18.5401 	 48.029 	 
H 	 14.68 	 18.4265 	 47.3842 	 
H 	 13.9564 	 19.5246 	 48.4863 	 
H 	 14.1051 	 17.9184 	 48.7783 	 
S 	 15.2057 	 24.9416 	 45.9706 	 
C 	 15.9384 	 25.6787 	 44.6158 	 
C 	 15.5012 	 25.1539 	 43.4255 	 
C 	 14.5075 	 24.1194 	 43.5795 	 
C 	 14.1619 	 23.881 	 44.9189 	 
H 	 15.7544 	 25.6165 	 42.502 	 
C 	 13.9286 	 23.4701 	 42.3815 	 
H 	 13.7439 	 22.3866 	 42.6045 	 
H 	 14.659 	 23.4341 	 41.5127 	 
C 	 12.5961 	 23.9844 	 41.9285 	 
H 	 12.5173 	 25.024 	 41.4789 	 
H 	 11.7408 	 24.0564 	 42.6673 	 
C 	 12.0096 	 23.0677 	 40.859 	 
H 	 11.2178 	 23.5861 	 40.3543 	 
H 	 11.5925 	 22.1911 	 41.358 	 
H 	 12.7061 	 22.8146 	 40.0594 	 
H 	 11.0606 	 21.5146 	 48.0083 	 
H 	 16.6237 	 26.4892 	 44.6168 	 
*
