! wB97X-D3 SP def2-SVP
%pal
nprocs 16
end

* xyz 0 1
S 	 43.857 	 13.4012 	 81.3852 	 
C 	 42.6061 	 14.0732 	 80.48 	 
C 	 41.4454 	 14.0761 	 81.1422 	 
C 	 41.5893 	 13.5113 	 82.4721 	 
C 	 42.8412 	 13.0807 	 82.7685 	 
H 	 40.8324 	 13.5258 	 83.2762 	 
C 	 40.129 	 14.7128 	 80.7351 	 
H 	 39.9342 	 14.5671 	 79.6584 	 
H 	 40.1895 	 15.7915 	 80.7588 	 
C 	 38.855 	 14.1698 	 81.4523 	 
H 	 38.7634 	 13.068 	 81.4402 	 
H 	 38.8315 	 14.3079 	 82.5115 	 
C 	 37.5166 	 14.7976 	 80.9594 	 
H 	 37.5452 	 15.8517 	 81.0791 	 
H 	 37.3948 	 14.5913 	 79.9252 	 
H 	 36.5527 	 14.4046 	 81.4583 	 
S 	 42.0595 	 11.5774 	 85.0059 	 
C 	 43.1449 	 11.5123 	 86.3417 	 
C 	 44.277 	 12.1056 	 86.0842 	 
C 	 44.4893 	 12.5415 	 84.7386 	 
C 	 43.2721 	 12.4738 	 84.0256 	 
H 	 44.9801 	 12.0467 	 86.8678 	 
C 	 45.7274 	 13.3173 	 84.382 	 
H 	 45.8315 	 13.2677 	 83.2923 	 
H 	 46.5543 	 12.9431 	 84.8869 	 
C 	 45.5072 	 14.8197 	 84.6362 	 
H 	 44.849 	 15.1733 	 83.8387 	 
H 	 46.4575 	 15.2164 	 84.34 	 
C 	 45.3254 	 15.3241 	 86.087 	 
H 	 46.1167 	 14.955 	 86.7445 	 
H 	 44.3373 	 15.0895 	 86.489 	 
H 	 45.2803 	 16.3835 	 86.0402 	 
H 	 42.7558 	 14.4009 	 79.4182 	 
H 	 42.9117 	 10.9855 	 87.2647 	 
*
