! wB97X-D3 SP def2-SVP
%pal
nprocs 16
end

* xyz 0 1
S 	 -37.3253 	 39.5799 	 93.055 	 
C 	 -38.2717 	 41.0125 	 92.8008 	 
C 	 -39.5908 	 40.8958 	 93.0468 	 
C 	 -39.9108 	 39.5852 	 93.5468 	 
C 	 -38.8072 	 38.7327 	 93.5943 	 
H 	 -40.9051 	 39.2353 	 93.838 	 
C 	 -40.5613 	 42.0245 	 93.0416 	 
H 	 -40.6722 	 42.4007 	 92.0461 	 
H 	 -40.0488 	 42.9059 	 93.5204 	 
C 	 -42.0029 	 41.8577 	 93.6559 	 
H 	 -42.5115 	 41.0594 	 93.1877 	 
H 	 -41.9146 	 41.59 	 94.6272 	 
C 	 -42.8183 	 43.0775 	 93.3529 	 
H 	 -42.8375 	 43.1379 	 92.2504 	 
H 	 -43.8184 	 42.888 	 93.6145 	 
H 	 -42.2864 	 43.882 	 93.7495 	 
S 	 -37.2454 	 36.7877 	 94.7826 	 
C 	 -37.7954 	 35.1647 	 94.8984 	 
C 	 -39.1251 	 35.1127 	 94.7305 	 
C 	 -39.6879 	 36.3324 	 94.1703 	 
C 	 -38.736 	 37.391 	 94.1601 	 
H 	 -39.6714 	 34.2299 	 94.922 	 
C 	 -41.1154 	 36.4639 	 93.7289 	 
H 	 -41.5754 	 35.5192 	 93.433 	 
H 	 -41.171 	 37.1013 	 92.7618 	 
C 	 -42.0164 	 36.9951 	 94.8307 	 
H 	 -41.496 	 37.6492 	 95.4834 	 
H 	 -42.412 	 36.1521 	 95.4465 	 
C 	 -43.2465 	 37.6259 	 94.2713 	 
H 	 -42.9891 	 38.579 	 93.8008 	 
H 	 -43.9713 	 37.7004 	 95.0015 	 
H 	 -43.6459 	 36.994 	 93.483 	 
H 	 -37.6804 	 41.8958 	 92.5461 	 
H 	 -37.0992 	 34.4627 	 95.3624 	 
*
