! wB97X-D3 SP def2-SVP
%pal
nprocs 16
end

* xyz 0 1
S 	 -29.7599 	 59.695 	 106.347 	 
C 	 -28.8103 	 60.0411 	 107.751 	 
C 	 -29.2915 	 61.1021 	 108.509 	 
C 	 -30.4072 	 61.6989 	 107.835 	 
C 	 -30.6632 	 61.1922 	 106.593 	 
H 	 -30.9306 	 62.6476 	 108.133 	 
C 	 -28.8356 	 61.4657 	 109.922 	 
H 	 -27.7273 	 61.5586 	 109.837 	 
H 	 -28.9858 	 60.6221 	 110.559 	 
C 	 -29.3051 	 62.8092 	 110.509 	 
H 	 -30.3787 	 62.8213 	 110.434 	 
H 	 -28.9984 	 62.6477 	 111.539 	 
C 	 -28.6696 	 64.0797 	 109.893 	 
H 	 -27.6153 	 64.1309 	 110.047 	 
H 	 -28.9167 	 64.289 	 108.882 	 
H 	 -29.0671 	 64.889 	 110.382 	 
S 	 -32.9134 	 60.4076 	 105.145 	 
C 	 -33.8578 	 61.7009 	 104.432 	 
C 	 -33.2471 	 62.9036 	 104.481 	 
C 	 -32.0025 	 62.8608 	 105.182 	 
C 	 -31.7362 	 61.6132 	 105.723 	 
H 	 -33.5649 	 63.7891 	 103.923 	 
C 	 -31.0134 	 64.0494 	 105.262 	 
H 	 -30.3855 	 64.12 	 106.208 	 
H 	 -31.6573 	 64.9395 	 105.214 	 
C 	 -29.9687 	 64.0854 	 104.135 	 
H 	 -30.4813 	 63.9478 	 103.11 	 
H 	 -29.2548 	 63.1974 	 104.188 	 
C 	 -29.112 	 65.3064 	 104.148 	 
H 	 -28.5518 	 65.3635 	 105.086 	 
H 	 -29.7316 	 66.1712 	 104.036 	 
H 	 -28.4159 	 65.266 	 103.321 	 
H 	 -28.0147 	 59.4196 	 108.089 	 
H 	 -34.6117 	 61.44 	 103.728 	 
*
