! wB97X-D3 SP def2-SVP
%pal
nprocs 16
end

* xyz 0 1
S 	 22.1074 	 32.6412 	 54.5355 	 
C 	 22.159 	 31.3757 	 55.6542 	 
C 	 22.242 	 31.8754 	 56.9439 	 
C 	 22.5352 	 33.2952 	 57.0051 	 
C 	 22.6881 	 33.8087 	 55.7044 	 
H 	 22.7162 	 33.8535 	 57.8855 	 
C 	 22.2112 	 30.9887 	 58.1566 	 
H 	 23.1915 	 31.0792 	 58.6276 	 
H 	 22.1368 	 29.9411 	 57.7298 	 
C 	 21.1518 	 31.1991 	 59.2156 	 
H 	 21.1741 	 32.2264 	 59.577 	 
H 	 20.1727 	 31.1326 	 58.7189 	 
C 	 21.2213 	 30.236 	 60.4283 	 
H 	 21.1281 	 29.2231 	 59.9486 	 
H 	 22.1629 	 30.3104 	 60.9131 	 
H 	 20.3331 	 30.3197 	 61.0756 	 
S 	 24.9685 	 35.4198 	 55.7736 	 
C 	 24.9248 	 37.0529 	 55.1864 	 
C 	 23.6196 	 37.3779 	 54.9699 	 
C 	 22.6543 	 36.2763 	 55.0836 	 
C 	 23.2222 	 35.1186 	 55.4069 	 
H 	 23.3697 	 38.3928 	 54.7422 	 
C 	 21.2179 	 36.4938 	 54.6786 	 
H 	 20.8167 	 35.5317 	 54.5329 	 
H 	 21.2325 	 36.9877 	 53.703 	 
C 	 20.3493 	 37.3919 	 55.5472 	 
H 	 19.4323 	 37.4251 	 55.0124 	 
H 	 20.817 	 38.3486 	 55.5217 	 
C 	 20.0942 	 36.7244 	 56.9664 	 
H 	 19.7576 	 35.671 	 56.9413 	 
H 	 19.4233 	 37.285 	 57.6576 	 
H 	 21.0445 	 36.708 	 57.4338 	 
H 	 22.1174 	 30.3396 	 55.581 	 
H 	 25.7243 	 37.8102 	 55.3331 	 
*
