! wB97X-D3 SP def2-SVP
%pal
nprocs 16
end

* xyz 0 1
S 	 -73.3828 	 39.8918 	 120.788 	 
C 	 -73.4793 	 40.0153 	 122.518 	 
C 	 -73.1192 	 38.8613 	 123.157 	 
C 	 -72.5389 	 37.9468 	 122.175 	 
C 	 -72.4976 	 38.3313 	 120.871 	 
H 	 -72.1375 	 37.0235 	 122.514 	 
C 	 -73.3078 	 38.5112 	 124.653 	 
H 	 -72.5863 	 39.102 	 125.222 	 
H 	 -73.2452 	 37.4475 	 124.819 	 
C 	 -74.6387 	 38.9982 	 125.256 	 
H 	 -74.6216 	 40.1227 	 125.396 	 
H 	 -75.4806 	 38.7489 	 124.567 	 
C 	 -74.8844 	 38.437 	 126.669 	 
H 	 -73.9585 	 38.2938 	 127.195 	 
H 	 -75.4739 	 39.0687 	 127.295 	 
H 	 -75.3718 	 37.4283 	 126.698 	 
S 	 -71.0237 	 38.4101 	 118.499 	 
C 	 -70.6591 	 36.9781 	 117.658 	 
C 	 -71.1774 	 35.8821 	 118.337 	 
C 	 -71.9813 	 36.2428 	 119.43 	 
C 	 -72.0895 	 37.6266 	 119.677 	 
H 	 -71.0059 	 34.8269 	 118.004 	 
C 	 -72.7051 	 35.1233 	 120.182 	 
H 	 -72.3072 	 35.0671 	 121.172 	 
H 	 -72.4603 	 34.2613 	 119.677 	 
C 	 -74.2488 	 35.2307 	 120.295 	 
H 	 -74.5739 	 35.7016 	 119.378 	 
H 	 -74.5202 	 35.9351 	 121.049 	 
C 	 -74.8286 	 33.8323 	 120.706 	 
H 	 -74.8096 	 33.0418 	 119.898 	 
H 	 -75.9022 	 34.0112 	 121.058 	 
H 	 -74.3032 	 33.4272 	 121.538 	 
H 	 -73.9 	 40.7928 	 123.106 	 
H 	 -70.351 	 36.8199 	 116.604 	 
*
