! wB97X-D3 SP def2-SVP
%pal
nprocs 16
end

* xyz 0 1
S 	 42.197 	 11.4185 	 84.0447 	 
C 	 42.8309 	 10.923 	 82.5317 	 
C 	 42.7623 	 9.53945 	 82.3505 	 
C 	 42.0961 	 8.94303 	 83.4708 	 
C 	 41.7592 	 9.79706 	 84.4441 	 
H 	 41.8642 	 7.90799 	 83.5635 	 
C 	 43.0216 	 8.73335 	 81.0583 	 
H 	 43.1766 	 9.44971 	 80.2757 	 
H 	 42.1061 	 8.23174 	 80.7638 	 
C 	 44.2246 	 7.79717 	 81.0506 	 
H 	 44.2463 	 7.08896 	 81.9149 	 
H 	 44.1539 	 7.08212 	 80.2074 	 
C 	 45.5365 	 8.52355 	 81.2025 	 
H 	 45.601 	 8.88731 	 82.2428 	 
H 	 46.3845 	 7.83203 	 81.2431 	 
H 	 45.6521 	 9.3157 	 80.5135 	 
S 	 39.8155 	 10.4194 	 86.2837 	 
C 	 39.7136 	 9.54999 	 87.7118 	 
C 	 40.7468 	 8.64913 	 87.8495 	 
C 	 41.553 	 8.55399 	 86.7073 	 
C 	 41.1604 	 9.40614 	 85.7176 	 
H 	 40.8138 	 8.1217 	 88.7563 	 
C 	 42.6441 	 7.46454 	 86.6493 	 
H 	 42.5137 	 6.77319 	 85.8163 	 
H 	 42.5816 	 6.80164 	 87.4742 	 
C 	 44.0419 	 8.14035 	 86.7692 	 
H 	 44.1566 	 8.54032 	 87.7694 	 
H 	 44.2193 	 8.97651 	 86.1028 	 
C 	 45.1444 	 7.18804 	 86.6047 	 
H 	 45.0192 	 6.35363 	 87.3188 	 
H 	 46.118 	 7.73908 	 86.7403 	 
H 	 45.0271 	 6.76591 	 85.599 	 
H 	 43.1342 	 11.6492 	 81.7822 	 
H 	 38.9447 	 9.84453 	 88.4681 	 
*
