! wB97X-D3 SP def2-SVP
%pal
nprocs 16
end

* xyz 0 1
S 	 -34.0946 	 72.3928 	 150.402 	 
C 	 -32.7135 	 72.5645 	 149.294 	 
C 	 -31.5176 	 72.0421 	 149.832 	 
C 	 -31.7344 	 71.5632 	 151.175 	 
C 	 -33.0435 	 71.7846 	 151.688 	 
H 	 -30.9473 	 71.1287 	 151.848 	 
C 	 -30.1315 	 72.1629 	 149.195 	 
H 	 -29.3832 	 72.1018 	 149.942 	 
H 	 -29.9869 	 73.1763 	 148.806 	 
C 	 -29.6762 	 71.112 	 148.213 	 
H 	 -30.4186 	 71.2129 	 147.422 	 
H 	 -28.7019 	 71.4125 	 147.771 	 
C 	 -29.6451 	 69.6788 	 148.851 	 
H 	 -29.1602 	 68.969 	 148.146 	 
H 	 -29.0497 	 69.5888 	 149.769 	 
H 	 -30.6332 	 69.2431 	 148.974 	 
S 	 -34.573 	 70.147 	 153.415 	 
C 	 -34.4587 	 70.4853 	 155.129 	 
C 	 -33.7009 	 71.6079 	 155.384 	 
C 	 -33.0967 	 72.1832 	 154.2 	 
C 	 -33.5442 	 71.568 	 153.04 	 
H 	 -33.6236 	 71.8479 	 156.449 	 
C 	 -32.1088 	 73.2845 	 154.33 	 
H 	 -31.1957 	 73.1095 	 153.877 	 
H 	 -31.8418 	 73.2737 	 155.365 	 
C 	 -32.5696 	 74.6984 	 153.954 	 
H 	 -33.1969 	 74.6149 	 153.013 	 
H 	 -31.7479 	 75.4168 	 153.71 	 
C 	 -33.3492 	 75.2593 	 155.186 	 
H 	 -32.7443 	 75.3338 	 156.017 	 
H 	 -34.2167 	 74.6149 	 155.45 	 
H 	 -33.6771 	 76.2857 	 154.975 	 
H 	 -32.7231 	 72.9763 	 148.27 	 
H 	 -34.7942 	 69.8464 	 155.945 	 
*
