! wB97X-D3 SP def2-SVP
%pal
nprocs 16
end

* xyz 0 1
S 	 -67.2669 	 49.8246 	 123.26 	 
C 	 -66.9108 	 50.3824 	 124.845 	 
C 	 -66.736 	 49.4041 	 125.807 	 
C 	 -67.0956 	 48.1506 	 125.252 	 
C 	 -67.3923 	 48.1788 	 123.919 	 
H 	 -67.1729 	 47.2344 	 125.888 	 
C 	 -66.4499 	 49.6684 	 127.314 	 
H 	 -67.3645 	 50.298 	 127.525 	 
H 	 -65.4976 	 50.2372 	 127.389 	 
C 	 -66.1864 	 48.4465 	 128.124 	 
H 	 -67.0624 	 47.8798 	 128.204 	 
H 	 -65.5734 	 47.8186 	 127.542 	 
C 	 -65.6544 	 48.8265 	 129.501 	 
H 	 -66.2414 	 49.6613 	 129.959 	 
H 	 -65.772 	 48.0145 	 130.202 	 
H 	 -64.5831 	 49.1167 	 129.534 	 
S 	 -66.6594 	 46.2054 	 122 	 
C 	 -67.8496 	 45.1414 	 121.326 	 
C 	 -69.0779 	 45.3081 	 121.956 	 
C 	 -69.0942 	 46.3479 	 122.912 	 
C 	 -67.8089 	 46.9858 	 123.093 	 
H 	 -69.9115 	 44.646 	 121.747 	 
C 	 -70.1735 	 46.5887 	 123.906 	 
H 	 -71.0989 	 46.3867 	 123.416 	 
H 	 -70.3035 	 47.6567 	 124.019 	 
C 	 -70.1702 	 45.7951 	 125.283 	 
H 	 -69.3592 	 46.2002 	 125.809 	 
H 	 -70.0071 	 44.7868 	 125.108 	 
C 	 -71.5303 	 46.1216 	 125.987 	 
H 	 -71.5855 	 47.0844 	 126.577 	 
H 	 -71.6645 	 45.3172 	 126.75 	 
H 	 -72.3725 	 46.2751 	 125.35 	 
H 	 -66.69 	 51.4531 	 125.038 	 
H 	 -67.6422 	 44.454 	 120.51 	 
*
