! wB97X-D3 SP def2-SVP
%pal
nprocs 16
end

* xyz 0 1
S 	 -2.77768 	 -17.1874 	 89.7115 	 
C 	 -4.30057 	 -16.9455 	 90.5345 	 
C 	 -5.03434 	 -15.9657 	 89.8456 	 
C 	 -4.4228 	 -15.4645 	 88.6905 	 
C 	 -3.19345 	 -16.0256 	 88.4239 	 
H 	 -4.89947 	 -14.8275 	 88.0096 	 
C 	 -6.47753 	 -15.4773 	 90.2956 	 
H 	 -6.49983 	 -15.3574 	 91.3641 	 
H 	 -7.30785 	 -16.1655 	 90.0309 	 
C 	 -7.01852 	 -14.1081 	 89.7941 	 
H 	 -6.39982 	 -13.3965 	 90.3087 	 
H 	 -6.92112 	 -13.9309 	 88.7302 	 
C 	 -8.46436 	 -13.9243 	 90.237 	 
H 	 -8.70764 	 -12.927 	 90.4861 	 
H 	 -9.18819 	 -14.1013 	 89.4414 	 
H 	 -8.84702 	 -14.5298 	 91.096 	 
S 	 -0.702069 	 -15.4634 	 87.3705 	 
C 	 -0.398457 	 -15.6177 	 85.643 	 
C 	 -1.49079 	 -16.1872 	 84.9278 	 
C 	 -2.653 	 -16.2923 	 85.8484 	 
C 	 -2.39853 	 -15.8965 	 87.1791 	 
H 	 -1.48608 	 -16.4902 	 83.8928 	 
C 	 -3.93647 	 -16.8724 	 85.2877 	 
H 	 -4.31886 	 -17.5737 	 86.057 	 
H 	 -3.65441 	 -17.589 	 84.4743 	 
C 	 -5.0696 	 -16.0121 	 84.8538 	 
H 	 -5.25293 	 -15.3939 	 85.6674 	 
H 	 -5.88453 	 -16.6634 	 84.5987 	 
C 	 -4.68913 	 -15.0303 	 83.7644 	 
H 	 -5.50731 	 -14.3755 	 83.5807 	 
H 	 -4.32703 	 -15.5014 	 82.8758 	 
H 	 -3.9759 	 -14.3049 	 84.1849 	 
H 	 -4.65874 	 -17.4191 	 91.416 	 
H 	 0.486651 	 -15.4039 	 85.1367 	 
*
