! wB97X-D3 SP def2-SVP
%pal
nprocs 16
end

* xyz 0 1
S 	 -12.3289 	 -10.2166 	 86.8248 	 
C 	 -13.792 	 -11.1714 	 86.8179 	 
C 	 -14.8492 	 -10.3443 	 86.5648 	 
C 	 -14.4781 	 -8.96548 	 86.3253 	 
C 	 -13.1221 	 -8.78637 	 86.2339 	 
H 	 -15.1358 	 -8.12335 	 86.2369 	 
C 	 -16.3048 	 -10.8397 	 86.465 	 
H 	 -16.965 	 -10.0736 	 86.8863 	 
H 	 -16.3992 	 -11.6055 	 87.2529 	 
C 	 -16.7575 	 -11.2672 	 85.0629 	 
H 	 -16.9151 	 -10.4275 	 84.3865 	 
H 	 -15.8841 	 -11.7424 	 84.7095 	 
C 	 -17.9178 	 -12.282 	 84.9612 	 
H 	 -18.0276 	 -12.649 	 83.9577 	 
H 	 -17.6911 	 -13.1023 	 85.6234 	 
H 	 -18.857 	 -11.7214 	 85.242 	 
S 	 -11.68 	 -6.78531 	 87.4189 	 
C 	 -10.9585 	 -5.49464 	 86.3282 	 
C 	 -11.2344 	 -5.80289 	 85.0178 	 
C 	 -12.2767 	 -6.80312 	 84.8653 	 
C 	 -12.3911 	 -7.50578 	 86.0493 	 
H 	 -10.8278 	 -5.0745 	 84.345 	 
C 	 -12.9619 	 -6.92709 	 83.5964 	 
H 	 -13.5314 	 -7.83375 	 83.6201 	 
H 	 -12.2762 	 -7.10749 	 82.7619 	 
C 	 -13.9273 	 -5.78529 	 83.308 	 
H 	 -13.3749 	 -4.90441 	 83.307 	 
H 	 -14.6226 	 -5.61683 	 83.9939 	 
C 	 -14.5346 	 -5.9683 	 81.8848 	 
H 	 -15.1585 	 -5.06965 	 81.5387 	 
H 	 -15.1163 	 -6.91607 	 81.8196 	 
H 	 -13.7311 	 -6.15369 	 81.1231 	 
H 	 -13.9962 	 -12.2196 	 86.8798 	 
H 	 -10.313 	 -4.69752 	 86.6714 	 
*
