! wB97X-D3 SP def2-SVP
%pal
nprocs 16
end

* xyz 0 1
S 	 -35.5782 	 40.1896 	 96.6198 	 
C 	 -34.1806 	 39.6362 	 95.7431 	 
C 	 -33.5086 	 38.5662 	 96.378 	 
C 	 -34.2052 	 38.2579 	 97.5592 	 
C 	 -35.268 	 39.04 	 97.9664 	 
H 	 -33.7889 	 37.5888 	 98.2961 	 
C 	 -32.3051 	 37.804 	 95.9243 	 
H 	 -32.317 	 37.6967 	 94.8218 	 
H 	 -32.5015 	 36.8018 	 96.3468 	 
C 	 -30.9931 	 38.3928 	 96.3785 	 
H 	 -30.8789 	 39.2614 	 95.6933 	 
H 	 -31.0688 	 38.6464 	 97.4215 	 
C 	 -29.9091 	 37.4052 	 96.0523 	 
H 	 -29.8196 	 37.2594 	 94.9925 	 
H 	 -28.9533 	 37.7441 	 96.5191 	 
H 	 -30.1018 	 36.4372 	 96.4568 	 
S 	 -37.8569 	 38.8802 	 98.8945 	 
C 	 -38.0526 	 38.7841 	 100.641 	 
C 	 -36.884 	 38.622 	 101.369 	 
C 	 -35.7311 	 38.5978 	 100.45 	 
C 	 -36.1098 	 38.9504 	 99.1552 	 
H 	 -36.9802 	 38.4423 	 102.433 	 
C 	 -34.3538 	 38.4687 	 100.978 	 
H 	 -33.5683 	 38.0259 	 100.321 	 
H 	 -34.4925 	 37.7756 	 101.799 	 
C 	 -33.6748 	 39.7768 	 101.363 	 
H 	 -34.2953 	 40.4175 	 101.976 	 
H 	 -33.4928 	 40.255 	 100.466 	 
C 	 -32.3065 	 39.4785 	 102.046 	 
H 	 -31.6867 	 40.3641 	 101.956 	 
H 	 -31.7744 	 38.6429 	 101.617 	 
H 	 -32.4316 	 39.3232 	 103.121 	 
H 	 -33.8843 	 40.0753 	 94.8105 	 
H 	 -39.0062 	 38.7783 	 101.101 	 
*
