! wB97X-D3 SP def2-SVP
%pal
nprocs 16
end

* xyz 0 1
S 	 39.1225 	 14.9028 	 77.8309 	 
C 	 39.2489 	 13.7051 	 76.4971 	 
C 	 40.2677 	 14.028 	 75.6443 	 
C 	 41.2134 	 14.9478 	 76.224 	 
C 	 40.6725 	 15.5452 	 77.3632 	 
H 	 42.1297 	 15.316 	 75.7467 	 
C 	 40.5193 	 13.2379 	 74.3712 	 
H 	 41.3961 	 13.7514 	 73.963 	 
H 	 39.7433 	 13.6329 	 73.7042 	 
C 	 40.3607 	 11.7002 	 74.5049 	 
H 	 40.867 	 11.322 	 75.3486 	 
H 	 39.3052 	 11.5388 	 74.702 	 
C 	 40.7406 	 11.0818 	 73.1622 	 
H 	 40.2171 	 11.478 	 72.2856 	 
H 	 41.7973 	 11.241 	 72.9856 	 
H 	 40.6144 	 9.95967 	 73.1133 	 
S 	 40.0843 	 18.0807 	 78.4354 	 
C 	 41.1756 	 18.6443 	 79.6679 	 
C 	 42.4291 	 18.0523 	 79.4978 	 
C 	 42.3986 	 16.9182 	 78.6524 	 
C 	 41.1469 	 16.6953 	 78.0967 	 
H 	 43.257 	 18.5758 	 80.0238 	 
C 	 43.5837 	 16.0967 	 78.4268 	 
H 	 43.2483 	 15.0539 	 78.3174 	 
H 	 44.2708 	 16.0762 	 79.2696 	 
C 	 44.4103 	 16.4071 	 77.1846 	 
H 	 45.0128 	 17.3402 	 77.33 	 
H 	 43.6916 	 16.7086 	 76.3876 	 
C 	 45.1953 	 15.1131 	 76.7823 	 
H 	 44.4543 	 14.2998 	 76.5618 	 
H 	 45.7984 	 14.9024 	 77.6163 	 
H 	 45.8821 	 15.209 	 75.8824 	 
H 	 38.4808 	 13.0058 	 76.1749 	 
H 	 40.9576 	 19.4171 	 80.3305 	 
*
