! wB97X-D3 SP def2-SVP
%pal
nprocs 16
end

* xyz 0 1
S 	 -6.08722 	 43.9114 	 40.5348 	 
C 	 -4.65535 	 43.2668 	 39.786 	 
C 	 -4.12396 	 42.2342 	 40.5736 	 
C 	 -4.91289 	 41.9977 	 41.7856 	 
C 	 -5.94671 	 42.919 	 42.0057 	 
H 	 -4.76357 	 41.2194 	 42.5479 	 
C 	 -2.84039 	 41.496 	 40.3391 	 
H 	 -2.43367 	 41.8624 	 39.3498 	 
H 	 -3.1761 	 40.5284 	 40.0378 	 
C 	 -1.783 	 41.5657 	 41.448 	 
H 	 -2.26888 	 41.0694 	 42.2337 	 
H 	 -1.02309 	 40.9387 	 41.0627 	 
C 	 -1.25401 	 42.9601 	 41.7548 	 
H 	 -0.711814 	 42.787 	 42.7461 	 
H 	 -0.547781 	 43.2153 	 40.907 	 
H 	 -2.05618 	 43.6515 	 41.8254 	 
S 	 -8.66401 	 42.7704 	 42.549 	 
C 	 -9.10669 	 42.7668 	 44.2497 	 
C 	 -7.99803 	 42.6308 	 45.11 	 
C 	 -6.76579 	 42.8133 	 44.463 	 
C 	 -6.9116 	 42.9117 	 43.086 	 
H 	 -8.01177 	 42.6091 	 46.1943 	 
C 	 -5.47676 	 42.9041 	 45.2812 	 
H 	 -4.70781 	 43.021 	 44.5846 	 
H 	 -5.24697 	 41.8621 	 45.6654 	 
C 	 -5.45242 	 43.9493 	 46.4007 	 
H 	 -5.73175 	 43.4591 	 47.3181 	 
H 	 -6.21585 	 44.7523 	 46.3048 	 
C 	 -4.09943 	 44.6431 	 46.4106 	 
H 	 -3.92248 	 45.3938 	 47.205 	 
H 	 -4.02969 	 45.0527 	 45.39 	 
H 	 -3.35784 	 43.8816 	 46.69 	 
H 	 -4.24895 	 43.6809 	 38.8523 	 
H 	 -10.1273 	 42.8382 	 44.6862 	 
*
