! wB97X-D3 SP def2-SVP
%pal
nprocs 16
end

* xyz 0 1
S 	 4.42146 	 -13.1369 	 63.6487 	 
C 	 4.30113 	 -12.5632 	 65.2841 	 
C 	 3.05844 	 -12.0606 	 65.586 	 
C 	 2.21333 	 -12.2535 	 64.4166 	 
C 	 2.73993 	 -12.9625 	 63.397 	 
H 	 1.20157 	 -12.0497 	 64.2017 	 
C 	 2.48201 	 -11.6274 	 66.9341 	 
H 	 2.52814 	 -12.5724 	 67.4209 	 
H 	 1.4537 	 -11.2725 	 66.7254 	 
C 	 3.20035 	 -10.404 	 67.64 	 
H 	 4.28617 	 -10.6417 	 67.7807 	 
H 	 3.08752 	 -9.67232 	 66.8398 	 
C 	 2.4875 	 -9.98695 	 68.9501 	 
H 	 1.59326 	 -9.42337 	 68.8082 	 
H 	 2.29047 	 -10.7874 	 69.6291 	 
H 	 3.16498 	 -9.29422 	 69.3382 	 
S 	 0.371994 	 -12.6871 	 61.875 	 
C 	 0.389877 	 -13.1185 	 60.161 	 
C 	 1.55206 	 -13.7137 	 59.9033 	 
C 	 2.50212 	 -13.9165 	 60.9476 	 
C 	 2.07983 	 -13.2405 	 62.1331 	 
H 	 1.67182 	 -14.0948 	 58.8567 	 
C 	 3.88296 	 -14.6161 	 60.6979 	 
H 	 3.78802 	 -15.5287 	 60.0292 	 
H 	 4.35909 	 -14.8009 	 61.6378 	 
C 	 4.88547 	 -13.7835 	 59.9397 	 
H 	 5.18206 	 -12.9596 	 60.5917 	 
H 	 4.41656 	 -13.3583 	 59.092 	 
C 	 6.0608 	 -14.6106 	 59.5024 	 
H 	 6.76302 	 -13.9533 	 59.0222 	 
H 	 5.87061 	 -15.4196 	 58.9354 	 
H 	 6.63788 	 -14.9653 	 60.339 	 
H 	 5.00308 	 -12.5918 	 66.0918 	 
H 	 -0.342317 	 -13.0031 	 59.38 	 
*
