! wB97X-D3 SP def2-SVP
%pal
nprocs 16
end

* xyz 0 1
S 	 -88.6583 	 48.7337 	 130.82 	 
C 	 -90.2324 	 49.3866 	 131.12 	 
C 	 -90.5104 	 50.5752 	 130.487 	 
C 	 -89.4077 	 50.9601 	 129.662 	 
C 	 -88.3712 	 50.089 	 129.748 	 
H 	 -89.2711 	 51.8279 	 129.034 	 
C 	 -91.6344 	 51.559 	 130.677 	 
H 	 -92.5894 	 50.9698 	 130.548 	 
H 	 -91.669 	 52.2042 	 129.791 	 
C 	 -91.5329 	 52.4516 	 131.92 	 
H 	 -92.4258 	 53.0785 	 132.003 	 
H 	 -91.644 	 51.8421 	 132.839 	 
C 	 -90.2105 	 53.215 	 131.893 	 
H 	 -90.0749 	 53.6475 	 130.922 	 
H 	 -90.168 	 54.0693 	 132.643 	 
H 	 -89.3228 	 52.6196 	 132.02 	 
S 	 -86.7176 	 48.8179 	 127.868 	 
C 	 -85.1301 	 49.4354 	 127.543 	 
C 	 -85.0158 	 50.7113 	 128.1 	 
C 	 -86.1306 	 51.1452 	 128.882 	 
C 	 -87.0818 	 50.1402 	 129.001 	 
H 	 -84.2037 	 51.3902 	 127.88 	 
C 	 -86.0443 	 52.5047 	 129.504 	 
H 	 -86.9538 	 52.8196 	 130.019 	 
H 	 -85.904 	 53.1734 	 128.669 	 
C 	 -85.0515 	 52.7805 	 130.689 	 
H 	 -85.1024 	 53.947 	 131.038 	 
H 	 -84.0679 	 52.5179 	 130.346 	 
C 	 -85.3265 	 51.9721 	 131.988 	 
H 	 -85.2482 	 50.8906 	 131.702 	 
H 	 -86.2994 	 52.2153 	 132.353 	 
H 	 -84.6308 	 52.1842 	 132.808 	 
H 	 -90.885 	 49.1494 	 131.983 	 
H 	 -84.3884 	 48.9866 	 126.929 	 
*
