! wB97X-D3 SP def2-SVP
%pal
nprocs 16
end

* xyz 0 1
S 	 49.6884 	 21.2423 	 82.934 	 
C 	 50.2327 	 22.4998 	 84.0437 	 
C 	 50.6473 	 21.985 	 85.268 	 
C 	 50.6238 	 20.5465 	 85.274 	 
C 	 50.2155 	 19.9993 	 84.0732 	 
H 	 50.9372 	 20.0449 	 86.1191 	 
C 	 51.1762 	 22.7248 	 86.4904 	 
H 	 51.4167 	 22.0208 	 87.3127 	 
H 	 50.3171 	 23.2891 	 86.8808 	 
C 	 52.3806 	 23.7069 	 86.2513 	 
H 	 51.9381 	 24.6258 	 85.7263 	 
H 	 52.5902 	 24.1029 	 87.242 	 
C 	 53.7235 	 23.254 	 85.7222 	 
H 	 54.4118 	 24.1074 	 85.6321 	 
H 	 54.1991 	 22.4982 	 86.3056 	 
H 	 53.5032 	 22.7327 	 84.714 	 
S 	 48.4143 	 17.9503 	 83.8202 	 
C 	 49.015 	 16.3093 	 83.9306 	 
C 	 50.3356 	 16.2516 	 84.0864 	 
C 	 50.9934 	 17.4783 	 84.0435 	 
C 	 50.0843 	 18.5574 	 83.9764 	 
H 	 50.8059 	 15.3265 	 84.1959 	 
C 	 52.5152 	 17.5507 	 84.2479 	 
H 	 53.0032 	 16.6209 	 84.1539 	 
H 	 52.678 	 17.5514 	 85.3706 	 
C 	 53.2982 	 18.7077 	 83.5918 	 
H 	 54.3756 	 18.6332 	 83.9618 	 
H 	 52.8219 	 19.6173 	 83.9999 	 
C 	 53.2141 	 18.768 	 82.0277 	 
H 	 53.6389 	 17.795 	 81.601 	 
H 	 53.7574 	 19.5735 	 81.5642 	 
H 	 52.1743 	 18.8253 	 81.7635 	 
H 	 50.0487 	 23.5505 	 83.7551 	 
H 	 48.5273 	 15.359 	 84.0017 	 
*
