! wB97X-D3 SP def2-SVP
%pal
nprocs 16
end

* xyz 0 1
S 	 19.7899 	 -9.15019 	 81.5833 	 
C 	 18.8846 	 -7.69188 	 81.3819 	 
C 	 17.4735 	 -7.88812 	 81.297 	 
C 	 17.1828 	 -9.25752 	 81.389 	 
C 	 18.3039 	 -10.0936 	 81.4695 	 
H 	 16.2241 	 -9.67829 	 81.4594 	 
C 	 16.4168 	 -6.80776 	 81.1062 	 
H 	 16.6273 	 -5.84228 	 81.6932 	 
H 	 15.509 	 -7.33364 	 81.4946 	 
C 	 16.1689 	 -6.49189 	 79.5876 	 
H 	 17.117 	 -5.99501 	 79.2688 	 
H 	 16.0719 	 -7.46793 	 79.0617 	 
C 	 14.8313 	 -5.70644 	 79.4642 	 
H 	 14.5326 	 -5.37877 	 78.4833 	 
H 	 13.9617 	 -6.21191 	 79.9373 	 
H 	 14.8922 	 -4.79573 	 79.9967 	 
S 	 18.4895 	 -12.3438 	 82.9047 	 
C 	 18.5234 	 -13.8962 	 82.1388 	 
C 	 18.7542 	 -13.7839 	 80.8286 	 
C 	 18.5724 	 -12.4665 	 80.3327 	 
C 	 18.3682 	 -11.5418 	 81.373 	 
H 	 18.9825 	 -14.6165 	 80.1998 	 
C 	 18.4437 	 -12.2145 	 78.8263 	 
H 	 18.8994 	 -13.0147 	 78.2502 	 
H 	 19.129 	 -11.3701 	 78.5297 	 
C 	 17.066 	 -11.9545 	 78.1915 	 
H 	 17.148 	 -11.5958 	 77.1053 	 
H 	 16.6138 	 -11.071 	 78.6902 	 
C 	 15.9917 	 -13.003 	 78.3972 	 
H 	 15.6396 	 -13.0149 	 79.4457 	 
H 	 16.396 	 -13.9719 	 78.1059 	 
H 	 15.0894 	 -12.7489 	 77.8873 	 
H 	 19.3295 	 -6.71795 	 81.4557 	 
H 	 18.6468 	 -14.8322 	 82.6458 	 
*
