! wB97X-D3 SP def2-SVP
%pal
nprocs 16
end

* xyz 0 1
S 	 15.6542 	 -11.276 	 79.5478 	 
C 	 17.1157 	 -10.9326 	 78.6216 	 
C 	 17.0892 	 -11.4612 	 77.3774 	 
C 	 15.9712 	 -12.3541 	 77.3231 	 
C 	 15.0486 	 -12.3828 	 78.3688 	 
H 	 15.8375 	 -13.0657 	 76.4895 	 
C 	 18.1236 	 -11.3227 	 76.3252 	 
H 	 18.6969 	 -12.2044 	 76.408 	 
H 	 18.8404 	 -10.5067 	 76.4637 	 
C 	 17.6306 	 -11.2161 	 74.9105 	 
H 	 16.8383 	 -11.9683 	 74.6913 	 
H 	 17.201 	 -10.2634 	 74.7709 	 
C 	 18.6391 	 -11.3916 	 73.8341 	 
H 	 19.167 	 -10.4941 	 73.6046 	 
H 	 19.3367 	 -12.1227 	 74.161 	 
H 	 18.229 	 -11.7256 	 72.8627 	 
S 	 14.4435 	 -14.6247 	 79.7408 	 
C 	 13.2631 	 -15.6623 	 79.1289 	 
C 	 12.5213 	 -15.0984 	 78.1675 	 
C 	 12.9959 	 -13.822 	 77.8048 	 
C 	 14.0252 	 -13.3748 	 78.5935 	 
H 	 11.7597 	 -15.7013 	 77.7093 	 
C 	 12.4318 	 -13.1185 	 76.5897 	 
H 	 11.7172 	 -13.6827 	 76.035 	 
H 	 13.2823 	 -13.0045 	 75.849 	 
C 	 11.7192 	 -11.7376 	 76.9072 	 
H 	 12.4091 	 -11.2002 	 77.634 	 
H 	 10.7804 	 -11.9687 	 77.3726 	 
C 	 11.463 	 -10.8307 	 75.7313 	 
H 	 12.3772 	 -10.3856 	 75.3557 	 
H 	 10.5912 	 -10.1382 	 75.866 	 
H 	 11.0534 	 -11.3543 	 74.9196 	 
H 	 18.0069 	 -10.4244 	 79.0351 	 
H 	 13.1016 	 -16.6834 	 79.4893 	 
*
