! wB97X-D3 SP def2-SVP
%pal
nprocs 16
end

* xyz 0 1
S 	 54.793 	 15.3248 	 77.9666 	 
C 	 56.5228 	 15.4469 	 77.6212 	 
C 	 57.2283 	 14.4438 	 78.1981 	 
C 	 56.3956 	 13.4468 	 78.7938 	 
C 	 55.061 	 13.7593 	 78.7901 	 
H 	 56.5691 	 12.5357 	 79.3082 	 
C 	 58.7408 	 14.1365 	 78.0274 	 
H 	 59.035 	 14.1513 	 76.976 	 
H 	 58.76 	 13.0333 	 78.3481 	 
C 	 59.6158 	 15.0699 	 78.8082 	 
H 	 59.4421 	 14.9065 	 79.8879 	 
H 	 60.5912 	 14.6021 	 78.7409 	 
C 	 59.7254 	 16.4356 	 78.3634 	 
H 	 59.5695 	 16.564 	 77.3226 	 
H 	 58.9788 	 17.0431 	 78.8582 	 
H 	 60.7307 	 16.7718 	 78.6852 	 
S 	 52.7518 	 13.5352 	 80.2993 	 
C 	 51.8419 	 11.9847 	 80.1684 	 
C 	 52.5427 	 11.027 	 79.4301 	 
C 	 53.7035 	 11.5884 	 78.8416 	 
C 	 53.9909 	 12.8993 	 79.1866 	 
H 	 52.2626 	 9.97379 	 79.3571 	 
C 	 54.523 	 10.7776 	 77.8734 	 
H 	 54.3381 	 9.77155 	 78.2469 	 
H 	 55.5547 	 11.0313 	 78.0549 	 
C 	 54.0507 	 10.8808 	 76.4142 	 
H 	 54.2811 	 11.8736 	 76.0137 	 
H 	 52.9985 	 10.6298 	 76.3503 	 
C 	 54.8765 	 9.89545 	 75.5006 	 
H 	 54.6277 	 8.90163 	 75.7758 	 
H 	 55.9435 	 9.92746 	 75.6501 	 
H 	 54.5857 	 10.0582 	 74.4539 	 
H 	 56.9356 	 16.3227 	 77.0787 	 
H 	 51.0109 	 11.5249 	 80.784 	 
*
