! wB97X-D3 SP def2-SVP
%pal
nprocs 16
end

* xyz 0 1
S 	 -4.6601 	 73.2322 	 47.7678 	 
C 	 -3.1172 	 74.0591 	 47.626 	 
C 	 -2.09631 	 73.3629 	 48.2179 	 
C 	 -2.53825 	 72.2533 	 48.84 	 
C 	 -3.88742 	 71.9647 	 48.6787 	 
H 	 -1.93953 	 71.5647 	 49.4318 	 
C 	 -0.64965 	 73.7538 	 48.288 	 
H 	 -0.583037 	 74.8042 	 47.867 	 
H 	 -0.114561 	 73.1221 	 47.5891 	 
C 	 0.0623728 	 73.6081 	 49.6272 	 
H 	 -0.477933 	 74.1773 	 50.3667 	 
H 	 0.135404 	 72.6118 	 50.0236 	 
C 	 1.46527 	 74.1373 	 49.4933 	 
H 	 1.90608 	 74.0169 	 50.5134 	 
H 	 2.03193 	 73.4444 	 48.8736 	 
H 	 1.52008 	 75.083 	 49.0588 	 
S 	 -5.88597 	 71.4719 	 50.4408 	 
C 	 -6.05199 	 69.875 	 51.1227 	 
C 	 -5.22178 	 68.9608 	 50.4725 	 
C 	 -4.49563 	 69.5696 	 49.4071 	 
C 	 -4.62794 	 70.9283 	 49.3613 	 
H 	 -5.09787 	 67.9439 	 50.894 	 
C 	 -3.60232 	 68.7503 	 48.44 	 
H 	 -3.51983 	 67.7784 	 48.9042 	 
H 	 -2.58274 	 69.085 	 48.4967 	 
C 	 -3.98991 	 68.7068 	 47.0075 	 
H 	 -3.14476 	 68.3077 	 46.4282 	 
H 	 -4.25773 	 69.6858 	 46.6153 	 
C 	 -5.36445 	 68.0286 	 46.9171 	 
H 	 -5.35665 	 66.9949 	 47.2265 	 
H 	 -5.62631 	 68.1801 	 45.8654 	 
H 	 -6.15659 	 68.4789 	 47.4975 	 
H 	 -3.00488 	 75.0132 	 47.0943 	 
H 	 -6.67483 	 69.7305 	 52.0131 	 
*
