! wB97X-D3 SP def2-SVP
%pal
nprocs 16
end

* xyz 0 1
S 	 -15.9447 	 -11.8946 	 90.318 	 
C 	 -16.3137 	 -11.5576 	 88.6225 	 
C 	 -15.4794 	 -10.6107 	 88.0425 	 
C 	 -14.426 	 -10.3131 	 88.9434 	 
C 	 -14.5801 	 -10.8967 	 90.2067 	 
H 	 -13.5817 	 -9.76212 	 88.6055 	 
C 	 -15.6707 	 -10.0303 	 86.7157 	 
H 	 -16.2693 	 -10.7946 	 86.2564 	 
H 	 -14.6605 	 -10.0525 	 86.3361 	 
C 	 -16.4087 	 -8.62804 	 86.7269 	 
H 	 -17.3266 	 -8.65681 	 87.313 	 
H 	 -15.7331 	 -8.02653 	 87.2965 	 
C 	 -16.5195 	 -7.87258 	 85.3852 	 
H 	 -17.0077 	 -6.93011 	 85.5919 	 
H 	 -15.5683 	 -7.65422 	 84.8931 	 
H 	 -17.2179 	 -8.44947 	 84.764 	 
S 	 -14.2558 	 -9.24834 	 92.3999 	 
C 	 -12.8968 	 -9.55497 	 93.457 	 
C 	 -12.1482 	 -10.6548 	 93.1127 	 
C 	 -12.5951 	 -11.2673 	 91.8989 	 
C 	 -13.7477 	 -10.6902 	 91.3756 	 
H 	 -11.3599 	 -10.928 	 93.8489 	 
C 	 -11.8694 	 -12.5339 	 91.3428 	 
H 	 -10.7654 	 -12.4084 	 91.5082 	 
H 	 -12.0848 	 -12.69 	 90.283 	 
C 	 -12.1928 	 -13.8954 	 92.0949 	 
H 	 -11.5519 	 -14.7866 	 91.8669 	 
H 	 -13.0995 	 -14.1829 	 91.8322 	 
C 	 -12.1258 	 -13.7179 	 93.6549 	 
H 	 -12.878 	 -13.1367 	 94.1466 	 
H 	 -11.1504 	 -13.412 	 94.0528 	 
H 	 -12.1993 	 -14.7276 	 94.0623 	 
H 	 -17.2046 	 -11.8882 	 88.1263 	 
H 	 -12.796 	 -9.17145 	 94.4518 	 
*
