! wB97X-D3 SP def2-SVP
%pal
nprocs 16
end

* xyz 0 1
S 	 2.23396 	 -17.345 	 49.1372 	 
C 	 0.495789 	 -17.3345 	 49.1592 	 
C 	 -0.00513482 	 -16.1959 	 49.8013 	 
C 	 1.02811 	 -15.3277 	 50.2725 	 
C 	 2.31458 	 -15.7889 	 50 	 
H 	 1.00943 	 -14.4574 	 50.8859 	 
C 	 -1.3823 	 -15.7891 	 49.989 	 
H 	 -1.55047 	 -15.1011 	 50.8835 	 
H 	 -1.95228 	 -16.6924 	 50.1925 	 
C 	 -2.18545 	 -15.2957 	 48.8144 	 
H 	 -3.28513 	 -15.3071 	 48.893 	 
H 	 -2.00607 	 -14.177 	 48.743 	 
C 	 -1.8282 	 -15.9316 	 47.4764 	 
H 	 -1.72855 	 -16.9952 	 47.5816 	 
H 	 -2.62036 	 -15.6625 	 46.876 	 
H 	 -0.957568 	 -15.4732 	 47.0444 	 
S 	 4.81196 	 -16.205 	 50.9399 	 
C 	 5.88868 	 -14.8542 	 51.2883 	 
C 	 5.32973 	 -13.6666 	 50.8763 	 
C 	 4.02138 	 -13.8338 	 50.2338 	 
C 	 3.54693 	 -15.1332 	 50.2609 	 
H 	 5.9825 	 -12.7769 	 50.9707 	 
C 	 3.19276 	 -12.6793 	 49.7069 	 
H 	 2.42332 	 -12.4715 	 50.3868 	 
H 	 2.61666 	 -13.129 	 48.9359 	 
C 	 4.02095 	 -11.4703 	 49.3254 	 
H 	 4.84602 	 -11.7994 	 48.6622 	 
H 	 4.63025 	 -11.1512 	 50.181 	 
C 	 3.28475 	 -10.2323 	 49.0134 	 
H 	 2.63725 	 -9.92025 	 49.8281 	 
H 	 2.61072 	 -10.4387 	 48.2091 	 
H 	 3.84215 	 -9.41106 	 48.6136 	 
H 	 -0.0839715 	 -18.1829 	 48.891 	 
H 	 6.89464 	 -14.9632 	 51.6713 	 
*
