! wB97X-D3 SP def2-SVP
%pal
nprocs 16
end

* xyz 0 1
S 	 -105.057 	 43.7421 	 132.252 	 
C 	 -104.252 	 44.4418 	 133.605 	 
C 	 -105.129 	 45.3209 	 134.197 	 
C 	 -106.506 	 45.2984 	 133.696 	 
C 	 -106.53 	 44.4702 	 132.56 	 
H 	 -107.333 	 45.8408 	 134.127 	 
C 	 -104.669 	 46.2503 	 135.379 	 
H 	 -104.4 	 47.2551 	 134.969 	 
H 	 -103.699 	 45.8804 	 135.772 	 
C 	 -105.699 	 46.3828 	 136.583 	 
H 	 -105.274 	 47.0533 	 137.351 	 
H 	 -106.597 	 46.8819 	 136.258 	 
C 	 -105.993 	 45.0444 	 137.239 	 
H 	 -106.635 	 45.1282 	 138.071 	 
H 	 -106.586 	 44.4119 	 136.601 	 
H 	 -105.112 	 44.4957 	 137.64 	 
S 	 -107.264 	 43.5759 	 130.117 	 
C 	 -108.904 	 43.4322 	 129.553 	 
C 	 -109.719 	 43.6722 	 130.616 	 
C 	 -109.082 	 44.2146 	 131.865 	 
C 	 -107.651 	 44.2167 	 131.693 	 
H 	 -110.771 	 43.3798 	 130.493 	 
C 	 -109.874 	 44.7228 	 133.048 	 
H 	 -109.419 	 44.5509 	 133.959 	 
H 	 -110.881 	 44.1297 	 133.034 	 
C 	 -110.184 	 46.2091 	 133.013 	 
H 	 -110.551 	 46.3683 	 131.979 	 
H 	 -109.232 	 46.8417 	 133.059 	 
C 	 -111.307 	 46.7329 	 133.989 	 
H 	 -111.479 	 47.8258 	 133.857 	 
H 	 -110.903 	 46.5773 	 135.027 	 
H 	 -112.289 	 46.2376 	 133.866 	 
H 	 -103.208 	 44.2854 	 133.897 	 
H 	 -109.287 	 43.2342 	 128.593 	 
*
