! wB97X-D3 SP def2-SVP
%pal
nprocs 16
end

* xyz 0 1
S 	 -65.7891 	 40.6254 	 137.078 	 
C 	 -65.9566 	 39.6989 	 138.514 	 
C 	 -66.0674 	 38.3164 	 138.259 	 
C 	 -66.0694 	 38.0124 	 136.863 	 
C 	 -65.9536 	 39.1517 	 136.051 	 
H 	 -66.2604 	 37.0259 	 136.499 	 
C 	 -66.3915 	 37.2895 	 139.321 	 
H 	 -66.1321 	 37.6074 	 140.314 	 
H 	 -65.8019 	 36.393 	 139.207 	 
C 	 -67.8425 	 36.7407 	 139.327 	 
H 	 -67.9824 	 36.0471 	 138.545 	 
H 	 -67.9843 	 36.2565 	 140.299 	 
C 	 -68.8703 	 37.9072 	 139.184 	 
H 	 -68.9001 	 38.4375 	 140.182 	 
H 	 -68.5207 	 38.7507 	 138.547 	 
H 	 -69.9042 	 37.554 	 138.946 	 
S 	 -67.2876 	 39.4031 	 133.627 	 
C 	 -66.3905 	 39.3943 	 132.152 	 
C 	 -65.1581 	 38.9544 	 132.35 	 
C 	 -64.8031 	 38.8731 	 133.737 	 
C 	 -65.8434 	 39.2182 	 134.575 	 
H 	 -64.4476 	 38.9553 	 131.58 	 
C 	 -63.4803 	 38.3709 	 134.219 	 
H 	 -63.3414 	 37.4488 	 133.721 	 
H 	 -63.4902 	 38.2523 	 135.271 	 
C 	 -62.2815 	 39.3209 	 134.039 	 
H 	 -62.1791 	 39.5481 	 132.972 	 
H 	 -61.3931 	 38.7846 	 134.242 	 
C 	 -62.3307 	 40.5884 	 134.845 	 
H 	 -63.2524 	 41.2265 	 134.618 	 
H 	 -61.5508 	 41.2632 	 134.618 	 
H 	 -62.3313 	 40.4547 	 135.945 	 
H 	 -65.9482 	 40.053 	 139.539 	 
H 	 -66.8497 	 39.473 	 131.2 	 
*
