! wB97X-D3 SP def2-SVP
%pal
nprocs 16
end

* xyz 0 1
S 	 -55.0128 	 36.6655 	 115.78 	 
C 	 -53.3154 	 36.1808 	 115.811 	 
C 	 -52.5058 	 37.0288 	 115.102 	 
C 	 -53.3664 	 37.9735 	 114.463 	 
C 	 -54.7145 	 37.9958 	 114.77 	 
H 	 -53.0403 	 38.8043 	 113.745 	 
C 	 -51.0071 	 37.0588 	 115.075 	 
H 	 -50.9268 	 36.1132 	 114.475 	 
H 	 -50.5394 	 36.7098 	 116.073 	 
C 	 -50.1927 	 38.2619 	 114.461 	 
H 	 -49.3349 	 37.7828 	 114.088 	 
H 	 -50.5379 	 38.6821 	 113.493 	 
C 	 -49.8385 	 39.347 	 115.502 	 
H 	 -50.2489 	 39.1711 	 116.447 	 
H 	 -48.7266 	 39.4375 	 115.654 	 
H 	 -50.1379 	 40.3308 	 115.196 	 
S 	 -56.772 	 37.7827 	 112.988 	 
C 	 -57.6974 	 39.1844 	 112.598 	 
C 	 -57.1899 	 40.3325 	 113.208 	 
C 	 -55.9991 	 40.0277 	 114.005 	 
C 	 -55.6931 	 38.6819 	 114.023 	 
H 	 -57.5492 	 41.3435 	 112.916 	 
C 	 -55.2005 	 41.0889 	 114.677 	 
H 	 -54.9167 	 41.9618 	 114.104 	 
H 	 -54.2179 	 40.6466 	 115.022 	 
C 	 -55.8344 	 41.5219 	 115.953 	 
H 	 -55.6458 	 40.7643 	 116.666 	 
H 	 -56.9179 	 41.6356 	 115.905 	 
C 	 -55.2663 	 42.7453 	 116.601 	 
H 	 -54.1283 	 42.6736 	 116.564 	 
H 	 -55.5868 	 42.5558 	 117.608 	 
H 	 -55.6337 	 43.7219 	 116.155 	 
H 	 -52.9709 	 35.4629 	 116.528 	 
H 	 -58.4722 	 39.2349 	 111.852 	 
*
