! wB97X-D3 SP def2-SVP
%pal
nprocs 16
end

* xyz 0 1
S 	 -69.8694 	 37.1118 	 125.397 	 
C 	 -68.4397 	 37.1234 	 126.522 	 
C 	 -68.4759 	 38.1688 	 127.409 	 
C 	 -69.7117 	 38.8046 	 127.332 	 
C 	 -70.6729 	 38.2964 	 126.413 	 
H 	 -69.9884 	 39.7301 	 127.937 	 
C 	 -67.3436 	 38.599 	 128.298 	 
H 	 -67.1636 	 39.649 	 128.165 	 
H 	 -66.3568 	 38.0965 	 128.044 	 
C 	 -67.6311 	 38.1099 	 129.744 	 
H 	 -68.5584 	 38.4674 	 130.22 	 
H 	 -67.8655 	 37.0976 	 129.672 	 
C 	 -66.4424 	 38.3886 	 130.669 	 
H 	 -66.1207 	 39.4038 	 130.688 	 
H 	 -66.882 	 38.1406 	 131.648 	 
H 	 -65.5595 	 37.8277 	 130.542 	 
S 	 -73.0105 	 39.0661 	 127.574 	 
C 	 -74.4184 	 39.2687 	 126.555 	 
C 	 -74.1803 	 38.9539 	 125.22 	 
C 	 -72.835 	 38.6202 	 124.929 	 
C 	 -72.071 	 38.6931 	 126.127 	 
H 	 -75.0263 	 39.03 	 124.521 	 
C 	 -72.4427 	 38.3556 	 123.546 	 
H 	 -73.2876 	 37.8242 	 123.055 	 
H 	 -71.6178 	 37.6903 	 123.456 	 
C 	 -72.0579 	 39.7054 	 122.821 	 
H 	 -71.0524 	 39.9563 	 123.059 	 
H 	 -72.6305 	 40.4981 	 123.255 	 
C 	 -72.2405 	 39.616 	 121.314 	 
H 	 -73.0531 	 38.9778 	 121.065 	 
H 	 -71.3438 	 39.0562 	 120.949 	 
H 	 -72.251 	 40.5423 	 120.804 	 
H 	 -67.6102 	 36.4613 	 126.375 	 
H 	 -75.3665 	 39.6121 	 127.085 	 
*
