! wB97X-D3 SP def2-SVP
%pal
nprocs 16
end

* xyz 0 1
S 	 -33.5159 	 31.7014 	 40.9986 	 
C 	 -31.7729 	 31.9875 	 40.7851 	 
C 	 -31.039 	 31.6978 	 41.9224 	 
C 	 -31.9496 	 31.3873 	 43.0249 	 
C 	 -33.2828 	 31.3272 	 42.6777 	 
H 	 -31.5561 	 31.06 	 43.9928 	 
C 	 -29.4362 	 31.9128 	 42.0394 	 
H 	 -29.2114 	 31.6605 	 43.0698 	 
H 	 -29.2375 	 32.9361 	 41.8726 	 
C 	 -28.5147 	 31.215 	 41.104 	 
H 	 -28.8119 	 31.4749 	 40.1273 	 
H 	 -27.541 	 31.7252 	 41.2076 	 
C 	 -28.451 	 29.6097 	 41.2396 	 
H 	 -29.3964 	 29.2311 	 40.8061 	 
H 	 -27.6992 	 29.1675 	 40.5562 	 
H 	 -28.3624 	 29.2411 	 42.2305 	 
S 	 -35.5667 	 29.864 	 42.5961 	 
C 	 -36.5016 	 29.4968 	 44.1106 	 
C 	 -35.995 	 30.2824 	 45.1408 	 
C 	 -34.9069 	 31.0861 	 44.721 	 
C 	 -34.42 	 30.8605 	 43.476 	 
H 	 -36.4591 	 30.2334 	 46.0936 	 
C 	 -34.1939 	 32.0638 	 45.746 	 
H 	 -34.8494 	 32.9121 	 45.9379 	 
H 	 -33.2439 	 32.3838 	 45.3398 	 
C 	 -33.829 	 31.4012 	 47.0937 	 
H 	 -34.7439 	 31.0069 	 47.6128 	 
H 	 -33.431 	 32.2147 	 47.6843 	 
C 	 -32.8594 	 30.2544 	 47.0069 	 
H 	 -32.1021 	 30.563 	 46.3427 	 
H 	 -33.3982 	 29.3722 	 46.5845 	 
H 	 -32.3916 	 30.2133 	 48.0392 	 
H 	 -31.3617 	 32.3763 	 39.872 	 
H 	 -37.2338 	 28.7571 	 44.2838 	 
*
