! wB97X-D3 SP def2-SVP
%pal
nprocs 16
end

* xyz 0 1
S 	 1.67317 	 35.2224 	 36.8886 	 
C 	 1.81427 	 33.4892 	 36.9401 	 
C 	 0.700068 	 32.9063 	 37.5243 	 
C 	 -0.347145 	 33.8921 	 37.7857 	 
C 	 0.107998 	 35.1951 	 37.6012 	 
H 	 -1.36687 	 33.7848 	 38.0691 	 
C 	 0.498733 	 31.4617 	 37.8236 	 
H 	 0.944944 	 30.8166 	 37.1151 	 
H 	 -0.610931 	 31.2233 	 37.7774 	 
C 	 0.973232 	 31.1216 	 39.2383 	 
H 	 1.88659 	 31.6308 	 39.5329 	 
H 	 0.276829 	 31.5923 	 39.9944 	 
C 	 1.17977 	 29.5854 	 39.5827 	 
H 	 1.63462 	 29.3503 	 40.5711 	 
H 	 0.287532 	 29.011 	 39.4354 	 
H 	 1.85275 	 29.0944 	 38.872 	 
S 	 -0.463858 	 37.651 	 36.5085 	 
C 	 -1.64647 	 38.6813 	 37.3407 	 
C 	 -2.04157 	 38.0583 	 38.5598 	 
C 	 -1.45228 	 36.7814 	 38.7984 	 
C 	 -0.659976 	 36.3993 	 37.7043 	 
H 	 -2.69126 	 38.6068 	 39.2347 	 
C 	 -1.64921 	 36.05 	 40.0735 	 
H 	 -1.50535 	 36.6378 	 40.9373 	 
H 	 -0.777801 	 35.3194 	 40.2674 	 
C 	 -2.95862 	 35.2451 	 40.1526 	 
H 	 -2.94813 	 34.6979 	 39.2134 	 
H 	 -3.76502 	 36.0337 	 40.1797 	 
C 	 -3.0875 	 34.2863 	 41.3636 	 
H 	 -2.24571 	 33.527 	 41.378 	 
H 	 -3.92911 	 33.6277 	 41.4813 	 
H 	 -3.04988 	 34.8654 	 42.2766 	 
H 	 2.60144 	 32.8974 	 36.6118 	 
H 	 -1.96794 	 39.6335 	 36.9693 	 
*
