! wB97X-D3 SP def2-SVP
%pal
nprocs 16
end

* xyz 0 1
S 	 3.5125 	 -24.1454 	 60.9654 	 
C 	 2.23916 	 -25.3443 	 60.6422 	 
C 	 2.74793 	 -26.636 	 60.6066 	 
C 	 4.1962 	 -26.5763 	 60.7292 	 
C 	 4.73465 	 -25.3534 	 60.9392 	 
H 	 4.82205 	 -27.4751 	 60.6706 	 
C 	 2.05289 	 -27.9396 	 60.29 	 
H 	 2.63742 	 -28.5131 	 59.5737 	 
H 	 1.2687 	 -27.6157 	 59.6665 	 
C 	 1.49608 	 -28.8041 	 61.4717 	 
H 	 2.34436 	 -29.2085 	 61.959 	 
H 	 0.975722 	 -28.1017 	 62.1868 	 
C 	 0.488283 	 -29.8801 	 61.0258 	 
H 	 0.177147 	 -30.4652 	 61.8857 	 
H 	 -0.351176 	 -29.4643 	 60.518 	 
H 	 0.857947 	 -30.5065 	 60.2618 	 
S 	 6.89962 	 -24.1594 	 59.7542 	 
C 	 8.57413 	 -24.476 	 60.3427 	 
C 	 8.48547 	 -25.3376 	 61.4494 	 
C 	 7.18541 	 -25.6987 	 61.7526 	 
C 	 6.17438 	 -25.0929 	 61.004 	 
H 	 9.39983 	 -25.7714 	 61.8519 	 
C 	 7.02452 	 -26.6595 	 62.8926 	 
H 	 5.91351 	 -26.908 	 62.9659 	 
H 	 7.35349 	 -26.1822 	 63.8551 	 
C 	 7.72359 	 -28.0624 	 62.6627 	 
H 	 7.57108 	 -28.5839 	 63.5991 	 
H 	 8.80184 	 -27.9242 	 62.6069 	 
C 	 7.15333 	 -28.9227 	 61.4787 	 
H 	 7.79068 	 -29.7103 	 61.2791 	 
H 	 7.22774 	 -28.4321 	 60.5587 	 
H 	 6.25509 	 -29.4729 	 61.6878 	 
H 	 1.17324 	 -25.2274 	 60.4531 	 
H 	 9.53365 	 -24.1744 	 59.9147 	 
*
