! wB97X-D3 SP def2-SVP
%pal
nprocs 16
end

* xyz 0 1
S 	 -94.3015 	 40.1922 	 115.577 	 
C 	 -93.2698 	 38.8917 	 115.827 	 
C 	 -92.0205 	 39.355 	 116.225 	 
C 	 -91.8898 	 40.7627 	 116.318 	 
C 	 -93.1441 	 41.4028 	 116.071 	 
H 	 -91.0046 	 41.3439 	 116.491 	 
C 	 -90.8564 	 38.4571 	 116.512 	 
H 	 -89.915 	 38.9856 	 116.365 	 
H 	 -90.9541 	 37.5468 	 116.031 	 
C 	 -90.8495 	 38.0856 	 118 	 
H 	 -90.9526 	 38.9432 	 118.63 	 
H 	 -91.7632 	 37.4963 	 118.094 	 
C 	 -89.6632 	 37.2369 	 118.22 	 
H 	 -89.6609 	 37.0369 	 119.31 	 
H 	 -89.5452 	 36.4086 	 117.56 	 
H 	 -88.816 	 37.8824 	 118.077 	 
S 	 -94.2878 	 43.45 	 114.553 	 
C 	 -93.9796 	 45.1066 	 115.065 	 
C 	 -93.3915 	 45.1885 	 116.29 	 
C 	 -93.2104 	 43.8765 	 116.895 	 
C 	 -93.4745 	 42.8371 	 115.999 	 
H 	 -93.0562 	 46.0811 	 116.767 	 
C 	 -92.5514 	 43.6141 	 118.266 	 
H 	 -91.6645 	 43.1398 	 117.856 	 
H 	 -93.2146 	 42.929 	 118.788 	 
C 	 -92.2637 	 44.8274 	 119.161 	 
H 	 -93.0782 	 45.4342 	 119.448 	 
H 	 -91.576 	 45.3777 	 118.61 	 
C 	 -91.6756 	 44.5133 	 120.559 	 
H 	 -90.8305 	 43.8356 	 120.436 	 
H 	 -92.3732 	 44.0315 	 121.346 	 
H 	 -91.2454 	 45.3654 	 121.12 	 
H 	 -93.5752 	 37.8529 	 115.791 	 
H 	 -94.2576 	 45.9616 	 114.466 	 
*
