! wB97X-D3 SP def2-SVP
%pal
nprocs 16
end

* xyz 0 1
S 	 -7.82867 	 7.77791 	 84.3758 	 
C 	 -8.71163 	 6.52949 	 85.0822 	 
C 	 -8.40693 	 6.3888 	 86.4374 	 
C 	 -7.29473 	 7.19411 	 86.8596 	 
C 	 -6.81912 	 7.949 	 85.8194 	 
H 	 -6.73846 	 7.20239 	 87.8065 	 
C 	 -9.05987 	 5.34899 	 87.4402 	 
H 	 -8.581 	 4.39587 	 87.0809 	 
H 	 -10.1827 	 5.26115 	 87.2816 	 
C 	 -8.78639 	 5.4927 	 88.987 	 
H 	 -7.68543 	 5.43925 	 89.1743 	 
H 	 -8.98684 	 6.52354 	 89.3608 	 
C 	 -9.54632 	 4.46094 	 89.8222 	 
H 	 -9.0803 	 3.4181 	 89.8064 	 
H 	 -9.42535 	 4.80252 	 90.8955 	 
H 	 -10.616 	 4.39859 	 89.7456 	 
S 	 -6.05595 	 10.4341 	 86.6704 	 
C 	 -4.44461 	 10.9788 	 86.3407 	 
C 	 -3.66139 	 9.95544 	 85.7704 	 
C 	 -4.42086 	 8.78045 	 85.5572 	 
C 	 -5.79682 	 8.94119 	 85.8379 	 
H 	 -2.65711 	 10.0207 	 85.6671 	 
C 	 -3.76784 	 7.58328 	 84.9821 	 
H 	 -3.40405 	 7.93672 	 83.9916 	 
H 	 -4.57208 	 6.83474 	 84.8093 	 
C 	 -2.66929 	 6.96297 	 85.8507 	 
H 	 -2.11501 	 7.80821 	 86.2686 	 
H 	 -1.94501 	 6.34044 	 85.3454 	 
C 	 -3.16764 	 6.2741 	 87.1579 	 
H 	 -2.34985 	 5.93751 	 87.7711 	 
H 	 -3.95509 	 5.48956 	 87.0852 	 
H 	 -3.56382 	 6.92126 	 87.907 	 
H 	 -9.64328 	 6.22438 	 84.6749 	 
H 	 -3.98506 	 11.9425 	 86.5358 	 
*
