! wB97X-D3 SP def2-SVP
%pal
nprocs 16
end

* xyz 0 1
S 	 -72.6466 	 58.1903 	 123.491 	 
C 	 -73.1463 	 59.9014 	 123.348 	 
C 	 -73.4919 	 60.4147 	 124.587 	 
C 	 -73.5531 	 59.3911 	 125.559 	 
C 	 -73.2159 	 58.133 	 125.134 	 
H 	 -73.9604 	 59.5243 	 126.593 	 
C 	 -73.9267 	 61.8377 	 124.941 	 
H 	 -73.4937 	 62.4373 	 124.162 	 
H 	 -73.3746 	 62.0878 	 125.849 	 
C 	 -75.4496 	 62.0042 	 124.99 	 
H 	 -75.9117 	 61.8154 	 124.029 	 
H 	 -76.0127 	 61.2526 	 125.522 	 
C 	 -75.7707 	 63.406 	 125.59 	 
H 	 -75.9165 	 63.3012 	 126.649 	 
H 	 -75.2529 	 64.2161 	 125.171 	 
H 	 -76.8041 	 63.6521 	 125.258 	 
S 	 -74.5806 	 56.4034 	 126.853 	 
C 	 -73.7745 	 55.0307 	 127.572 	 
C 	 -72.4254 	 55.128 	 127.251 	 
C 	 -72.0411 	 56.198 	 126.403 	 
C 	 -73.1037 	 56.9614 	 126.028 	 
H 	 -71.7356 	 54.3684 	 127.603 	 
C 	 -70.5033 	 56.3208 	 126.015 	 
H 	 -69.9055 	 55.8793 	 126.842 	 
H 	 -70.2853 	 57.3835 	 126.025 	 
C 	 -69.9285 	 55.7201 	 124.741 	 
H 	 -70.4776 	 56.2607 	 123.931 	 
H 	 -70.1521 	 54.6731 	 124.606 	 
C 	 -68.4657 	 56.1581 	 124.461 	 
H 	 -68.2337 	 57.2252 	 124.65 	 
H 	 -68.1583 	 56.091 	 123.425 	 
H 	 -67.8239 	 55.5281 	 124.985 	 
H 	 -73.0445 	 60.4775 	 122.426 	 
H 	 -74.1361 	 54.3739 	 128.339 	 
*
