! wB97X-D3 SP def2-SVP
%pal
nprocs 16
end

* xyz 0 1
S 	 -41.0833 	 57.3873 	 109.007 	 
C 	 -42.4715 	 58.2935 	 108.295 	 
C 	 -42.4653 	 58.2105 	 106.912 	 
C 	 -41.2396 	 57.6078 	 106.443 	 
C 	 -40.4358 	 57.0336 	 107.398 	 
H 	 -40.926 	 57.5616 	 105.428 	 
C 	 -43.3953 	 58.9079 	 105.916 	 
H 	 -43.8795 	 57.9686 	 105.532 	 
H 	 -42.8156 	 59.3748 	 105.074 	 
C 	 -44.5801 	 59.7818 	 106.437 	 
H 	 -45.1978 	 59.2119 	 107.123 	 
H 	 -44.1543 	 60.5745 	 107.106 	 
C 	 -45.4406 	 60.2924 	 105.3 	 
H 	 -46.1158 	 61.0793 	 105.717 	 
H 	 -44.8097 	 60.7617 	 104.543 	 
H 	 -45.9676 	 59.4562 	 104.807 	 
S 	 -37.6796 	 57.39 	 108.012 	 
C 	 -36.4259 	 56.5688 	 106.972 	 
C 	 -37.0506 	 55.7355 	 106.027 	 
C 	 -38.4891 	 55.8288 	 106.108 	 
C 	 -39.0445 	 56.6239 	 107.18 	 
H 	 -36.5303 	 55.0759 	 105.352 	 
C 	 -39.3509 	 54.9489 	 105.279 	 
H 	 -38.6894 	 54.935 	 104.414 	 
H 	 -40.3067 	 55.3533 	 104.93 	 
C 	 -39.616 	 53.518 	 105.793 	 
H 	 -39.9251 	 53.6059 	 106.849 	 
H 	 -38.6731 	 52.9675 	 105.701 	 
C 	 -40.5139 	 52.6765 	 104.914 	 
H 	 -41.5728 	 53.1352 	 104.936 	 
H 	 -40.711 	 51.6142 	 105.144 	 
H 	 -40.1853 	 52.8444 	 103.936 	 
H 	 -43.1505 	 58.8588 	 108.838 	 
H 	 -35.3278 	 56.6254 	 107.134 	 
*
