! wB97X-D3 SP def2-SVP
%pal
nprocs 16
end

* xyz 0 1
S 	 -1.78294 	 7.36042 	 84.4987 	 
C 	 -1.22471 	 6.91853 	 82.9321 	 
C 	 -1.60455 	 7.82103 	 81.9574 	 
C 	 -2.35816 	 8.9266 	 82.5048 	 
C 	 -2.39751 	 8.91285 	 83.8768 	 
H 	 -2.60791 	 9.81242 	 81.9383 	 
C 	 -1.3675 	 7.56969 	 80.4126 	 
H 	 -1.67705 	 6.59849 	 80.1809 	 
H 	 -0.29053 	 7.48928 	 80.177 	 
C 	 -2.03566 	 8.46908 	 79.4367 	 
H 	 -2.18323 	 7.95936 	 78.4943 	 
H 	 -3.03554 	 8.75459 	 79.8481 	 
C 	 -1.31305 	 9.83897 	 79.159 	 
H 	 -0.329476 	 9.66079 	 78.8535 	 
H 	 -1.73549 	 10.313 	 78.2889 	 
H 	 -1.357 	 10.542 	 80.0006 	 
S 	 -2.06021 	 10.6353 	 85.9867 	 
C 	 -3.39483 	 11.6069 	 86.5027 	 
C 	 -4.60657 	 11.2424 	 85.9014 	 
C 	 -4.36309 	 10.2615 	 84.8861 	 
C 	 -3.01511 	 9.86807 	 84.7418 	 
H 	 -5.60254 	 11.5808 	 86.1656 	 
C 	 -5.54322 	 9.69627 	 84.0659 	 
H 	 -5.05033 	 8.92532 	 83.4994 	 
H 	 -5.88775 	 10.5268 	 83.4897 	 
C 	 -6.64436 	 8.9914 	 84.8219 	 
H 	 -7.10573 	 9.61932 	 85.6182 	 
H 	 -6.30517 	 7.94759 	 85.1676 	 
C 	 -7.82497 	 8.61509 	 83.828 	 
H 	 -8.4021 	 9.48387 	 83.5549 	 
H 	 -8.48927 	 8.02332 	 84.4197 	 
H 	 -7.58112 	 8.15135 	 82.8095 	 
H 	 -0.825804 	 5.9245 	 82.7167 	 
H 	 -3.41803 	 12.3545 	 87.2723 	 
*
