! wB97X-D3 SP def2-SVP
%pal
nprocs 16
end

* xyz 0 1
S 	 -9.41448 	 -5.37851 	 85.5737 	 
C 	 -9.05973 	 -5.39018 	 87.2441 	 
C 	 -10.25 	 -5.45055 	 87.9017 	 
C 	 -11.397 	 -5.50931 	 87.0545 	 
C 	 -11.1364 	 -5.41975 	 85.7238 	 
H 	 -12.4246 	 -5.67612 	 87.3582 	 
C 	 -10.2888 	 -5.54657 	 89.3526 	 
H 	 -9.30534 	 -5.54861 	 89.7567 	 
H 	 -10.7436 	 -6.44129 	 89.6465 	 
C 	 -10.8258 	 -4.42329 	 90.2202 	 
H 	 -10.0604 	 -3.67491 	 90.2501 	 
H 	 -11.7553 	 -3.95164 	 89.8081 	 
C 	 -11.0883 	 -5.07872 	 91.614 	 
H 	 -10.1981 	 -5.58894 	 91.9977 	 
H 	 -11.3833 	 -4.34166 	 92.3326 	 
H 	 -11.9199 	 -5.79251 	 91.6513 	 
S 	 -13.071 	 -4.10519 	 84.2319 	 
C 	 -14.044 	 -5.13817 	 83.1052 	 
C 	 -13.8053 	 -6.46286 	 83.3315 	 
C 	 -12.6901 	 -6.69061 	 84.1733 	 
C 	 -12.1543 	 -5.53454 	 84.6947 	 
H 	 -14.4669 	 -7.19948 	 82.9205 	 
C 	 -12.3143 	 -8.08438 	 84.4722 	 
H 	 -11.6426 	 -8.15341 	 85.3139 	 
H 	 -11.7616 	 -8.65949 	 83.6408 	 
C 	 -13.486 	 -9.05414 	 84.8602 	 
H 	 -14.414 	 -8.93354 	 84.3141 	 
H 	 -13.7769 	 -8.68309 	 85.848 	 
C 	 -13.0584 	 -10.5601 	 84.7943 	 
H 	 -13.7917 	 -11.103 	 85.3577 	 
H 	 -12.1234 	 -10.648 	 85.3229 	 
H 	 -12.8691 	 -10.8787 	 83.7813 	 
H 	 -8.01276 	 -5.39037 	 87.5877 	 
H 	 -14.8013 	 -4.84042 	 82.3733 	 
*
