! wB97X-D3 SP def2-SVP
%pal
nprocs 16
end

* xyz 0 1
S 	 10.8463 	 -9.48526 	 91.4411 	 
C 	 10.9844 	 -8.37487 	 92.8037 	 
C 	 9.98323 	 -7.40871 	 92.7552 	 
C 	 9.25579 	 -7.55137 	 91.5271 	 
C 	 9.49696 	 -8.66761 	 90.7649 	 
H 	 8.39358 	 -6.97634 	 91.1159 	 
C 	 9.75972 	 -6.35696 	 93.8423 	 
H 	 8.78522 	 -5.89133 	 93.7227 	 
H 	 10.4587 	 -5.58224 	 93.5879 	 
C 	 10.0163 	 -6.73861 	 95.3036 	 
H 	 9.10528 	 -7.30371 	 95.5334 	 
H 	 10.9495 	 -7.29 	 95.4093 	 
C 	 9.98527 	 -5.48704 	 96.2484 	 
H 	 10.9513 	 -4.88596 	 96.1546 	 
H 	 9.07882 	 -4.98506 	 96.1858 	 
H 	 9.97323 	 -5.82651 	 97.2872 	 
S 	 9.98017 	 -8.87546 	 88.176 	 
C 	 8.75457 	 -9.46173 	 87.0711 	 
C 	 7.53801 	 -9.5975 	 87.737 	 
C 	 7.59772 	 -9.36737 	 89.131 	 
C 	 8.9294 	 -9.10429 	 89.5165 	 
H 	 6.64322 	 -9.73487 	 87.1533 	 
C 	 6.35735 	 -9.53511 	 90.0539 	 
H 	 6.06813 	 -8.52911 	 90.3119 	 
H 	 6.69345 	 -10.0629 	 90.9222 	 
C 	 5.04534 	 -10.2265 	 89.5681 	 
H 	 5.37653 	 -11.2003 	 89.1473 	 
H 	 4.65331 	 -9.71183 	 88.6837 	 
C 	 3.95791 	 -10.3457 	 90.6365 	 
H 	 3.64568 	 -9.39728 	 91.1418 	 
H 	 4.3394 	 -10.9384 	 91.4076 	 
H 	 3.11914 	 -11.0248 	 90.4819 	 
H 	 11.8271 	 -8.55291 	 93.4451 	 
H 	 8.86625 	 -9.35368 	 86.0083 	 
*
