! wB97X-D3 SP def2-SVP
%pal
nprocs 16
end

* xyz 0 1
S 	 -70.8126 	 49.3041 	 136.349 	 
C 	 -70.8121 	 48.9483 	 138.07 	 
C 	 -71.907 	 48.2174 	 138.495 	 
C 	 -72.7533 	 47.8203 	 137.418 	 
C 	 -72.3332 	 48.3786 	 136.172 	 
H 	 -73.7286 	 47.2556 	 137.368 	 
C 	 -72.2031 	 47.793 	 139.923 	 
H 	 -73.2869 	 47.9386 	 139.939 	 
H 	 -71.8447 	 48.4722 	 140.681 	 
C 	 -71.7756 	 46.326 	 140.261 	 
H 	 -71.8454 	 45.6065 	 139.409 	 
H 	 -70.6808 	 46.5396 	 140.377 	 
C 	 -72.2613 	 45.629 	 141.475 	 
H 	 -71.5972 	 44.7787 	 141.651 	 
H 	 -72.1292 	 46.3518 	 142.335 	 
H 	 -73.3181 	 45.2603 	 141.547 	 
S 	 -74.0131 	 46.7911 	 134.623 	 
C 	 -74.7061 	 47.4842 	 133.176 	 
C 	 -74.4589 	 48.8198 	 133.005 	 
C 	 -73.5851 	 49.2972 	 133.984 	 
C 	 -73.168 	 48.3282 	 134.946 	 
H 	 -74.8698 	 49.3593 	 132.204 	 
C 	 -73.2709 	 50.8035 	 134.142 	 
H 	 -72.5041 	 51.0865 	 133.408 	 
H 	 -72.8908 	 51.0604 	 135.206 	 
C 	 -74.3887 	 51.8033 	 133.936 	 
H 	 -75.2539 	 51.509 	 134.558 	 
H 	 -74.7092 	 51.6998 	 132.891 	 
C 	 -74.0084 	 53.3039 	 134.031 	 
H 	 -73.1316 	 53.4808 	 133.413 	 
H 	 -73.8216 	 53.8026 	 134.994 	 
H 	 -74.8138 	 53.9304 	 133.627 	 
H 	 -70.1291 	 49.3611 	 138.815 	 
H 	 -75.3445 	 47.076 	 132.442 	 
*
