! wB97X-D3 SP def2-SVP
%pal
nprocs 16
end

* xyz 0 1
S 	 8.46311 	 23.1892 	 60.8812 	 
C 	 8.95891 	 21.5127 	 61.1246 	 
C 	 8.14911 	 20.8413 	 62.0108 	 
C 	 7.20655 	 21.7505 	 62.6207 	 
C 	 7.20926 	 23.0236 	 62.0563 	 
H 	 6.47997 	 21.4612 	 63.4126 	 
C 	 8.36822 	 19.438 	 62.5566 	 
H 	 8.01167 	 18.7655 	 61.7901 	 
H 	 7.55176 	 19.1535 	 63.291 	 
C 	 9.80341 	 19.1163 	 63.001 	 
H 	 9.99862 	 18.0721 	 63.1695 	 
H 	 10.4598 	 19.4185 	 62.2467 	 
C 	 10.2005 	 19.8938 	 64.3147 	 
H 	 9.5143 	 19.7835 	 65.1559 	 
H 	 11.1947 	 19.5388 	 64.559 	 
H 	 10.2869 	 20.9421 	 64.0852 	 
S 	 7.54633 	 25.5716 	 62.7458 	 
C 	 6.27095 	 26.3488 	 63.7221 	 
C 	 5.20411 	 25.4988 	 63.9541 	 
C 	 5.36284 	 24.2178 	 63.3186 	 
C 	 6.54582 	 24.153 	 62.6384 	 
H 	 4.2991 	 25.7061 	 64.5916 	 
C 	 4.17476 	 23.2281 	 63.2231 	 
H 	 3.46985 	 23.3382 	 64.0431 	 
H 	 4.69425 	 22.2829 	 63.3617 	 
C 	 3.30564 	 23.339 	 61.9673 	 
H 	 3.93204 	 23.1768 	 61.1076 	 
H 	 2.71421 	 24.2113 	 61.9014 	 
C 	 2.25949 	 22.1731 	 62.0846 	 
H 	 1.63566 	 22.1497 	 61.2162 	 
H 	 1.59529 	 22.1535 	 62.944 	 
H 	 2.83346 	 21.1826 	 62.2085 	 
H 	 9.84152 	 21.0516 	 60.6661 	 
H 	 6.37675 	 27.3252 	 64.0683 	 
*
