! wB97X-D3 SP def2-SVP
%pal
nprocs 16
end

* xyz 0 1
S 	 -37.8515 	 12.9386 	 79.14 	 
C 	 -37.1237 	 12.8709 	 77.5098 	 
C 	 -37.7318 	 13.7306 	 76.6572 	 
C 	 -38.9774 	 14.1645 	 77.2424 	 
C 	 -39.2861 	 13.7584 	 78.5323 	 
H 	 -39.6581 	 14.8115 	 76.727 	 
C 	 -37.4218 	 13.9402 	 75.1845 	 
H 	 -37.4323 	 15.0454 	 75.1373 	 
H 	 -38.2206 	 13.5574 	 74.5399 	 
C 	 -36.0738 	 13.3443 	 74.6889 	 
H 	 -36.1543 	 12.3071 	 74.9017 	 
H 	 -35.9083 	 13.4955 	 73.5909 	 
C 	 -34.7966 	 13.8807 	 75.3139 	 
H 	 -34.5694 	 13.6281 	 76.3787 	 
H 	 -33.9591 	 13.353 	 74.7913 	 
H 	 -34.7221 	 14.9477 	 75.216 	 
S 	 -39.9217 	 14.649 	 81.0446 	 
C 	 -41.5727 	 15.1347 	 81.3809 	 
C 	 -42.4189 	 14.6575 	 80.4162 	 
C 	 -41.7514 	 14.1192 	 79.2613 	 
C 	 -40.3687 	 14.1952 	 79.4015 	 
H 	 -43.4703 	 14.7457 	 80.5416 	 
C 	 -42.4686 	 13.6485 	 78.017 	 
H 	 -41.74 	 13.7861 	 77.165 	 
H 	 -43.3106 	 14.3489 	 77.8487 	 
C 	 -42.8804 	 12.2012 	 78.0089 	 
H 	 -42.0939 	 11.5758 	 78.3073 	 
H 	 -43.1877 	 11.9114 	 76.9841 	 
C 	 -43.9494 	 11.9834 	 79.0778 	 
H 	 -44.5073 	 11.0403 	 78.8492 	 
H 	 -44.618 	 12.7997 	 79.1999 	 
H 	 -43.5171 	 11.8193 	 80.0547 	 
H 	 -36.202 	 12.2684 	 77.1777 	 
H 	 -41.8917 	 15.4956 	 82.313 	 
*
