! wB97X-D3 SP def2-SVP
%pal
nprocs 16
end

* xyz 0 1
S 	 -69.4215 	 38.8427 	 116.269 	 
C 	 -69.2291 	 37.4907 	 117.408 	 
C 	 -69.0577 	 36.2936 	 116.708 	 
C 	 -68.8271 	 36.5526 	 115.332 	 
C 	 -68.8661 	 37.8716 	 114.979 	 
H 	 -68.6419 	 35.7913 	 114.611 	 
C 	 -68.9293 	 34.9475 	 117.335 	 
H 	 -69.5378 	 34.1513 	 116.833 	 
H 	 -69.1673 	 35.1258 	 118.406 	 
C 	 -67.4489 	 34.4227 	 117.416 	 
H 	 -67.5629 	 33.3293 	 117.692 	 
H 	 -67.0261 	 34.4655 	 116.419 	 
C 	 -66.5471 	 35.0916 	 118.551 	 
H 	 -66.4382 	 36.18 	 118.419 	 
H 	 -67.0589 	 34.9975 	 119.525 	 
H 	 -65.6465 	 34.5052 	 118.639 	 
S 	 -69.5946 	 39.5864 	 112.963 	 
C 	 -68.9159 	 39.2949 	 111.326 	 
C 	 -68.0086 	 38.3343 	 111.371 	 
C 	 -67.7488 	 37.7264 	 112.658 	 
C 	 -68.6085 	 38.3175 	 113.616 	 
H 	 -67.5364 	 38.03 	 110.458 	 
C 	 -66.6093 	 36.7256 	 112.947 	 
H 	 -67.1623 	 35.8166 	 112.721 	 
H 	 -66.3835 	 36.7017 	 114.034 	 
C 	 -65.3424 	 36.8194 	 112.085 	 
H 	 -65.609 	 36.8878 	 111.028 	 
H 	 -64.6868 	 35.9645 	 112.143 	 
C 	 -64.4619 	 38.0306 	 112.429 	 
H 	 -64.5016 	 38.1628 	 113.576 	 
H 	 -64.8034 	 38.8501 	 111.868 	 
H 	 -63.4883 	 37.8254 	 112.133 	 
H 	 -69.2202 	 37.4677 	 118.544 	 
H 	 -69.2311 	 39.7396 	 110.386 	 
*
