! wB97X-D3 SP def2-SVP
%pal
nprocs 16
end

* xyz 0 1
S 	 -2.72922 	 29.7382 	 37.899 	 
C 	 -2.31642 	 28.5286 	 36.6712 	 
C 	 -1.74259 	 27.443 	 37.3303 	 
C 	 -1.87838 	 27.4688 	 38.7261 	 
C 	 -2.28683 	 28.72 	 39.1629 	 
H 	 -1.59311 	 26.6554 	 39.4135 	 
C 	 -1.232 	 26.2429 	 36.5594 	 
H 	 -1.53089 	 26.3304 	 35.5353 	 
H 	 -1.6027 	 25.3259 	 36.9209 	 
C 	 0.317804 	 26.1289 	 36.5405 	 
H 	 0.685845 	 26.9487 	 35.9454 	 
H 	 0.765454 	 26.1993 	 37.5288 	 
C 	 0.919653 	 24.909 	 35.8976 	 
H 	 0.670148 	 24.9831 	 34.8218 	 
H 	 1.94341 	 24.9612 	 36.1915 	 
H 	 0.36927 	 24.105 	 36.3698 	 
S 	 -3.34615 	 28.2206 	 41.6828 	 
C 	 -2.97124 	 29.2173 	 43.0349 	 
C 	 -2.14859 	 30.2774 	 42.699 	 
C 	 -1.87176 	 30.2256 	 41.2903 	 
C 	 -2.36858 	 29.1381 	 40.5411 	 
H 	 -1.831 	 31.0189 	 43.4511 	 
C 	 -0.980565 	 31.3285 	 40.676 	 
H 	 -0.754835 	 30.9257 	 39.7378 	 
H 	 -0.0968519 	 31.3552 	 41.2136 	 
C 	 -1.46115 	 32.8153 	 40.5309 	 
H 	 -1.71256 	 33.2253 	 41.4622 	 
H 	 -2.32217 	 32.7249 	 39.8684 	 
C 	 -0.447791 	 33.686 	 39.7448 	 
H 	 0.404488 	 33.8538 	 40.4232 	 
H 	 -0.730602 	 34.7734 	 39.6225 	 
H 	 0.041292 	 33.1522 	 38.9016 	 
H 	 -2.28891 	 28.8319 	 35.6537 	 
H 	 -3.21046 	 28.9654 	 44.0325 	 
*
