! wB97X-D3 SP def2-SVP
%pal
nprocs 16
end

* xyz 0 1
S 	 -5.37409 	 74.5827 	 58.5037 	 
C 	 -4.84811 	 73.0181 	 58.9936 	 
C 	 -4.65876 	 72.1575 	 57.958 	 
C 	 -4.93535 	 72.8217 	 56.7014 	 
C 	 -5.29089 	 74.1596 	 56.7897 	 
H 	 -4.91301 	 72.1504 	 55.8248 	 
C 	 -4.38148 	 70.6125 	 57.9293 	 
H 	 -3.41727 	 70.5294 	 57.2695 	 
H 	 -5.32439 	 70.2451 	 57.5241 	 
C 	 -4.19342 	 69.9992 	 59.2503 	 
H 	 -3.23376 	 70.3813 	 59.6605 	 
H 	 -4.95519 	 70.3517 	 59.8676 	 
C 	 -4.18595 	 68.43 	 59.2503 	 
H 	 -4.01454 	 68.0908 	 60.3133 	 
H 	 -5.15587 	 68.1058 	 58.9426 	 
H 	 -3.38208 	 67.9569 	 58.6113 	 
S 	 -7.49746 	 75.0679 	 55.5215 	 
C 	 -7.36314 	 76.0826 	 54.0843 	 
C 	 -6.07238 	 76.5672 	 53.9213 	 
C 	 -5.11601 	 75.9211 	 54.8145 	 
C 	 -5.76196 	 75.0528 	 55.7069 	 
H 	 -5.80989 	 77.2838 	 53.0499 	 
C 	 -3.60342 	 76.1651 	 54.8184 	 
H 	 -3.2959 	 76.1598 	 55.8929 	 
H 	 -3.32059 	 77.1872 	 54.4217 	 
C 	 -2.66578 	 74.9983 	 54.3586 	 
H 	 -2.8018 	 74.7325 	 53.3091 	 
H 	 -2.94741 	 74.2071 	 54.9531 	 
C 	 -1.21002 	 75.304 	 54.5982 	 
H 	 -0.995784 	 75.7053 	 55.6129 	 
H 	 -0.909778 	 75.9858 	 53.823 	 
H 	 -0.504761 	 74.467 	 54.4446 	 
H 	 -4.64567 	 72.6684 	 59.9834 	 
H 	 -8.30371 	 76.4175 	 53.6394 	 
*
