! wB97X-D3 SP def2-SVP
%pal
nprocs 16
end

* xyz 0 1
S 	 6.44905 	 -19.5489 	 81.8226 	 
C 	 6.05859 	 -20.9398 	 82.7494 	 
C 	 6.13559 	 -20.6717 	 84.1222 	 
C 	 6.55744 	 -19.3072 	 84.3803 	 
C 	 6.78253 	 -18.5931 	 83.2267 	 
H 	 6.58173 	 -18.7323 	 85.2854 	 
C 	 6.00967 	 -21.7365 	 85.2245 	 
H 	 7.01832 	 -22.2427 	 85.1705 	 
H 	 5.19177 	 -22.4213 	 84.9613 	 
C 	 5.79516 	 -21.2427 	 86.6357 	 
H 	 6.50275 	 -20.5312 	 87.0323 	 
H 	 4.8652 	 -20.6645 	 86.5486 	 
C 	 5.4205 	 -22.384 	 87.7051 	 
H 	 4.50465 	 -22.8537 	 87.4003 	 
H 	 6.26407 	 -22.946 	 87.856 	 
H 	 5.21236 	 -21.8624 	 88.6009 	 
S 	 5.56172 	 -16.0145 	 83.2543 	 
C 	 6.69495 	 -14.6612 	 83.1254 	 
C 	 7.97694 	 -15.0225 	 83.1619 	 
C 	 8.1069 	 -16.4413 	 83.1459 	 
C 	 6.90859 	 -17.1314 	 83.172 	 
H 	 8.75301 	 -14.3126 	 83.2661 	 
C 	 9.4431 	 -17.1244 	 83.3055 	 
H 	 10.2683 	 -16.5601 	 82.7934 	 
H 	 9.3807 	 -18.1859 	 82.8855 	 
C 	 9.80433 	 -17.2302 	 84.7565 	 
H 	 8.9338 	 -17.654 	 85.214 	 
H 	 10.0711 	 -16.2664 	 85.2384 	 
C 	 10.9584 	 -18.1826 	 85.0251 	 
H 	 11.9148 	 -17.7833 	 84.6412 	 
H 	 10.7671 	 -19.1755 	 84.6736 	 
H 	 11.0789 	 -18.3001 	 86.0673 	 
H 	 5.85387 	 -21.9588 	 82.4263 	 
H 	 6.35964 	 -13.6263 	 83.2388 	 
*
