! wB97X-D3 SP def2-SVP
%pal
nprocs 16
end

* xyz 0 1
S 	 -67.9994 	 39.0751 	 134.711 	 
C 	 -67.9086 	 39.3134 	 132.982 	 
C 	 -67.6182 	 38.1463 	 132.348 	 
C 	 -67.4997 	 37.0234 	 133.234 	 
C 	 -67.8626 	 37.3408 	 134.556 	 
H 	 -67.2101 	 36.0785 	 132.877 	 
C 	 -67.6873 	 37.9628 	 130.849 	 
H 	 -68.7371 	 38.1121 	 130.662 	 
H 	 -67.4065 	 36.9212 	 130.676 	 
C 	 -66.8181 	 39.0208 	 130.177 	 
H 	 -67.0997 	 39.1299 	 129.149 	 
H 	 -66.8737 	 40.0562 	 130.638 	 
C 	 -65.4145 	 38.5317 	 129.967 	 
H 	 -65.0003 	 38.1381 	 130.906 	 
H 	 -65.3333 	 37.7104 	 129.282 	 
H 	 -64.7183 	 39.2907 	 129.494 	 
S 	 -66.794 	 36.7784 	 137.043 	 
C 	 -67.5286 	 35.4651 	 137.979 	 
C 	 -68.5475 	 34.7969 	 137.292 	 
C 	 -68.8387 	 35.4657 	 136.078 	 
C 	 -67.9268 	 36.4626 	 135.735 	 
H 	 -69.0067 	 33.9982 	 137.823 	 
C 	 -69.8397 	 34.9579 	 135.051 	 
H 	 -69.9193 	 35.7377 	 134.268 	 
H 	 -70.7913 	 34.8585 	 135.519 	 
C 	 -69.5723 	 33.6541 	 134.235 	 
H 	 -69.0296 	 33.9342 	 133.377 	 
H 	 -70.5007 	 33.2925 	 133.844 	 
C 	 -69.0604 	 32.4591 	 134.937 	 
H 	 -68.1197 	 32.7654 	 135.458 	 
H 	 -68.7851 	 31.6326 	 134.228 	 
H 	 -69.7389 	 32.0785 	 135.749 	 
H 	 -68.2204 	 40.3042 	 132.534 	 
H 	 -67.2569 	 35.1209 	 138.921 	 
*
