! wB97X-D3 SP def2-SVP
%pal
nprocs 16
end

* xyz 0 1
S 	 49.9909 	 23.6903 	 46.0697 	 
C 	 50.508 	 22.4715 	 44.9405 	 
C 	 49.9452 	 22.6699 	 43.6953 	 
C 	 49.2227 	 23.9208 	 43.6527 	 
C 	 49.1266 	 24.5985 	 44.8367 	 
H 	 48.7626 	 24.2729 	 42.7559 	 
C 	 50.1701 	 21.8037 	 42.4541 	 
H 	 51.1889 	 21.5798 	 42.3564 	 
H 	 49.9328 	 22.5261 	 41.5966 	 
C 	 49.1517 	 20.6325 	 42.3487 	 
H 	 48.9448 	 20.4435 	 43.331 	 
H 	 48.2514 	 21.1235 	 41.9436 	 
C 	 49.5531 	 19.2771 	 41.6293 	 
H 	 49.7385 	 19.4763 	 40.5597 	 
H 	 50.3517 	 18.767 	 42.1416 	 
H 	 48.7185 	 18.5357 	 41.6466 	 
S 	 49.0003 	 27.335 	 45.4284 	 
C 	 47.4483 	 28.0501 	 45.9438 	 
C 	 46.5709 	 26.9869 	 46.1947 	 
C 	 46.9831 	 25.6917 	 45.7244 	 
C 	 48.3033 	 25.7381 	 45.2221 	 
H 	 45.6926 	 27.1821 	 46.7978 	 
C 	 46.2047 	 24.3897 	 45.8629 	 
H 	 46.7567 	 23.6837 	 45.2908 	 
H 	 45.281 	 24.5524 	 45.3119 	 
C 	 45.9233 	 23.8475 	 47.285 	 
H 	 46.79 	 23.5021 	 47.7399 	 
H 	 45.3692 	 22.9062 	 47.2248 	 
C 	 45.2372 	 24.8055 	 48.241 	 
H 	 44.4104 	 25.386 	 47.6873 	 
H 	 46.038 	 25.3224 	 48.7115 	 
H 	 44.762 	 24.1894 	 49.0503 	 
H 	 50.9678 	 21.5212 	 45.1937 	 
H 	 47.0869 	 29.0635 	 46.2853 	 
*
