! wB97X-D3 SP def2-SVP
%pal
nprocs 16
end

* xyz 0 1
S 	 -74.9599 	 50.8675 	 138.763 	 
C 	 -75.6087 	 49.5363 	 139.745 	 
C 	 -76.3973 	 48.7099 	 138.963 	 
C 	 -76.7238 	 49.3361 	 137.694 	 
C 	 -76.1212 	 50.5018 	 137.493 	 
H 	 -77.411 	 48.8673 	 136.961 	 
C 	 -77.1463 	 47.4023 	 139.402 	 
H 	 -76.5326 	 46.8626 	 140.067 	 
H 	 -77.1863 	 46.7312 	 138.454 	 
C 	 -78.6265 	 47.5713 	 139.771 	 
H 	 -79.3077 	 47.7885 	 138.969 	 
H 	 -79.017 	 46.5795 	 139.99 	 
C 	 -78.8871 	 48.4884 	 140.986 	 
H 	 -78.6076 	 49.4727 	 140.755 	 
H 	 -79.8766 	 48.5478 	 141.322 	 
H 	 -78.213 	 48.267 	 141.836 	 
S 	 -76.1594 	 51.3559 	 134.714 	 
C 	 -76.9373 	 52.8401 	 134.377 	 
C 	 -77.4608 	 53.3762 	 135.499 	 
C 	 -77.2191 	 52.6569 	 136.724 	 
C 	 -76.5112 	 51.4936 	 136.488 	 
H 	 -77.8509 	 54.3942 	 135.338 	 
C 	 -77.743 	 53.1416 	 138.004 	 
H 	 -78.2084 	 54.1045 	 137.786 	 
H 	 -76.9438 	 53.3718 	 138.783 	 
C 	 -78.863 	 52.2497 	 138.604 	 
H 	 -78.3406 	 51.3663 	 139.013 	 
H 	 -79.5232 	 51.9387 	 137.803 	 
C 	 -79.6316 	 52.8296 	 139.758 	 
H 	 -80.4048 	 52.1248 	 139.978 	 
H 	 -80.1457 	 53.774 	 139.594 	 
H 	 -78.9393 	 53.0323 	 140.652 	 
H 	 -75.3838 	 49.4353 	 140.87 	 
H 	 -77.0298 	 53.1777 	 133.362 	 
*
