! wB97X-D3 SP def2-SVP
%pal
nprocs 16
end

* xyz 0 1
S 	 13.3751 	 -12.6152 	 95.3419 	 
C 	 13.948 	 -10.9601 	 95.4303 	 
C 	 13.0783 	 -10.1716 	 94.7754 	 
C 	 11.9884 	 -10.8246 	 94.1668 	 
C 	 11.9776 	 -12.2201 	 94.3637 	 
H 	 11.1507 	 -10.4074 	 93.5272 	 
C 	 13.214 	 -8.62531 	 94.6909 	 
H 	 13.3634 	 -8.29585 	 93.6346 	 
H 	 14.158 	 -8.42282 	 95.214 	 
C 	 12.0789 	 -7.9167 	 95.4034 	 
H 	 12.0493 	 -6.83008 	 95.2154 	 
H 	 11.1865 	 -8.31741 	 95.0156 	 
C 	 12.164 	 -8.06564 	 96.9398 	 
H 	 12.5381 	 -9.06764 	 97.2168 	 
H 	 12.8352 	 -7.38134 	 97.4968 	 
H 	 11.1802 	 -7.94923 	 97.4098 	 
S 	 11.4341 	 -14.9226 	 94.2477 	 
C 	 9.86956 	 -15.455 	 93.6893 	 
C 	 8.98322 	 -14.4066 	 93.3625 	 
C 	 9.63973 	 -13.1405 	 93.5036 	 
C 	 10.9386 	 -13.22 	 94 	 
H 	 7.96579 	 -14.5489 	 92.9725 	 
C 	 8.78969 	 -11.9485 	 93.117 	 
H 	 7.8081 	 -12.2562 	 92.7979 	 
H 	 9.2078 	 -11.4476 	 92.2505 	 
C 	 8.45971 	 -10.9397 	 94.2526 	 
H 	 9.30619 	 -10.3311 	 94.4663 	 
H 	 8.2184 	 -11.5621 	 95.1368 	 
C 	 7.18224 	 -10.0717 	 94.0063 	 
H 	 6.23121 	 -10.5863 	 93.9338 	 
H 	 7.2867 	 -9.57626 	 93.0255 	 
H 	 7.11184 	 -9.31426 	 94.7795 	 
H 	 14.8907 	 -10.7255 	 95.8743 	 
H 	 9.65398 	 -16.5227 	 93.4941 	 
*
