! wB97X-D3 SP def2-SVP
%pal
nprocs 16
end

* xyz 0 1
S 	 32.3526 	 26.8951 	 53.7824 	 
C 	 31.7405 	 27.1045 	 52.1906 	 
C 	 30.5901 	 26.35 	 52.0551 	 
C 	 30.5236 	 25.2988 	 53.0922 	 
C 	 31.4002 	 25.4765 	 54.1079 	 
H 	 29.7541 	 24.5541 	 53.1592 	 
C 	 29.7598 	 26.2551 	 50.7431 	 
H 	 30.3556 	 26.1657 	 49.7865 	 
H 	 29.3795 	 27.2767 	 50.8273 	 
C 	 28.6275 	 25.2143 	 50.7141 	 
H 	 28.9707 	 24.2202 	 50.7797 	 
H 	 27.9833 	 25.3057 	 51.5887 	 
C 	 27.6779 	 25.4478 	 49.5056 	 
H 	 28.0981 	 25.0405 	 48.588 	 
H 	 26.8673 	 24.8763 	 49.698 	 
H 	 27.2266 	 26.4089 	 49.4819 	 
S 	 30.9792 	 25.3079 	 56.7741 	 
C 	 31.2903 	 23.832 	 57.6247 	 
C 	 31.7875 	 22.8561 	 56.8416 	 
C 	 31.73 	 23.2499 	 55.4209 	 
C 	 31.4567 	 24.6394 	 55.2971 	 
H 	 32.0193 	 21.8478 	 57.2718 	 
C 	 32.1916 	 22.3292 	 54.3036 	 
H 	 31.8088 	 22.7176 	 53.4189 	 
H 	 31.6113 	 21.4075 	 54.4354 	 
C 	 33.7348 	 22.0842 	 54.2669 	 
H 	 34.1712 	 22.2765 	 55.3053 	 
H 	 34.278 	 22.7875 	 53.623 	 
C 	 34.0267 	 20.5651 	 54.0052 	 
H 	 33.4858 	 20.208 	 53.1006 	 
H 	 33.5996 	 19.9616 	 54.7793 	 
H 	 35.0876 	 20.2991 	 53.8931 	 
H 	 32.2234 	 27.55 	 51.3174 	 
H 	 30.9108 	 23.6705 	 58.5899 	 
*
