! wB97X-D3 SP def2-SVP
%pal
nprocs 16
end

* xyz 0 1
S 	 -117.917 	 47.5791 	 134.671 	 
C 	 -118.251 	 48.1611 	 133.057 	 
C 	 -117.464 	 49.2407 	 132.707 	 
C 	 -116.659 	 49.5997 	 133.839 	 
C 	 -116.68 	 48.778 	 134.941 	 
H 	 -116.079 	 50.53 	 133.793 	 
C 	 -117.785 	 50.1459 	 131.533 	 
H 	 -118.45 	 49.4619 	 130.906 	 
H 	 -116.822 	 50.2963 	 130.998 	 
C 	 -118.555 	 51.4995 	 131.726 	 
H 	 -118.812 	 51.91 	 130.751 	 
H 	 -119.525 	 51.229 	 132.188 	 
C 	 -117.657 	 52.4022 	 132.634 	 
H 	 -116.609 	 52.3588 	 132.233 	 
H 	 -118.146 	 53.4276 	 132.675 	 
H 	 -117.557 	 52.0041 	 133.668 	 
S 	 -117.269 	 49.3527 	 137.535 	 
C 	 -115.972 	 49.4168 	 138.7 	 
C 	 -114.73 	 49.5432 	 138.072 	 
C 	 -114.822 	 49.4692 	 136.626 	 
C 	 -116.083 	 49.1778 	 136.201 	 
H 	 -113.818 	 49.5769 	 138.754 	 
C 	 -113.705 	 49.3761 	 135.7 	 
H 	 -113.901 	 50.0293 	 134.882 	 
H 	 -113.802 	 48.4509 	 135.133 	 
C 	 -112.308 	 49.407 	 136.282 	 
H 	 -112.109 	 48.5592 	 136.922 	 
H 	 -112.342 	 50.2355 	 137.002 	 
C 	 -111.257 	 49.6394 	 135.258 	 
H 	 -110.328 	 49.864 	 135.78 	 
H 	 -111.458 	 50.5074 	 134.626 	 
H 	 -111.09 	 48.7996 	 134.607 	 
H 	 -118.998 	 47.7676 	 132.388 	 
H 	 -116.085 	 49.3507 	 139.778 	 
*
