! wB97X-D3 SP def2-SVP
%pal
nprocs 16
end

* xyz 0 1
S 	 -41.1318 	 1.03639 	 97.9881 	 
C 	 -42.1157 	 -0.375441 	 98.1442 	 
C 	 -41.3454 	 -1.38237 	 98.618 	 
C 	 -39.9536 	 -1.08822 	 98.7156 	 
C 	 -39.6399 	 0.187449 	 98.3255 	 
H 	 -39.0683 	 -1.64362 	 99.1766 	 
C 	 -41.9825 	 -2.69495 	 99.0293 	 
H 	 -42.7265 	 -2.76139 	 98.231 	 
H 	 -42.4736 	 -2.41819 	 99.9212 	 
C 	 -41.0823 	 -3.95497 	 99.1015 	 
H 	 -40.3639 	 -3.82441 	 99.8721 	 
H 	 -41.7614 	 -4.8117 	 99.3356 	 
C 	 -40.3236 	 -4.29682 	 97.8179 	 
H 	 -39.6869 	 -5.07257 	 98.1415 	 
H 	 -41.0426 	 -4.58614 	 97.0146 	 
H 	 -39.6182 	 -3.46932 	 97.5386 	 
S 	 -38.2092 	 2.36797 	 99.1852 	 
C 	 -36.5582 	 2.61356 	 98.8256 	 
C 	 -36.1015 	 1.48157 	 98.2023 	 
C 	 -37.0998 	 0.503382 	 97.9443 	 
C 	 -38.3538 	 0.891524 	 98.3969 	 
H 	 -35.0937 	 1.21602 	 97.9421 	 
C 	 -36.6864 	 -0.859476 	 97.293 	 
H 	 -36.1765 	 -0.60856 	 96.349 	 
H 	 -37.5798 	 -1.25593 	 96.9586 	 
C 	 -35.7925 	 -1.8959 	 97.9791 	 
H 	 -36.1966 	 -2.0779 	 98.9833 	 
H 	 -34.7962 	 -1.40531 	 98.1245 	 
C 	 -35.6326 	 -3.23135 	 97.2184 	 
H 	 -36.4966 	 -3.89355 	 97.3396 	 
H 	 -34.796 	 -3.76684 	 97.8336 	 
H 	 -35.4188 	 -3.27461 	 96.0802 	 
H 	 -43.0878 	 -0.503327 	 97.6353 	 
H 	 -35.9468 	 3.42329 	 99.1817 	 
*
