! wB97X-D3 SP def2-SVP
%pal
nprocs 16
end

* xyz 0 1
S 	 -75.1073 	 47.9628 	 137.843 	 
C 	 -75.3051 	 49.1104 	 139.165 	 
C 	 -74.9821 	 50.4142 	 138.796 	 
C 	 -74.3662 	 50.471 	 137.526 	 
C 	 -74.4677 	 49.2633 	 136.865 	 
H 	 -74.0317 	 51.3661 	 137.06 	 
C 	 -75.1208 	 51.606 	 139.7 	 
H 	 -74.5069 	 52.3286 	 139.087 	 
H 	 -74.6047 	 51.411 	 140.653 	 
C 	 -76.493 	 52.1628 	 140.026 	 
H 	 -77.0062 	 52.5025 	 139.117 	 
H 	 -77.2145 	 51.429 	 140.379 	 
C 	 -76.5679 	 53.2167 	 141.067 	 
H 	 -77.5698 	 53.6396 	 141.063 	 
H 	 -76.3348 	 52.8302 	 142.127 	 
H 	 -75.8185 	 53.9401 	 140.755 	 
S 	 -72.4345 	 48.6245 	 135.132 	 
C 	 -72.7435 	 48.6226 	 133.41 	 
C 	 -74.067 	 48.9017 	 133.154 	 
C 	 -74.7944 	 49.0679 	 134.33 	 
C 	 -74.0543 	 49.0061 	 135.511 	 
H 	 -74.5384 	 48.912 	 132.171 	 
C 	 -76.3092 	 49.2772 	 134.298 	 
H 	 -76.4055 	 50.3999 	 134.376 	 
H 	 -76.7413 	 48.8195 	 135.219 	 
C 	 -77.0589 	 48.7804 	 133.039 	 
H 	 -76.7369 	 47.7226 	 132.97 	 
H 	 -76.7834 	 49.2672 	 132.122 	 
C 	 -78.5677 	 48.7778 	 133.239 	 
H 	 -78.9437 	 49.8237 	 133.182 	 
H 	 -78.9269 	 48.2911 	 134.126 	 
H 	 -78.8736 	 48.3289 	 132.293 	 
H 	 -75.879 	 48.9379 	 140.051 	 
H 	 -72.0158 	 48.2328 	 132.689 	 
*
