! wB97X-D3 SP def2-SVP
%pal
nprocs 16
end

* xyz 0 1
S 	 52.1328 	 -3.14038 	 82.9741 	 
C 	 50.5725 	 -2.67937 	 83.5294 	 
C 	 50.6202 	 -1.41921 	 84.0687 	 
C 	 51.802 	 -0.722045 	 83.8083 	 
C 	 52.7679 	 -1.51761 	 83.1538 	 
H 	 51.9687 	 0.315745 	 84.0109 	 
C 	 49.4583 	 -0.773551 	 84.6432 	 
H 	 48.5371 	 -1.0381 	 84.1237 	 
H 	 49.5273 	 0.308715 	 84.425 	 
C 	 49.3188 	 -1.24467 	 86.0995 	 
H 	 49.231 	 -2.38984 	 86.2709 	 
H 	 50.3236 	 -1.07833 	 86.5242 	 
C 	 48.329 	 -0.385841 	 86.8757 	 
H 	 48.8831 	 0.539535 	 87.0471 	 
H 	 47.3521 	 -0.151627 	 86.4426 	 
H 	 48.0142 	 -0.787267 	 87.7534 	 
S 	 55.3798 	 -2.13742 	 83.4361 	 
C 	 56.4815 	 -1.60725 	 82.1328 	 
C 	 55.8934 	 -0.868337 	 81.1402 	 
C 	 54.5453 	 -0.615051 	 81.4921 	 
C 	 54.0885 	 -1.24537 	 82.6712 	 
H 	 56.4251 	 -0.46019 	 80.2996 	 
C 	 53.6109 	 0.296362 	 80.6293 	 
H 	 54.2858 	 0.635373 	 79.8458 	 
H 	 53.2934 	 1.13228 	 81.2195 	 
C 	 52.3901 	 -0.330352 	 79.9982 	 
H 	 51.8152 	 -0.761884 	 80.7938 	 
H 	 52.6791 	 -1.19088 	 79.4085 	 
C 	 51.6336 	 0.505906 	 78.969 	 
H 	 50.8417 	 -0.0680629 	 78.4842 	 
H 	 52.3923 	 0.747124 	 78.315 	 
H 	 51.1949 	 1.38288 	 79.4362 	 
H 	 49.7341 	 -3.31444 	 83.6653 	 
H 	 57.6163 	 -1.79164 	 82.2459 	 
*
