! wB97X-D3 SP def2-SVP
%pal
nprocs 16
end

* xyz 0 1
S 	 -18.6628 	 44.1073 	 56.3454 	 
C 	 -17.7669 	 45.6075 	 56.1876 	 
C 	 -18.4368 	 46.6632 	 56.7542 	 
C 	 -19.724 	 46.2852 	 57.2931 	 
C 	 -19.9507 	 44.9271 	 57.2173 	 
H 	 -20.467 	 46.986 	 57.6659 	 
C 	 -17.8996 	 48.1256 	 56.9205 	 
H 	 -18.2784 	 48.7128 	 56.0439 	 
H 	 -16.8092 	 48.0495 	 56.8671 	 
C 	 -18.2117 	 48.8775 	 58.2278 	 
H 	 -17.9173 	 49.8992 	 58.0476 	 
H 	 -19.2989 	 48.8967 	 58.4294 	 
C 	 -17.4781 	 48.4229 	 59.4237 	 
H 	 -17.9607 	 47.5938 	 59.9863 	 
H 	 -16.5509 	 48.0836 	 59.043 	 
H 	 -17.3779 	 49.1603 	 60.2624 	 
S 	 -21.0885 	 42.886 	 58.8183 	 
C 	 -22.7919 	 42.4524 	 58.3956 	 
C 	 -23.3762 	 43.3319 	 57.5507 	 
C 	 -22.4465 	 44.3166 	 57.1163 	 
C 	 -21.182 	 44.1828 	 57.6178 	 
H 	 -24.3348 	 43.1813 	 57.134 	 
C 	 -22.8699 	 45.2011 	 55.9587 	 
H 	 -22.3128 	 46.1463 	 55.9269 	 
H 	 -23.8714 	 45.5778 	 56.0627 	 
C 	 -22.71 	 44.5146 	 54.6246 	 
H 	 -22.9917 	 43.5405 	 54.6358 	 
H 	 -21.7014 	 44.4694 	 54.1605 	 
C 	 -23.5214 	 45.2399 	 53.4768 	 
H 	 -23.2558 	 44.8789 	 52.4326 	 
H 	 -23.3459 	 46.247 	 53.4588 	 
H 	 -24.5726 	 45.1955 	 53.6827 	 
H 	 -16.7957 	 45.6842 	 55.7614 	 
H 	 -23.236 	 41.5996 	 58.7651 	 
*
