! wB97X-D3 SP def2-SVP
%pal
nprocs 16
end

* xyz 0 1
S 	 49.8005 	 10.7518 	 51.4102 	 
C 	 49.6912 	 9.79121 	 49.9269 	 
C 	 49.8722 	 10.5638 	 48.7882 	 
C 	 49.9164 	 11.9475 	 49.1078 	 
C 	 49.9208 	 12.1964 	 50.4658 	 
H 	 50.1399 	 12.6936 	 48.382 	 
C 	 49.6904 	 10.0553 	 47.3544 	 
H 	 50.0393 	 9.03449 	 47.1931 	 
H 	 50.5232 	 10.5492 	 46.7503 	 
C 	 48.3096 	 10.183 	 46.7422 	 
H 	 47.9739 	 11.2115 	 46.7452 	 
H 	 48.3848 	 9.98464 	 45.6599 	 
C 	 47.2406 	 9.30941 	 47.4452 	 
H 	 47.0365 	 9.73362 	 48.3688 	 
H 	 46.2685 	 9.39229 	 46.9945 	 
H 	 47.4354 	 8.26526 	 47.5693 	 
S 	 51.4155 	 13.7405 	 52.1764 	 
C 	 50.8403 	 15.3849 	 52.477 	 
C 	 49.757 	 15.72 	 51.7948 	 
C 	 49.3266 	 14.6797 	 50.9287 	 
C 	 50.1134 	 13.5185 	 51.0582 	 
H 	 49.4017 	 16.7996 	 51.8059 	 
C 	 48.1036 	 14.8654 	 50.1533 	 
H 	 48.0301 	 14.0452 	 49.4906 	 
H 	 48.3524 	 15.7298 	 49.4495 	 
C 	 46.6991 	 15.1306 	 50.8548 	 
H 	 45.9139 	 15.3804 	 50.0968 	 
H 	 46.6965 	 16.0777 	 51.4782 	 
C 	 46.2782 	 14.1238 	 51.8998 	 
H 	 45.4759 	 14.6914 	 52.3847 	 
H 	 47.0276 	 13.89 	 52.6771 	 
H 	 45.8098 	 13.2058 	 51.5975 	 
H 	 49.6072 	 8.76134 	 50.002 	 
H 	 51.3771 	 16.0581 	 53.1057 	 
*
