! wB97X-D3 SP def2-SVP
%pal
nprocs 16
end

* xyz 0 1
S 	 4.95581 	 12.7929 	 86.8554 	 
C 	 3.79209 	 12.4611 	 85.6607 	 
C 	 4.33695 	 11.6697 	 84.6282 	 
C 	 5.69919 	 11.2261 	 84.9171 	 
C 	 6.17064 	 11.8025 	 86.0782 	 
H 	 6.32865 	 10.5181 	 84.3157 	 
C 	 3.4807 	 11.0858 	 83.518 	 
H 	 4.19978 	 10.7962 	 82.7471 	 
H 	 2.86796 	 11.9087 	 83.0516 	 
C 	 2.65174 	 9.98471 	 83.9704 	 
H 	 3.00833 	 9.15765 	 84.5231 	 
H 	 1.8975 	 10.5492 	 84.6189 	 
C 	 1.94151 	 9.3831 	 82.7327 	 
H 	 1.25243 	 8.66845 	 83.1386 	 
H 	 1.43274 	 10.1472 	 82.2076 	 
H 	 2.59481 	 8.81856 	 82.041 	 
S 	 8.13288 	 10.3943 	 87.5142 	 
C 	 9.76806 	 11.0977 	 87.664 	 
C 	 9.79727 	 12.3229 	 87.1314 	 
C 	 8.54246 	 12.7506 	 86.5745 	 
C 	 7.51397 	 11.8019 	 86.6467 	 
H 	 10.7699 	 12.885 	 87.1833 	 
C 	 8.41104 	 14.1821 	 86.0503 	 
H 	 8.04577 	 14.9114 	 86.7476 	 
H 	 7.70943 	 14.1137 	 85.2422 	 
C 	 9.70475 	 14.8552 	 85.4927 	 
H 	 10.0587 	 14.361 	 84.6155 	 
H 	 10.4581 	 14.8305 	 86.2104 	 
C 	 9.52829 	 16.3076 	 85.103 	 
H 	 10.1307 	 17.0299 	 85.6385 	 
H 	 8.52659 	 16.4832 	 85.4498 	 
H 	 9.52728 	 16.5924 	 83.9881 	 
H 	 2.75823 	 12.7893 	 85.5466 	 
H 	 10.6892 	 10.5368 	 87.8697 	 
*
