! wB97X-D3 SP def2-SVP
%pal
nprocs 16
end

* xyz 0 1
S 	 29.9126 	 -0.288405 	 75.1936 	 
C 	 31.2065 	 0.58083 	 76.0082 	 
C 	 31.7318 	 -0.171523 	 77.0453 	 
C 	 31.1103 	 -1.4169 	 77.1539 	 
C 	 30.0282 	 -1.63158 	 76.3516 	 
H 	 31.2691 	 -1.97658 	 78.0297 	 
C 	 32.6665 	 0.38026 	 78.0388 	 
H 	 32.714 	 -0.342159 	 78.8476 	 
H 	 32.2914 	 1.2892 	 78.4479 	 
C 	 34.1092 	 0.544361 	 77.5742 	 
H 	 34.6323 	 -0.455071 	 77.4891 	 
H 	 34.2042 	 0.932415 	 76.5748 	 
C 	 35.095 	 1.28345 	 78.4774 	 
H 	 34.819 	 2.30167 	 78.5187 	 
H 	 35.1216 	 0.988256 	 79.5398 	 
H 	 36.1333 	 1.17235 	 78.0954 	 
S 	 27.6329 	 -2.61989 	 75.4793 	 
C 	 27.1766 	 -4.26675 	 75.8497 	 
C 	 28.199 	 -4.93656 	 76.4854 	 
C 	 29.2457 	 -4.0516 	 76.9035 	 
C 	 29.1664 	 -2.81979 	 76.32 	 
H 	 28.0286 	 -5.94259 	 76.6779 	 
C 	 30.4035 	 -4.62562 	 77.6552 	 
H 	 30.1685 	 -5.68365 	 77.9854 	 
H 	 30.7271 	 -4.06178 	 78.5335 	 
C 	 31.6937 	 -4.9626 	 76.8578 	 
H 	 32.6228 	 -5.15678 	 77.4445 	 
H 	 32.0385 	 -4.04616 	 76.3336 	 
C 	 31.3855 	 -5.95453 	 75.7817 	 
H 	 30.9475 	 -5.42331 	 74.9245 	 
H 	 30.677 	 -6.73694 	 76.0733 	 
H 	 32.2719 	 -6.44545 	 75.2714 	 
H 	 31.5059 	 1.61432 	 75.7971 	 
H 	 26.3064 	 -4.67506 	 75.4631 	 
*
