! wB97X-D3 SP def2-SVP
%pal
nprocs 16
end

* xyz 0 1
S 	 -4.94676 	 -11.1552 	 86.6438 	 
C 	 -4.18799 	 -12.5139 	 87.5136 	 
C 	 -3.99559 	 -13.5788 	 86.6328 	 
C 	 -4.36728 	 -13.3021 	 85.3001 	 
C 	 -4.77165 	 -11.9774 	 85.1766 	 
H 	 -4.35633 	 -14 	 84.5206 	 
C 	 -3.39027 	 -14.9101 	 87.0329 	 
H 	 -3.68444 	 -14.9354 	 88.1194 	 
H 	 -2.29055 	 -14.8554 	 87.0435 	 
C 	 -4.00734 	 -16.1866 	 86.2938 	 
H 	 -5.03634 	 -16.062 	 86.0355 	 
H 	 -3.44273 	 -16.2388 	 85.3437 	 
C 	 -3.77146 	 -17.414 	 87.1354 	 
H 	 -4.13082 	 -18.2907 	 86.6203 	 
H 	 -2.68874 	 -17.4183 	 87.2947 	 
H 	 -4.15526 	 -17.4463 	 88.1795 	 
S 	 -3.84191 	 -10.4843 	 83.0401 	 
C 	 -4.80937 	 -10.2636 	 81.6291 	 
C 	 -6.03249 	 -10.8957 	 81.7385 	 
C 	 -6.21901 	 -11.4153 	 83.0806 	 
C 	 -5.09357 	 -11.3388 	 83.8989 	 
H 	 -6.41645 	 -11.2159 	 80.845 	 
C 	 -7.47231 	 -12.1023 	 83.4664 	 
H 	 -8.23601 	 -11.7272 	 82.7855 	 
H 	 -7.75837 	 -11.8114 	 84.4803 	 
C 	 -7.40835 	 -13.6297 	 83.3252 	 
H 	 -6.43654 	 -14.0204 	 83.7764 	 
H 	 -7.36383 	 -13.9323 	 82.2393 	 
C 	 -8.63741 	 -14.216 	 83.9932 	 
H 	 -8.61634 	 -15.259 	 83.7199 	 
H 	 -9.52776 	 -13.8721 	 83.5182 	 
H 	 -8.71409 	 -14.0699 	 85.0128 	 
H 	 -3.93167 	 -12.5455 	 88.5951 	 
H 	 -4.53468 	 -10.0621 	 80.6346 	 
*
