! wB97X-D3 SP def2-SVP
%pal
nprocs 16
end

* xyz 0 1
S 	 -91.1693 	 38.9775 	 114.847 	 
C 	 -89.9915 	 37.9122 	 115.634 	 
C 	 -89.0649 	 38.6793 	 116.294 	 
C 	 -89.3369 	 40.0785 	 116.376 	 
C 	 -90.381 	 40.4399 	 115.516 	 
H 	 -89.0023 	 40.9293 	 116.947 	 
C 	 -87.8771 	 38.1078 	 116.979 	 
H 	 -87.6627 	 37.1908 	 116.387 	 
H 	 -88.1927 	 37.9289 	 118.019 	 
C 	 -86.6408 	 39.0101 	 117.055 	 
H 	 -86.7461 	 40.1296 	 117.23 	 
H 	 -85.8411 	 38.5612 	 117.678 	 
C 	 -85.9154 	 38.997 	 115.698 	 
H 	 -85.0507 	 39.5617 	 115.941 	 
H 	 -85.6032 	 37.9691 	 115.457 	 
H 	 -86.5253 	 39.4632 	 114.886 	 
S 	 -90.435 	 42.7688 	 114.117 	 
C 	 -91.4044 	 44.0769 	 114.76 	 
C 	 -92.2835 	 43.6558 	 115.761 	 
C 	 -92.0492 	 42.3099 	 116.083 	 
C 	 -90.9462 	 41.8014 	 115.424 	 
H 	 -92.9336 	 44.4362 	 116.194 	 
C 	 -92.6745 	 41.643 	 117.272 	 
H 	 -92.1068 	 40.777 	 117.423 	 
H 	 -93.614 	 41.3277 	 116.989 	 
C 	 -92.88 	 42.277 	 118.685 	 
H 	 -93.3379 	 43.2871 	 118.678 	 
H 	 -91.9575 	 42.4468 	 119.187 	 
C 	 -93.7229 	 41.398 	 119.628 	 
H 	 -94.7324 	 41.1797 	 119.243 	 
H 	 -93.7417 	 41.9009 	 120.571 	 
H 	 -93.2462 	 40.4126 	 119.556 	 
H 	 -90.0764 	 36.7655 	 115.556 	 
H 	 -91.3773 	 45.1222 	 114.55 	 
*
