! wB97X-D3 SP def2-SVP
%pal
nprocs 16
end

* xyz 0 1
S 	 31.8955 	 1.47858 	 70.1232 	 
C 	 31.5587 	 3.07615 	 69.6157 	 
C 	 31.8207 	 4.00635 	 70.5957 	 
C 	 32.0673 	 3.33334 	 71.898 	 
C 	 32.0396 	 1.96513 	 71.8079 	 
H 	 32.3125 	 3.84885 	 72.8523 	 
C 	 31.8834 	 5.51654 	 70.3569 	 
H 	 32.1341 	 5.985 	 71.2853 	 
H 	 30.8615 	 5.88406 	 70.1334 	 
C 	 32.9361 	 5.84381 	 69.3494 	 
H 	 32.7771 	 5.37711 	 68.3785 	 
H 	 32.8152 	 6.91669 	 69.19 	 
C 	 34.3981 	 5.56167 	 69.828 	 
H 	 34.6362 	 4.55563 	 69.5073 	 
H 	 35.1826 	 6.11013 	 69.4049 	 
H 	 34.5254 	 5.64082 	 70.9246 	 
S 	 30.9502 	 -0.414386 	 72.6374 	 
C 	 31.3148 	 -0.943748 	 74.2236 	 
C 	 32.3834 	 -0.275943 	 74.7689 	 
C 	 32.814 	 0.833105 	 73.9866 	 
C 	 32.0916 	 0.910936 	 72.8174 	 
H 	 32.9126 	 -0.429806 	 75.7118 	 
C 	 33.9009 	 1.80669 	 74.4094 	 
H 	 34.4875 	 2.1392 	 73.5461 	 
H 	 34.6155 	 1.14893 	 75.0067 	 
C 	 33.5324 	 2.95741 	 75.3624 	 
H 	 32.7641 	 3.5653 	 74.9392 	 
H 	 34.3446 	 3.66687 	 75.377 	 
C 	 33.1901 	 2.41259 	 76.7531 	 
H 	 33.1896 	 3.20671 	 77.4792 	 
H 	 33.9105 	 1.64874 	 77.0128 	 
H 	 32.2368 	 1.93976 	 76.8379 	 
H 	 31.3735 	 3.40471 	 68.6089 	 
H 	 30.7768 	 -1.68815 	 74.7278 	 
*
