! wB97X-D3 SP def2-SVP
%pal
nprocs 16
end

* xyz 0 1
S 	 -2.80639 	 -16.0495 	 93.4015 	 
C 	 -4.43525 	 -16.4503 	 93.3314 	 
C 	 -5.11773 	 -15.6186 	 92.445 	 
C 	 -4.28349 	 -14.5317 	 92.006 	 
C 	 -3.03708 	 -14.5778 	 92.5184 	 
H 	 -4.7133 	 -13.7526 	 91.3583 	 
C 	 -6.4416 	 -15.8473 	 91.8909 	 
H 	 -6.87111 	 -16.5704 	 92.6538 	 
H 	 -6.4822 	 -16.5303 	 91.0091 	 
C 	 -7.46013 	 -14.6073 	 91.6802 	 
H 	 -7.04551 	 -14.0167 	 90.8506 	 
H 	 -8.40018 	 -14.9971 	 91.3047 	 
C 	 -7.61334 	 -13.8638 	 93.0399 	 
H 	 -8.25674 	 -12.9398 	 92.9356 	 
H 	 -8.05321 	 -14.5791 	 93.7318 	 
H 	 -6.7597 	 -13.4003 	 93.4389 	 
S 	 -1.24944 	 -12.9918 	 93.8052 	 
C 	 -0.098273 	 -11.9527 	 92.9458 	 
C 	 -0.284547 	 -12.0969 	 91.6117 	 
C 	 -1.35761 	 -12.9976 	 91.2703 	 
C 	 -1.9682 	 -13.5845 	 92.3373 	 
H 	 0.307353 	 -11.3732 	 91.0381 	 
C 	 -1.89952 	 -13.1073 	 89.8138 	 
H 	 -2.36972 	 -14.0006 	 89.5908 	 
H 	 -1.11777 	 -13.0606 	 89.0824 	 
C 	 -2.71834 	 -11.855 	 89.4928 	 
H 	 -1.99938 	 -11.048 	 89.5438 	 
H 	 -3.4912 	 -11.5936 	 90.2317 	 
C 	 -3.45928 	 -11.8141 	 88.1909 	 
H 	 -4.24689 	 -12.5786 	 87.846 	 
H 	 -2.72132 	 -11.7396 	 87.3651 	 
H 	 -3.95956 	 -10.9028 	 88.2056 	 
H 	 -4.87274 	 -17.3338 	 93.7193 	 
H 	 0.664377 	 -11.4159 	 93.4726 	 
*
