! wB97X-D3 SP def2-SVP
%pal
nprocs 16
end

* xyz 0 1
S 	 -36.2964 	 70.8628 	 109.735 	 
C 	 -36.1249 	 70.0003 	 108.262 	 
C 	 -35.512 	 70.6939 	 107.261 	 
C 	 -35.1106 	 72.0068 	 107.685 	 
C 	 -35.5133 	 72.2747 	 108.987 	 
H 	 -34.5684 	 72.7823 	 107.18 	 
C 	 -35.0896 	 70.1111 	 105.888 	 
H 	 -35.1602 	 70.7638 	 105.022 	 
H 	 -35.8025 	 69.3929 	 105.748 	 
C 	 -33.6996 	 69.4577 	 106.009 	 
H 	 -33.0235 	 70.1698 	 106.557 	 
H 	 -33.8602 	 68.4488 	 106.424 	 
C 	 -32.9773 	 69.2722 	 104.711 	 
H 	 -31.9869 	 68.994 	 105.083 	 
H 	 -33.4195 	 68.5263 	 104.047 	 
H 	 -32.7669 	 70.1886 	 104.1 	 
S 	 -34.4688 	 73.4856 	 111.305 	 
C 	 -34.2416 	 75.1762 	 111.423 	 
C 	 -34.7224 	 75.8168 	 110.277 	 
C 	 -35.1708 	 74.8677 	 109.288 	 
C 	 -35.1887 	 73.5354 	 109.706 	 
H 	 -34.5369 	 76.8973 	 110.259 	 
C 	 -35.7983 	 75.4026 	 108.012 	 
H 	 -36.4341 	 74.6033 	 107.618 	 
H 	 -35.062 	 75.5181 	 107.308 	 
C 	 -36.6633 	 76.6996 	 108.041 	 
H 	 -36.7785 	 76.9985 	 107.006 	 
H 	 -36.1847 	 77.5722 	 108.627 	 
C 	 -38.0869 	 76.5793 	 108.491 	 
H 	 -38.4042 	 77.5829 	 108.49 	 
H 	 -38.1186 	 76.2603 	 109.52 	 
H 	 -38.6684 	 75.931 	 107.874 	 
H 	 -36.409 	 68.9431 	 108.226 	 
H 	 -33.4858 	 75.5992 	 112.064 	 
*
