! wB97X-D3 SP def2-SVP
%pal
nprocs 16
end

* xyz 0 1
S 	 -11.3134 	 34.6903 	 34.2738 	 
C 	 -10.1909 	 35.1516 	 33.1599 	 
C 	 -10.1389 	 36.5497 	 33.1143 	 
C 	 -11.2536 	 37.1822 	 33.7494 	 
C 	 -12.0622 	 36.2541 	 34.3602 	 
H 	 -11.5511 	 38.2659 	 33.8018 	 
C 	 -9.25134 	 37.2846 	 32.1993 	 
H 	 -8.48269 	 36.6161 	 31.8531 	 
H 	 -8.90416 	 38.033 	 32.8146 	 
C 	 -9.98588 	 37.8094 	 30.9685 	 
H 	 -10.6204 	 37.0817 	 30.4812 	 
H 	 -10.6339 	 38.6043 	 31.2752 	 
C 	 -9.06497 	 38.4041 	 29.8565 	 
H 	 -8.34725 	 37.6242 	 29.3553 	 
H 	 -9.82529 	 38.769 	 29.0712 	 
H 	 -8.57384 	 39.3307 	 30.2494 	 
S 	 -13.3291 	 37.9025 	 36.1157 	 
C 	 -14.8847 	 37.4439 	 36.823 	 
C 	 -15.3605 	 36.2724 	 36.2225 	 
C 	 -14.4305 	 35.7133 	 35.2626 	 
C 	 -13.2997 	 36.4827 	 35.0745 	 
H 	 -16.3097 	 35.8483 	 36.5933 	 
C 	 -14.8232 	 34.5043 	 34.4275 	 
H 	 -15.0255 	 33.8067 	 35.1933 	 
H 	 -13.9963 	 34.0153 	 33.9372 	 
C 	 -16.0269 	 34.8328 	 33.4836 	 
H 	 -15.6344 	 35.3219 	 32.606 	 
H 	 -16.7585 	 35.3939 	 34.015 	 
C 	 -16.8286 	 33.5888 	 32.9254 	 
H 	 -16.0823 	 32.8394 	 32.4518 	 
H 	 -17.5975 	 34.0371 	 32.2018 	 
H 	 -17.2626 	 33.0069 	 33.7548 	 
H 	 -9.48153 	 34.4957 	 32.7616 	 
H 	 -15.4749 	 38.0409 	 37.5113 	 
*
