! wB97X-D3 SP def2-SVP
%pal
nprocs 16
end

* xyz 0 1
S 	 -110.754 	 57.2039 	 106.046 	 
C 	 -110.639 	 55.4394 	 105.918 	 
C 	 -110.844 	 54.8081 	 107.129 	 
C 	 -110.993 	 55.7788 	 108.149 	 
C 	 -110.995 	 57.0833 	 107.767 	 
H 	 -111.171 	 55.4742 	 109.181 	 
C 	 -110.622 	 53.3126 	 107.278 	 
H 	 -110.922 	 52.8405 	 106.337 	 
H 	 -111.36 	 52.8197 	 107.985 	 
C 	 -109.111 	 52.8854 	 107.621 	 
H 	 -108.974 	 51.8009 	 107.487 	 
H 	 -108.5 	 53.2786 	 106.829 	 
C 	 -108.608 	 53.4038 	 108.878 	 
H 	 -109.077 	 52.9165 	 109.774 	 
H 	 -107.552 	 53.1937 	 109.059 	 
H 	 -108.633 	 54.473 	 109.091 	 
S 	 -110.556 	 59.767 	 107.91 	 
C 	 -111.199 	 60.6634 	 109.36 	 
C 	 -111.796 	 59.8561 	 110.285 	 
C 	 -111.757 	 58.4532 	 109.855 	 
C 	 -111.126 	 58.2736 	 108.613 	 
H 	 -112.227 	 60.419 	 111.084 	 
C 	 -112.542 	 57.425 	 110.707 	 
H 	 -112.796 	 56.808 	 109.794 	 
H 	 -113.369 	 57.9201 	 111.122 	 
C 	 -111.783 	 56.6497 	 111.729 	 
H 	 -111.031 	 56.0532 	 111.223 	 
H 	 -112.448 	 55.9452 	 112.274 	 
C 	 -111.2 	 57.5659 	 112.826 	 
H 	 -111.009 	 58.5847 	 112.455 	 
H 	 -110.431 	 57.175 	 113.415 	 
H 	 -112.013 	 57.7418 	 113.564 	 
H 	 -110.459 	 54.9268 	 104.936 	 
H 	 -111.091 	 61.7598 	 109.46 	 
*
