! wB97X-D3 SP def2-SVP
%pal
nprocs 16
end

* xyz 0 1
S 	 39.8365 	 25.7791 	 82.5276 	 
C 	 38.3577 	 26.0157 	 83.4618 	 
C 	 38.5216 	 25.5537 	 84.7369 	 
C 	 39.8974 	 25.2253 	 84.9418 	 
C 	 40.8095 	 25.3029 	 83.9081 	 
H 	 40.2886 	 24.9087 	 85.9694 	 
C 	 37.5059 	 25.4911 	 85.9222 	 
H 	 37.1035 	 24.4457 	 85.9975 	 
H 	 36.6526 	 26.1767 	 85.7475 	 
C 	 38.1074 	 25.9239 	 87.3017 	 
H 	 38.8598 	 25.1878 	 87.6127 	 
H 	 38.7561 	 26.732 	 87.0542 	 
C 	 37.014 	 26.1745 	 88.375 	 
H 	 36.317 	 27.0157 	 88.0947 	 
H 	 36.4411 	 25.3284 	 88.6076 	 
H 	 37.4726 	 26.4988 	 89.3971 	 
S 	 43.2297 	 26.7908 	 83.4637 	 
C 	 44.7352 	 26.0898 	 83.983 	 
C 	 44.5722 	 24.788 	 84.3455 	 
C 	 43.2172 	 24.3315 	 84.3153 	 
C 	 42.2501 	 25.3086 	 83.9622 	 
H 	 45.5506 	 24.3042 	 84.5839 	 
C 	 42.8243 	 22.982 	 84.8874 	 
H 	 43.5623 	 22.2143 	 84.4654 	 
H 	 41.8257 	 22.7513 	 84.5067 	 
C 	 42.9178 	 22.6925 	 86.3365 	 
H 	 42.5121 	 23.5685 	 86.8912 	 
H 	 43.9267 	 22.6549 	 86.6613 	 
C 	 42.1712 	 21.4408 	 86.8209 	 
H 	 42.3771 	 21.247 	 87.8078 	 
H 	 42.5762 	 20.6213 	 86.1597 	 
H 	 41.091 	 21.4577 	 86.7438 	 
H 	 37.4263 	 26.4525 	 83.0874 	 
H 	 45.6699 	 26.6 	 84.0763 	 
*
