! wB97X-D3 SP def2-SVP
%pal
nprocs 16
end

* xyz 0 1
S 	 -3.39292 	 8.15205 	 82.0034 	 
C 	 -4.57674 	 6.92577 	 82.2779 	 
C 	 -5.78707 	 7.3133 	 81.7953 	 
C 	 -5.79923 	 8.63758 	 81.1531 	 
C 	 -4.57117 	 9.21998 	 81.2956 	 
H 	 -6.65551 	 9.20647 	 80.6624 	 
C 	 -7.04899 	 6.36197 	 81.7849 	 
H 	 -7.00306 	 5.77745 	 82.7284 	 
H 	 -7.02521 	 5.67582 	 80.9395 	 
C 	 -8.3867 	 7.17265 	 81.7323 	 
H 	 -9.2055 	 6.66731 	 82.1994 	 
H 	 -8.19801 	 8.07058 	 82.3875 	 
C 	 -8.77558 	 7.65706 	 80.3014 	 
H 	 -9.42716 	 8.51791 	 80.3038 	 
H 	 -7.84464 	 7.91481 	 79.8341 	 
H 	 -9.38191 	 6.92405 	 79.707 	 
S 	 -3.09205 	 10.7104 	 79.5546 	 
C 	 -3.25151 	 12.4258 	 79.664 	 
C 	 -4.03758 	 12.8153 	 80.7609 	 
C 	 -4.64996 	 11.787 	 81.4426 	 
C 	 -4.192 	 10.5522 	 80.9097 	 
H 	 -4.08221 	 13.8763 	 80.8364 	 
C 	 -5.67432 	 11.8948 	 82.5494 	 
H 	 -5.18441 	 11.3825 	 83.4508 	 
H 	 -6.58053 	 11.3672 	 82.2274 	 
C 	 -6.03816 	 13.2946 	 83.0439 	 
H 	 -6.32392 	 14.0552 	 82.2517 	 
H 	 -5.10565 	 13.7347 	 83.4832 	 
C 	 -7.11508 	 13.1494 	 84.1219 	 
H 	 -7.90693 	 12.4559 	 83.8776 	 
H 	 -7.54307 	 14.1114 	 84.4351 	 
H 	 -6.70873 	 12.7317 	 85.0602 	 
H 	 -4.3744 	 5.98103 	 82.7923 	 
H 	 -2.82144 	 13.111 	 78.9488 	 
*
