! wB97X-D3 SP def2-SVP
%pal
nprocs 16
end

* xyz 0 1
S 	 -20.5582 	 2.63663 	 76.7047 	 
C 	 -19.9682 	 1.04296 	 76.4027 	 
C 	 -20.8347 	 0.0192413 	 76.7951 	 
C 	 -22.1782 	 0.570604 	 76.9279 	 
C 	 -22.1745 	 1.97311 	 76.9236 	 
H 	 -23.0199 	 -0.0384238 	 76.9431 	 
C 	 -20.5222 	 -1.40519 	 76.7163 	 
H 	 -19.6756 	 -1.62219 	 76.082 	 
H 	 -21.3797 	 -1.89971 	 76.3056 	 
C 	 -20.2749 	 -1.95928 	 78.1064 	 
H 	 -21.0752 	 -1.71173 	 78.7827 	 
H 	 -20.3234 	 -3.05781 	 77.9778 	 
C 	 -18.978 	 -1.4932 	 78.7236 	 
H 	 -18.1367 	 -1.60075 	 78.0184 	 
H 	 -19.0284 	 -0.460308 	 79.1169 	 
H 	 -18.7182 	 -2.05918 	 79.6177 	 
S 	 -22.9619 	 4.11946 	 78.5407 	 
C 	 -24.6819 	 4.38908 	 78.6841 	 
C 	 -25.4156 	 3.57295 	 77.9834 	 
C 	 -24.6149 	 2.54122 	 77.3707 	 
C 	 -23.2746 	 2.79896 	 77.3807 	 
H 	 -26.4886 	 3.59887 	 77.8692 	 
C 	 -25.2494 	 1.53652 	 76.4046 	 
H 	 -24.4875 	 1.23453 	 75.678 	 
H 	 -26.0539 	 1.97451 	 75.8339 	 
C 	 -25.6649 	 0.219858 	 77.1344 	 
H 	 -26.6338 	 0.490862 	 77.5866 	 
H 	 -25.1544 	 -0.0720419 	 78.0444 	 
C 	 -25.7957 	 -1.00968 	 76.1938 	 
H 	 -25.949 	 -1.87722 	 76.8207 	 
H 	 -24.9262 	 -1.29172 	 75.6152 	 
H 	 -26.7265 	 -1.04281 	 75.6422 	 
H 	 -19.0423 	 0.896902 	 75.8846 	 
H 	 -25.0735 	 5.23118 	 79.2246 	 
*
