! wB97X-D3 SP def2-SVP
%pal
nprocs 16
end

* xyz 0 1
S 	 -3.86885 	 -18.4548 	 71.0879 	 
C 	 -2.88438 	 -18.6128 	 69.665 	 
C 	 -3.18635 	 -17.6302 	 68.7214 	 
C 	 -4.07053 	 -16.6425 	 69.253 	 
C 	 -4.49747 	 -16.9397 	 70.5255 	 
H 	 -4.33515 	 -15.7102 	 68.7697 	 
C 	 -2.41674 	 -17.4481 	 67.4046 	 
H 	 -1.46707 	 -17.994 	 67.3671 	 
H 	 -2.08291 	 -16.4451 	 67.5804 	 
C 	 -3.08584 	 -17.7297 	 66.0611 	 
H 	 -2.27294 	 -17.7657 	 65.2713 	 
H 	 -3.52925 	 -18.7181 	 65.948 	 
C 	 -4.23586 	 -16.8705 	 65.5935 	 
H 	 -4.5216 	 -17.0664 	 64.5669 	 
H 	 -5.13439 	 -17.0831 	 66.2134 	 
H 	 -4.12009 	 -15.7731 	 65.741 	 
S 	 -6.87496 	 -16.5622 	 72.0709 	 
C 	 -7.12459 	 -14.9919 	 72.7867 	 
C 	 -6.11764 	 -14.1349 	 72.4576 	 
C 	 -5.11245 	 -14.6665 	 71.6152 	 
C 	 -5.3028 	 -16.07 	 71.3717 	 
H 	 -6.2552 	 -13.1237 	 72.8263 	 
C 	 -3.82084 	 -13.9079 	 71.2239 	 
H 	 -4.0523 	 -12.901 	 71.2554 	 
H 	 -3.43851 	 -14.0426 	 70.1907 	 
C 	 -2.68776 	 -14.1309 	 72.1653 	 
H 	 -2.5099 	 -15.2233 	 72.1461 	 
H 	 -2.99736 	 -13.7407 	 73.1204 	 
C 	 -1.41351 	 -13.5354 	 71.6513 	 
H 	 -1.1887 	 -13.9018 	 70.6123 	 
H 	 -0.638964 	 -13.8738 	 72.3465 	 
H 	 -1.43893 	 -12.4505 	 71.6924 	 
H 	 -2.32274 	 -19.488 	 69.3129 	 
H 	 -7.95701 	 -14.7145 	 73.3222 	 
*
