! wB97X-D3 SP def2-SVP
%pal
nprocs 16
end

* xyz 0 1
S 	 0.910022 	 -2.04917 	 79.1382 	 
C 	 -0.422447 	 -2.66123 	 80.0667 	 
C 	 0.0798633 	 -3.29159 	 81.1949 	 
C 	 1.53379 	 -3.39626 	 81.1814 	 
C 	 2.13871 	 -2.91853 	 80.0164 	 
H 	 2.0904 	 -3.94532 	 81.9127 	 
C 	 -0.729273 	 -3.96968 	 82.228 	 
H 	 -1.31996 	 -3.18416 	 82.7895 	 
H 	 -0.0318131 	 -4.35523 	 83.0099 	 
C 	 -1.74994 	 -4.94644 	 81.7477 	 
H 	 -2.39279 	 -5.33021 	 82.5784 	 
H 	 -2.51792 	 -4.46866 	 81.1823 	 
C 	 -1.17763 	 -6.12898 	 80.9449 	 
H 	 -0.621792 	 -5.94104 	 80.0236 	 
H 	 -0.51349 	 -6.76313 	 81.5529 	 
H 	 -1.88699 	 -6.79709 	 80.5668 	 
S 	 4.35253 	 -4.47842 	 79.6458 	 
C 	 5.57741 	 -3.9855 	 78.5153 	 
C 	 5.46486 	 -2.62608 	 78.2751 	 
C 	 4.32879 	 -2.05426 	 78.8575 	 
C 	 3.48724 	 -2.98124 	 79.5171 	 
H 	 6.08842 	 -1.95353 	 77.7156 	 
C 	 3.99738 	 -0.566533 	 78.6184 	 
H 	 4.77117 	 0.0930223 	 78.9446 	 
H 	 3.0978 	 -0.253055 	 79.2309 	 
C 	 3.56197 	 -0.136303 	 77.2102 	 
H 	 3.15495 	 -1.00515 	 76.6399 	 
H 	 4.44102 	 0.0965928 	 76.6467 	 
C 	 2.60938 	 1.07174 	 76.9997 	 
H 	 2.89065 	 1.97115 	 77.4837 	 
H 	 1.69801 	 0.758096 	 77.5003 	 
H 	 2.37827 	 1.28264 	 75.9691 	 
H 	 -1.45115 	 -2.55201 	 79.7277 	 
H 	 6.33413 	 -4.69167 	 78.1928 	 
*
