! wB97X-D3 SP def2-SVP
%pal
nprocs 16
end

* xyz 0 1
S 	 -39.3395 	 61.7292 	 107.63 	 
C 	 -38.3664 	 61.649 	 109.102 	 
C 	 -37.0876 	 61.2761 	 108.848 	 
C 	 -36.8054 	 61.1596 	 107.461 	 
C 	 -37.9703 	 61.2192 	 106.723 	 
H 	 -35.9043 	 61.0767 	 106.92 	 
C 	 -35.9779 	 61.2273 	 109.86 	 
H 	 -34.9975 	 60.953 	 109.349 	 
H 	 -36.1893 	 60.262 	 110.439 	 
C 	 -35.869 	 62.1484 	 111.027 	 
H 	 -36.6064 	 61.8415 	 111.735 	 
H 	 -34.8699 	 62.0724 	 111.493 	 
C 	 -35.9499 	 63.5688 	 110.591 	 
H 	 -35.4308 	 64.2865 	 111.218 	 
H 	 -35.499 	 63.6338 	 109.595 	 
H 	 -36.965 	 63.8657 	 110.485 	 
S 	 -37.3312 	 59.41 	 104.793 	 
C 	 -38.0455 	 59.5643 	 103.223 	 
C 	 -38.6597 	 60.7863 	 103.043 	 
C 	 -38.6913 	 61.5759 	 104.235 	 
C 	 -38.1266 	 60.9183 	 105.309 	 
H 	 -39.0175 	 60.9625 	 102.046 	 
C 	 -39.0086 	 63.0433 	 104.171 	 
H 	 -38.4523 	 63.6591 	 103.43 	 
H 	 -38.701 	 63.473 	 105.141 	 
C 	 -40.4914 	 63.371 	 104.1 	 
H 	 -40.9127 	 62.9681 	 105.039 	 
H 	 -41.0361 	 62.8781 	 103.241 	 
C 	 -40.7706 	 64.9126 	 104.055 	 
H 	 -40.1569 	 65.3934 	 103.352 	 
H 	 -40.6338 	 65.3805 	 105.061 	 
H 	 -41.8217 	 65.0661 	 103.819 	 
H 	 -38.6558 	 61.7144 	 110.148 	 
H 	 -37.9398 	 58.8036 	 102.488 	 
*
