! wB97X-D3 SP def2-SVP
%pal
nprocs 16
end

* xyz 0 1
S 	 -110.137 	 56.8555 	 116.71 	 
C 	 -110.456 	 56.4604 	 115.038 	 
C 	 -109.867 	 55.2608 	 114.719 	 
C 	 -109.215 	 54.7205 	 115.88 	 
C 	 -109.429 	 55.2952 	 117.112 	 
H 	 -108.586 	 53.8718 	 115.838 	 
C 	 -109.731 	 54.7256 	 113.335 	 
H 	 -108.824 	 54.2325 	 113.289 	 
H 	 -109.498 	 55.5504 	 112.635 	 
C 	 -110.892 	 53.8251 	 112.69 	 
H 	 -110.679 	 53.6353 	 111.694 	 
H 	 -110.876 	 52.8119 	 113.21 	 
C 	 -112.251 	 54.4845 	 112.68 	 
H 	 -112.942 	 53.8356 	 112.17 	 
H 	 -112.577 	 54.7108 	 113.688 	 
H 	 -112.207 	 55.4576 	 112.029 	 
S 	 -107.78 	 56.3439 	 119.091 	 
C 	 -107.13 	 55.3267 	 120.347 	 
C 	 -107.773 	 54.0996 	 120.279 	 
C 	 -108.646 	 53.95 	 119.179 	 
C 	 -108.683 	 55.0349 	 118.337 	 
H 	 -107.536 	 53.3284 	 120.972 	 
C 	 -109.266 	 52.618 	 119.003 	 
H 	 -110.292 	 52.7043 	 118.64 	 
H 	 -109.51 	 52.2372 	 119.996 	 
C 	 -108.458 	 51.5629 	 118.256 	 
H 	 -107.395 	 51.7983 	 118.335 	 
H 	 -108.638 	 51.4894 	 117.158 	 
C 	 -108.733 	 50.1519 	 118.657 	 
H 	 -108.165 	 49.4296 	 118.062 	 
H 	 -109.838 	 49.8389 	 118.531 	 
H 	 -108.44 	 50.0927 	 119.668 	 
H 	 -110.805 	 57.2434 	 114.37 	 
H 	 -106.242 	 55.4774 	 120.948 	 
*
