! wB97X-D3 SP def2-SVP
%pal
nprocs 16
end

* xyz 0 1
S 	 -14.7426 	 46.7596 	 31.0569 	 
C 	 -13.2235 	 47.4325 	 30.7356 	 
C 	 -12.5017 	 47.6874 	 31.8859 	 
C 	 -13.2086 	 47.2733 	 33.0342 	 
C 	 -14.4315 	 46.6875 	 32.7651 	 
H 	 -12.9316 	 47.4418 	 34.0751 	 
C 	 -11.0288 	 48.2396 	 31.9748 	 
H 	 -11 	 48.9088 	 32.8634 	 
H 	 -10.796 	 48.8806 	 31.1146 	 
C 	 -9.93604 	 47.1394 	 31.9626 	 
H 	 -9.82016 	 46.7482 	 30.9801 	 
H 	 -9.0082 	 47.6751 	 32.2545 	 
C 	 -10.0921 	 45.9761 	 32.8972 	 
H 	 -10.3881 	 46.266 	 33.9008 	 
H 	 -11.0344 	 45.4693 	 32.6437 	 
H 	 -9.18178 	 45.351 	 32.8365 	 
S 	 -16.7303 	 47.6272 	 33.9477 	 
C 	 -17.5489 	 46.6887 	 35.2037 	 
C 	 -16.7038 	 45.5879 	 35.6017 	 
C 	 -15.5067 	 45.537 	 34.8007 	 
C 	 -15.4876 	 46.4519 	 33.7326 	 
H 	 -17.0128 	 44.836 	 36.304 	 
C 	 -14.4328 	 44.4871 	 35.0425 	 
H 	 -14.5353 	 43.9911 	 36.0307 	 
H 	 -13.4922 	 44.9661 	 35.0419 	 
C 	 -14.3978 	 43.3141 	 33.9536 	 
H 	 -14.5248 	 43.6307 	 32.9079 	 
H 	 -15.3142 	 42.7109 	 33.9515 	 
C 	 -13.2725 	 42.2665 	 34.199 	 
H 	 -13.1502 	 41.8988 	 35.2495 	 
H 	 -12.3064 	 42.6521 	 33.8788 	 
H 	 -13.4612 	 41.2917 	 33.6755 	 
H 	 -12.847 	 47.643 	 29.7274 	 
H 	 -18.6096 	 46.787 	 35.4758 	 
*
