! wB97X-D3 SP def2-SVP
%pal
nprocs 16
end

* xyz 0 1
S 	 -18.7522 	 -8.74465 	 82.2761 	 
C 	 -18.2776 	 -9.16296 	 80.67 	 
C 	 -16.9266 	 -9.29741 	 80.5706 	 
C 	 -16.254 	 -8.71945 	 81.7379 	 
C 	 -17.0726 	 -8.29193 	 82.7312 	 
H 	 -15.1919 	 -8.51644 	 81.9109 	 
C 	 -16.1634 	 -9.59498 	 79.257 	 
H 	 -16.8043 	 -9.32135 	 78.4124 	 
H 	 -16.0898 	 -10.6505 	 79.1222 	 
C 	 -14.8222 	 -8.86689 	 79.1555 	 
H 	 -15.008 	 -7.79553 	 78.8426 	 
H 	 -14.2714 	 -8.84786 	 80.1233 	 
C 	 -13.8617 	 -9.57628 	 78.1733 	 
H 	 -12.931 	 -8.97206 	 77.9698 	 
H 	 -13.6263 	 -10.6269 	 78.5391 	 
H 	 -14.4373 	 -9.68255 	 77.2261 	 
S 	 -16.129 	 -8.64906 	 85.2382 	 
C 	 -15.7891 	 -7.23327 	 86.2568 	 
C 	 -16.3403 	 -6.03453 	 85.7006 	 
C 	 -16.9356 	 -6.32532 	 84.4499 	 
C 	 -16.6757 	 -7.59247 	 83.9708 	 
H 	 -16.3928 	 -5.17947 	 86.2964 	 
C 	 -17.7142 	 -5.23649 	 83.7313 	 
H 	 -18.643 	 -5.08369 	 84.3091 	 
H 	 -18.0494 	 -5.54399 	 82.7505 	 
C 	 -16.96 	 -3.9503 	 83.6569 	 
H 	 -16.0412 	 -4.07475 	 83.1633 	 
H 	 -16.6848 	 -3.59627 	 84.5724 	 
C 	 -17.6927 	 -2.77313 	 83.0266 	 
H 	 -17.009 	 -2.1681 	 82.4691 	 
H 	 -18.0703 	 -2.20303 	 83.8405 	 
H 	 -18.5423 	 -3.01267 	 82.4861 	 
H 	 -19.0047 	 -9.51739 	 79.918 	 
H 	 -15.1905 	 -7.17293 	 87.1869 	 
*
