! wB97X-D3 SP def2-SVP
%pal
nprocs 16
end

* xyz 0 1
S 	 -1.94202 	 74.9718 	 51.1278 	 
C 	 -1.88815 	 76.5128 	 51.9525 	 
C 	 -1.61734 	 77.4911 	 51.0471 	 
C 	 -1.62312 	 77.1109 	 49.6624 	 
C 	 -1.97118 	 75.7847 	 49.5539 	 
H 	 -1.49031 	 77.7913 	 48.8573 	 
C 	 -1.18276 	 78.9281 	 51.444 	 
H 	 -0.0959009 	 78.9028 	 51.3524 	 
H 	 -1.33508 	 79.0247 	 52.4892 	 
C 	 -1.87702 	 80.0959 	 50.6144 	 
H 	 -1.7582 	 79.882 	 49.5651 	 
H 	 -2.85682 	 80.1351 	 50.8244 	 
C 	 -1.23316 	 81.5143 	 50.8998 	 
H 	 -1.38694 	 81.912 	 51.901 	 
H 	 -0.140082 	 81.5395 	 50.7709 	 
H 	 -1.77567 	 82.2118 	 50.2164 	 
S 	 -0.410357 	 74.1817 	 47.8406 	 
C 	 -1.02365 	 73.5958 	 46.3398 	 
C 	 -2.30172 	 74.0317 	 46.1336 	 
C 	 -2.84307 	 74.777 	 47.2577 	 
C 	 -1.93049 	 74.948 	 48.2537 	 
H 	 -2.73651 	 73.6837 	 45.159 	 
C 	 -4.19736 	 75.3664 	 47.134 	 
H 	 -4.42504 	 75.6456 	 46.1276 	 
H 	 -4.18166 	 76.3523 	 47.6192 	 
C 	 -5.32929 	 74.506 	 47.7207 	 
H 	 -4.98494 	 74.3125 	 48.7146 	 
H 	 -5.25845 	 73.5355 	 47.1765 	 
C 	 -6.72818 	 75.021 	 47.7507 	 
H 	 -6.9121 	 75.3485 	 46.7321 	 
H 	 -6.71889 	 75.8841 	 48.4207 	 
H 	 -7.43053 	 74.2649 	 47.9814 	 
H 	 -1.69707 	 76.6061 	 53.0722 	 
H 	 -0.431125 	 73.0857 	 45.58 	 
*
