! wB97X-D3 SP def2-SVP
%pal
nprocs 16
end

* xyz 0 1
S 	 12.5919 	 -13.9666 	 78.4514 	 
C 	 11.9403 	 -15.5963 	 78.5562 	 
C 	 11.0466 	 -15.8187 	 77.5251 	 
C 	 11.0159 	 -14.7239 	 76.6482 	 
C 	 11.8972 	 -13.7025 	 76.89 	 
H 	 10.3651 	 -14.6106 	 75.8031 	 
C 	 10.3876 	 -17.1893 	 77.2293 	 
H 	 10.7267 	 -17.8655 	 77.9534 	 
H 	 10.8164 	 -17.5477 	 76.3063 	 
C 	 8.82855 	 -17.2042 	 77.0052 	 
H 	 8.24881 	 -16.9708 	 77.8601 	 
H 	 8.653 	 -16.4744 	 76.2581 	 
C 	 8.5447 	 -18.5665 	 76.4033 	 
H 	 9.03411 	 -19.2402 	 77.119 	 
H 	 7.51928 	 -18.8578 	 76.1166 	 
H 	 9.07839 	 -18.8479 	 75.5209 	 
S 	 11.731 	 -10.9549 	 77.0512 	 
C 	 11.8021 	 -10.1004 	 75.503 	 
C 	 11.976 	 -10.8993 	 74.4176 	 
C 	 12.2415 	 -12.2543 	 74.8265 	 
C 	 12.0846 	 -12.4619 	 76.1392 	 
H 	 11.7937 	 -10.6037 	 73.411 	 
C 	 12.5421 	 -13.4499 	 73.9005 	 
H 	 12.8353 	 -14.3803 	 74.4565 	 
H 	 13.4789 	 -13.2989 	 73.3981 	 
C 	 11.4603 	 -13.7935 	 72.8046 	 
H 	 11.3215 	 -12.8927 	 72.2161 	 
H 	 10.5205 	 -13.8639 	 73.2891 	 
C 	 11.9143 	 -14.8982 	 71.8744 	 
H 	 11.9759 	 -15.7983 	 72.4566 	 
H 	 12.8132 	 -14.5936 	 71.3549 	 
H 	 11.2118 	 -15.0792 	 71.0355 	 
H 	 12.3807 	 -16.3536 	 79.1232 	 
H 	 11.4738 	 -9.05849 	 75.4506 	 
*
