! wB97X-D3 SP def2-SVP
%pal
nprocs 16
end

* xyz 0 1
S 	 -33.9235 	 74.2726 	 152.742 	 
C 	 -32.2363 	 74.6075 	 153.14 	 
C 	 -31.398 	 74.1093 	 152.151 	 
C 	 -32.0564 	 73.1669 	 151.291 	 
C 	 -33.4492 	 73.071 	 151.493 	 
H 	 -31.5943 	 72.6628 	 150.459 	 
C 	 -29.8881 	 74.4653 	 152.041 	 
H 	 -29.6517 	 75.0853 	 151.203 	 
H 	 -29.253 	 73.6509 	 151.835 	 
C 	 -29.1988 	 74.9955 	 153.347 	 
H 	 -29.5228 	 75.9716 	 153.356 	 
H 	 -29.5299 	 74.4586 	 154.22 	 
C 	 -27.6865 	 74.7365 	 153.369 	 
H 	 -27.2599 	 74.7692 	 154.373 	 
H 	 -27.5307 	 73.7328 	 153 	 
H 	 -27.1417 	 75.4573 	 152.725 	 
S 	 -35.7192 	 73.4606 	 150.052 	 
C 	 -36.2407 	 72.3382 	 148.837 	 
C 	 -35.5252 	 71.1699 	 148.964 	 
C 	 -34.319 	 71.2776 	 149.72 	 
C 	 -34.3606 	 72.4534 	 150.54 	 
H 	 -35.8245 	 70.3986 	 148.293 	 
C 	 -33.2998 	 70.2092 	 149.893 	 
H 	 -32.3112 	 70.6399 	 149.679 	 
H 	 -33.425 	 69.3909 	 149.195 	 
C 	 -33.2152 	 69.6592 	 151.337 	 
H 	 -34.0875 	 69.075 	 151.618 	 
H 	 -33.1512 	 70.4632 	 152.012 	 
C 	 -32.1459 	 68.6326 	 151.361 	 
H 	 -31.8983 	 68.2189 	 152.331 	 
H 	 -31.2411 	 69.0678 	 151.209 	 
H 	 -32.3907 	 67.7411 	 150.688 	 
H 	 -31.9972 	 75.3298 	 153.968 	 
H 	 -37.0163 	 72.5253 	 148.093 	 
*
