! wB97X-D3 SP def2-SVP
%pal
nprocs 16
end

* xyz 0 1
S 	 54.3293 	 4.86395 	 81.0676 	 
C 	 54.2317 	 3.26603 	 80.2588 	 
C 	 53.1794 	 2.49021 	 80.6606 	 
C 	 52.4278 	 3.22617 	 81.681 	 
C 	 52.7898 	 4.52683 	 81.9311 	 
H 	 51.4771 	 2.8018 	 82.0573 	 
C 	 52.9066 	 1.02387 	 80.3277 	 
H 	 53.7525 	 0.687752 	 79.7171 	 
H 	 51.9396 	 0.828365 	 80.008 	 
C 	 53.3522 	 0.0987319 	 81.4868 	 
H 	 53.4593 	 -0.891556 	 81.1183 	 
H 	 54.3268 	 0.28573 	 81.8968 	 
C 	 52.3054 	 0.146472 	 82.5903 	 
H 	 51.3396 	 -0.0614046 	 82.1192 	 
H 	 52.578 	 -0.728829 	 83.1594 	 
H 	 52.3453 	 1.00702 	 83.1844 	 
S 	 53.0645 	 6.10426 	 84.2099 	 
C 	 51.8728 	 7.15721 	 84.7411 	 
C 	 50.7143 	 7.06487 	 83.9789 	 
C 	 50.918 	 6.14084 	 82.8422 	 
C 	 52.1556 	 5.54587 	 82.7418 	 
H 	 49.8368 	 7.60696 	 84.2558 	 
C 	 49.7319 	 5.92876 	 81.8965 	 
H 	 50.2359 	 5.54643 	 81.0453 	 
H 	 49.2561 	 6.88791 	 81.6991 	 
C 	 48.6784 	 4.8929 	 82.3646 	 
H 	 48.1605 	 5.08877 	 83.2825 	 
H 	 49.2276 	 3.9432 	 82.6556 	 
C 	 47.5405 	 4.5812 	 81.3442 	 
H 	 47.9594 	 4.68002 	 80.352 	 
H 	 46.6272 	 5.26043 	 81.3461 	 
H 	 47.1342 	 3.59266 	 81.4334 	 
H 	 54.8818 	 2.93418 	 79.4562 	 
H 	 51.9549 	 7.67395 	 85.7462 	 
*
