! wB97X-D3 SP def2-SVP
%pal
nprocs 16
end

* xyz 0 1
S 	 6.04072 	 26.7859 	 69.2357 	 
C 	 4.34633 	 26.8259 	 68.722 	 
C 	 4.34532 	 27.0442 	 67.3497 	 
C 	 5.59905 	 27.4067 	 66.8088 	 
C 	 6.55863 	 27.454 	 67.6578 	 
H 	 5.83157 	 27.6845 	 65.837 	 
C 	 3.14002 	 26.7435 	 66.4368 	 
H 	 3.15004 	 27.3145 	 65.5492 	 
H 	 2.21907 	 26.9835 	 66.975 	 
C 	 3.05486 	 25.2434 	 66.0269 	 
H 	 4.10553 	 25.0519 	 65.7643 	 
H 	 2.85316 	 24.4466 	 66.774 	 
C 	 2.18322 	 25.0659 	 64.7501 	 
H 	 2.65215 	 24.2224 	 64.3106 	 
H 	 1.16352 	 24.8052 	 65.0309 	 
H 	 2.20676 	 25.9273 	 64.0945 	 
S 	 8.65551 	 29.062 	 67.9982 	 
C 	 9.96823 	 28.9494 	 66.8971 	 
C 	 9.82106 	 27.8567 	 66.1111 	 
C 	 8.66048 	 27.0616 	 66.2675 	 
C 	 7.94714 	 27.6414 	 67.2738 	 
H 	 10.5109 	 27.7212 	 65.2609 	 
C 	 8.29495 	 25.8372 	 65.4859 	 
H 	 7.32279 	 25.5547 	 65.9259 	 
H 	 8.97225 	 24.9498 	 65.5433 	 
C 	 8.17731 	 26.0944 	 63.9489 	 
H 	 8.94804 	 26.5592 	 63.3724 	 
H 	 7.35471 	 26.781 	 63.8486 	 
C 	 7.70206 	 24.8083 	 63.2577 	 
H 	 6.89827 	 24.3399 	 63.7827 	 
H 	 8.53594 	 24.0712 	 63.2082 	 
H 	 7.24248 	 24.9577 	 62.2782 	 
H 	 3.46246 	 26.5756 	 69.3193 	 
H 	 10.6745 	 29.6991 	 66.6531 	 
*
