! wB97X-D3 SP def2-SVP
%pal
nprocs 16
end

* xyz 0 1
S 	 12.8485 	 -1.01679 	 64.1895 	 
C 	 11.4312 	 -1.37686 	 63.2464 	 
C 	 11.3845 	 -0.642539 	 62.0848 	 
C 	 12.5126 	 0.250847 	 61.9966 	 
C 	 13.4166 	 0.182367 	 63.0281 	 
H 	 12.7119 	 0.889361 	 61.1662 	 
C 	 10.1773 	 -0.529121 	 61.307 	 
H 	 10.0938 	 0.423037 	 60.7241 	 
H 	 9.44237 	 -0.487733 	 62.0142 	 
C 	 10.0658 	 -1.71025 	 60.3343 	 
H 	 10.7682 	 -1.5833 	 59.5238 	 
H 	 10.2771 	 -2.68237 	 60.7215 	 
C 	 8.71522 	 -1.67978 	 59.7011 	 
H 	 8.75284 	 -2.05585 	 58.7265 	 
H 	 7.96325 	 -2.21497 	 60.2937 	 
H 	 8.31767 	 -0.659368 	 59.7 	 
S 	 16.0074 	 -0.183815 	 63.4766 	 
C 	 17.1648 	 1.1845 	 63.3578 	 
C 	 16.5629 	 2.27364 	 62.7312 	 
C 	 15.1582 	 2.06838 	 62.5255 	 
C 	 14.6846 	 0.819568 	 63.0559 	 
H 	 17.1981 	 3.0579 	 62.4544 	 
C 	 14.2543 	 3.21994 	 61.9089 	 
H 	 13.674 	 2.82199 	 61.0809 	 
H 	 15.055 	 3.94205 	 61.4736 	 
C 	 13.3288 	 3.8442 	 62.9688 	 
H 	 13.949 	 4.36867 	 63.6782 	 
H 	 12.6839 	 3.12261 	 63.4862 	 
C 	 12.3078 	 4.83984 	 62.3938 	 
H 	 11.4855 	 4.2009 	 62.0179 	 
H 	 12.7965 	 5.42777 	 61.5421 	 
H 	 11.9774 	 5.715 	 62.9927 	 
H 	 10.5869 	 -1.96747 	 63.605 	 
H 	 18.1834 	 1.32924 	 63.7138 	 
*
