! wB97X-D3 SP def2-SVP
%pal
nprocs 16
end

* xyz 0 1
S 	 10.8595 	 -14.2877 	 86.3099 	 
C 	 12.5854 	 -14.6135 	 86.2879 	 
C 	 13.1935 	 -13.8163 	 87.2844 	 
C 	 12.2764 	 -12.9308 	 87.9629 	 
C 	 11.0289 	 -12.9631 	 87.3784 	 
H 	 12.5537 	 -12.2578 	 88.7744 	 
C 	 14.6133 	 -13.9466 	 87.7234 	 
H 	 15.2297 	 -13.0107 	 87.9824 	 
H 	 15.1149 	 -14.4085 	 86.9034 	 
C 	 14.8128 	 -14.8752 	 88.8873 	 
H 	 15.9336 	 -14.9297 	 88.963 	 
H 	 14.4399 	 -14.2696 	 89.7138 	 
C 	 14.3366 	 -16.322 	 88.884 	 
H 	 14.882 	 -17.0079 	 88.156 	 
H 	 14.3319 	 -16.7255 	 89.8833 	 
H 	 13.3145 	 -16.2504 	 88.4824 	 
S 	 8.71422 	 -13.381 	 88.5922 	 
C 	 7.60292 	 -12.0905 	 88.9239 	 
C 	 8.30254 	 -10.9059 	 88.8722 	 
C 	 9.62171 	 -11.0509 	 88.2972 	 
C 	 9.88412 	 -12.3298 	 87.891 	 
H 	 7.98306 	 -9.91286 	 89.1585 	 
C 	 10.5434 	 -9.82427 	 88.2124 	 
H 	 11.6069 	 -10.1114 	 88.2267 	 
H 	 10.3586 	 -9.29376 	 89.1369 	 
C 	 10.2677 	 -8.85609 	 87.0507 	 
H 	 9.18558 	 -8.69617 	 87.1178 	 
H 	 10.3638 	 -9.24587 	 86.1308 	 
C 	 10.911 	 -7.50086 	 87.1655 	 
H 	 10.9111 	 -7.10425 	 88.161 	 
H 	 10.4391 	 -6.81549 	 86.4459 	 
H 	 11.9468 	 -7.71116 	 86.8703 	 
H 	 12.9825 	 -15.4825 	 85.7825 	 
H 	 6.52297 	 -12.3189 	 89.0745 	 
*
