! wB97X-D3 SP def2-SVP
%pal
nprocs 16
end

* xyz 0 1
S 	 -1.24903 	 14.0824 	 87.9584 	 
C 	 -2.71495 	 14.6433 	 87.2405 	 
C 	 -3.13465 	 15.7486 	 87.9607 	 
C 	 -2.36436 	 16.0667 	 89.09 	 
C 	 -1.2027 	 15.2853 	 89.273 	 
H 	 -2.50032 	 16.8582 	 89.8247 	 
C 	 -4.33321 	 16.5427 	 87.4821 	 
H 	 -4.35769 	 16.3332 	 86.4224 	 
H 	 -4.20672 	 17.6387 	 87.5338 	 
C 	 -5.66458 	 16.2643 	 88.2378 	 
H 	 -6.44853 	 16.9016 	 87.8718 	 
H 	 -6.01007 	 15.24 	 88.1379 	 
C 	 -5.56193 	 16.5026 	 89.7438 	 
H 	 -6.54116 	 16.5028 	 90.2798 	 
H 	 -4.86412 	 15.7689 	 90.1255 	 
H 	 -5.09245 	 17.4648 	 89.9678 	 
S 	 -0.155613 	 16.7773 	 91.2643 	 
C 	 1.03248 	 16.1423 	 92.3132 	 
C 	 1.23221 	 14.8056 	 92.0505 	 
C 	 0.398288 	 14.2792 	 91.0171 	 
C 	 -0.343159 	 15.2332 	 90.3986 	 
H 	 1.89301 	 14.253 	 92.7246 	 
C 	 0.596317 	 12.8891 	 90.3844 	 
H 	 -0.347992 	 12.5824 	 90.0336 	 
H 	 0.718664 	 12.1718 	 91.1267 	 
C 	 1.75195 	 12.6386 	 89.2869 	 
H 	 1.55122 	 13.1479 	 88.3854 	 
H 	 1.80237 	 11.4984 	 89.1058 	 
C 	 3.20881 	 13.0397 	 89.8084 	 
H 	 3.42341 	 14.0918 	 89.5714 	 
H 	 3.96925 	 12.4076 	 89.313 	 
H 	 3.30552 	 12.9223 	 90.9189 	 
H 	 -3.2072 	 14.2848 	 86.3553 	 
H 	 1.67528 	 16.6649 	 93.0219 	 
*
