! wB97X-D3 SP def2-SVP
%pal
nprocs 16
end

* xyz 0 1
S 	 -6.15138 	 46.0393 	 39.3999 	 
C 	 -7.78628 	 45.3309 	 39.3265 	 
C 	 -8.30717 	 45.1374 	 40.5849 	 
C 	 -7.42274 	 45.5641 	 41.5956 	 
C 	 -6.24959 	 46.1404 	 41.1349 	 
H 	 -7.52896 	 45.5544 	 42.6587 	 
C 	 -9.70748 	 44.653 	 40.895 	 
H 	 -9.76929 	 43.6266 	 41.2334 	 
H 	 -10.3699 	 44.8828 	 40.0761 	 
C 	 -10.438 	 45.4664 	 42.0372 	 
H 	 -11.4312 	 44.8905 	 42.3094 	 
H 	 -9.92502 	 45.3369 	 42.9848 	 
C 	 -10.6612 	 46.902 	 41.645 	 
H 	 -11.3188 	 47.4892 	 42.2645 	 
H 	 -9.77362 	 47.5261 	 41.7579 	 
H 	 -11.0515 	 46.9925 	 40.6683 	 
S 	 -4.26331 	 45.6092 	 42.9244 	 
C 	 -3.279 	 46.9046 	 43.5784 	 
C 	 -3.66448 	 48.1151 	 43.0142 	 
C 	 -4.72502 	 48.0575 	 42.0628 	 
C 	 -5.2322 	 46.7397 	 41.962 	 
H 	 -3.00497 	 48.959 	 43.3442 	 
C 	 -5.23974 	 49.2762 	 41.3576 	 
H 	 -5.57537 	 48.8423 	 40.4782 	 
H 	 -4.45 	 49.999 	 41.0819 	 
C 	 -6.26655 	 50.0267 	 42.2277 	 
H 	 -5.77209 	 50.6466 	 42.9842 	 
H 	 -6.89636 	 49.2341 	 42.6832 	 
C 	 -7.37391 	 50.6898 	 41.4683 	 
H 	 -7.83755 	 49.9657 	 40.8683 	 
H 	 -6.98286 	 51.5164 	 40.8682 	 
H 	 -8.21849 	 51.0427 	 42.1543 	 
H 	 -8.38386 	 45.1165 	 38.4564 	 
H 	 -2.4105 	 46.7741 	 44.2165 	 
*
