! wB97X-D3 SP def2-SVP
%pal
nprocs 16
end

* xyz 0 1
S 	 -56.057 	 35.8264 	 112.823 	 
C 	 -54.6181 	 35.1761 	 112.146 	 
C 	 -53.6509 	 36.1495 	 112.039 	 
C 	 -54.0773 	 37.4164 	 112.492 	 
C 	 -55.3904 	 37.4186 	 112.903 	 
H 	 -53.4302 	 38.3116 	 112.425 	 
C 	 -52.2403 	 35.8992 	 111.469 	 
H 	 -52.3993 	 35.6209 	 110.423 	 
H 	 -51.7645 	 35.0599 	 112.063 	 
C 	 -51.2379 	 37.0256 	 111.555 	 
H 	 -50.3788 	 36.7694 	 110.947 	 
H 	 -51.7823 	 37.8535 	 111.096 	 
C 	 -50.7763 	 37.3093 	 112.962 	 
H 	 -50.3419 	 36.4095 	 113.332 	 
H 	 -49.9837 	 38.0115 	 113.016 	 
H 	 -51.6735 	 37.7035 	 113.483 	 
S 	 -57.7712 	 38.6906 	 112.523 	 
C 	 -58.0098 	 40.384 	 112.97 	 
C 	 -56.8072 	 40.8638 	 113.503 	 
C 	 -55.8007 	 39.8626 	 113.608 	 
C 	 -56.2027 	 38.598 	 113.188 	 
H 	 -56.7193 	 41.9142 	 113.72 	 
C 	 -54.4763 	 40.1478 	 114.12 	 
H 	 -53.8329 	 40.5307 	 113.28 	 
H 	 -53.9386 	 39.3524 	 114.534 	 
C 	 -54.3478 	 41.2466 	 115.233 	 
H 	 -54.9985 	 41.1217 	 116.07 	 
H 	 -54.821 	 42.1873 	 114.832 	 
C 	 -52.8776 	 41.5648 	 115.599 	 
H 	 -52.3296 	 40.6982 	 115.918 	 
H 	 -52.7897 	 42.2687 	 116.425 	 
H 	 -52.2799 	 41.8686 	 114.829 	 
H 	 -54.2916 	 34.1846 	 112.011 	 
H 	 -58.9509 	 40.8552 	 112.9 	 
*
