! wB97X-D3 SP def2-SVP
%pal
nprocs 16
end

* xyz 0 1
S 	 50.2983 	 20.0399 	 80.9562 	 
C 	 49.2538 	 20.5171 	 82.2419 	 
C 	 48.8322 	 19.4531 	 82.9746 	 
C 	 49.2515 	 18.2154 	 82.3777 	 
C 	 50.1453 	 18.4135 	 81.3674 	 
H 	 48.9099 	 17.2447 	 82.7284 	 
C 	 47.8615 	 19.4663 	 84.1108 	 
H 	 47.2764 	 18.6532 	 83.808 	 
H 	 47.1237 	 20.2403 	 84.0798 	 
C 	 48.3897 	 19.3239 	 85.5991 	 
H 	 48.8103 	 20.2658 	 85.8914 	 
H 	 47.5955 	 19.1529 	 86.3401 	 
C 	 49.4408 	 18.206 	 85.783 	 
H 	 50.2584 	 18.0719 	 85.0501 	 
H 	 49.9698 	 18.4186 	 86.7205 	 
H 	 48.85 	 17.3362 	 86.0629 	 
S 	 50.3192 	 17.3333 	 78.8714 	 
C 	 51.1867 	 15.8162 	 78.5777 	 
C 	 51.622 	 15.2424 	 79.7829 	 
C 	 51.2158 	 16.0661 	 80.9061 	 
C 	 50.7155 	 17.3409 	 80.5398 	 
H 	 52.1588 	 14.2897 	 79.7967 	 
C 	 51.7335 	 15.6703 	 82.2719 	 
H 	 52.0973 	 14.5925 	 82.3271 	 
H 	 50.8731 	 15.8192 	 82.9857 	 
C 	 52.8898 	 16.5229 	 82.7485 	 
H 	 53.0761 	 16.4032 	 83.7566 	 
H 	 52.6286 	 17.5365 	 82.6508 	 
C 	 54.236 	 16.3322 	 82.0412 	 
H 	 54.6107 	 15.2856 	 82.2802 	 
H 	 54.9333 	 17.0922 	 82.4278 	 
H 	 54.1759 	 16.4303 	 81.0059 	 
H 	 49.0814 	 21.6161 	 82.445 	 
H 	 51.4091 	 15.365 	 77.6248 	 
*
