! wB97X-D3 SP def2-SVP
%pal
nprocs 16
end

* xyz 0 1
S 	 41.6148 	 9.38739 	 87.106 	 
C 	 43.1722 	 10.1628 	 87.0615 	 
C 	 43.9571 	 9.76112 	 88.153 	 
C 	 43.2749 	 8.86473 	 88.9825 	 
C 	 41.9861 	 8.54769 	 88.5643 	 
H 	 43.6891 	 8.58162 	 89.9491 	 
C 	 45.2505 	 10.3746 	 88.544 	 
H 	 45.2327 	 10.2244 	 89.5715 	 
H 	 45.1877 	 11.4437 	 88.3598 	 
C 	 46.4279 	 9.81795 	 87.8501 	 
H 	 46.2782 	 9.86614 	 86.7756 	 
H 	 47.3668 	 10.406 	 87.9814 	 
C 	 46.7904 	 8.34967 	 88.1274 	 
H 	 45.9523 	 7.69488 	 87.8576 	 
H 	 47.8208 	 8.02962 	 87.7372 	 
H 	 47.0522 	 8.28666 	 89.1754 	 
S 	 39.7603 	 8.78098 	 90.1362 	 
C 	 39.0174 	 7.2806 	 90.6164 	 
C 	 39.7429 	 6.15402 	 90.4038 	 
C 	 40.8821 	 6.48459 	 89.6258 	 
C 	 40.9645 	 7.83532 	 89.3028 	 
H 	 39.4111 	 5.16856 	 90.7453 	 
C 	 41.678 	 5.3552 	 89.0279 	 
H 	 41.2923 	 4.45913 	 89.4975 	 
H 	 42.706 	 5.32544 	 89.4982 	 
C 	 41.6419 	 5.25222 	 87.4669 	 
H 	 42.203 	 6.0761 	 87.0475 	 
H 	 40.5867 	 5.40939 	 87.0824 	 
C 	 42.2297 	 4.02067 	 86.7102 	 
H 	 42.0184 	 4.15198 	 85.6622 	 
H 	 41.7932 	 3.15604 	 87.226 	 
H 	 43.3681 	 4.08342 	 86.9201 	 
H 	 43.3842 	 11.0464 	 86.4875 	 
H 	 38.0933 	 7.26009 	 91.1569 	 
*
