! wB97X-D3 SP def2-SVP
%pal
nprocs 16
end

* xyz 0 1
S 	 -2.3674 	 75.5353 	 57.947 	 
C 	 -1.66844 	 74.135 	 58.7376 	 
C 	 -2.13345 	 72.9314 	 58.3343 	 
C 	 -3.0439 	 73.0752 	 57.2212 	 
C 	 -3.19332 	 74.4012 	 56.8233 	 
H 	 -3.61958 	 72.2326 	 56.8848 	 
C 	 -1.73903 	 71.5639 	 58.926 	 
H 	 -2.4553 	 70.875 	 58.4887 	 
H 	 -1.94975 	 71.554 	 60.0113 	 
C 	 -0.32952 	 71.1039 	 58.6012 	 
H 	 -0.0940717 	 71.2515 	 57.5489 	 
H 	 0.38432 	 71.6847 	 59.2136 	 
C 	 -0.11039 	 69.6181 	 59.0141 	 
H 	 0.921737 	 69.3003 	 59.0616 	 
H 	 -0.468493 	 69.3921 	 59.9995 	 
H 	 -0.571644 	 69.0328 	 58.2197 	 
S 	 -5.25157 	 75.9825 	 56.1149 	 
C 	 -5.74676 	 76.1394 	 54.475 	 
C 	 -5.1396 	 75.2416 	 53.6433 	 
C 	 -4.22115 	 74.4122 	 54.4066 	 
C 	 -3.96879 	 74.8713 	 55.7128 	 
H 	 -5.43482 	 75.1833 	 52.5634 	 
C 	 -3.38749 	 73.4183 	 53.6384 	 
H 	 -3.91197 	 72.9453 	 52.8602 	 
H 	 -3.21471 	 72.7454 	 54.4539 	 
C 	 -2.06308 	 73.8733 	 53.1163 	 
H 	 -2.22523 	 74.5614 	 52.3387 	 
H 	 -1.54959 	 73.0047 	 52.6831 	 
C 	 -0.90898 	 74.4313 	 54.0166 	 
H 	 -0.77785 	 73.8677 	 54.971 	 
H 	 -1.08407 	 75.4782 	 54.2623 	 
H 	 0.019964 	 74.3637 	 53.4007 	 
H 	 -0.852058 	 74.3255 	 59.4198 	 
H 	 -6.57622 	 76.7124 	 54.1172 	 
*
