! wB97X-D3 SP def2-SVP
%pal
nprocs 16
end

* xyz 0 1
S 	 -43.8449 	 14.9063 	 76.3322 	 
C 	 -42.3626 	 15.8146 	 76.3558 	 
C 	 -41.3272 	 15.1467 	 75.7597 	 
C 	 -41.7503 	 13.8964 	 75.2224 	 
C 	 -43.0962 	 13.7427 	 75.3172 	 
H 	 -41.2421 	 13.0723 	 74.744 	 
C 	 -39.9947 	 15.7091 	 75.4346 	 
H 	 -39.8215 	 16.4889 	 76.1742 	 
H 	 -40.178 	 16.2099 	 74.4968 	 
C 	 -38.7822 	 14.7729 	 75.3711 	 
H 	 -38.801 	 14.217 	 76.3129 	 
H 	 -38.7905 	 14.0612 	 74.5553 	 
C 	 -37.4189 	 15.4618 	 75.3433 	 
H 	 -37.2087 	 16.2045 	 76.1958 	 
H 	 -36.6517 	 14.6829 	 75.5273 	 
H 	 -37.3273 	 16.0207 	 74.4804 	 
S 	 -44.9548 	 12.8332 	 73.4908 	 
C 	 -45.3737 	 11.2439 	 73.3854 	 
C 	 -44.6322 	 10.4848 	 74.2426 	 
C 	 -43.7951 	 11.2726 	 75.0187 	 
C 	 -43.8869 	 12.6298 	 74.7782 	 
H 	 -44.8778 	 9.39799 	 74.2994 	 
C 	 -42.9066 	 10.5375 	 76.0154 	 
H 	 -43.6053 	 10.0039 	 76.7688 	 
H 	 -42.2205 	 11.2024 	 76.5131 	 
C 	 -42.0407 	 9.42327 	 75.4091 	 
H 	 -41.5093 	 9.71263 	 74.5652 	 
H 	 -42.6486 	 8.54184 	 75.2191 	 
C 	 -41.0369 	 9.01021 	 76.4388 	 
H 	 -41.5873 	 8.71757 	 77.3431 	 
H 	 -40.2587 	 9.7349 	 76.8323 	 
H 	 -40.5303 	 8.06129 	 76.1903 	 
H 	 -42.0852 	 16.6358 	 76.9611 	 
H 	 -46.2321 	 10.8211 	 72.8041 	 
*
