! wB97X-D3 SP def2-SVP
%pal
nprocs 16
end

* xyz 0 1
S 	 -4.2024 	 47.206 	 37.5837 	 
C 	 -5.37359 	 45.9746 	 37.7443 	 
C 	 -5.65422 	 45.6871 	 39.0773 	 
C 	 -4.89042 	 46.4686 	 39.9968 	 
C 	 -4.01294 	 47.3258 	 39.3632 	 
H 	 -4.97261 	 46.3976 	 41.1125 	 
C 	 -6.7 	 44.7071 	 39.5582 	 
H 	 -6.15276 	 43.753 	 39.59 	 
H 	 -7.41241 	 44.604 	 38.7439 	 
C 	 -7.48193 	 44.8598 	 40.9378 	 
H 	 -8.09055 	 43.9463 	 41.0277 	 
H 	 -6.82592 	 44.921 	 41.814 	 
C 	 -8.38706 	 46.1427 	 40.9584 	 
H 	 -9.37128 	 45.9663 	 40.4583 	 
H 	 -8.5414 	 46.3278 	 42.0071 	 
H 	 -7.76252 	 46.9564 	 40.4986 	 
S 	 -1.66117 	 48.6397 	 38.991 	 
C 	 -1.07714 	 49.7044 	 40.276 	 
C 	 -1.77246 	 49.4979 	 41.4399 	 
C 	 -2.95126 	 48.6443 	 41.2752 	 
C 	 -3.02929 	 48.1951 	 40.0034 	 
H 	 -1.46537 	 49.9895 	 42.3227 	 
C 	 -4.14053 	 48.6376 	 42.2684 	 
H 	 -4.25797 	 47.9006 	 43.0417 	 
H 	 -5.07498 	 48.5279 	 41.689 	 
C 	 -4.32687 	 50.0312 	 42.9996 	 
H 	 -4.34148 	 50.8312 	 42.2373 	 
H 	 -3.43725 	 50.2919 	 43.5502 	 
C 	 -5.62323 	 50.199 	 43.8215 	 
H 	 -5.40757 	 51.076 	 44.411 	 
H 	 -5.76551 	 49.3793 	 44.4749 	 
H 	 -6.48478 	 50.3336 	 43.1387 	 
H 	 -5.77625 	 45.3505 	 36.9441 	 
H 	 -0.283317 	 50.354 	 40.1357 	 
*
