! wB97X-D3 SP def2-SVP
%pal
nprocs 16
end

* xyz 0 1
S 	 -69.1507 	 54.7905 	 121.074 	 
C 	 -68.6292 	 56.2005 	 122.006 	 
C 	 -69.0197 	 57.4036 	 121.423 	 
C 	 -69.8726 	 57.1836 	 120.327 	 
C 	 -70.0695 	 55.8482 	 119.996 	 
H 	 -70.2641 	 57.8938 	 119.666 	 
C 	 -68.7297 	 58.7472 	 122.075 	 
H 	 -69.4105 	 59.4113 	 121.492 	 
H 	 -67.7255 	 59.0686 	 121.992 	 
C 	 -69.1842 	 58.9879 	 123.555 	 
H 	 -69.8137 	 58.1391 	 123.78 	 
H 	 -68.3452 	 58.7424 	 124.255 	 
C 	 -69.8206 	 60.4033 	 123.914 	 
H 	 -70.6172 	 60.635 	 123.139 	 
H 	 -70.1787 	 60.3645 	 124.919 	 
H 	 -69.0583 	 61.1477 	 123.943 	 
S 	 -71.4398 	 56.7261 	 117.776 	 
C 	 -72.2615 	 55.563 	 116.761 	 
C 	 -72.2279 	 54.2855 	 117.319 	 
C 	 -71.4395 	 54.1308 	 118.548 	 
C 	 -70.8907 	 55.3865 	 118.859 	 
H 	 -72.6777 	 53.4844 	 116.695 	 
C 	 -71.2475 	 52.8859 	 119.347 	 
H 	 -71.2505 	 53.2696 	 120.358 	 
H 	 -70.2399 	 52.5183 	 119.213 	 
C 	 -72.3099 	 51.699 	 119.239 	 
H 	 -72.4471 	 51.4501 	 118.138 	 
H 	 -73.288 	 52.066 	 119.554 	 
C 	 -71.7729 	 50.5451 	 120.131 	 
H 	 -70.9227 	 50.2954 	 119.441 	 
H 	 -72.5269 	 49.7105 	 120.086 	 
H 	 -71.4785 	 50.8727 	 121.091 	 
H 	 -68.0603 	 56.0661 	 122.918 	 
H 	 -72.5837 	 55.7957 	 115.82 	 
*
