! wB97X-D3 SP def2-SVP
%pal
nprocs 16
end

* xyz 0 1
S 	 -37.31 	 30.1311 	 93.5778 	 
C 	 -38.2628 	 29.7379 	 94.9883 	 
C 	 -39.6132 	 29.6031 	 94.648 	 
C 	 -39.8496 	 29.7649 	 93.2678 	 
C 	 -38.6868 	 29.7755 	 92.5173 	 
H 	 -40.8371 	 29.6782 	 92.8873 	 
C 	 -40.7822 	 29.5173 	 95.6248 	 
H 	 -40.4336 	 28.8199 	 96.4299 	 
H 	 -41.5394 	 29.2214 	 94.9369 	 
C 	 -41.1732 	 30.9139 	 96.1792 	 
H 	 -41.8794 	 30.7768 	 96.953 	 
H 	 -40.295 	 31.4171 	 96.6312 	 
C 	 -41.8182 	 31.9251 	 95.2798 	 
H 	 -41.3614 	 31.9361 	 94.306 	 
H 	 -42.9061 	 31.7003 	 95.131 	 
H 	 -41.6988 	 32.9043 	 95.8013 	 
S 	 -38.6164 	 31.4348 	 90.3016 	 
C 	 -38.9726 	 30.8086 	 88.7518 	 
C 	 -38.9411 	 29.4233 	 88.7061 	 
C 	 -38.8001 	 28.85 	 90.0681 	 
C 	 -38.6424 	 29.817 	 91.0659 	 
H 	 -39.09 	 28.9519 	 87.7627 	 
C 	 -38.9883 	 27.3721 	 90.3399 	 
H 	 -39.728 	 27.0998 	 89.5669 	 
H 	 -39.5038 	 27.1583 	 91.2897 	 
C 	 -37.6872 	 26.4927 	 90.3021 	 
H 	 -38.1547 	 25.503 	 90.1504 	 
H 	 -37.0882 	 26.7158 	 91.1899 	 
C 	 -36.8547 	 26.7755 	 89.1012 	 
H 	 -36.3423 	 27.7837 	 89.1135 	 
H 	 -37.4858 	 26.6612 	 88.2023 	 
H 	 -36.0353 	 26.0418 	 88.9828 	 
H 	 -37.7533 	 29.7863 	 96.0145 	 
H 	 -38.7997 	 31.4266 	 87.8723 	 
*
