! wB97X-D3 SP def2-SVP
%pal
nprocs 16
end

* xyz 0 1
S 	 -98.349 	 38.8941 	 125.587 	 
C 	 -98.5962 	 38.2715 	 127.208 	 
C 	 -97.8278 	 39.0054 	 128.102 	 
C 	 -97.1921 	 40.1597 	 127.417 	 
C 	 -97.4867 	 40.2505 	 126.066 	 
H 	 -96.5871 	 40.9295 	 127.895 	 
C 	 -97.6945 	 38.8342 	 129.611 	 
H 	 -98.0402 	 39.7376 	 130.096 	 
H 	 -96.6665 	 38.8004 	 129.863 	 
C 	 -98.2844 	 37.594 	 130.3 	 
H 	 -99.3898 	 37.6983 	 130.173 	 
H 	 -97.8937 	 36.6791 	 129.794 	 
C 	 -97.9014 	 37.4167 	 131.782 	 
H 	 -98.2921 	 38.1748 	 132.448 	 
H 	 -98.2874 	 36.465 	 132.198 	 
H 	 -96.8353 	 37.2727 	 131.963 	 
S 	 -95.9549 	 40.6055 	 123.836 	 
C 	 -95.7777 	 42.1705 	 123.037 	 
C 	 -96.5794 	 43.0819 	 123.599 	 
C 	 -97.2325 	 42.5615 	 124.769 	 
C 	 -97.0081 	 41.194 	 125.068 	 
H 	 -96.7337 	 44.0369 	 123.148 	 
C 	 -98.289 	 43.4171 	 125.557 	 
H 	 -97.7314 	 44.2249 	 126.027 	 
H 	 -98.5904 	 42.8857 	 126.495 	 
C 	 -99.4353 	 43.8907 	 124.76 	 
H 	 -99.1323 	 44.629 	 124.068 	 
H 	 -100.062 	 44.4819 	 125.454 	 
C 	 -100.33 	 42.7843 	 124.079 	 
H 	 -99.7937 	 42.2781 	 123.332 	 
H 	 -101.155 	 43.2122 	 123.572 	 
H 	 -100.68 	 42.1756 	 124.9 	 
H 	 -99.1775 	 37.3604 	 127.421 	 
H 	 -95.1081 	 42.4598 	 122.164 	 
*
