! wB97X-D3 SP def2-SVP
%pal
nprocs 16
end

* xyz 0 1
S 	 53.2718 	 1.38009 	 85.0861 	 
C 	 51.8424 	 0.449513 	 84.616 	 
C 	 50.7003 	 1.00188 	 85.0968 	 
C 	 50.9897 	 2.17587 	 85.9552 	 
C 	 52.3586 	 2.50545 	 85.9858 	 
H 	 50.3278 	 2.82429 	 86.4656 	 
C 	 49.3632 	 0.423832 	 84.7468 	 
H 	 49.2853 	 -0.460131 	 85.3803 	 
H 	 49.3528 	 0.0950484 	 83.6772 	 
C 	 48.1771 	 1.33857 	 84.9068 	 
H 	 48.0826 	 1.87492 	 85.8463 	 
H 	 48.2046 	 2.03804 	 84.0302 	 
C 	 46.871 	 0.47328 	 84.7666 	 
H 	 46.9826 	 -0.423693 	 84.0779 	 
H 	 46.5479 	 0.0942309 	 85.7033 	 
H 	 46.0722 	 1.13353 	 84.4305 	 
S 	 52.0763 	 4.9283 	 87.091 	 
C 	 53.2934 	 5.72136 	 88.0082 	 
C 	 54.4104 	 4.95271 	 88.0923 	 
C 	 54.2055 	 3.63009 	 87.5121 	 
C 	 53.0209 	 3.58017 	 86.7252 	 
H 	 55.2694 	 5.30997 	 88.5896 	 
C 	 55.2588 	 2.51855 	 87.7128 	 
H 	 56.1689 	 2.73618 	 87.1184 	 
H 	 54.8355 	 1.58827 	 87.3667 	 
C 	 55.8341 	 2.39545 	 89.1271 	 
H 	 54.9507 	 2.30507 	 89.8318 	 
H 	 56.4185 	 3.23899 	 89.4527 	 
C 	 56.7781 	 1.17337 	 89.3002 	 
H 	 56.2378 	 0.303276 	 89.2267 	 
H 	 57.2111 	 1.25346 	 90.2839 	 
H 	 57.655 	 1.06641 	 88.6231 	 
H 	 51.7693 	 -0.465902 	 84.0193 	 
H 	 53.2225 	 6.70895 	 88.4607 	 
*
