! wB97X-D3 SP def2-SVP
%pal
nprocs 16
end

* xyz 0 1
S 	 -50.7925 	 51.1436 	 106.465 	 
C 	 -50.2859 	 51.4938 	 108.081 	 
C 	 -49.1193 	 50.8206 	 108.383 	 
C 	 -48.7986 	 49.8819 	 107.369 	 
C 	 -49.6132 	 49.9584 	 106.233 	 
H 	 -48.0522 	 49.0401 	 107.53 	 
C 	 -48.2298 	 51.0998 	 109.595 	 
H 	 -48.3607 	 52.1757 	 109.926 	 
H 	 -47.3044 	 50.8553 	 109.064 	 
C 	 -48.4442 	 50.1731 	 110.732 	 
H 	 -49.4586 	 50.2792 	 111.062 	 
H 	 -48.3813 	 49.1395 	 110.265 	 
C 	 -47.3307 	 50.1098 	 111.773 	 
H 	 -46.3523 	 49.9552 	 111.376 	 
H 	 -47.3358 	 50.9799 	 112.488 	 
H 	 -47.3964 	 49.2588 	 112.379 	 
S 	 -50.488 	 49.776 	 103.549 	 
C 	 -50.6235 	 48.2151 	 102.847 	 
C 	 -50.1597 	 47.2875 	 103.66 	 
C 	 -49.6275 	 47.7571 	 104.932 	 
C 	 -49.7838 	 49.1169 	 105.06 	 
H 	 -50.2577 	 46.2848 	 103.313 	 
C 	 -49.2008 	 46.7574 	 106.056 	 
H 	 -49.2808 	 47.2072 	 107.141 	 
H 	 -48.0974 	 46.5576 	 105.909 	 
C 	 -49.8913 	 45.3798 	 106.015 	 
H 	 -49.5321 	 44.883 	 105.081 	 
H 	 -51.0062 	 45.561 	 105.922 	 
C 	 -49.6986 	 44.5104 	 107.225 	 
H 	 -50.2954 	 43.6194 	 107.113 	 
H 	 -49.8239 	 45.1234 	 108.128 	 
H 	 -48.6607 	 44.1401 	 107.241 	 
H 	 -50.8217 	 52.1251 	 108.729 	 
H 	 -50.9268 	 47.9976 	 101.822 	 
*
