! wB97X-D3 SP def2-SVP
%pal
nprocs 16
end

* xyz 0 1
S 	 -38.7777 	 57.206 	 105.197 	 
C 	 -40.2976 	 57.8554 	 105.509 	 
C 	 -41.2675 	 56.9241 	 105.259 	 
C 	 -40.781 	 55.7353 	 104.633 	 
C 	 -39.3907 	 55.7565 	 104.403 	 
H 	 -41.4004 	 54.9294 	 104.224 	 
C 	 -42.6806 	 57.1077 	 105.67 	 
H 	 -43.1712 	 56.1496 	 105.541 	 
H 	 -43.3362 	 57.7193 	 105.053 	 
C 	 -42.9594 	 57.6746 	 107.131 	 
H 	 -42.3454 	 58.5316 	 107.365 	 
H 	 -44.0219 	 57.999 	 106.992 	 
C 	 -42.9239 	 56.6049 	 108.283 	 
H 	 -43.1795 	 57.0949 	 109.222 	 
H 	 -43.6802 	 55.7953 	 108.086 	 
H 	 -41.9751 	 56.1842 	 108.378 	 
S 	 -37.4641 	 55.358 	 102.502 	 
C 	 -36.9729 	 53.7345 	 102.156 	 
C 	 -37.3839 	 52.8982 	 103.168 	 
C 	 -38.3511 	 53.4637 	 104.025 	 
C 	 -38.5069 	 54.7828 	 103.762 	 
H 	 -37.154 	 51.8179 	 103.121 	 
C 	 -38.9842 	 52.7572 	 105.24 	 
H 	 -40.0397 	 52.5737 	 104.982 	 
H 	 -39.0211 	 53.4431 	 106.121 	 
C 	 -38.2954 	 51.4587 	 105.746 	 
H 	 -37.1951 	 51.4779 	 105.788 	 
H 	 -38.4735 	 50.7952 	 104.866 	 
C 	 -38.9204 	 50.6205 	 107.003 	 
H 	 -38.6205 	 50.9978 	 107.972 	 
H 	 -38.6167 	 49.5973 	 106.939 	 
H 	 -39.944 	 50.5085 	 106.84 	 
H 	 -40.543 	 58.7053 	 106.135 	 
H 	 -36.3287 	 53.3529 	 101.35 	 
*
