! wB97X-D3 SP def2-SVP
%pal
nprocs 16
end

* xyz 0 1
S 	 -12.2238 	 70.2822 	 48.2902 	 
C 	 -12.5247 	 69.1557 	 47.0041 	 
C 	 -13.7673 	 69.4661 	 46.3506 	 
C 	 -14.5066 	 70.552 	 46.9712 	 
C 	 -13.7775 	 71.0907 	 48.0058 	 
H 	 -15.5015 	 70.8778 	 46.6597 	 
C 	 -14.3861 	 68.6852 	 45.1983 	 
H 	 -15.4238 	 68.9383 	 45.2088 	 
H 	 -14.2831 	 67.6225 	 45.6081 	 
C 	 -13.5335 	 68.8409 	 43.8646 	 
H 	 -13.2399 	 69.8588 	 43.6354 	 
H 	 -12.6485 	 68.3461 	 44.0602 	 
C 	 -14.2579 	 68.2019 	 42.7081 	 
H 	 -15.0599 	 68.8613 	 42.3503 	 
H 	 -13.4542 	 67.9417 	 41.9707 	 
H 	 -14.8813 	 67.3338 	 42.7841 	 
S 	 -14.5015 	 71.5621 	 50.5788 	 
C 	 -15.2502 	 73.0302 	 51.0473 	 
C 	 -15.3254 	 73.9367 	 49.9694 	 
C 	 -14.8517 	 73.396 	 48.7092 	 
C 	 -14.3404 	 72.0793 	 48.9024 	 
H 	 -15.738 	 74.9701 	 50.1038 	 
C 	 -14.7798 	 74.1832 	 47.4531 	 
H 	 -14.3252 	 73.4052 	 46.7958 	 
H 	 -14.0585 	 75.0094 	 47.549 	 
C 	 -16.1794 	 74.6647 	 47.025 	 
H 	 -16.5443 	 75.4928 	 47.6529 	 
H 	 -16.9763 	 74.0256 	 47.2692 	 
C 	 -16.2361 	 75.0642 	 45.4717 	 
H 	 -16.2023 	 74.1723 	 44.8363 	 
H 	 -15.3862 	 75.6342 	 45.2651 	 
H 	 -17.1559 	 75.61 	 45.2774 	 
H 	 -11.8852 	 68.3579 	 46.7205 	 
H 	 -15.5279 	 73.3495 	 52.0544 	 
*
