! wB97X-D3 SP def2-SVP
%pal
nprocs 16
end

* xyz 0 1
S 	 7.00128 	 20.8169 	 39.7952 	 
C 	 7.35812 	 19.1303 	 39.7335 	 
C 	 8.02698 	 18.6997 	 40.8291 	 
C 	 8.07111 	 19.7325 	 41.8345 	 
C 	 7.63272 	 21.013 	 41.3743 	 
H 	 8.39018 	 19.6266 	 42.8458 	 
C 	 8.5658 	 17.2865 	 40.9879 	 
H 	 7.82847 	 16.6036 	 40.6078 	 
H 	 8.51863 	 17.0269 	 42.0876 	 
C 	 9.90111 	 17.0406 	 40.3692 	 
H 	 9.85185 	 17.5532 	 39.4152 	 
H 	 10.6168 	 17.4982 	 41.0706 	 
C 	 10.0884 	 15.5441 	 40.2557 	 
H 	 11.1165 	 15.2531 	 40.0167 	 
H 	 9.79675 	 14.8683 	 41.1053 	 
H 	 9.61436 	 15.1695 	 39.3765 	 
S 	 6.09958 	 23.1627 	 41.9256 	 
C 	 6.66111 	 24.3474 	 43.06 	 
C 	 7.89989 	 24.0294 	 43.5365 	 
C 	 8.38621 	 22.7999 	 43.011 	 
C 	 7.48341 	 22.2296 	 42.1207 	 
H 	 8.37176 	 24.6418 	 44.2397 	 
C 	 9.80845 	 22.2393 	 43.4331 	 
H 	 9.99721 	 21.2193 	 43.1086 	 
H 	 10.0178 	 22.1635 	 44.4921 	 
C 	 10.9224 	 23.121 	 42.7165 	 
H 	 10.7338 	 24.1875 	 42.8493 	 
H 	 10.979 	 22.8773 	 41.5823 	 
C 	 12.3385 	 22.8309 	 43.2313 	 
H 	 12.558 	 23.3283 	 44.19 	 
H 	 13.0869 	 23.1733 	 42.5744 	 
H 	 12.5717 	 21.7935 	 43.3553 	 
H 	 7.20999 	 18.4702 	 38.972 	 
H 	 6.09833 	 25.2567 	 43.2588 	 
*
