! wB97X-D3 SP def2-SVP
%pal
nprocs 16
end

* xyz 0 1
S 	 59.0268 	 0.0178487 	 85.9771 	 
C 	 58.3665 	 0.717309 	 84.5133 	 
C 	 57.7004 	 -0.335707 	 83.887 	 
C 	 57.3837 	 -1.43803 	 84.745 	 
C 	 57.9015 	 -1.33535 	 85.9665 	 
H 	 56.7753 	 -2.2696 	 84.5074 	 
C 	 57.1451 	 -0.224325 	 82.5304 	 
H 	 56.8476 	 -1.25565 	 82.1309 	 
H 	 57.9225 	 0.139417 	 81.8756 	 
C 	 55.921 	 0.710945 	 82.4763 	 
H 	 55.1363 	 0.155128 	 83.0412 	 
H 	 56.1399 	 1.62218 	 83.0204 	 
C 	 55.5005 	 1.07154 	 80.9758 	 
H 	 56.0248 	 2.00001 	 80.5153 	 
H 	 55.4744 	 0.277505 	 80.2097 	 
H 	 54.528 	 1.53822 	 81.0393 	 
S 	 56.8702 	 -1.21039 	 88.523 	 
C 	 56.3953 	 -2.74765 	 89.273 	 
C 	 56.5477 	 -3.79145 	 88.4277 	 
C 	 57.3112 	 -3.50753 	 87.2205 	 
C 	 57.4708 	 -2.15425 	 87.1048 	 
H 	 56.1226 	 -4.77468 	 88.6623 	 
C 	 57.7781 	 -4.62811 	 86.2566 	 
H 	 58.3444 	 -5.34865 	 86.8491 	 
H 	 58.5081 	 -4.18053 	 85.5726 	 
C 	 56.6735 	 -5.28759 	 85.5079 	 
H 	 56.1246 	 -4.46618 	 84.9959 	 
H 	 56.1677 	 -5.8095 	 86.3299 	 
C 	 57.0947 	 -6.33077 	 84.5054 	 
H 	 56.3345 	 -6.53057 	 83.7626 	 
H 	 57.364 	 -7.29485 	 84.9363 	 
H 	 58.0097 	 -5.98089 	 83.9752 	 
H 	 58.4935 	 1.70028 	 83.9992 	 
H 	 55.6653 	 -2.71473 	 90.1217 	 
*
