! wB97X-D3 SP def2-SVP
%pal
nprocs 16
end

* xyz 0 1
S 	 -64.8533 	 52.6219 	 128.292 	 
C 	 -66.1694 	 53.4619 	 129.092 	 
C 	 -66.3451 	 54.7388 	 128.538 	 
C 	 -65.5396 	 54.9227 	 127.381 	 
C 	 -64.7011 	 53.8686 	 127.069 	 
H 	 -65.4355 	 55.8122 	 126.773 	 
C 	 -67.5096 	 55.6724 	 129.01 	 
H 	 -67.054 	 56.6855 	 128.889 	 
H 	 -67.7423 	 55.5337 	 130.09 	 
C 	 -68.9063 	 55.5753 	 128.292 	 
H 	 -69.5671 	 54.8024 	 128.725 	 
H 	 -69.3967 	 56.5129 	 128.333 	 
C 	 -68.8892 	 55.277 	 126.84 	 
H 	 -68.2535 	 56.0612 	 126.334 	 
H 	 -68.4431 	 54.413 	 126.397 	 
H 	 -69.9382 	 55.4044 	 126.45 	 
S 	 -62.0145 	 53.1808 	 126.379 	 
C 	 -61.6839 	 53.1726 	 124.713 	 
C 	 -62.5815 	 53.9021 	 124.004 	 
C 	 -63.7893 	 54.1327 	 124.708 	 
C 	 -63.7334 	 53.7083 	 126.019 	 
H 	 -62.3726 	 54.1451 	 122.994 	 
C 	 -64.8955 	 54.9057 	 124.036 	 
H 	 -64.4931 	 55.267 	 123.106 	 
H 	 -64.9358 	 55.8534 	 124.67 	 
C 	 -66.1875 	 54.1931 	 123.808 	 
H 	 -66.5498 	 53.7208 	 124.664 	 
H 	 -65.9821 	 53.565 	 122.966 	 
C 	 -67.3331 	 55.093 	 123.389 	 
H 	 -67.1649 	 55.4719 	 122.382 	 
H 	 -67.5102 	 55.9099 	 124.141 	 
H 	 -68.1985 	 54.6111 	 123.293 	 
H 	 -66.8861 	 52.9763 	 129.73 	 
H 	 -60.7051 	 53.0827 	 124.294 	 
*
