! wB97X-D3 SP def2-SVP
%pal
nprocs 16
end

* xyz 0 1
S 	 -36.0432 	 23.1358 	 77.5855 	 
C 	 -34.7653 	 24.163 	 78.0469 	 
C 	 -34.8759 	 25.426 	 77.4612 	 
C 	 -36.1063 	 25.5802 	 76.6628 	 
C 	 -36.8578 	 24.413 	 76.6779 	 
H 	 -36.4837 	 26.5517 	 76.2573 	 
C 	 -33.9296 	 26.6301 	 77.7453 	 
H 	 -34.1988 	 27.3673 	 76.9673 	 
H 	 -32.8946 	 26.2333 	 77.6017 	 
C 	 -34.2394 	 27.2622 	 79.1153 	 
H 	 -35.2973 	 27.322 	 79.333 	 
H 	 -33.8723 	 26.578 	 79.8863 	 
C 	 -33.5959 	 28.6146 	 79.5059 	 
H 	 -33.71 	 28.7628 	 80.5352 	 
H 	 -32.5643 	 28.5153 	 79.1747 	 
H 	 -34.0833 	 29.4275 	 79.011 	 
S 	 -39.532 	 23.9795 	 77.3123 	 
C 	 -40.7246 	 24.1179 	 76.0416 	 
C 	 -40.1842 	 24.5836 	 74.8722 	 
C 	 -38.744 	 24.8045 	 74.9566 	 
C 	 -38.2299 	 24.3299 	 76.1628 	 
H 	 -40.6649 	 24.8106 	 73.9767 	 
C 	 -37.9393 	 25.3834 	 73.7981 	 
H 	 -37.8998 	 24.5247 	 73.1338 	 
H 	 -36.8844 	 25.5254 	 74.0099 	 
C 	 -38.5833 	 26.5225 	 72.9691 	 
H 	 -39.429 	 26.083 	 72.3367 	 
H 	 -37.825 	 26.8975 	 72.3312 	 
C 	 -39.0441 	 27.6649 	 73.9139 	 
H 	 -39.6952 	 27.2201 	 74.5902 	 
H 	 -39.4793 	 28.5558 	 73.4818 	 
H 	 -38.1753 	 27.9506 	 74.5506 	 
H 	 -33.8894 	 23.8054 	 78.643 	 
H 	 -41.7189 	 23.7996 	 76.1909 	 
*
