! wB97X-D3 SP def2-SVP
%pal
nprocs 16
end

* xyz 0 1
S 	 -110.546 	 57.118 	 116.212 	 
C 	 -110.982 	 57.0832 	 114.493 	 
C 	 -110.547 	 55.9602 	 113.769 	 
C 	 -109.779 	 55.1029 	 114.66 	 
C 	 -109.494 	 55.6801 	 115.9 	 
H 	 -109.22 	 54.2376 	 114.403 	 
C 	 -110.765 	 55.7181 	 112.295 	 
H 	 -109.861 	 56.1082 	 111.805 	 
H 	 -111.586 	 56.3714 	 112.037 	 
C 	 -110.987 	 54.3037 	 111.997 	 
H 	 -111.154 	 54.2943 	 110.922 	 
H 	 -110.11 	 53.7038 	 112.114 	 
C 	 -112.18 	 53.5519 	 112.634 	 
H 	 -113.125 	 53.9146 	 112.215 	 
H 	 -112.152 	 52.5186 	 112.332 	 
H 	 -112.097 	 53.6716 	 113.724 	 
S 	 -107.467 	 56.3354 	 117.662 	 
C 	 -106.494 	 55.0369 	 118.34 	 
C 	 -107.073 	 53.8623 	 118.055 	 
C 	 -108.153 	 53.8866 	 117.16 	 
C 	 -108.565 	 55.1833 	 116.928 	 
H 	 -106.465 	 52.9882 	 118.374 	 
C 	 -108.554 	 52.5658 	 116.427 	 
H 	 -107.868 	 52.3584 	 115.595 	 
H 	 -109.56 	 52.665 	 115.95 	 
C 	 -108.556 	 51.3535 	 117.314 	 
H 	 -107.594 	 51.1805 	 117.746 	 
H 	 -108.857 	 50.483 	 116.708 	 
C 	 -109.492 	 51.4658 	 118.6 	 
H 	 -109.187 	 50.6828 	 119.278 	 
H 	 -110.477 	 51.2321 	 118.35 	 
H 	 -109.42 	 52.4362 	 119.166 	 
H 	 -111.62 	 57.8054 	 114.034 	 
H 	 -105.59 	 55.1474 	 118.95 	 
*
