! wB97X-D3 SP def2-SVP
%pal
nprocs 16
end

* xyz 0 1
S 	 34.4235 	 21.6555 	 48.997 	 
C 	 33.5976 	 22.7962 	 50.0617 	 
C 	 33.5858 	 22.4584 	 51.3945 	 
C 	 34.2354 	 21.1803 	 51.5063 	 
C 	 34.6028 	 20.5401 	 50.3015 	 
H 	 34.4425 	 20.6344 	 52.4185 	 
C 	 32.9912 	 23.228 	 52.6269 	 
H 	 32.315 	 23.9543 	 52.1509 	 
H 	 33.8706 	 23.8127 	 53.1051 	 
C 	 32.1513 	 22.5404 	 53.7173 	 
H 	 31.3229 	 22.0133 	 53.3185 	 
H 	 32.7446 	 21.6935 	 54.0763 	 
C 	 31.5542 	 23.4967 	 54.793 	 
H 	 32.3543 	 23.9523 	 55.3404 	 
H 	 31.045 	 24.3887 	 54.3407 	 
H 	 30.885 	 23.0132 	 55.4705 	 
S 	 34.2946 	 17.8566 	 49.3627 	 
C 	 35.5807 	 16.7562 	 49.6712 	 
C 	 36.6477 	 17.4041 	 50.2711 	 
C 	 36.4744 	 18.7975 	 50.5469 	 
C 	 35.2268 	 19.2378 	 50.1342 	 
H 	 37.582 	 16.8778 	 50.4378 	 
C 	 37.6004 	 19.6313 	 51.1912 	 
H 	 37.822 	 19.2132 	 52.1256 	 
H 	 37.1879 	 20.5565 	 51.4882 	 
C 	 38.8484 	 19.7807 	 50.3942 	 
H 	 38.5331 	 19.8965 	 49.3435 	 
H 	 39.276 	 18.7998 	 50.5808 	 
C 	 39.7579 	 20.8456 	 50.878 	 
H 	 40.6926 	 20.8138 	 50.3199 	 
H 	 39.9871 	 20.7312 	 51.905 	 
H 	 39.4648 	 21.8692 	 50.6326 	 
H 	 33.2545 	 23.7953 	 49.7833 	 
H 	 35.5847 	 15.7233 	 49.3761 	 
*
