! wB97X-D3 SP def2-SVP
%pal
nprocs 16
end

* xyz 0 1
S 	 57.6622 	 -5.55351 	 87.698 	 
C 	 57.1013 	 -4.46369 	 88.9399 	 
C 	 55.7234 	 -4.45778 	 88.7701 	 
C 	 55.137 	 -5.36747 	 87.8044 	 
C 	 56.061 	 -6.13372 	 87.1273 	 
H 	 54.0869 	 -5.41573 	 87.4641 	 
C 	 54.8046 	 -3.5493 	 89.5768 	 
H 	 55.1992 	 -3.45687 	 90.6433 	 
H 	 53.8217 	 -3.9881 	 89.6192 	 
C 	 54.455 	 -2.20291 	 88.8747 	 
H 	 54.0396 	 -1.53066 	 89.5747 	 
H 	 55.3636 	 -1.79899 	 88.4208 	 
C 	 53.5404 	 -2.38689 	 87.6806 	 
H 	 53.9286 	 -3.14956 	 86.9348 	 
H 	 52.5866 	 -2.70126 	 87.9454 	 
H 	 53.3034 	 -1.40956 	 87.2035 	 
S 	 54.7234 	 -8.43228 	 86.4714 	 
C 	 55.0374 	 -9.14239 	 84.8653 	 
C 	 55.7836 	 -8.25835 	 84.0371 	 
C 	 56.2524 	 -7.12009 	 84.7587 	 
C 	 55.7864 	 -7.06455 	 86.0385 	 
H 	 56.067 	 -8.61859 	 83.061 	 
C 	 57.1377 	 -6.1023 	 84.0087 	 
H 	 57.0824 	 -5.07166 	 84.4553 	 
H 	 56.8957 	 -6.08874 	 82.9682 	 
C 	 58.6381 	 -6.55146 	 83.9865 	 
H 	 58.729 	 -7.52083 	 83.4773 	 
H 	 58.9277 	 -6.83173 	 84.9905 	 
C 	 59.5911 	 -5.53164 	 83.424 	 
H 	 59.2553 	 -4.49539 	 83.7847 	 
H 	 59.6547 	 -5.5451 	 82.3729 	 
H 	 60.6148 	 -5.53503 	 83.6709 	 
H 	 57.7386 	 -3.83346 	 89.5323 	 
H 	 54.6308 	 -10.0909 	 84.6139 	 
*
