! wB97X-D3 SP def2-SVP
%pal
nprocs 16
end

* xyz 0 1
S 	 57.0957 	 24.261 	 41.6423 	 
C 	 57.3213 	 25.878 	 40.9445 	 
C 	 56.4194 	 26.803 	 41.4694 	 
C 	 55.461 	 26.1601 	 42.3547 	 
C 	 55.6744 	 24.8184 	 42.5592 	 
H 	 54.6284 	 26.6223 	 42.7673 	 
C 	 56.4569 	 28.2678 	 41.1813 	 
H 	 55.6818 	 28.4024 	 40.3971 	 
H 	 57.478 	 28.5269 	 40.7064 	 
C 	 56.1716 	 29.1151 	 42.423 	 
H 	 55.0842 	 29.0648 	 42.6988 	 
H 	 56.7778 	 28.7462 	 43.2473 	 
C 	 56.5447 	 30.6941 	 42.2007 	 
H 	 57.5321 	 30.9575 	 41.9511 	 
H 	 55.9798 	 31.0622 	 41.3724 	 
H 	 56.3744 	 31.201 	 43.2208 	 
S 	 55.9927 	 23.2469 	 44.7923 	 
C 	 54.5926 	 22.5786 	 45.5386 	 
C 	 53.5001 	 22.7878 	 44.727 	 
C 	 53.7157 	 23.6611 	 43.6142 	 
C 	 55.0569 	 23.9476 	 43.4738 	 
H 	 52.5507 	 22.4895 	 45.1633 	 
C 	 52.549 	 24.2167 	 42.726 	 
H 	 52.2794 	 23.5296 	 41.9337 	 
H 	 52.8935 	 25.1081 	 42.2323 	 
C 	 51.3382 	 24.6707 	 43.6089 	 
H 	 51.6795 	 25.1628 	 44.4371 	 
H 	 50.8499 	 23.8368 	 44.1005 	 
C 	 50.4107 	 25.5436 	 42.7436 	 
H 	 50.2906 	 25.0322 	 41.7395 	 
H 	 50.7065 	 26.6229 	 42.6109 	 
H 	 49.3474 	 25.4181 	 43.0713 	 
H 	 58.183 	 26.1664 	 40.2871 	 
H 	 54.5145 	 21.9789 	 46.4716 	 
*
