! wB97X-D3 SP def2-SVP
%pal
nprocs 16
end

* xyz 0 1
S 	 -101.858 	 58.3169 	 114.453 	 
C 	 -100.885 	 57.0934 	 113.708 	 
C 	 -100.559 	 56.14 	 114.659 	 
C 	 -101.085 	 56.3749 	 115.953 	 
C 	 -101.94 	 57.463 	 115.992 	 
H 	 -101.018 	 55.7171 	 116.803 	 
C 	 -99.6274 	 54.9325 	 114.47 	 
H 	 -99.1524 	 54.793 	 115.453 	 
H 	 -98.799 	 55.2346 	 113.862 	 
C 	 -100.271 	 53.6356 	 113.955 	 
H 	 -101.21 	 53.4213 	 114.469 	 
H 	 -100.474 	 53.8038 	 112.871 	 
C 	 -99.3454 	 52.4115 	 114.191 	 
H 	 -98.4027 	 52.8165 	 114.267 	 
H 	 -99.7683 	 51.9053 	 115.009 	 
H 	 -99.3775 	 51.7857 	 113.316 	 
S 	 -104.619 	 57.7442 	 116.33 	 
C 	 -105.238 	 58.3754 	 117.841 	 
C 	 -104.255 	 58.5263 	 118.76 	 
C 	 -102.926 	 58.3058 	 118.265 	 
C 	 -102.975 	 57.8275 	 116.928 	 
H 	 -104.632 	 58.838 	 119.786 	 
C 	 -101.71 	 58.4777 	 119.066 	 
H 	 -101.855 	 59.4944 	 119.441 	 
H 	 -100.776 	 58.4009 	 118.49 	 
C 	 -101.678 	 57.6651 	 120.37 	 
H 	 -102.576 	 57.8757 	 120.918 	 
H 	 -100.8 	 58.0553 	 120.981 	 
C 	 -101.629 	 56.1264 	 120.282 	 
H 	 -102.484 	 55.6309 	 119.815 	 
H 	 -101.581 	 55.7536 	 121.329 	 
H 	 -100.63 	 55.9875 	 119.791 	 
H 	 -100.579 	 57.0607 	 112.701 	 
H 	 -106.234 	 58.5584 	 117.992 	 
*
