! wB97X-D3 SP def2-SVP
%pal
nprocs 16
end

* xyz 0 1
S 	 -18.0754 	 59.0171 	 64.2617 	 
C 	 -17.8281 	 57.5429 	 63.4861 	 
C 	 -17.309 	 57.6236 	 62.2061 	 
C 	 -17.198 	 58.9893 	 61.8259 	 
C 	 -17.667 	 59.8624 	 62.7766 	 
H 	 -16.9924 	 59.3523 	 60.8186 	 
C 	 -16.8262 	 56.4571 	 61.3976 	 
H 	 -17.3581 	 55.5509 	 61.7729 	 
H 	 -15.851 	 56.2027 	 61.7748 	 
C 	 -16.8106 	 56.6311 	 59.9121 	 
H 	 -16.3684 	 57.5959 	 59.6827 	 
H 	 -16.1704 	 55.8603 	 59.5163 	 
C 	 -18.2099 	 56.4581 	 59.2621 	 
H 	 -18.1724 	 56.836 	 58.1723 	 
H 	 -18.6553 	 55.4538 	 59.2673 	 
H 	 -18.8084 	 57.2015 	 59.8424 	 
S 	 -19.8119 	 61.4171 	 62.3556 	 
C 	 -19.7097 	 63.1151 	 62.4383 	 
C 	 -18.4948 	 63.5165 	 62.9369 	 
C 	 -17.535 	 62.4335 	 62.9309 	 
C 	 -18.1152 	 61.2252 	 62.6377 	 
H 	 -18.4876 	 64.5803 	 63.2571 	 
C 	 -16.0835 	 62.74 	 63.3152 	 
H 	 -15.809 	 63.6358 	 62.8294 	 
H 	 -15.2704 	 62.1047 	 62.9424 	 
C 	 -15.6878 	 62.9898 	 64.8185 	 
H 	 -16.424 	 63.7383 	 65.1614 	 
H 	 -14.6853 	 63.4311 	 64.9333 	 
C 	 -15.8607 	 61.8088 	 65.7561 	 
H 	 -15.6181 	 61.9499 	 66.8097 	 
H 	 -15.1019 	 61.0847 	 65.5518 	 
H 	 -16.7859 	 61.2571 	 65.6033 	 
H 	 -17.7975 	 56.6175 	 63.995 	 
H 	 -20.481 	 63.8414 	 62.2101 	 
*
