! wB97X-D3 SP def2-SVP
%pal
nprocs 16
end

* xyz 0 1
S 	 -6.07268 	 28.7249 	 47.5087 	 
C 	 -4.48909 	 28.3802 	 48.2553 	 
C 	 -3.47496 	 28.5539 	 47.3019 	 
C 	 -4.03433 	 28.8869 	 46.0175 	 
C 	 -5.36258 	 29.151 	 45.9966 	 
H 	 -3.45606 	 28.8322 	 45.0925 	 
C 	 -2.01461 	 28.1959 	 47.4579 	 
H 	 -1.83688 	 27.9221 	 48.5399 	 
H 	 -1.40685 	 29.0495 	 47.2791 	 
C 	 -1.59712 	 26.8845 	 46.6475 	 
H 	 -1.68263 	 26.9644 	 45.5736 	 
H 	 -0.532348 	 26.8375 	 46.8467 	 
C 	 -2.32356 	 25.6725 	 47.3325 	 
H 	 -2.25081 	 25.6933 	 48.3824 	 
H 	 -3.38171 	 25.6237 	 47.2073 	 
H 	 -2.02241 	 24.6349 	 47.0291 	 
S 	 -7.60363 	 28.4464 	 44.5559 	 
C 	 -8.13037 	 29.4825 	 43.234 	 
C 	 -7.17533 	 30.3455 	 42.8094 	 
C 	 -6.02532 	 30.3187 	 43.6335 	 
C 	 -6.16862 	 29.4821 	 44.7932 	 
H 	 -7.36679 	 30.8313 	 41.8707 	 
C 	 -4.81468 	 31.1422 	 43.3325 	 
H 	 -4.8343 	 31.2932 	 42.2748 	 
H 	 -3.98837 	 30.4496 	 43.4853 	 
C 	 -4.75205 	 32.4402 	 44.1915 	 
H 	 -4.56234 	 32.0708 	 45.2091 	 
H 	 -5.78282 	 32.842 	 44.1983 	 
C 	 -3.73636 	 33.4799 	 43.739 	 
H 	 -3.78264 	 34.4221 	 44.3622 	 
H 	 -4.00603 	 33.8551 	 42.6845 	 
H 	 -2.71754 	 33.2113 	 43.7723 	 
H 	 -4.25024 	 28.1341 	 49.2773 	 
H 	 -9.06426 	 29.4397 	 42.6672 	 
*
