! wB97X-D3 SP def2-SVP
%pal
nprocs 16
end

* xyz 0 1
S 	 -48.1002 	 63.8854 	 132.22 	 
C 	 -46.6612 	 64.9181 	 132.225 	 
C 	 -45.8704 	 64.5588 	 131.204 	 
C 	 -46.3514 	 63.4948 	 130.343 	 
C 	 -47.5347 	 62.9593 	 130.804 	 
H 	 -45.8214 	 63.0244 	 129.552 	 
C 	 -44.6187 	 65.4072 	 130.866 	 
H 	 -44.2332 	 65.8848 	 131.782 	 
H 	 -44.8557 	 66.2212 	 130.191 	 
C 	 -43.46 	 64.5763 	 130.377 	 
H 	 -43.3122 	 63.887 	 131.189 	 
H 	 -43.7213 	 64.0821 	 129.517 	 
C 	 -42.1133 	 65.3197 	 130.278 	 
H 	 -41.3592 	 64.582 	 129.863 	 
H 	 -42.2494 	 66.1297 	 129.55 	 
H 	 -41.8216 	 65.7997 	 131.239 	 
S 	 -50.0851 	 62.218 	 130.071 	 
C 	 -50.3312 	 60.6519 	 129.339 	 
C 	 -49.0959 	 59.9597 	 129.133 	 
C 	 -47.9257 	 60.6958 	 129.545 	 
C 	 -48.3028 	 61.8716 	 130.274 	 
H 	 -49.0782 	 58.9954 	 128.677 	 
C 	 -46.5916 	 59.9002 	 129.532 	 
H 	 -46.0614 	 60.367 	 128.712 	 
H 	 -46.6238 	 58.8911 	 129.213 	 
C 	 -45.8834 	 59.8932 	 130.918 	 
H 	 -46.4998 	 59.4155 	 131.661 	 
H 	 -45.7003 	 60.9349 	 131.213 	 
C 	 -44.4199 	 59.3304 	 130.892 	 
H 	 -43.8476 	 59.8832 	 131.62 	 
H 	 -43.9388 	 59.424 	 129.887 	 
H 	 -44.4282 	 58.3048 	 131.226 	 
H 	 -46.4818 	 65.7171 	 132.964 	 
H 	 -51.3252 	 60.3161 	 129.193 	 
*
