! wB97X-D3 SP def2-SVP
%pal
nprocs 16
end

* xyz 0 1
S 	 40.5914 	 15.3641 	 81.1973 	 
C 	 38.9543 	 15.7104 	 81.4337 	 
C 	 38.2496 	 15.7508 	 80.2601 	 
C 	 39.1127 	 15.4451 	 79.1221 	 
C 	 40.4113 	 15.1027 	 79.4484 	 
H 	 38.8136 	 15.4262 	 78.0798 	 
C 	 36.8022 	 16.0481 	 80.1351 	 
H 	 36.4455 	 15.9762 	 81.1528 	 
H 	 36.2158 	 15.2913 	 79.5237 	 
C 	 36.448 	 17.4684 	 79.5393 	 
H 	 36.5051 	 18.2162 	 80.3006 	 
H 	 37.3322 	 17.7025 	 78.9162 	 
C 	 35.1074 	 17.6087 	 78.7574 	 
H 	 34.9327 	 18.6568 	 78.5258 	 
H 	 35.12 	 16.982 	 77.9181 	 
H 	 34.2036 	 17.258 	 79.3243 	 
S 	 42.4182 	 13.0834 	 79.1324 	 
C 	 43.5504 	 13.3024 	 77.8723 	 
C 	 43.2338 	 14.3264 	 76.9634 	 
C 	 41.9784 	 14.9393 	 77.3578 	 
C 	 41.4829 	 14.4916 	 78.6255 	 
H 	 43.7581 	 14.3772 	 75.9986 	 
C 	 41.3865 	 16.0973 	 76.6262 	 
H 	 42.2192 	 16.6605 	 76.1998 	 
H 	 40.81 	 16.6719 	 77.315 	 
C 	 40.5106 	 15.7277 	 75.398 	 
H 	 40.5147 	 16.5909 	 74.7355 	 
H 	 39.4469 	 15.5569 	 75.5745 	 
C 	 41.0262 	 14.4879 	 74.6136 	 
H 	 40.6854 	 14.4101 	 73.5636 	 
H 	 40.7845 	 13.4432 	 75.0761 	 
H 	 42.0424 	 14.5922 	 74.4652 	 
H 	 38.5542 	 15.9429 	 82.4331 	 
H 	 44.1766 	 12.4785 	 77.5173 	 
*
