! wB97X-D3 SP def2-SVP
%pal
nprocs 16
end

* xyz 0 1
S 	 -31.5115 	 34.7569 	 38.2854 	 
C 	 -30.5769 	 36.1067 	 37.7181 	 
C 	 -29.2216 	 35.8946 	 37.693 	 
C 	 -28.8502 	 34.7644 	 38.4662 	 
C 	 -29.981 	 34.0482 	 38.9362 	 
H 	 -27.8637 	 34.3498 	 38.7104 	 
C 	 -28.2182 	 36.8604 	 37.2821 	 
H 	 -27.3131 	 36.2877 	 37.1895 	 
H 	 -27.92 	 37.4528 	 38.1511 	 
C 	 -28.4343 	 37.7405 	 36.0334 	 
H 	 -27.4323 	 37.9868 	 35.7365 	 
H 	 -28.8309 	 36.9997 	 35.3139 	 
C 	 -29.2471 	 39.0532 	 36.3058 	 
H 	 -29.2556 	 39.5941 	 35.3222 	 
H 	 -30.2842 	 38.9033 	 36.6761 	 
H 	 -28.7497 	 39.6226 	 37.0903 	 
S 	 -30.1781 	 31.3207 	 39.1954 	 
C 	 -30.0689 	 30.5858 	 40.6644 	 
C 	 -29.938 	 31.5324 	 41.7028 	 
C 	 -29.8069 	 32.8807 	 41.2465 	 
C 	 -30.0065 	 32.9301 	 39.8786 	 
H 	 -29.8458 	 31.1572 	 42.6881 	 
C 	 -29.5672 	 34.058 	 42.2094 	 
H 	 -30.5455 	 34.6345 	 42.2265 	 
H 	 -28.9221 	 34.7344 	 41.7497 	 
C 	 -28.9802 	 33.6939 	 43.5727 	 
H 	 -29.6946 	 33.0025 	 44.0156 	 
H 	 -29.0466 	 34.5791 	 44.173 	 
C 	 -27.5499 	 33.1518 	 43.4819 	 
H 	 -27.2396 	 32.7623 	 44.4589 	 
H 	 -26.781 	 33.9152 	 43.1661 	 
H 	 -27.4971 	 32.2672 	 42.8661 	 
H 	 -30.9937 	 36.8987 	 37.0667 	 
H 	 -30.0818 	 29.5842 	 40.822 	 
*
