! wB97X-D3 SP def2-SVP
%pal
nprocs 16
end

* xyz 0 1
S 	 -70.0177 	 39.2794 	 113.851 	 
C 	 -70.8813 	 38.9871 	 115.306 	 
C 	 -71.6179 	 37.8154 	 115.255 	 
C 	 -71.3821 	 37.1428 	 114.05 	 
C 	 -70.6237 	 37.8145 	 113.148 	 
H 	 -71.7953 	 36.152 	 113.856 	 
C 	 -72.4819 	 37.2108 	 116.365 	 
H 	 -73.4695 	 37.4278 	 116.105 	 
H 	 -72.1489 	 37.6882 	 117.23 	 
C 	 -72.3845 	 35.7389 	 116.666 	 
H 	 -72.8131 	 35.209 	 115.865 	 
H 	 -71.3461 	 35.3391 	 116.624 	 
C 	 -73.0827 	 35.2484 	 117.964 	 
H 	 -74.176 	 35.4975 	 118.045 	 
H 	 -72.9527 	 34.1827 	 118.036 	 
H 	 -72.6596 	 35.6355 	 118.851 	 
S 	 -70.8972 	 38.1602 	 110.424 	 
C 	 -70.0072 	 37.0584 	 109.33 	 
C 	 -69.3925 	 36.043 	 110.035 	 
C 	 -69.5964 	 36.1747 	 111.445 	 
C 	 -70.182 	 37.3687 	 111.824 	 
H 	 -68.8635 	 35.248 	 109.648 	 
C 	 -68.839 	 35.1537 	 112.388 	 
H 	 -69.2321 	 34.0869 	 112.246 	 
H 	 -69.1492 	 35.4134 	 113.388 	 
C 	 -67.2369 	 35.1565 	 112.356 	 
H 	 -66.8738 	 36.13 	 112.572 	 
H 	 -66.8266 	 34.9189 	 111.359 	 
C 	 -66.5824 	 34.1156 	 113.31 	 
H 	 -65.4937 	 34.1644 	 113.143 	 
H 	 -66.7768 	 33.1352 	 112.953 	 
H 	 -66.7111 	 34.3376 	 114.386 	 
H 	 -70.9376 	 39.6462 	 116.121 	 
H 	 -69.9861 	 37.0366 	 108.268 	 
*
