! wB97X-D3 SP def2-SVP
%pal
nprocs 16
end

* xyz 0 1
S 	 45.8846 	 15.9827 	 80.7076 	 
C 	 45.3296 	 17.5142 	 80.1078 	 
C 	 44.1606 	 17.8649 	 80.7596 	 
C 	 43.6874 	 16.9024 	 81.6973 	 
C 	 44.5458 	 15.8244 	 81.8318 	 
H 	 42.6942 	 16.8132 	 82.2227 	 
C 	 43.306 	 19.1233 	 80.4128 	 
H 	 43.9685 	 19.766 	 79.8426 	 
H 	 43.1116 	 19.6089 	 81.3732 	 
C 	 41.9804 	 18.7454 	 79.6119 	 
H 	 42.3785 	 18.1696 	 78.7578 	 
H 	 41.3579 	 17.9982 	 80.1451 	 
C 	 41.2457 	 19.9475 	 79.1067 	 
H 	 40.8117 	 20.6333 	 79.8568 	 
H 	 41.8815 	 20.609 	 78.4658 	 
H 	 40.3978 	 19.6518 	 78.5106 	 
S 	 43.3862 	 13.4824 	 82.5797 	 
C 	 43.8868 	 12.6331 	 84.007 	 
C 	 44.7294 	 13.4497 	 84.6869 	 
C 	 45.0622 	 14.6525 	 84.0369 	 
C 	 44.4849 	 14.7969 	 82.8267 	 
H 	 45.1156 	 13.3017 	 85.6629 	 
C 	 45.959 	 15.7378 	 84.619 	 
H 	 46.3169 	 16.3314 	 83.8048 	 
H 	 46.8159 	 15.1768 	 84.9874 	 
C 	 45.429 	 16.6195 	 85.7506 	 
H 	 46.2714 	 17.1871 	 86.1778 	 
H 	 45.0367 	 15.9923 	 86.5449 	 
C 	 44.3427 	 17.5928 	 85.1798 	 
H 	 44.6784 	 18.3751 	 84.4746 	 
H 	 43.7231 	 18.0241 	 85.9233 	 
H 	 43.5824 	 16.9629 	 84.6568 	 
H 	 45.6392 	 18.0111 	 79.1802 	 
H 	 43.5488 	 11.6567 	 84.4079 	 
*
