! wB97X-D3 SP def2-SVP
%pal
nprocs 16
end

* xyz 0 1
S 	 -72.7738 	 57.5341 	 123.362 	 
C 	 -73.0533 	 59.2889 	 123.049 	 
C 	 -72.4263 	 60.1037 	 123.978 	 
C 	 -71.5742 	 59.3064 	 124.814 	 
C 	 -71.5648 	 57.9624 	 124.519 	 
H 	 -71.1217 	 59.7365 	 125.71 	 
C 	 -72.6632 	 61.599 	 124.156 	 
H 	 -71.9855 	 62.2443 	 123.554 	 
H 	 -72.3292 	 61.7856 	 125.147 	 
C 	 -74.1192 	 62.1548 	 124.059 	 
H 	 -74.7225 	 61.8684 	 123.175 	 
H 	 -74.5948 	 61.7707 	 124.942 	 
C 	 -74.25 	 63.7374 	 124.107 	 
H 	 -73.6721 	 64.137 	 124.998 	 
H 	 -73.6652 	 63.9981 	 123.241 	 
H 	 -75.228 	 64.207 	 124.072 	 
S 	 -71.5315 	 55.4915 	 125.744 	 
C 	 -70.1354 	 54.8979 	 126.575 	 
C 	 -69.0881 	 55.8094 	 126.528 	 
C 	 -69.4445 	 56.9887 	 125.784 	 
C 	 -70.7518 	 56.9729 	 125.271 	 
H 	 -68.1893 	 55.6431 	 127.046 	 
C 	 -68.4898 	 58.1493 	 125.573 	 
H 	 -68.8173 	 59.0452 	 126.129 	 
H 	 -68.6572 	 58.5757 	 124.585 	 
C 	 -66.9975 	 57.9834 	 125.791 	 
H 	 -66.6252 	 57.1881 	 125.125 	 
H 	 -66.7656 	 57.7777 	 126.877 	 
C 	 -66.0459 	 59.1246 	 125.485 	 
H 	 -65.9673 	 59.1583 	 124.433 	 
H 	 -65.0907 	 58.8062 	 125.906 	 
H 	 -66.2937 	 60.1521 	 125.884 	 
H 	 -73.9111 	 59.6159 	 122.461 	 
H 	 -70.0576 	 53.9796 	 127.044 	 
*
