! wB97X-D3 SP def2-SVP
%pal
nprocs 16
end

* xyz 0 1
S 	 -68.4537 	 38.4216 	 124.606 	 
C 	 -68.553 	 39.9298 	 125.548 	 
C 	 -67.6108 	 40.8568 	 125.061 	 
C 	 -66.844 	 40.3209 	 123.983 	 
C 	 -67.0881 	 38.9889 	 123.723 	 
H 	 -66.1597 	 40.8759 	 123.432 	 
C 	 -67.5627 	 42.3041 	 125.352 	 
H 	 -66.8266 	 42.3921 	 126.16 	 
H 	 -68.4636 	 42.6241 	 125.801 	 
C 	 -67.2019 	 43.3735 	 124.3 	 
H 	 -67.6934 	 43.0217 	 123.379 	 
H 	 -67.6549 	 44.3138 	 124.459 	 
C 	 -65.6704 	 43.7369 	 124.243 	 
H 	 -65.5553 	 44.5402 	 123.481 	 
H 	 -65.2856 	 44.1271 	 125.219 	 
H 	 -65.1015 	 42.8617 	 123.919 	 
S 	 -67.5967 	 37.2497 	 121.539 	 
C 	 -66.2296 	 36.5527 	 120.749 	 
C 	 -64.9825 	 37.0191 	 121.202 	 
C 	 -65.1357 	 37.9118 	 122.323 	 
C 	 -66.4697 	 38.1762 	 122.619 	 
H 	 -64.0251 	 36.597 	 120.791 	 
C 	 -63.9065 	 38.4966 	 123.03 	 
H 	 -63.3151 	 37.6806 	 123.458 	 
H 	 -64.1713 	 39.1028 	 123.925 	 
C 	 -62.9328 	 39.3746 	 122.268 	 
H 	 -62.5747 	 38.8985 	 121.387 	 
H 	 -61.9871 	 39.5918 	 122.793 	 
C 	 -63.6754 	 40.6952 	 121.894 	 
H 	 -63.3119 	 41.1212 	 120.979 	 
H 	 -63.5312 	 41.4179 	 122.707 	 
H 	 -64.6905 	 40.6188 	 121.73 	 
H 	 -69.2514 	 40.1605 	 126.335 	 
H 	 -66.352 	 35.9063 	 119.867 	 
*
