! wB97X-D3 SP def2-SVP
%pal
nprocs 16
end

* xyz 0 1
S 	 9.47484 	 -10.5274 	 91.6442 	 
C 	 8.99413 	 -9.01784 	 92.4906 	 
C 	 7.67091 	 -8.75273 	 92.3015 	 
C 	 7.00207 	 -9.75924 	 91.5752 	 
C 	 7.82009 	 -10.7831 	 91.2056 	 
H 	 5.95137 	 -9.82611 	 91.3353 	 
C 	 6.88196 	 -7.59068 	 92.9048 	 
H 	 6.01101 	 -7.57892 	 92.3131 	 
H 	 7.4628 	 -6.61749 	 92.8471 	 
C 	 6.24661 	 -7.89691 	 94.2494 	 
H 	 5.74285 	 -6.96893 	 94.561 	 
H 	 5.6309 	 -8.70463 	 94.0487 	 
C 	 7.27529 	 -8.32733 	 95.3866 	 
H 	 6.78458 	 -8.45283 	 96.3596 	 
H 	 7.65293 	 -9.31594 	 95.1167 	 
H 	 8.06541 	 -7.62408 	 95.5537 	 
S 	 6.50828 	 -12.1504 	 89.0496 	 
C 	 6.38925 	 -13.8469 	 89.1232 	 
C 	 6.90981 	 -14.3745 	 90.3319 	 
C 	 7.42095 	 -13.3727 	 91.1939 	 
C 	 7.29083 	 -12.0446 	 90.68 	 
H 	 6.85705 	 -15.4487 	 90.5878 	 
C 	 8.03769 	 -13.7386 	 92.4617 	 
H 	 9.03102 	 -13.2046 	 92.5867 	 
H 	 8.29628 	 -14.8004 	 92.364 	 
C 	 7.0827 	 -13.6893 	 93.7357 	 
H 	 7.56617 	 -14.0541 	 94.5997 	 
H 	 6.36231 	 -14.5142 	 93.5347 	 
C 	 6.50258 	 -12.3344 	 94.132 	 
H 	 5.81291 	 -12.5735 	 94.9133 	 
H 	 5.96272 	 -11.7813 	 93.3304 	 
H 	 7.22949 	 -11.7017 	 94.5684 	 
H 	 9.67908 	 -8.30579 	 92.999 	 
H 	 5.97658 	 -14.5431 	 88.3878 	 
*
