! wB97X-D3 SP def2-SVP
%pal
nprocs 16
end

* xyz 0 1
S 	 46.4845 	 20.3049 	 92.7551 	 
C 	 47.3511 	 21.3348 	 93.8531 	 
C 	 48.7093 	 21.3775 	 93.5923 	 
C 	 48.9701 	 20.7967 	 92.3112 	 
C 	 47.9356 	 20.1107 	 91.7749 	 
H 	 49.9285 	 20.7281 	 91.898 	 
C 	 49.8171 	 22.134 	 94.3232 	 
H 	 50.7413 	 21.4723 	 94.2459 	 
H 	 49.6615 	 22.2279 	 95.3779 	 
C 	 50.3228 	 23.4691 	 93.772 	 
H 	 51.393 	 23.5817 	 93.9845 	 
H 	 50.4143 	 23.381 	 92.7285 	 
C 	 49.5285 	 24.7782 	 94.1121 	 
H 	 48.4357 	 24.5911 	 93.9809 	 
H 	 49.6631 	 25.0889 	 95.1373 	 
H 	 49.6907 	 25.5704 	 93.3743 	 
S 	 46.689 	 18.1848 	 90.2059 	 
C 	 47.228 	 17.9822 	 88.5338 	 
C 	 48.0985 	 18.9505 	 88.1841 	 
C 	 48.4214 	 19.8482 	 89.2674 	 
C 	 47.8307 	 19.4801 	 90.4429 	 
H 	 48.5329 	 19.0043 	 87.1878 	 
C 	 49.3312 	 20.9902 	 88.9635 	 
H 	 49.7302 	 20.7154 	 87.9103 	 
H 	 50.1453 	 21.1237 	 89.6968 	 
C 	 48.5935 	 22.2716 	 88.9302 	 
H 	 47.7952 	 22.2219 	 89.7044 	 
H 	 48.1973 	 22.4145 	 87.937 	 
C 	 49.4767 	 23.5422 	 89.2225 	 
H 	 49.8402 	 23.5506 	 90.2379 	 
H 	 48.7787 	 24.4368 	 89.13 	 
H 	 50.2398 	 23.7468 	 88.413 	 
H 	 46.8305 	 21.925 	 94.6404 	 
H 	 47.0335 	 17.2184 	 87.7935 	 
*
