! wB97X-D3 SP def2-SVP
%pal
nprocs 16
end

* xyz 0 1
S 	 36.402 	 29.6367 	 94.8005 	 
C 	 35.7505 	 29.9126 	 93.2516 	 
C 	 35.3526 	 28.719 	 92.7273 	 
C 	 35.3267 	 27.6639 	 93.6712 	 
C 	 35.8335 	 28.0434 	 94.8891 	 
H 	 34.95 	 26.6688 	 93.5271 	 
C 	 34.921 	 28.4573 	 91.2995 	 
H 	 35.4882 	 27.6123 	 90.8758 	 
H 	 35.1556 	 29.384 	 90.7203 	 
C 	 33.4238 	 28.2482 	 90.9298 	 
H 	 32.8518 	 29.0988 	 91.2199 	 
H 	 33.2746 	 28.0797 	 89.8603 	 
C 	 32.8797 	 26.8412 	 91.3318 	 
H 	 31.8046 	 26.7223 	 91.2591 	 
H 	 33.4196 	 25.9263 	 90.9065 	 
H 	 33.0841 	 26.7855 	 92.3613 	 
S 	 36.1306 	 28.1571 	 97.6153 	 
C 	 36.1523 	 26.7457 	 98.5942 	 
C 	 35.8513 	 25.6388 	 97.8164 	 
C 	 35.8377 	 25.9172 	 96.4598 	 
C 	 35.8698 	 27.2758 	 96.1342 	 
H 	 35.7584 	 24.667 	 98.3621 	 
C 	 35.8354 	 24.753 	 95.4427 	 
H 	 36.8169 	 24.3944 	 95.5453 	 
H 	 35.6946 	 25.0146 	 94.4344 	 
C 	 34.9972 	 23.6323 	 95.7394 	 
H 	 34.0074 	 24.0358 	 96.1321 	 
H 	 35.3644 	 23.1803 	 96.6559 	 
C 	 34.8306 	 22.5351 	 94.6831 	 
H 	 35.8901 	 22.2818 	 94.5588 	 
H 	 34.375 	 22.9181 	 93.7744 	 
H 	 34.2936 	 21.8172 	 95.1558 	 
H 	 35.7527 	 30.7599 	 92.6485 	 
H 	 36.3156 	 26.6648 	 99.5967 	 
*
