! wB97X-D3 SP def2-SVP
%pal
nprocs 16
end

* xyz 0 1
S 	 -9.38958 	 43.1519 	 36.3535 	 
C 	 -9.50295 	 41.6837 	 35.2981 	 
C 	 -8.30239 	 41.0017 	 35.2605 	 
C 	 -7.28838 	 41.7053 	 35.9595 	 
C 	 -7.66489 	 42.8267 	 36.6253 	 
H 	 -6.28558 	 41.3102 	 36.0463 	 
C 	 -7.98871 	 39.7955 	 34.4885 	 
H 	 -7.86832 	 40.055 	 33.4645 	 
H 	 -8.9116 	 39.1787 	 34.5744 	 
C 	 -6.84578 	 38.9325 	 34.9742 	 
H 	 -5.89953 	 39.3406 	 34.548 	 
H 	 -6.78218 	 38.7764 	 36.0589 	 
C 	 -6.87453 	 37.4689 	 34.4703 	 
H 	 -7.64301 	 36.9346 	 35.1339 	 
H 	 -7.29157 	 37.3119 	 33.464 	 
H 	 -5.90666 	 36.9734 	 34.5766 	 
S 	 -7.60114 	 45.2848 	 37.7663 	 
C 	 -6.14558 	 45.8513 	 38.6307 	 
C 	 -5.2645 	 44.8018 	 38.7533 	 
C 	 -5.58233 	 43.6489 	 37.9491 	 
C 	 -6.85433 	 43.7178 	 37.4479 	 
H 	 -4.3583 	 44.9706 	 39.2894 	 
C 	 -4.61351 	 42.4566 	 38.0139 	 
H 	 -5.11907 	 41.5124 	 38.1868 	 
H 	 -4.07776 	 42.5439 	 38.9611 	 
C 	 -3.57474 	 42.4754 	 36.861 	 
H 	 -2.97408 	 43.4463 	 36.8152 	 
H 	 -4.04909 	 42.4775 	 35.8824 	 
C 	 -2.55901 	 41.3003 	 36.9464 	 
H 	 -2.08422 	 41.2835 	 37.9102 	 
H 	 -1.7399 	 41.2389 	 36.2832 	 
H 	 -3.07965 	 40.3484 	 36.9528 	 
H 	 -10.4583 	 41.3988 	 34.783 	 
H 	 -6.13801 	 46.7868 	 39.1811 	 
*
