! wB97X-D3 SP def2-SVP
%pal
nprocs 16
end

* xyz 0 1
S 	 62.4785 	 4.92537 	 77.6626 	 
C 	 61.4274 	 5.42047 	 78.9936 	 
C 	 60.3602 	 6.0818 	 78.496 	 
C 	 60.4188 	 6.3648 	 77.0829 	 
C 	 61.59 	 5.90634 	 76.5109 	 
H 	 59.7055 	 6.97197 	 76.56 	 
C 	 59.1343 	 6.55549 	 79.2809 	 
H 	 58.6681 	 5.75023 	 79.8696 	 
H 	 58.3727 	 6.96346 	 78.5827 	 
C 	 59.4813 	 7.71547 	 80.2468 	 
H 	 60.354 	 7.41293 	 80.8036 	 
H 	 59.8518 	 8.60193 	 79.7495 	 
C 	 58.4343 	 8.20657 	 81.2096 	 
H 	 57.5161 	 8.72071 	 80.8285 	 
H 	 57.9925 	 7.43305 	 81.8116 	 
H 	 58.8714 	 9.00837 	 81.8337 	 
S 	 62.7984 	 4.57221 	 74.4585 	 
C 	 62.9457 	 5.30502 	 72.9153 	 
C 	 62.4533 	 6.59648 	 72.9286 	 
C 	 61.8305 	 6.99276 	 74.1872 	 
C 	 62.1309 	 6.06119 	 75.1852 	 
H 	 62.5968 	 7.14866 	 71.9719 	 
C 	 61.0677 	 8.33297 	 74.4145 	 
H 	 61.5667 	 8.71684 	 75.2938 	 
H 	 60.0302 	 8.23859 	 74.5932 	 
C 	 61.2568 	 9.33635 	 73.2867 	 
H 	 60.8746 	 8.95091 	 72.317 	 
H 	 62.3432 	 9.51423 	 73.1171 	 
C 	 60.6848 	 10.6733 	 73.6722 	 
H 	 60.6435 	 11.2629 	 72.7703 	 
H 	 61.233 	 11.2473 	 74.4577 	 
H 	 59.6671 	 10.4846 	 74.1078 	 
H 	 61.722 	 5.1927 	 80.0491 	 
H 	 63.3703 	 4.84528 	 72.0323 	 
*
