! wB97X-D3 SP def2-SVP
%pal
nprocs 16
end

* xyz 0 1
S 	 49.1141 	 12.6476 	 86.4547 	 
C 	 48.0401 	 13.2383 	 85.1741 	 
C 	 47.9647 	 12.353 	 84.155 	 
C 	 48.6264 	 11.1244 	 84.5288 	 
C 	 49.3182 	 11.0985 	 85.7081 	 
H 	 48.8183 	 10.3067 	 83.8257 	 
C 	 47.0925 	 12.3673 	 82.851 	 
H 	 47.8228 	 12.06 	 82.0803 	 
H 	 46.83 	 13.4439 	 82.6415 	 
C 	 45.867 	 11.3983 	 82.8967 	 
H 	 46.2452 	 10.3896 	 82.7953 	 
H 	 45.5056 	 11.4237 	 83.9409 	 
C 	 44.7535 	 11.6908 	 81.8632 	 
H 	 44.2659 	 12.6315 	 82.2215 	 
H 	 45.2326 	 11.9319 	 80.9204 	 
H 	 43.9122 	 11.0547 	 81.6962 	 
S 	 52.0655 	 10.9338 	 86.0749 	 
C 	 52.6969 	 9.34733 	 86.6299 	 
C 	 51.7417 	 8.38152 	 86.7584 	 
C 	 50.4284 	 8.88678 	 86.5156 	 
C 	 50.3889 	 10.2337 	 86.1363 	 
H 	 52.0438 	 7.4139 	 87.1043 	 
C 	 49.1932 	 8.03205 	 86.7757 	 
H 	 48.3608 	 8.73579 	 86.8621 	 
H 	 49.1635 	 7.7206 	 87.8398 	 
C 	 48.8776 	 6.95691 	 85.7632 	 
H 	 48.0895 	 6.31817 	 86.234 	 
H 	 49.7488 	 6.38388 	 85.5146 	 
C 	 48.4413 	 7.54695 	 84.4747 	 
H 	 47.5657 	 8.08048 	 84.6962 	 
H 	 48.1284 	 6.71739 	 83.824 	 
H 	 49.2568 	 8.19191 	 84.0216 	 
H 	 47.3605 	 14.0824 	 85.354 	 
H 	 53.7503 	 9.16134 	 86.6033 	 
*
