! wB97X-D3 SP def2-SVP
%pal
nprocs 16
end

* xyz 0 1
S 	 -33.399 	 42.435 	 97.322 	 
C 	 -34.2762 	 41.2946 	 96.3289 	 
C 	 -33.4426 	 40.9075 	 95.3325 	 
C 	 -32.2092 	 41.5983 	 95.1551 	 
C 	 -32.141 	 42.5646 	 96.1668 	 
H 	 -31.546 	 41.5062 	 94.3013 	 
C 	 -33.9164 	 39.9225 	 94.2637 	 
H 	 -35.0008 	 39.8058 	 94.3392 	 
H 	 -33.3896 	 39.0581 	 94.5572 	 
C 	 -33.4441 	 40.2999 	 92.837 	 
H 	 -33.1721 	 41.3493 	 92.8453 	 
H 	 -32.6225 	 39.7089 	 92.5073 	 
C 	 -34.5948 	 40.143 	 91.7445 	 
H 	 -34.9379 	 39.1119 	 91.7708 	 
H 	 -35.3594 	 40.8999 	 91.9673 	 
H 	 -34.3334 	 40.1667 	 90.6708 	 
S 	 -29.4452 	 43.0728 	 96.6668 	 
C 	 -28.8139 	 44.7046 	 96.3139 	 
C 	 -29.88 	 45.5833 	 96.2152 	 
C 	 -31.1221 	 44.9061 	 96.001 	 
C 	 -31.0853 	 43.5962 	 96.2207 	 
H 	 -29.6205 	 46.6035 	 96.2708 	 
C 	 -32.3788 	 45.6628 	 95.7583 	 
H 	 -32.1366 	 46.7314 	 95.9057 	 
H 	 -33.1069 	 45.4209 	 96.6216 	 
C 	 -33.0795 	 45.3897 	 94.3977 	 
H 	 -34.1279 	 45.7065 	 94.3017 	 
H 	 -33.0099 	 44.2874 	 94.2102 	 
C 	 -32.2524 	 45.922 	 93.22 	 
H 	 -31.3323 	 45.3008 	 93.0837 	 
H 	 -32.1199 	 46.9723 	 93.3742 	 
H 	 -32.75 	 45.675 	 92.2405 	 
H 	 -35.3023 	 41.0997 	 96.4454 	 
H 	 -27.8794 	 45.2083 	 96.564 	 
*
