! wB97X-D3 SP def2-SVP
%pal
nprocs 16
end

* xyz 0 1
S 	 10.0108 	 -15.2772 	 102.659 	 
C 	 11.2861 	 -15.1525 	 103.822 	 
C 	 11.2116 	 -13.9453 	 104.596 	 
C 	 9.88151 	 -13.4615 	 104.451 	 
C 	 9.11548 	 -14.0878 	 103.478 	 
H 	 9.5199 	 -12.6479 	 104.998 	 
C 	 12.2411 	 -13.3588 	 105.528 	 
H 	 11.8118 	 -12.3895 	 105.82 	 
H 	 13.1611 	 -13.1072 	 104.926 	 
C 	 12.6075 	 -14.1089 	 106.802 	 
H 	 13.4403 	 -13.5919 	 107.303 	 
H 	 11.9575 	 -14.1065 	 107.685 	 
C 	 13.289 	 -15.4429 	 106.633 	 
H 	 14.0168 	 -15.4486 	 105.811 	 
H 	 13.6998 	 -15.658 	 107.595 	 
H 	 12.4419 	 -16.1089 	 106.3 	 
S 	 7.19433 	 -12.3599 	 102.362 	 
C 	 5.53968 	 -12.7774 	 102.321 	 
C 	 5.31316 	 -13.9247 	 102.935 	 
C 	 6.47343 	 -14.6609 	 103.244 	 
C 	 7.65803 	 -13.8693 	 103.192 	 
H 	 4.28728 	 -14.2473 	 103.133 	 
C 	 6.41421 	 -16.028 	 103.939 	 
H 	 5.42117 	 -16.2279 	 104.275 	 
H 	 7.11704 	 -15.9966 	 104.825 	 
C 	 6.63579 	 -17.1189 	 102.853 	 
H 	 7.54191 	 -16.7867 	 102.346 	 
H 	 5.85399 	 -17.0213 	 102.114 	 
C 	 6.48753 	 -18.4635 	 103.497 	 
H 	 6.3907 	 -19.2539 	 102.742 	 
H 	 5.60203 	 -18.6285 	 104.104 	 
H 	 7.2824 	 -18.7747 	 104.137 	 
H 	 12.2515 	 -15.719 	 103.807 	 
H 	 4.72434 	 -12.1934 	 101.887 	 
*
