! wB97X-D3 SP def2-SVP
%pal
nprocs 16
end

* xyz 0 1
S 	 51.1047 	 13.2216 	 83.2077 	 
C 	 50.7511 	 14.7233 	 82.3274 	 
C 	 50.5965 	 14.4702 	 80.972 	 
C 	 50.5741 	 13.0534 	 80.7031 	 
C 	 50.7374 	 12.2488 	 81.8273 	 
H 	 50.4258 	 12.5064 	 79.7817 	 
C 	 50.2686 	 15.5304 	 79.9 	 
H 	 49.694 	 16.2765 	 80.4779 	 
H 	 49.6037 	 15.133 	 79.156 	 
C 	 51.4505 	 16.2527 	 79.2279 	 
H 	 52.0478 	 16.7023 	 80.0326 	 
H 	 52.0219 	 15.4771 	 78.6995 	 
C 	 51.0925 	 17.3652 	 78.2513 	 
H 	 50.5003 	 18.155 	 78.7505 	 
H 	 51.9258 	 17.9063 	 77.9345 	 
H 	 50.6149 	 17.0397 	 77.2947 	 
S 	 52.0612 	 10.0449 	 81.0406 	 
C 	 51.7127 	 8.5172 	 81.7029 	 
C 	 50.5673 	 8.47392 	 82.5115 	 
C 	 49.9653 	 9.84543 	 82.5166 	 
C 	 50.731 	 10.8313 	 81.8713 	 
H 	 50.3072 	 7.54997 	 83.0472 	 
C 	 48.6889 	 10.2287 	 83.3277 	 
H 	 47.7826 	 10.1274 	 82.6657 	 
H 	 48.7832 	 11.2973 	 83.6681 	 
C 	 48.3097 	 9.33385 	 84.572 	 
H 	 48.2836 	 8.24383 	 84.2433 	 
H 	 47.2848 	 9.59458 	 84.9411 	 
C 	 49.2741 	 9.61329 	 85.6884 	 
H 	 49.0696 	 10.5959 	 86.088 	 
H 	 50.2554 	 9.6234 	 85.3396 	 
H 	 49.2941 	 8.7818 	 86.4307 	 
H 	 50.8311 	 15.7499 	 82.6239 	 
H 	 52.3849 	 7.63926 	 81.609 	 
*
