! wB97X-D3 SP def2-SVP
%pal
nprocs 16
end

* xyz 0 1
S 	 -35.3206 	 36.3645 	 42.7607 	 
C 	 -36.1057 	 35.6395 	 44.1714 	 
C 	 -35.3795 	 34.6706 	 44.7824 	 
C 	 -34.2054 	 34.4131 	 44.0647 	 
C 	 -34.0159 	 35.2488 	 42.9724 	 
H 	 -33.4373 	 33.6506 	 44.3082 	 
C 	 -35.8805 	 33.965 	 46.0738 	 
H 	 -36.5247 	 33.25 	 45.6427 	 
H 	 -36.3497 	 34.8011 	 46.6017 	 
C 	 -34.889 	 33.1662 	 47.0053 	 
H 	 -34.1012 	 33.8294 	 47.3572 	 
H 	 -35.2717 	 32.8678 	 47.9899 	 
C 	 -34.2499 	 31.8973 	 46.4306 	 
H 	 -33.4407 	 32.0956 	 45.6954 	 
H 	 -33.6843 	 31.3822 	 47.1722 	 
H 	 -34.9045 	 31.2056 	 45.8689 	 
S 	 -32.098 	 36.5414 	 41.5187 	 
C 	 -31.1865 	 35.543 	 40.437 	 
C 	 -31.7768 	 34.3309 	 40.2232 	 
C 	 -32.7924 	 33.9853 	 41.1223 	 
C 	 -33.0498 	 35.1053 	 41.9404 	 
H 	 -31.4839 	 33.6769 	 39.4975 	 
C 	 -33.4017 	 32.5616 	 41.2533 	 
H 	 -34.2387 	 32.3886 	 40.4833 	 
H 	 -33.8729 	 32.454 	 42.217 	 
C 	 -32.5422 	 31.3442 	 40.7938 	 
H 	 -32.0415 	 31.5582 	 39.8196 	 
H 	 -33.1834 	 30.4234 	 40.7558 	 
C 	 -31.4293 	 31.2194 	 41.9216 	 
H 	 -30.5635 	 31.7307 	 41.6915 	 
H 	 -31.079 	 30.2087 	 41.8406 	 
H 	 -31.7983 	 31.2957 	 42.9351 	 
H 	 -37.0186 	 35.93 	 44.6721 	 
H 	 -30.3142 	 35.8373 	 39.8169 	 
*
