! wB97X-D3 SP def2-SVP
%pal
nprocs 16
end

* xyz 0 1
S 	 11.399 	 11.3495 	 83.8516 	 
C 	 11.7562 	 10.865 	 82.1401 	 
C 	 10.6614 	 10.24 	 81.541 	 
C 	 9.57177 	 10.1083 	 82.4094 	 
C 	 9.7964 	 10.6581 	 83.6413 	 
H 	 8.56471 	 9.84146 	 82.1817 	 
C 	 10.5638 	 9.8489 	 80.1195 	 
H 	 9.98473 	 8.88243 	 80.0107 	 
H 	 11.5535 	 9.66823 	 79.8093 	 
C 	 9.99612 	 10.9331 	 79.162 	 
H 	 10.7525 	 11.6706 	 79.2397 	 
H 	 9.97868 	 10.524 	 78.2095 	 
C 	 8.57936 	 11.3262 	 79.5937 	 
H 	 8.24074 	 11.9787 	 78.835 	 
H 	 7.96226 	 10.3708 	 79.6106 	 
H 	 8.44558 	 11.6716 	 80.5974 	 
S 	 8.11086 	 12.1969 	 85.3411 	 
C 	 7.20252 	 11.4175 	 86.5827 	 
C 	 7.35197 	 10.0681 	 86.5337 	 
C 	 8.38348 	 9.65057 	 85.5993 	 
C 	 8.86124 	 10.6738 	 84.7701 	 
H 	 6.77163 	 9.32891 	 87.1332 	 
C 	 8.90441 	 8.21097 	 85.3583 	 
H 	 9.35121 	 7.9561 	 84.3894 	 
H 	 8.01452 	 7.60006 	 85.5611 	 
C 	 10.0212 	 7.75106 	 86.3828 	 
H 	 9.9084 	 7.84593 	 87.3868 	 
H 	 10.9049 	 8.38024 	 86.1363 	 
C 	 10.393 	 6.21565 	 86.221 	 
H 	 10.9289 	 6.04811 	 85.3036 	 
H 	 9.42498 	 5.71373 	 86.1597 	 
H 	 10.9126 	 5.85867 	 87.0677 	 
H 	 12.61 	 11.1284 	 81.5227 	 
H 	 6.57475 	 11.7982 	 87.3105 	 
*
