! wB97X-D3 SP def2-SVP
%pal
nprocs 16
end

* xyz 0 1
S 	 -58.5561 	 20.591 	 87.0945 	 
C 	 -58.874 	 18.8626 	 87.3672 	 
C 	 -58.2802 	 18.0154 	 86.438 	 
C 	 -57.5379 	 18.7655 	 85.4932 	 
C 	 -57.4364 	 20.0841 	 85.8011 	 
H 	 -57.1913 	 18.3748 	 84.56 	 
C 	 -58.5069 	 16.5529 	 86.3676 	 
H 	 -58.4181 	 16.1839 	 85.316 	 
H 	 -59.4541 	 16.2946 	 86.7426 	 
C 	 -57.4615 	 15.6967 	 87.1082 	 
H 	 -57.8495 	 14.7042 	 86.9726 	 
H 	 -56.4552 	 15.798 	 86.6885 	 
C 	 -57.1523 	 16.0992 	 88.5173 	 
H 	 -58.0131 	 16.0224 	 89.1726 	 
H 	 -56.4348 	 15.3074 	 88.9167 	 
H 	 -56.7621 	 17.1184 	 88.6027 	 
S 	 -57.3203 	 22.7506 	 84.6937 	 
C 	 -55.9732 	 23.095 	 83.6423 	 
C 	 -54.9459 	 22.2162 	 83.8308 	 
C 	 -55.3479 	 21.1126 	 84.6725 	 
C 	 -56.664 	 21.1372 	 85.1353 	 
H 	 -53.9267 	 22.3045 	 83.3903 	 
C 	 -54.3234 	 20.0805 	 85.103 	 
H 	 -54.2734 	 19.3221 	 84.4507 	 
H 	 -54.5577 	 19.4261 	 85.9673 	 
C 	 -52.9476 	 20.5855 	 85.4224 	 
H 	 -52.4469 	 20.8087 	 84.5015 	 
H 	 -52.4144 	 19.7782 	 85.8913 	 
C 	 -52.9382 	 21.894 	 86.3258 	 
H 	 -52.0835 	 22.1309 	 86.9303 	 
H 	 -53.5895 	 21.8881 	 87.1732 	 
H 	 -53.3846 	 22.6922 	 85.7411 	 
H 	 -59.6969 	 18.6425 	 88.0696 	 
H 	 -56.0039 	 24.0206 	 83.0976 	 
*
