! wB97X-D3 SP def2-SVP
%pal
nprocs 16
end

* xyz 0 1
S 	 -11.9373 	 36.8654 	 32.1311 	 
C 	 -13.0458 	 35.886 	 33.038 	 
C 	 -14.3091 	 35.845 	 32.4675 	 
C 	 -14.2966 	 36.6697 	 31.2587 	 
C 	 -13.2048 	 37.4011 	 31.1192 	 
H 	 -15.0708 	 36.7295 	 30.5051 	 
C 	 -15.4257 	 34.8358 	 32.8101 	 
H 	 -14.9932 	 33.9619 	 33.3149 	 
H 	 -15.8723 	 34.4964 	 31.8677 	 
C 	 -16.5271 	 35.4746 	 33.6917 	 
H 	 -16.6719 	 36.5194 	 33.3261 	 
H 	 -17.4251 	 34.8923 	 33.4526 	 
C 	 -16.2157 	 35.5033 	 35.1662 	 
H 	 -15.2104 	 36.0398 	 35.3902 	 
H 	 -16.868 	 36.1259 	 35.6587 	 
H 	 -16.2179 	 34.5035 	 35.6027 	 
S 	 -11.5215 	 37.8935 	 28.9823 	 
C 	 -11.9824 	 39.1411 	 27.8293 	 
C 	 -13.2514 	 39.6229 	 27.9533 	 
C 	 -13.8066 	 39.1711 	 29.2172 	 
C 	 -12.9443 	 38.2894 	 29.939 	 
H 	 -13.7282 	 40.2314 	 27.142 	 
C 	 -15.2216 	 39.4995 	 29.5884 	 
H 	 -15.3435 	 40.5576 	 29.55 	 
H 	 -15.4138 	 39.3128 	 30.5982 	 
C 	 -16.1949 	 38.7859 	 28.6413 	 
H 	 -16.0675 	 37.7053 	 28.7233 	 
H 	 -15.8985 	 39.061 	 27.5515 	 
C 	 -17.7241 	 39.1689 	 28.7357 	 
H 	 -17.9747 	 40.108 	 28.2385 	 
H 	 -18.101 	 39.11 	 29.7352 	 
H 	 -18.4501 	 38.4678 	 28.2307 	 
H 	 -12.7464 	 35.2488 	 33.8801 	 
H 	 -11.4436 	 39.2437 	 26.9474 	 
*
