! wB97X-D3 SP def2-SVP
%pal
nprocs 16
end

* xyz 0 1
S 	 -43.9272 	 27.9109 	 87.3062 	 
C 	 -45.3333 	 28.7398 	 86.7254 	 
C 	 -45.0032 	 29.4051 	 85.5647 	 
C 	 -43.7098 	 29.2009 	 85.0971 	 
C 	 -42.9338 	 28.5331 	 85.9826 	 
H 	 -43.328 	 29.7306 	 84.2646 	 
C 	 -46.0302 	 30.1704 	 84.7601 	 
H 	 -46.4036 	 29.4992 	 83.9728 	 
H 	 -45.4284 	 30.8218 	 84.1456 	 
C 	 -47.1946 	 30.8983 	 85.4181 	 
H 	 -47.7153 	 31.3624 	 84.638 	 
H 	 -47.9098 	 30.2188 	 85.8992 	 
C 	 -46.6837 	 31.9064 	 86.4753 	 
H 	 -47.4787 	 32.6271 	 86.8467 	 
H 	 -46.2886 	 31.3903 	 87.2921 	 
H 	 -45.9649 	 32.6108 	 85.9245 	 
S 	 -40.9073 	 28.3333 	 84.1281 	 
C 	 -39.2891 	 27.9111 	 84.711 	 
C 	 -39.2023 	 27.7023 	 86.0622 	 
C 	 -40.4568 	 27.8468 	 86.6916 	 
C 	 -41.4799 	 28.2336 	 85.8204 	 
H 	 -38.3061 	 27.3449 	 86.5208 	 
C 	 -40.6152 	 27.6431 	 88.1992 	 
H 	 -41.0353 	 26.6565 	 88.4466 	 
H 	 -41.4149 	 28.255 	 88.5895 	 
C 	 -39.4431 	 28.0879 	 89.0912 	 
H 	 -38.5396 	 27.5913 	 88.6677 	 
H 	 -39.4443 	 27.6443 	 90.0578 	 
C 	 -39.2818 	 29.576 	 89.1718 	 
H 	 -38.3045 	 29.8376 	 89.6015 	 
H 	 -40.0506 	 30.1454 	 89.7253 	 
H 	 -39.3499 	 29.9225 	 88.0907 	 
H 	 -46.2325 	 28.902 	 87.3716 	 
H 	 -38.4225 	 27.8716 	 84.1106 	 
*
