! wB97X-D3 SP def2-SVP
%pal
nprocs 16
end

* xyz 0 1
S 	 -97.4567 	 59.539 	 124.053 	 
C 	 -98.0698 	 58.1221 	 123.313 	 
C 	 -97.513 	 56.9862 	 123.858 	 
C 	 -96.6167 	 57.3406 	 124.939 	 
C 	 -96.5697 	 58.6564 	 125.255 	 
H 	 -96.0563 	 56.6763 	 125.705 	 
C 	 -97.7087 	 55.4698 	 123.433 	 
H 	 -98.6948 	 55.2145 	 123.155 	 
H 	 -97.5874 	 54.9005 	 124.391 	 
C 	 -96.7929 	 55.0322 	 122.311 	 
H 	 -96.9093 	 55.7476 	 121.445 	 
H 	 -95.8004 	 55.0091 	 122.731 	 
C 	 -97.2376 	 53.6234 	 121.833 	 
H 	 -97.4407 	 52.9912 	 122.646 	 
H 	 -98.1105 	 53.7846 	 121.238 	 
H 	 -96.5395 	 53.077 	 121.262 	 
S 	 -96.6965 	 60.6107 	 127.24 	 
C 	 -95.2516 	 60.932 	 128.146 	 
C 	 -94.1488 	 60.181 	 127.772 	 
C 	 -94.5425 	 59.2339 	 126.761 	 
C 	 -95.8763 	 59.3349 	 126.334 	 
H 	 -93.2393 	 60.2112 	 128.325 	 
C 	 -93.5638 	 58.2432 	 126.207 	 
H 	 -92.754 	 58.7544 	 125.652 	 
H 	 -94.0637 	 57.6514 	 125.442 	 
C 	 -92.9337 	 57.3242 	 127.288 	 
H 	 -93.7184 	 56.6494 	 127.652 	 
H 	 -92.6775 	 57.9272 	 128.176 	 
C 	 -91.7102 	 56.5008 	 126.716 	 
H 	 -90.8301 	 57.073 	 126.443 	 
H 	 -92.0664 	 55.9193 	 125.928 	 
H 	 -91.309 	 55.7975 	 127.454 	 
H 	 -98.7153 	 58.2693 	 122.428 	 
H 	 -95.2385 	 61.6726 	 128.931 	 
*
