! wB97X-D3 SP def2-SVP
%pal
nprocs 16
end

* xyz 0 1
S 	 41.2894 	 13.2599 	 90.3915 	 
C 	 41.9112 	 11.6037 	 90.1912 	 
C 	 41.0773 	 10.8004 	 89.4052 	 
C 	 39.9544 	 11.5204 	 88.9124 	 
C 	 39.9855 	 12.8396 	 89.3094 	 
H 	 39.1247 	 11.1141 	 88.3091 	 
C 	 41.2812 	 9.30345 	 89.1859 	 
H 	 41.76 	 8.92459 	 90.0821 	 
H 	 41.9902 	 8.96981 	 88.3986 	 
C 	 40.1087 	 8.36882 	 88.9102 	 
H 	 39.6558 	 8.7365 	 88.0493 	 
H 	 40.6558 	 7.41306 	 88.7222 	 
C 	 39.1348 	 8.25801 	 90.0741 	 
H 	 39.7556 	 7.84052 	 90.8709 	 
H 	 38.7759 	 9.24281 	 90.369 	 
H 	 38.349 	 7.50612 	 89.7585 	 
S 	 39.1683 	 15.2773 	 88.2457 	 
C 	 37.5336 	 15.7982 	 88.3668 	 
C 	 36.8063 	 14.9252 	 89.1066 	 
C 	 37.5745 	 13.7678 	 89.5173 	 
C 	 38.9147 	 13.8413 	 89.1444 	 
H 	 35.7805 	 15.1617 	 89.3426 	 
C 	 36.8081 	 12.6981 	 90.2741 	 
H 	 37.4021 	 11.7408 	 90.3321 	 
H 	 35.9349 	 12.425 	 89.617 	 
C 	 36.403 	 13.0106 	 91.6988 	 
H 	 35.8456 	 13.9269 	 91.7183 	 
H 	 37.2239 	 13.3163 	 92.3646 	 
C 	 35.4615 	 12.0151 	 92.3305 	 
H 	 34.7934 	 12.4882 	 93.0942 	 
H 	 36.0983 	 11.354 	 92.8726 	 
H 	 34.8148 	 11.578 	 91.555 	 
H 	 42.8746 	 11.1436 	 90.4673 	 
H 	 37.2509 	 16.8093 	 88.0805 	 
*
