! wB97X-D3 SP def2-SVP
%pal
nprocs 16
end

* xyz 0 1
S 	 -62.4649 	 36.8668 	 117.831 	 
C 	 -62.6619 	 36.2023 	 119.434 	 
C 	 -63.7092 	 36.7596 	 120.123 	 
C 	 -64.3471 	 37.748 	 119.289 	 
C 	 -63.9282 	 37.8057 	 117.99 	 
H 	 -65.2195 	 38.3722 	 119.472 	 
C 	 -64.035 	 36.6292 	 121.589 	 
H 	 -64.2139 	 37.6533 	 121.969 	 
H 	 -63.2175 	 36.1411 	 122.19 	 
C 	 -65.3932 	 35.8635 	 121.749 	 
H 	 -65.6266 	 35.8988 	 122.819 	 
H 	 -66.2233 	 36.3666 	 121.328 	 
C 	 -65.1835 	 34.4152 	 121.357 	 
H 	 -65.1832 	 34.4342 	 120.234 	 
H 	 -64.259 	 34.0757 	 121.764 	 
H 	 -66.0446 	 33.8091 	 121.577 	 
S 	 -63.2667 	 40.069 	 116.558 	 
C 	 -64.4774 	 40.656 	 115.394 	 
C 	 -65.7397 	 40.1548 	 115.655 	 
C 	 -65.6847 	 39.0607 	 116.551 	 
C 	 -64.3662 	 38.7784 	 116.949 	 
H 	 -66.5459 	 40.6884 	 115.146 	 
C 	 -66.9297 	 38.2813 	 116.772 	 
H 	 -67.6566 	 38.923 	 117.255 	 
H 	 -66.7581 	 37.5882 	 117.539 	 
C 	 -67.4721 	 37.5779 	 115.565 	 
H 	 -67.563 	 38.3018 	 114.827 	 
H 	 -68.552 	 37.2317 	 115.604 	 
C 	 -66.5471 	 36.5061 	 115.033 	 
H 	 -66.5444 	 35.6936 	 115.748 	 
H 	 -65.5258 	 36.8622 	 114.899 	 
H 	 -66.8416 	 36.0361 	 114.028 	 
H 	 -62.0546 	 35.4514 	 119.87 	 
H 	 -64.3429 	 41.472 	 114.717 	 
*
