! wB97X-D3 SP def2-SVP
%pal
nprocs 16
end

* xyz 0 1
S 	 52.1894 	 15.7045 	 82.3044 	 
C 	 51.6576 	 15.313 	 83.9436 	 
C 	 50.5286 	 16.0498 	 84.2276 	 
C 	 50.0076 	 16.8067 	 83.1086 	 
C 	 50.8968 	 16.7986 	 82.0128 	 
H 	 49.1236 	 17.2917 	 82.9444 	 
C 	 49.8578 	 16.1015 	 85.6118 	 
H 	 49.6939 	 17.0686 	 85.8973 	 
H 	 50.6402 	 15.8059 	 86.3 	 
C 	 48.6967 	 15.1856 	 85.6928 	 
H 	 48.0839 	 15.3704 	 84.7584 	 
H 	 48.983 	 14.1435 	 85.5909 	 
C 	 47.7707 	 15.4406 	 86.8962 	 
H 	 48.175 	 15.489 	 87.9444 	 
H 	 47.3144 	 16.3842 	 86.7579 	 
H 	 46.9804 	 14.6867 	 86.9534 	 
S 	 51.1439 	 16.7918 	 79.2251 	 
C 	 50.8468 	 18.2581 	 78.3781 	 
C 	 50.3004 	 19.1664 	 79.1737 	 
C 	 50.2319 	 18.8118 	 80.566 	 
C 	 50.743 	 17.5299 	 80.7721 	 
H 	 50.0563 	 20.078 	 78.7261 	 
C 	 49.6804 	 19.7364 	 81.559 	 
H 	 50.2092 	 20.6765 	 81.5445 	 
H 	 49.8537 	 19.3611 	 82.5271 	 
C 	 48.152 	 19.9305 	 81.2738 	 
H 	 47.5377 	 19.0527 	 81.405 	 
H 	 48.0338 	 20.288 	 80.2315 	 
C 	 47.8043 	 21.1234 	 82.1907 	 
H 	 48.3956 	 22.0467 	 81.9008 	 
H 	 47.9049 	 20.8535 	 83.3125 	 
H 	 46.7876 	 21.3975 	 82.1126 	 
H 	 52.1317 	 14.4907 	 84.5441 	 
H 	 51.0596 	 18.4128 	 77.3345 	 
*
