! wB97X-D3 SP def2-SVP
%pal
nprocs 16
end

* xyz 0 1
S 	 -29.797 	 61.3941 	 117.234 	 
C 	 -29.2394 	 59.94 	 116.39 	 
C 	 -30.2656 	 59.376 	 115.63 	 
C 	 -31.4309 	 60.2222 	 115.588 	 
C 	 -31.2654 	 61.3566 	 116.269 	 
H 	 -32.2997 	 60.0618 	 115.008 	 
C 	 -30.1865 	 58.0298 	 114.926 	 
H 	 -29.6171 	 57.5142 	 115.608 	 
H 	 -29.6986 	 58.0954 	 113.941 	 
C 	 -31.5711 	 57.3121 	 114.686 	 
H 	 -32.2152 	 57.2909 	 115.602 	 
H 	 -32.0551 	 58.0338 	 114.075 	 
C 	 -31.515 	 55.9056 	 114.056 	 
H 	 -31.1274 	 55.0616 	 114.707 	 
H 	 -32.5755 	 55.5726 	 113.895 	 
H 	 -30.8942 	 55.9302 	 113.086 	 
S 	 -31.8277 	 63.5155 	 117.722 	 
C 	 -33.2633 	 64.4019 	 117.385 	 
C 	 -34.0077 	 63.9079 	 116.306 	 
C 	 -33.3831 	 62.8035 	 115.746 	 
C 	 -32.1851 	 62.4317 	 116.368 	 
H 	 -34.864 	 64.3824 	 115.935 	 
C 	 -34.0348 	 62.0755 	 114.547 	 
H 	 -33.2248 	 61.5975 	 113.891 	 
H 	 -34.4789 	 62.918 	 113.996 	 
C 	 -35.1777 	 61.0879 	 114.773 	 
H 	 -36.0853 	 61.6924 	 115.127 	 
H 	 -34.9143 	 60.4125 	 115.56 	 
C 	 -35.8609 	 60.3377 	 113.583 	 
H 	 -35.2419 	 59.7544 	 112.89 	 
H 	 -36.447 	 61.0509 	 113.022 	 
H 	 -36.6111 	 59.6264 	 113.942 	 
H 	 -28.2723 	 59.4618 	 116.414 	 
H 	 -33.5483 	 65.2201 	 118.051 	 
*
