! wB97X-D3 SP def2-SVP
%pal
nprocs 16
end

* xyz 0 1
S 	 56.2272 	 -5.08412 	 86.7009 	 
C 	 55.408 	 -5.35787 	 88.2679 	 
C 	 55.0533 	 -4.14297 	 88.8439 	 
C 	 55.4668 	 -3.09129 	 88.0135 	 
C 	 56.0813 	 -3.39139 	 86.8171 	 
H 	 55.1309 	 -2.10956 	 88.368 	 
C 	 54.3266 	 -3.87084 	 90.1781 	 
H 	 54.8324 	 -3.00275 	 90.6721 	 
H 	 54.4242 	 -4.72244 	 90.7802 	 
C 	 52.8551 	 -3.47635 	 90.0292 	 
H 	 52.845 	 -2.41938 	 89.8006 	 
H 	 52.4003 	 -4.01532 	 89.141 	 
C 	 52.0183 	 -3.72709 	 91.3326 	 
H 	 52.0042 	 -4.80246 	 91.4762 	 
H 	 52.4521 	 -3.36152 	 92.3228 	 
H 	 50.9693 	 -3.43453 	 91.1269 	 
S 	 56.4464 	 -3.31275 	 84.1793 	 
C 	 57.0567 	 -1.83077 	 83.3898 	 
C 	 57.2221 	 -0.784519 	 84.2952 	 
C 	 57.0021 	 -1.18537 	 85.6627 	 
C 	 56.4992 	 -2.50228 	 85.7262 	 
H 	 57.4419 	 0.194296 	 83.9188 	 
C 	 57.3082 	 -0.364801 	 86.8736 	 
H 	 58.3366 	 -0.6717 	 87.1334 	 
H 	 56.577 	 -0.620193 	 87.6645 	 
C 	 57.4258 	 1.16106 	 86.8321 	 
H 	 56.4043 	 1.64952 	 86.5378 	 
H 	 58.1803 	 1.43161 	 86.0889 	 
C 	 57.6982 	 1.88903 	 88.1101 	 
H 	 57.9195 	 2.88052 	 87.9188 	 
H 	 58.5337 	 1.44201 	 88.58 	 
H 	 56.8641 	 1.73783 	 88.8073 	 
H 	 55.1334 	 -6.36088 	 88.5248 	 
H 	 57.32 	 -1.63996 	 82.3394 	 
*
