! wB97X-D3 SP def2-SVP
%pal
nprocs 16
end

* xyz 0 1
S 	 43.9856 	 11.1976 	 78.2376 	 
C 	 44.7792 	 10.2284 	 79.452 	 
C 	 46.1458 	 10.2001 	 79.2029 	 
C 	 46.5158 	 10.8693 	 78.0141 	 
C 	 45.4641 	 11.4436 	 77.2623 	 
H 	 47.4083 	 10.9217 	 77.5628 	 
C 	 47.1437 	 9.47031 	 79.9868 	 
H 	 47.2313 	 10.1634 	 80.7207 	 
H 	 48.1429 	 9.48887 	 79.5611 	 
C 	 46.706 	 8.13595 	 80.6133 	 
H 	 45.7633 	 8.22399 	 81.0945 	 
H 	 46.5522 	 7.35463 	 79.8856 	 
C 	 47.6742 	 7.59022 	 81.6716 	 
H 	 48.0299 	 8.28275 	 82.4925 	 
H 	 47.2506 	 6.75722 	 82.1912 	 
H 	 48.5945 	 7.25023 	 81.1547 	 
S 	 45.9003 	 11.4068 	 74.5354 	 
C 	 45.7083 	 12.8344 	 73.4716 	 
C 	 45.3429 	 13.8927 	 74.2964 	 
C 	 45.2192 	 13.5234 	 75.6974 	 
C 	 45.5534 	 12.2121 	 76.0242 	 
H 	 45.1609 	 14.9179 	 73.9207 	 
C 	 44.6591 	 14.5188 	 76.6828 	 
H 	 44.2777 	 13.9021 	 77.5149 	 
H 	 43.804 	 15.0719 	 76.2314 	 
C 	 45.6404 	 15.61 	 77.1799 	 
H 	 45.0529 	 16.4629 	 77.5851 	 
H 	 46.2046 	 16.0332 	 76.3259 	 
C 	 46.8708 	 15.2363 	 78.1347 	 
H 	 47.3489 	 16.1777 	 78.3287 	 
H 	 47.6541 	 14.6219 	 77.7091 	 
H 	 46.4962 	 14.8359 	 79.0612 	 
H 	 44.2405 	 9.70553 	 80.2835 	 
H 	 45.7065 	 12.875 	 72.403 	 
*
