! wB97X-D3 SP def2-SVP
%pal
nprocs 16
end

* xyz 0 1
S 	 -111.376 	 55.5508 	 114.161 	 
C 	 -110.181 	 54.8948 	 113.129 	 
C 	 -108.904 	 55.4346 	 113.409 	 
C 	 -108.967 	 56.2093 	 114.635 	 
C 	 -110.192 	 56.2579 	 115.26 	 
H 	 -108.225 	 56.8428 	 115.017 	 
C 	 -107.549 	 55.2455 	 112.671 	 
H 	 -106.909 	 56.0994 	 113.022 	 
H 	 -107.728 	 55.3317 	 111.643 	 
C 	 -106.926 	 53.9102 	 112.942 	 
H 	 -105.927 	 53.9853 	 112.677 	 
H 	 -106.753 	 53.9187 	 113.938 	 
C 	 -107.761 	 52.7435 	 112.379 	 
H 	 -108.411 	 52.3569 	 113.136 	 
H 	 -108.241 	 52.991 	 111.466 	 
H 	 -107.01 	 51.8968 	 112.285 	 
S 	 -111.604 	 58.4489 	 116.069 	 
C 	 -111.401 	 59.1194 	 117.689 	 
C 	 -110.507 	 58.3368 	 118.422 	 
C 	 -109.98 	 57.2135 	 117.681 	 
C 	 -110.523 	 57.1626 	 116.378 	 
H 	 -110.183 	 58.7046 	 119.393 	 
C 	 -108.968 	 56.2787 	 118.185 	 
H 	 -107.947 	 56.6705 	 118.103 	 
H 	 -108.823 	 55.4 	 117.611 	 
C 	 -109.189 	 55.725 	 119.628 	 
H 	 -108.856 	 56.5871 	 120.225 	 
H 	 -108.336 	 55.1245 	 119.972 	 
C 	 -110.603 	 55.277 	 119.967 	 
H 	 -110.944 	 54.5285 	 119.23 	 
H 	 -111.302 	 56.1084 	 119.912 	 
H 	 -110.71 	 54.8676 	 121.01 	 
H 	 -110.268 	 54.1227 	 112.386 	 
H 	 -111.828 	 60.0218 	 118.095 	 
*
