! wB97X-D3 SP def2-SVP
%pal
nprocs 16
end

* xyz 0 1
S 	 -32.2617 	 55.6751 	 102.931 	 
C 	 -33.4664 	 55.8868 	 101.649 	 
C 	 -34.2649 	 57.0071 	 101.804 	 
C 	 -33.8656 	 57.7923 	 102.941 	 
C 	 -32.7159 	 57.2705 	 103.566 	 
H 	 -34.2891 	 58.7667 	 103.181 	 
C 	 -35.4057 	 57.3984 	 100.853 	 
H 	 -35.0115 	 57.2114 	 99.8395 	 
H 	 -35.3713 	 58.5244 	 100.842 	 
C 	 -36.8305 	 56.8131 	 101.185 	 
H 	 -36.8338 	 55.7841 	 100.619 	 
H 	 -36.9931 	 56.59 	 102.218 	 
C 	 -37.9684 	 57.692 	 100.498 	 
H 	 -37.6592 	 58.0051 	 99.5198 	 
H 	 -38.8866 	 57.1891 	 100.514 	 
H 	 -38.1973 	 58.6322 	 101.06 	 
S 	 -31.8526 	 57.0775 	 106.102 	 
C 	 -30.7116 	 58.1745 	 106.776 	 
C 	 -30.4789 	 59.2058 	 105.898 	 
C 	 -31.1456 	 59.0638 	 104.643 	 
C 	 -31.9307 	 57.8991 	 104.618 	 
H 	 -29.6681 	 59.8342 	 106.228 	 
C 	 -30.868 	 59.985 	 103.423 	 
H 	 -31.0363 	 59.4053 	 102.516 	 
H 	 -29.8052 	 60.211 	 103.476 	 
C 	 -31.6218 	 61.2661 	 103.097 	 
H 	 -31.3497 	 61.9264 	 103.882 	 
H 	 -32.6771 	 61.1127 	 103.33 	 
C 	 -31.3493 	 61.8315 	 101.777 	 
H 	 -32.0389 	 62.6228 	 101.645 	 
H 	 -31.5249 	 61.2032 	 100.876 	 
H 	 -30.3127 	 62.2145 	 101.734 	 
H 	 -33.5766 	 54.977 	 101.067 	 
H 	 -30.2856 	 58.1357 	 107.728 	 
*
