! wB97X-D3 SP def2-SVP
%pal
nprocs 16
end

* xyz 0 1
S 	 38.6231 	 22.3587 	 95.0803 	 
C 	 40.1747 	 23.0874 	 95.6748 	 
C 	 40.6572 	 22.3136 	 96.7167 	 
C 	 39.8953 	 21.1145 	 96.8483 	 
C 	 38.8489 	 20.8618 	 95.9589 	 
H 	 40.2069 	 20.3507 	 97.4769 	 
C 	 41.826 	 22.7415 	 97.61 	 
H 	 41.75 	 22.3357 	 98.6821 	 
H 	 41.6875 	 23.8565 	 97.7058 	 
C 	 43.2142 	 22.5938 	 97.0572 	 
H 	 43.4805 	 23.3079 	 96.3361 	 
H 	 43.8822 	 23.0458 	 97.7954 	 
C 	 43.573 	 21.2129 	 96.5611 	 
H 	 43.0317 	 21.0539 	 95.6309 	 
H 	 44.6908 	 21.1594 	 96.3873 	 
H 	 43.1296 	 20.4163 	 97.1417 	 
S 	 36.814 	 19.3575 	 96.7892 	 
C 	 36.1752 	 18.1353 	 95.7236 	 
C 	 37.0954 	 17.8435 	 94.7029 	 
C 	 38.16 	 18.8069 	 94.6618 	 
C 	 38.0317 	 19.7555 	 95.6215 	 
H 	 36.963 	 16.95 	 94.0812 	 
C 	 39.1334 	 18.8795 	 93.5442 	 
H 	 39.7538 	 19.7087 	 93.8284 	 
H 	 38.6291 	 19.1917 	 92.6571 	 
C 	 40.0853 	 17.6299 	 93.2971 	 
H 	 40.5576 	 17.6998 	 92.2925 	 
H 	 39.5119 	 16.6706 	 93.1795 	 
C 	 41.0123 	 17.2093 	 94.5179 	 
H 	 40.9073 	 16.1608 	 94.6223 	 
H 	 40.6373 	 17.6748 	 95.3999 	 
H 	 41.998 	 17.4728 	 94.5052 	 
H 	 40.718 	 24.012 	 95.2956 	 
H 	 35.3782 	 17.4042 	 95.9449 	 
*
