! wB97X-D3 SP def2-SVP
%pal
nprocs 16
end

* xyz 0 1
S 	 -33.5074 	 1.1342 	 98.5257 	 
C 	 -32.0968 	 2.102 	 98.2292 	 
C 	 -32.1677 	 2.69562 	 97.0183 	 
C 	 -33.4887 	 2.53778 	 96.3952 	 
C 	 -34.2444 	 1.53373 	 97.0008 	 
H 	 -33.903 	 3.07021 	 95.5157 	 
C 	 -31.2001 	 3.69788 	 96.4553 	 
H 	 -30.2928 	 3.58141 	 96.9432 	 
H 	 -31.5285 	 4.72356 	 96.4957 	 
C 	 -30.8763 	 3.41277 	 94.9483 	 
H 	 -30.6684 	 2.36087 	 94.8149 	 
H 	 -31.7921 	 3.62934 	 94.4184 	 
C 	 -29.7216 	 4.24396 	 94.4197 	 
H 	 -30.0396 	 5.25987 	 94.5873 	 
H 	 -28.7756 	 3.95602 	 94.8355 	 
H 	 -29.5323 	 4.22894 	 93.3172 	 
S 	 -36.9008 	 2.03169 	 97.6791 	 
C 	 -38.2049 	 1.30019 	 96.6793 	 
C 	 -37.6758 	 0.334046 	 95.8655 	 
C 	 -36.2358 	 0.325442 	 95.7423 	 
C 	 -35.6299 	 1.24815 	 96.6716 	 
H 	 -38.3122 	 -0.387455 	 95.393 	 
C 	 -35.5264 	 -0.52182 	 94.7762 	 
H 	 -34.6909 	 -0.00826615 	 94.4247 	 
H 	 -36.2308 	 -0.815053 	 93.956 	 
C 	 -35.1382 	 -1.8846 	 95.3779 	 
H 	 -34.7666 	 -2.6957 	 94.6506 	 
H 	 -35.9905 	 -2.45209 	 95.8134 	 
C 	 -34.117 	 -1.70591 	 96.53 	 
H 	 -33.2446 	 -1.06853 	 96.2444 	 
H 	 -33.6656 	 -2.7175 	 96.5847 	 
H 	 -34.4682 	 -1.44132 	 97.504 	 
H 	 -31.1786 	 2.27342 	 98.8864 	 
H 	 -39.2528 	 1.20809 	 96.8719 	 
*
