! wB97X-D3 SP def2-SVP
%pal
nprocs 16
end

* xyz 0 1
S 	 -4.10239 	 -16.5661 	 84.788 	 
C 	 -3.93197 	 -16.5119 	 86.5882 	 
C 	 -4.78571 	 -15.7661 	 87.2944 	 
C 	 -5.59041 	 -15.0023 	 86.3516 	 
C 	 -5.3776 	 -15.3071 	 84.9706 	 
H 	 -6.21403 	 -14.1671 	 86.5745 	 
C 	 -4.8877 	 -15.6499 	 88.7856 	 
H 	 -4.07325 	 -14.9896 	 89.1203 	 
H 	 -4.63953 	 -16.5943 	 89.2092 	 
C 	 -6.23506 	 -15.0993 	 89.1995 	 
H 	 -6.18319 	 -14.031 	 89.0607 	 
H 	 -7.05109 	 -15.6201 	 88.7026 	 
C 	 -6.53812 	 -15.2722 	 90.6601 	 
H 	 -5.80339 	 -14.7933 	 91.3369 	 
H 	 -7.5622 	 -14.8241 	 90.7223 	 
H 	 -6.58711 	 -16.2781 	 90.9707 	 
S 	 -5.51984 	 -13.0293 	 83.3214 	 
C 	 -7.12944 	 -12.6158 	 82.6524 	 
C 	 -7.96826 	 -13.662 	 82.8227 	 
C 	 -7.39898 	 -14.7859 	 83.4798 	 
C 	 -6.06298 	 -14.6094 	 83.84 	 
H 	 -8.94928 	 -13.409 	 82.4911 	 
C 	 -8.19275 	 -16.0504 	 83.8106 	 
H 	 -7.64885 	 -17.0029 	 84.0009 	 
H 	 -8.85817 	 -16.3626 	 83.0266 	 
C 	 -8.88884 	 -15.9526 	 85.1729 	 
H 	 -9.55007 	 -15.0523 	 85.33 	 
H 	 -8.05161 	 -15.8681 	 85.9183 	 
C 	 -9.81336 	 -17.1127 	 85.5138 	 
H 	 -9.19661 	 -18.067 	 85.4047 	 
H 	 -10.7464 	 -17.16 	 84.9892 	 
H 	 -10.1081 	 -17.1781 	 86.5605 	 
H 	 -3.18516 	 -17.1114 	 87.0899 	 
H 	 -7.36131 	 -11.7148 	 82.0203 	 
*
