! wB97X-D3 SP def2-SVP
%pal
nprocs 16
end

* xyz 0 1
S 	 3.32634 	 76.734 	 49.7541 	 
C 	 2.80101 	 78.0702 	 50.7557 	 
C 	 2.24502 	 77.6655 	 51.941 	 
C 	 2.27065 	 76.2293 	 52.0723 	 
C 	 2.6298 	 75.5803 	 50.8974 	 
H 	 1.88972 	 75.7371 	 52.9461 	 
C 	 1.75676 	 78.5893 	 53.1083 	 
H 	 2.54412 	 79.2772 	 53.3553 	 
H 	 1.67715 	 77.9134 	 53.919 	 
C 	 0.414712 	 79.2863 	 52.7938 	 
H 	 0.197532 	 80.0008 	 53.6248 	 
H 	 0.561997 	 79.8588 	 51.8359 	 
C 	 -0.775729 	 78.3349 	 52.7 	 
H 	 -1.70615 	 78.8232 	 52.326 	 
H 	 -0.604797 	 77.4006 	 52.1209 	 
H 	 -1.03975 	 78.0027 	 53.7462 	 
S 	 4.28928 	 73.4901 	 50.3224 	 
C 	 3.7713 	 71.9216 	 50.7098 	 
C 	 2.43356 	 71.8337 	 51.0427 	 
C 	 1.82606 	 73.0832 	 51.1552 	 
C 	 2.69839 	 74.093 	 50.7759 	 
H 	 2.01697 	 70.8684 	 51.1895 	 
C 	 0.412314 	 73.2539 	 51.6821 	 
H 	 -0.256379 	 72.8953 	 50.9526 	 
H 	 0.337204 	 74.3774 	 51.729 	 
C 	 0.0992916 	 72.6551 	 53.0274 	 
H 	 0.432496 	 71.6128 	 53.1054 	 
H 	 -0.927743 	 72.5906 	 53.2537 	 
C 	 0.659778 	 73.4491 	 54.2597 	 
H 	 0.443409 	 72.9906 	 55.1728 	 
H 	 0.297109 	 74.5025 	 54.1487 	 
H 	 1.76409 	 73.5625 	 54.2826 	 
H 	 2.9028 	 79.0718 	 50.3558 	 
H 	 4.4332 	 71.0514 	 50.4147 	 
*
