! wB97X-D3 SP def2-SVP
%pal
nprocs 16
end

* xyz 0 1
S 	 66.1802 	 19.0583 	 74.8163 	 
C 	 65.2194 	 20.4805 	 74.9248 	 
C 	 65.6816 	 21.3288 	 75.9072 	 
C 	 66.8159 	 20.742 	 76.5999 	 
C 	 67.0966 	 19.448 	 76.2267 	 
H 	 67.5159 	 21.2123 	 77.2684 	 
C 	 65.246 	 22.7673 	 76.0925 	 
H 	 64.9341 	 23.1009 	 75.0302 	 
H 	 66.0391 	 23.4377 	 76.459 	 
C 	 64.0335 	 22.8375 	 76.9932 	 
H 	 64.1967 	 22.3825 	 78.037 	 
H 	 63.789 	 23.8494 	 77.1387 	 
C 	 62.7752 	 22.0387 	 76.4694 	 
H 	 63.0152 	 20.9107 	 76.6255 	 
H 	 61.9574 	 22.3526 	 77.1714 	 
H 	 62.4385 	 22.2149 	 75.4477 	 
S 	 69.4921 	 18.3401 	 75.5132 	 
C 	 70.4437 	 17.3938 	 76.5878 	 
C 	 69.7949 	 17.417 	 77.8181 	 
C 	 68.6073 	 18.1971 	 77.9503 	 
C 	 68.1906 	 18.6342 	 76.6822 	 
H 	 70.3146 	 16.8876 	 78.5769 	 
C 	 67.8779 	 18.304 	 79.2226 	 
H 	 67.3024 	 19.2183 	 79.2735 	 
H 	 68.5899 	 18.4449 	 80.0098 	 
C 	 67.1094 	 17.0726 	 79.7631 	 
H 	 66.8493 	 17.1646 	 80.8104 	 
H 	 67.6811 	 16.1345 	 79.6193 	 
C 	 65.7541 	 16.866 	 79.0548 	 
H 	 65.9711 	 16.6534 	 77.964 	 
H 	 64.9646 	 17.6096 	 79.1958 	 
H 	 65.2549 	 16.0322 	 79.6321 	 
H 	 64.3505 	 20.728 	 74.3008 	 
H 	 71.3858 	 17.0132 	 76.3469 	 
*
