! wB97X-D3 SP def2-SVP
%pal
nprocs 16
end

* xyz 0 1
S 	 32.9895 	 11.7656 	 70.7787 	 
C 	 31.8472 	 12.4077 	 69.5604 	 
C 	 31.8913 	 11.6342 	 68.4561 	 
C 	 32.5271 	 10.3332 	 68.7456 	 
C 	 33.1279 	 10.1722 	 69.9735 	 
H 	 32.577 	 9.56593 	 68.0894 	 
C 	 31.0232 	 11.6959 	 67.2406 	 
H 	 31.5178 	 11.1993 	 66.4495 	 
H 	 31.0382 	 12.8018 	 67.0179 	 
C 	 29.5526 	 11.2358 	 67.4654 	 
H 	 29.505 	 10.1373 	 67.4291 	 
H 	 29.2183 	 11.5388 	 68.4296 	 
C 	 28.7472 	 11.6779 	 66.3301 	 
H 	 27.6598 	 11.2392 	 66.4092 	 
H 	 28.6437 	 12.785 	 66.1278 	 
H 	 29.1304 	 11.0905 	 65.5227 	 
S 	 35.7799 	 9.58265 	 70.3311 	 
C 	 36.2445 	 8.01614 	 70.9227 	 
C 	 35.1945 	 7.19633 	 71.1214 	 
C 	 33.9636 	 7.85431 	 70.8097 	 
C 	 34.0879 	 9.14899 	 70.3778 	 
H 	 35.4242 	 6.23904 	 71.5998 	 
C 	 32.6606 	 7.0694 	 70.9255 	 
H 	 32.9883 	 6.02247 	 70.7615 	 
H 	 32.012 	 7.27484 	 70.0877 	 
C 	 31.978 	 7.17185 	 72.3128 	 
H 	 31.9347 	 8.25885 	 72.5917 	 
H 	 32.644 	 6.72703 	 73.0844 	 
C 	 30.5187 	 6.49937 	 72.4164 	 
H 	 29.8942 	 6.76156 	 71.5708 	 
H 	 30.0704 	 6.90045 	 73.2724 	 
H 	 30.4431 	 5.38297 	 72.3962 	 
H 	 31.2664 	 13.2949 	 69.6957 	 
H 	 37.2406 	 7.72198 	 71.325 	 
*
