! wB97X-D3 SP def2-SVP
%pal
nprocs 16
end

* xyz 0 1
S 	 15.5869 	 -13.5165 	 79.6737 	 
C 	 15.6983 	 -12.9986 	 78.004 	 
C 	 14.8156 	 -13.7047 	 77.1802 	 
C 	 13.913 	 -14.5375 	 77.9595 	 
C 	 14.1446 	 -14.3866 	 79.3317 	 
H 	 13.102 	 -15.1755 	 77.6084 	 
C 	 14.6321 	 -13.5741 	 75.6953 	 
H 	 13.9035 	 -12.7762 	 75.5565 	 
H 	 14.2804 	 -14.4975 	 75.2646 	 
C 	 15.9653 	 -13.2987 	 74.9318 	 
H 	 16.194 	 -12.2751 	 74.9725 	 
H 	 16.6951 	 -13.919 	 75.4438 	 
C 	 16.0019 	 -13.845 	 73.5395 	 
H 	 15.8405 	 -14.8882 	 73.3535 	 
H 	 15.2027 	 -13.3776 	 73.0245 	 
H 	 16.9904 	 -13.743 	 73.0872 	 
S 	 14.3358 	 -16.2253 	 81.2462 	 
C 	 12.9008 	 -16.873 	 81.9947 	 
C 	 11.7695 	 -16.2841 	 81.4271 	 
C 	 12.0592 	 -15.28 	 80.4531 	 
C 	 13.3968 	 -15.1165 	 80.3058 	 
H 	 10.7457 	 -16.6363 	 81.6584 	 
C 	 10.9873 	 -14.3742 	 79.8005 	 
H 	 11.468 	 -13.4986 	 79.3296 	 
H 	 10.3581 	 -14.0366 	 80.6544 	 
C 	 10.2759 	 -15.1879 	 78.6716 	 
H 	 9.85579 	 -16.1355 	 79.1005 	 
H 	 11.07 	 -15.4128 	 78.0254 	 
C 	 9.28986 	 -14.3375 	 77.9056 	 
H 	 9.18841 	 -14.846 	 76.9954 	 
H 	 9.61743 	 -13.3804 	 77.6226 	 
H 	 8.38684 	 -14.215 	 78.2572 	 
H 	 16.4516 	 -12.389 	 77.5729 	 
H 	 12.7887 	 -17.7401 	 82.6761 	 
*
