! wB97X-D3 SP def2-SVP
%pal
nprocs 16
end

* xyz 0 1
S 	 -68.7781 	 36.4246 	 140.717 	 
C 	 -69.1012 	 34.7436 	 140.505 	 
C 	 -68.1624 	 33.9438 	 141.102 	 
C 	 -67.1777 	 34.684 	 141.839 	 
C 	 -67.345 	 36.0323 	 141.67 	 
H 	 -66.2114 	 34.3051 	 142.25 	 
C 	 -68.046 	 32.4498 	 140.916 	 
H 	 -68.947 	 31.9885 	 140.595 	 
H 	 -67.9601 	 32.0066 	 141.851 	 
C 	 -66.8564 	 31.9777 	 140.064 	 
H 	 -66.5834 	 32.4476 	 139.117 	 
H 	 -66.0152 	 32.2771 	 140.71 	 
C 	 -66.6698 	 30.4621 	 139.933 	 
H 	 -65.7876 	 30.1397 	 139.554 	 
H 	 -66.7899 	 30.1465 	 140.965 	 
H 	 -67.5078 	 29.9523 	 139.463 	 
S 	 -66.8063 	 38.2932 	 143.172 	 
C 	 -65.2009 	 38.9004 	 143.167 	 
C 	 -64.4383 	 38.3026 	 142.208 	 
C 	 -65.0484 	 37.1343 	 141.641 	 
C 	 -66.3937 	 37.0284 	 142.09 	 
H 	 -63.4339 	 38.7317 	 142.137 	 
C 	 -64.3278 	 36.1926 	 140.661 	 
H 	 -65.0671 	 35.5691 	 140.155 	 
H 	 -63.8595 	 35.44 	 141.259 	 
C 	 -63.4021 	 36.7481 	 139.574 	 
H 	 -62.6419 	 36.0491 	 139.281 	 
H 	 -62.8907 	 37.6022 	 140.093 	 
C 	 -64.1508 	 37.4015 	 138.403 	 
H 	 -64.6391 	 38.2039 	 138.921 	 
H 	 -64.8716 	 36.7683 	 137.903 	 
H 	 -63.4209 	 37.7526 	 137.623 	 
H 	 -69.9217 	 34.3113 	 139.929 	 
H 	 -64.8889 	 39.8314 	 143.54 	 
*
