! wB97X-D3 SP def2-SVP
%pal
nprocs 16
end

* xyz 0 1
S 	 2.36671 	 -18.2637 	 78.9316 	 
C 	 1.5809 	 -18.397 	 80.4548 	 
C 	 1.20403 	 -17.2015 	 80.99 	 
C 	 1.63332 	 -16.0937 	 80.2408 	 
C 	 2.05759 	 -16.5153 	 79.0174 	 
H 	 1.58585 	 -15.0283 	 80.5566 	 
C 	 0.821032 	 -17.0902 	 82.4214 	 
H 	 1.52049 	 -16.4267 	 82.9096 	 
H 	 0.95509 	 -18.094 	 82.908 	 
C 	 -0.622765 	 -16.6831 	 82.6835 	 
H 	 -0.962645 	 -15.9597 	 81.8989 	 
H 	 -1.34278 	 -17.5116 	 82.5517 	 
C 	 -0.878684 	 -16.0159 	 84.0368 	 
H 	 -0.917517 	 -14.9063 	 83.8513 	 
H 	 -1.92353 	 -16.2972 	 84.2939 	 
H 	 -0.146304 	 -16.3795 	 84.8726 	 
S 	 1.09079 	 -14.9797 	 77.1014 	 
C 	 2.16891 	 -14.2332 	 75.9069 	 
C 	 3.46272 	 -14.5559 	 76.1318 	 
C 	 3.64611 	 -15.3754 	 77.3116 	 
C 	 2.42584 	 -15.6556 	 77.8965 	 
H 	 4.28663 	 -14.2861 	 75.5036 	 
C 	 4.95972 	 -16.009 	 77.7471 	 
H 	 5.02581 	 -17.0404 	 77.381 	 
H 	 5.01819 	 -16.0885 	 78.8473 	 
C 	 6.19424 	 -15.3353 	 77.3752 	 
H 	 6.12114 	 -14.2951 	 77.6966 	 
H 	 6.26671 	 -15.3153 	 76.3222 	 
C 	 7.51486 	 -15.9646 	 77.8616 	 
H 	 7.44631 	 -16.3147 	 78.9225 	 
H 	 8.35425 	 -15.3184 	 77.7005 	 
H 	 7.7933 	 -16.8964 	 77.2255 	 
H 	 1.38357 	 -19.3385 	 80.9851 	 
H 	 1.79405 	 -13.7779 	 74.9502 	 
*
