! wB97X-D3 SP def2-SVP
%pal
nprocs 16
end

* xyz 0 1
S 	 -2.3077 	 -4.50521 	 79.175 	 
C 	 -2.29749 	 -6.17672 	 78.9386 	 
C 	 -2.24976 	 -6.80715 	 80.1489 	 
C 	 -2.28479 	 -5.97505 	 81.2745 	 
C 	 -2.45121 	 -4.64562 	 80.9294 	 
H 	 -2.28711 	 -6.19125 	 82.3912 	 
C 	 -2.07957 	 -8.33733 	 80.2225 	 
H 	 -0.998088 	 -8.63591 	 80.4077 	 
H 	 -2.4256 	 -8.73648 	 79.2483 	 
C 	 -2.93057 	 -9.11213 	 81.2095 	 
H 	 -2.56661 	 -10.1189 	 81.2542 	 
H 	 -2.8599 	 -8.62951 	 82.1916 	 
C 	 -4.46094 	 -9.00536 	 80.9006 	 
H 	 -4.98929 	 -9.46936 	 81.7091 	 
H 	 -4.88379 	 -8.05376 	 80.7027 	 
H 	 -4.77107 	 -9.61666 	 80.1298 	 
S 	 -1.22111 	 -2.3963 	 81.6013 	 
C 	 -1.82284 	 -1.36115 	 82.8472 	 
C 	 -2.83542 	 -1.9625 	 83.5252 	 
C 	 -3.26995 	 -3.21597 	 82.9601 	 
C 	 -2.61516 	 -3.50038 	 81.7726 	 
H 	 -3.21044 	 -1.48112 	 84.4254 	 
C 	 -4.34058 	 -4.07491 	 83.6489 	 
H 	 -4.33818 	 -5.07511 	 83.1453 	 
H 	 -5.29938 	 -3.60144 	 83.6761 	 
C 	 -4.16526 	 -4.28327 	 85.1739 	 
H 	 -5.0628 	 -4.86313 	 85.5617 	 
H 	 -4.1883 	 -3.28503 	 85.5563 	 
C 	 -3.07978 	 -5.27143 	 85.6483 	 
H 	 -3.2532 	 -6.21607 	 85.1706 	 
H 	 -3.23146 	 -5.36132 	 86.7147 	 
H 	 -2.12125 	 -4.90199 	 85.4127 	 
H 	 -2.30614 	 -6.7655 	 78.0285 	 
H 	 -1.25287 	 -0.479176 	 83.2558 	 
*
