! wB97X-D3 SP def2-SVP
%pal
nprocs 16
end

* xyz 0 1
S 	 -9.62538 	 -2.02454 	 78.3763 	 
C 	 -8.30816 	 -2.17862 	 79.4654 	 
C 	 -8.61927 	 -2.83938 	 80.632 	 
C 	 -10.0261 	 -3.00618 	 80.696 	 
C 	 -10.7652 	 -2.63757 	 79.5177 	 
H 	 -10.691 	 -3.23251 	 81.5424 	 
C 	 -7.7877 	 -3.05708 	 81.8846 	 
H 	 -7.16184 	 -3.87842 	 81.7126 	 
H 	 -8.54936 	 -3.41732 	 82.614 	 
C 	 -6.99677 	 -1.84436 	 82.2696 	 
H 	 -6.11487 	 -1.61979 	 81.6232 	 
H 	 -7.53173 	 -0.899739 	 82.3899 	 
C 	 -6.33609 	 -2.01143 	 83.6572 	 
H 	 -5.96739 	 -3.08212 	 83.7911 	 
H 	 -5.67983 	 -1.19666 	 83.8463 	 
H 	 -7.1758 	 -1.87004 	 84.4109 	 
S 	 -12.845 	 -0.942539 	 78.7131 	 
C 	 -14.4218 	 -1.57737 	 78.7229 	 
C 	 -14.4526 	 -2.79105 	 79.4433 	 
C 	 -13.2332 	 -3.24474 	 79.9725 	 
C 	 -12.2081 	 -2.42832 	 79.5389 	 
H 	 -15.4047 	 -3.24752 	 79.6185 	 
C 	 -13.195 	 -4.55056 	 80.6899 	 
H 	 -12.145 	 -4.82911 	 80.9369 	 
H 	 -13.484 	 -5.49866 	 80.1146 	 
C 	 -13.8266 	 -4.7033 	 82.0354 	 
H 	 -13.4781 	 -5.69755 	 82.4525 	 
H 	 -14.9022 	 -4.71724 	 81.9483 	 
C 	 -13.6274 	 -3.68791 	 83.1578 	 
H 	 -14.4312 	 -3.98445 	 83.8543 	 
H 	 -13.8303 	 -2.63777 	 82.8381 	 
H 	 -12.5934 	 -3.8155 	 83.5371 	 
H 	 -7.39914 	 -1.73665 	 79.3047 	 
H 	 -15.2632 	 -1.01243 	 78.4102 	 
*
