! wB97X-D3 SP def2-SVP
%pal
nprocs 16
end

* xyz 0 1
S 	 42.483 	 14.0985 	 49.4505 	 
C 	 42.5816 	 13.8366 	 51.1648 	 
C 	 41.4923 	 14.3382 	 51.8658 	 
C 	 40.473 	 14.9436 	 51.007 	 
C 	 40.823 	 14.8181 	 49.6583 	 
H 	 39.6152 	 15.4631 	 51.2832 	 
C 	 41.3898 	 14.4397 	 53.3904 	 
H 	 40.9253 	 15.4022 	 53.6993 	 
H 	 42.4164 	 14.6332 	 53.8279 	 
C 	 40.7579 	 13.1294 	 53.9491 	 
H 	 39.6248 	 13.3033 	 53.9614 	 
H 	 41.0958 	 12.3602 	 53.2939 	 
C 	 41.0958 	 12.6738 	 55.3826 	 
H 	 42.1982 	 12.5188 	 55.4707 	 
H 	 40.8727 	 13.4203 	 56.1514 	 
H 	 40.5396 	 11.8047 	 55.6485 	 
S 	 41.0879 	 15.8992 	 47.1491 	 
C 	 39.7134 	 16.5167 	 46.2914 	 
C 	 38.558 	 16.1834 	 46.9676 	 
C 	 38.7534 	 15.5906 	 48.2823 	 
C 	 40.0854 	 15.396 	 48.5294 	 
H 	 37.6238 	 16.3177 	 46.4542 	 
C 	 37.6929 	 14.9773 	 49.1474 	 
H 	 37.3682 	 15.6861 	 49.8157 	 
H 	 38.1673 	 14.068 	 49.6544 	 
C 	 36.4805 	 14.523 	 48.2964 	 
H 	 36.0703 	 15.3601 	 47.6822 	 
H 	 35.7353 	 14.2254 	 48.9671 	 
C 	 36.8932 	 13.3607 	 47.2952 	 
H 	 36.0403 	 12.9883 	 46.7768 	 
H 	 37.237 	 12.4043 	 47.8539 	 
H 	 37.6774 	 13.5627 	 46.6084 	 
H 	 43.3715 	 13.2182 	 51.6371 	 
H 	 39.647 	 16.6348 	 45.2156 	 
*
