! wB97X-D3 SP def2-SVP
%pal
nprocs 16
end

* xyz 0 1
S 	 -17.6257 	 55.5848 	 62.9089 	 
C 	 -16.277 	 54.5661 	 62.3485 	 
C 	 -15.2253 	 54.4982 	 63.2159 	 
C 	 -15.508 	 55.2885 	 64.3542 	 
C 	 -16.6729 	 56.004 	 64.3286 	 
H 	 -14.8794 	 55.3778 	 65.236 	 
C 	 -13.933 	 53.6971 	 62.9383 	 
H 	 -13.0835 	 54.3795 	 63.2699 	 
H 	 -13.6305 	 53.5766 	 61.8618 	 
C 	 -13.7013 	 52.3224 	 63.6698 	 
H 	 -13.806 	 52.3644 	 64.7766 	 
H 	 -14.5149 	 51.6707 	 63.3445 	 
C 	 -12.2779 	 51.6725 	 63.413 	 
H 	 -11.8987 	 51.8042 	 62.4259 	 
H 	 -11.5741 	 52.1664 	 64.1359 	 
H 	 -12.2289 	 50.5867 	 63.6015 	 
S 	 -17.8018 	 58.3444 	 64.9869 	 
C 	 -18.0846 	 58.8423 	 66.6416 	 
C 	 -17.4475 	 57.9691 	 67.5069 	 
C 	 -16.9274 	 56.7959 	 66.8295 	 
C 	 -17.2067 	 56.7998 	 65.4325 	 
H 	 -17.2366 	 58.1835 	 68.541 	 
C 	 -16.3429 	 55.631 	 67.5836 	 
H 	 -15.47 	 55.8544 	 68.044 	 
H 	 -16.124 	 54.8166 	 66.8367 	 
C 	 -17.2015 	 54.9942 	 68.7598 	 
H 	 -18.228 	 54.7179 	 68.5481 	 
H 	 -17.2652 	 55.6291 	 69.6261 	 
C 	 -16.6083 	 53.6287 	 69.2399 	 
H 	 -17.3532 	 53.0836 	 69.8683 	 
H 	 -15.7182 	 53.7226 	 69.9386 	 
H 	 -16.3752 	 52.8354 	 68.4287 	 
H 	 -16.4055 	 53.9744 	 61.5141 	 
H 	 -18.3333 	 59.8905 	 66.8721 	 
*
