! wB97X-D3 SP def2-SVP
%pal
nprocs 16
end

* xyz 0 1
S 	 -0.839994 	 -14.2847 	 86.0399 	 
C 	 -0.123493 	 -15.6454 	 86.8646 	 
C 	 -0.829716 	 -16.8116 	 86.7034 	 
C 	 -2.07052 	 -16.4832 	 86.0185 	 
C 	 -2.26553 	 -15.1636 	 85.628 	 
H 	 -2.88862 	 -17.1788 	 85.9252 	 
C 	 -0.573832 	 -18.1239 	 87.3916 	 
H 	 -1.23733 	 -17.9996 	 88.2047 	 
H 	 0.493506 	 -18.2049 	 87.6746 	 
C 	 -1.11232 	 -19.4394 	 86.6217 	 
H 	 -2.18333 	 -19.4131 	 86.5911 	 
H 	 -0.846645 	 -19.3323 	 85.5389 	 
C 	 -0.44002 	 -20.6957 	 87.2162 	 
H 	 -0.474967 	 -20.6269 	 88.2725 	 
H 	 -0.905566 	 -21.5609 	 86.7689 	 
H 	 0.62257 	 -20.776 	 86.8893 	 
S 	 -3.04696 	 -13.4937 	 83.635 	 
C 	 -4.79829 	 -13.3439 	 83.2919 	 
C 	 -5.50651 	 -14.066 	 84.2452 	 
C 	 -4.73623 	 -14.6563 	 85.2414 	 
C 	 -3.41972 	 -14.5413 	 85.0209 	 
H 	 -6.54924 	 -14.0641 	 84.0889 	 
C 	 -5.38783 	 -15.4489 	 86.3078 	 
H 	 -5.882 	 -14.7782 	 87.0123 	 
H 	 -4.62715 	 -15.8848 	 86.9302 	 
C 	 -6.53642 	 -16.4363 	 85.8001 	 
H 	 -6.15049 	 -17.0636 	 85.0002 	 
H 	 -7.47306 	 -15.9053 	 85.5264 	 
C 	 -6.99467 	 -17.2777 	 86.9588 	 
H 	 -6.13268 	 -17.8322 	 87.3084 	 
H 	 -7.7715 	 -17.9388 	 86.637 	 
H 	 -7.47847 	 -16.7655 	 87.8091 	 
H 	 0.857226 	 -15.5389 	 87.2571 	 
H 	 -5.23173 	 -13.0585 	 82.3681 	 
*
