! wB97X-D3 SP def2-SVP
%pal
nprocs 16
end

* xyz 0 1
S 	 51.1091 	 22.5243 	 86.327 	 
C 	 51.1228 	 23.7463 	 87.6152 	 
C 	 50.5255 	 23.16 	 88.6955 	 
C 	 49.8969 	 21.9243 	 88.4477 	 
C 	 50.1963 	 21.4203 	 87.2027 	 
H 	 49.2879 	 21.3129 	 89.0402 	 
C 	 50.6219 	 23.8705 	 90.0292 	 
H 	 49.9347 	 23.3957 	 90.744 	 
H 	 50.1592 	 24.9197 	 89.9597 	 
C 	 51.9587 	 23.9586 	 90.8583 	 
H 	 52.6902 	 24.6495 	 90.3952 	 
H 	 51.6505 	 24.4161 	 91.8167 	 
C 	 52.6825 	 22.6035 	 91.0321 	 
H 	 52.7561 	 22.0924 	 90.0407 	 
H 	 53.7778 	 22.7294 	 91.4124 	 
H 	 52.2602 	 21.8031 	 91.6204 	 
S 	 48.2095 	 19.5666 	 86.8873 	 
C 	 48.6904 	 17.8304 	 86.7293 	 
C 	 50.0293 	 17.6728 	 86.6221 	 
C 	 50.7083 	 18.9434 	 86.642 	 
C 	 49.8868 	 20.0964 	 86.7042 	 
H 	 50.543 	 16.6955 	 86.665 	 
C 	 52.2382 	 18.9896 	 86.82 	 
H 	 52.5206 	 17.9943 	 87.2208 	 
H 	 52.4894 	 19.749 	 87.5523 	 
C 	 52.9076 	 19.3052 	 85.4922 	 
H 	 54.0005 	 19.3557 	 85.523 	 
H 	 52.5676 	 20.3459 	 85.2337 	 
C 	 52.6673 	 18.2567 	 84.4036 	 
H 	 53.3877 	 17.399 	 84.5519 	 
H 	 52.9551 	 18.5558 	 83.3824 	 
H 	 51.6802 	 17.8882 	 84.4714 	 
H 	 51.7606 	 24.6493 	 87.7847 	 
H 	 48.0122 	 17.0681 	 87.0013 	 
*
