! wB97X-D3 SP def2-SVP
%pal
nprocs 16
end

* xyz 0 1
S 	 8.15491 	 25.1201 	 39.0185 	 
C 	 6.40874 	 25.4687 	 39.0563 	 
C 	 5.64648 	 24.3965 	 39.4929 	 
C 	 6.43049 	 23.261 	 39.7481 	 
C 	 7.80337 	 23.4053 	 39.4703 	 
H 	 6.12183 	 22.2541 	 40.134 	 
C 	 4.1176 	 24.4558 	 39.5954 	 
H 	 3.99572 	 25.0117 	 40.4908 	 
H 	 3.73632 	 23.4689 	 39.8452 	 
C 	 3.27657 	 25.0498 	 38.3798 	 
H 	 3.55352 	 26.0696 	 38.194 	 
H 	 3.64987 	 24.5263 	 37.543 	 
C 	 1.73159 	 24.9448 	 38.4669 	 
H 	 1.51318 	 23.8309 	 38.5029 	 
H 	 1.3312 	 25.4004 	 39.3584 	 
H 	 1.08686 	 25.345 	 37.7112 	 
S 	 10.2752 	 22.7577 	 40.2937 	 
C 	 10.9529 	 21.2344 	 39.7761 	 
C 	 10.0795 	 20.468 	 39.0583 	 
C 	 8.84277 	 21.1224 	 38.8047 	 
C 	 8.8259 	 22.363 	 39.3822 	 
H 	 10.5028 	 19.5767 	 38.699 	 
C 	 7.67599 	 20.505 	 37.986 	 
H 	 8.10354 	 20.3585 	 36.995 	 
H 	 6.8911 	 21.3026 	 38.0123 	 
C 	 7.04063 	 19.1286 	 38.5022 	 
H 	 6.97752 	 19.1216 	 39.5597 	 
H 	 7.68711 	 18.3462 	 38.1313 	 
C 	 5.56112 	 19.0499 	 38.0563 	 
H 	 5.49726 	 19.1716 	 36.9877 	 
H 	 4.9488 	 19.7433 	 38.6629 	 
H 	 5.15263 	 18.0937 	 38.3456 	 
H 	 5.98273 	 26.3969 	 38.5909 	 
H 	 11.8583 	 20.844 	 40.1982 	 
*
