! wB97X-D3 SP def2-SVP
%pal
nprocs 16
end

* xyz 0 1
S 	 33.8459 	 26.1473 	 54.6639 	 
C 	 35.3017 	 27.1966 	 54.708 	 
C 	 36.4102 	 26.6297 	 55.2723 	 
C 	 36.0928 	 25.2819 	 55.6755 	 
C 	 34.8489 	 24.8133 	 55.4268 	 
H 	 36.7881 	 24.5711 	 56.0657 	 
C 	 37.8319 	 27.187 	 55.446 	 
H 	 37.9251 	 27.9589 	 54.7428 	 
H 	 38.4792 	 26.4196 	 55.0444 	 
C 	 38.1851 	 27.5697 	 56.8972 	 
H 	 38.3143 	 26.7326 	 57.6187 	 
H 	 39.1889 	 27.9801 	 56.8235 	 
C 	 37.2434 	 28.627 	 57.4373 	 
H 	 36.994 	 29.4109 	 56.6575 	 
H 	 36.3176 	 28.226 	 57.7897 	 
H 	 37.6895 	 29.3702 	 58.1369 	 
S 	 34.4435 	 22.6215 	 56.9443 	 
C 	 34.0224 	 21.1246 	 56.2466 	 
C 	 34.1287 	 21.1997 	 54.8324 	 
C 	 34.2455 	 22.5165 	 54.3528 	 
C 	 34.5291 	 23.3875 	 55.3585 	 
H 	 33.9193 	 20.287 	 54.1899 	 
C 	 34.2986 	 22.8574 	 52.8573 	 
H 	 34.5821 	 23.891 	 52.7377 	 
H 	 33.2437 	 22.6445 	 52.5991 	 
C 	 35.217 	 21.9192 	 52.0172 	 
H 	 35.0223 	 20.902 	 52.1836 	 
H 	 36.244 	 22.1177 	 52.3042 	 
C 	 34.976 	 22.2185 	 50.5197 	 
H 	 35.0344 	 23.3286 	 50.4278 	 
H 	 34.0359 	 21.839 	 50.0927 	 
H 	 35.727 	 21.6828 	 49.9014 	 
H 	 35.5011 	 28.1862 	 54.2665 	 
H 	 33.9115 	 20.1691 	 56.8048 	 
*
