! wB97X-D3 SP def2-SVP
%pal
nprocs 16
end

* xyz 0 1
S 	 -10.9204 	 -12.204 	 84.8745 	 
C 	 -12.4245 	 -12.9653 	 84.568 	 
C 	 -13.1118 	 -13.3294 	 85.7088 	 
C 	 -12.3624 	 -13.0169 	 86.8642 	 
C 	 -11.1197 	 -12.5887 	 86.6046 	 
H 	 -12.6509 	 -13.1853 	 87.9017 	 
C 	 -14.3889 	 -14.0766 	 85.7607 	 
H 	 -14.0688 	 -15.1867 	 85.9724 	 
H 	 -14.8292 	 -13.8801 	 84.842 	 
C 	 -15.2926 	 -13.5241 	 86.8891 	 
H 	 -14.8535 	 -13.8356 	 87.8091 	 
H 	 -15.2789 	 -12.4711 	 86.9315 	 
C 	 -16.6909 	 -13.9724 	 86.8003 	 
H 	 -17.3401 	 -13.5741 	 87.5545 	 
H 	 -17.2068 	 -13.5091 	 85.8991 	 
H 	 -16.7298 	 -15.0783 	 86.7904 	 
S 	 -8.80352 	 -11.1023 	 87.1429 	 
C 	 -7.9929 	 -11.2276 	 88.6721 	 
C 	 -8.62248 	 -12.1742 	 89.4423 	 
C 	 -9.80654 	 -12.6956 	 88.857 	 
C 	 -10.0452 	 -12.243 	 87.5494 	 
H 	 -8.14525 	 -12.5691 	 90.3619 	 
C 	 -10.6157 	 -13.6333 	 89.6649 	 
H 	 -11.6169 	 -13.1794 	 89.6873 	 
H 	 -10.294 	 -13.5024 	 90.7286 	 
C 	 -10.783 	 -15.0664 	 89.2461 	 
H 	 -10.8216 	 -15.1536 	 88.1696 	 
H 	 -11.6294 	 -15.4796 	 89.7802 	 
C 	 -9.58046 	 -15.9551 	 89.6521 	 
H 	 -9.71923 	 -16.9681 	 89.3625 	 
H 	 -9.30354 	 -16.0363 	 90.6964 	 
H 	 -8.61406 	 -15.6435 	 89.15 	 
H 	 -12.8264 	 -13.0593 	 83.5969 	 
H 	 -6.9748 	 -10.9367 	 88.9469 	 
*
