! wB97X-D3 SP def2-SVP
%pal
nprocs 16
end

* xyz 0 1
S 	 14.0824 	 26.8971 	 66.6282 	 
C 	 14.3433 	 27.8319 	 65.1287 	 
C 	 15.0233 	 29.0279 	 65.4541 	 
C 	 15.3703 	 29.0978 	 66.8542 	 
C 	 15.1588 	 27.9191 	 67.5591 	 
H 	 15.9863 	 29.9125 	 67.257 	 
C 	 15.2427 	 30.1442 	 64.4622 	 
H 	 15.4405 	 31.0648 	 65.0688 	 
H 	 14.3225 	 30.2653 	 63.9333 	 
C 	 16.4513 	 29.8583 	 63.4661 	 
H 	 17.4112 	 29.8025 	 63.9841 	 
H 	 16.2397 	 28.8529 	 63.0329 	 
C 	 16.6183 	 30.855 	 62.3302 	 
H 	 16.1681 	 31.7841 	 62.5876 	 
H 	 17.631 	 30.8975 	 61.9448 	 
H 	 16.0038 	 30.526 	 61.4598 	 
S 	 14.3308 	 27.3852 	 70.1058 	 
C 	 15.516 	 27.1191 	 71.3824 	 
C 	 16.7938 	 27.5296 	 70.9711 	 
C 	 16.8641 	 27.9101 	 69.5352 	 
C 	 15.5967 	 27.7532 	 68.9226 	 
H 	 17.5173 	 27.5662 	 71.7813 	 
C 	 18.0608 	 28.532 	 68.8663 	 
H 	 18.1204 	 28.7173 	 67.7751 	 
H 	 18.7592 	 27.756 	 68.8278 	 
C 	 18.6914 	 29.7358 	 69.563 	 
H 	 19.6433 	 29.8723 	 69.0804 	 
H 	 18.8282 	 29.6384 	 70.6189 	 
C 	 17.8422 	 30.9605 	 69.4545 	 
H 	 16.8312 	 30.9172 	 69.8946 	 
H 	 17.6992 	 31.1514 	 68.414 	 
H 	 18.3937 	 31.7738 	 69.8944 	 
H 	 14.0581 	 27.5479 	 64.1415 	 
H 	 15.2706 	 26.6681 	 72.3506 	 
*
