! wB97X-D3 SP def2-SVP
%pal
nprocs 16
end

* xyz 0 1
S 	 -38.9622 	 47.2834 	 94.481 	 
C 	 -37.6831 	 46.8376 	 95.5471 	 
C 	 -38.1849 	 46.6017 	 96.8383 	 
C 	 -39.567 	 46.4544 	 96.8615 	 
C 	 -40.1155 	 46.7354 	 95.6096 	 
H 	 -40.144 	 46.1525 	 97.7719 	 
C 	 -37.3593 	 46.2049 	 98.019 	 
H 	 -36.4912 	 45.6488 	 97.7007 	 
H 	 -37.8226 	 45.5285 	 98.6923 	 
C 	 -36.7273 	 47.4172 	 98.7121 	 
H 	 -36.1325 	 47.9734 	 97.9744 	 
H 	 -37.4704 	 48.074 	 99.1687 	 
C 	 -35.8355 	 46.9964 	 99.8965 	 
H 	 -35.1052 	 46.3412 	 99.4806 	 
H 	 -35.3138 	 47.8154 	 100.462 	 
H 	 -36.4902 	 46.477 	 100.589 	 
S 	 -42.4096 	 45.8304 	 94.1367 	 
C 	 -43.9787 	 46.3878 	 94.6819 	 
C 	 -43.8525 	 47.3824 	 95.6108 	 
C 	 -42.5062 	 47.7048 	 95.9948 	 
C 	 -41.572 	 46.9214 	 95.3599 	 
H 	 -44.7429 	 47.9798 	 96.0021 	 
C 	 -42.1704 	 48.8542 	 97.0321 	 
H 	 -42.8625 	 49.671 	 96.9117 	 
H 	 -41.1702 	 49.258 	 96.9505 	 
C 	 -42.5374 	 48.4335 	 98.4754 	 
H 	 -41.9167 	 47.5088 	 98.6981 	 
H 	 -43.6019 	 48.1725 	 98.5184 	 
C 	 -42.2309 	 49.3857 	 99.7098 	 
H 	 -41.1751 	 49.6803 	 99.7407 	 
H 	 -42.5185 	 48.9152 	 100.674 	 
H 	 -42.8367 	 50.205 	 99.6438 	 
H 	 -36.674 	 47.0889 	 95.533 	 
H 	 -44.8527 	 46.1049 	 94.1767 	 
*
