! wB97X-D3 SP def2-SVP
%pal
nprocs 16
end

* xyz 0 1
S 	 -79.2599 	 43.3424 	 123.71 	 
C 	 -80.8372 	 42.9081 	 123.201 	 
C 	 -81.4167 	 43.8965 	 122.423 	 
C 	 -80.4425 	 44.955 	 122.171 	 
C 	 -79.1873 	 44.7551 	 122.667 	 
H 	 -80.6478 	 45.818 	 121.532 	 
C 	 -82.8597 	 43.9597 	 122.013 	 
H 	 -83.1305 	 44.8452 	 122.497 	 
H 	 -83.4139 	 43.269 	 122.642 	 
C 	 -83.1389 	 43.8966 	 120.476 	 
H 	 -84.0732 	 44.4651 	 120.214 	 
H 	 -82.3789 	 44.4774 	 119.995 	 
C 	 -83.0259 	 42.503 	 119.829 	 
H 	 -83.6476 	 41.7564 	 120.167 	 
H 	 -83.3384 	 42.6693 	 118.792 	 
H 	 -82.0025 	 42.1932 	 119.841 	 
S 	 -77.8977 	 47.1639 	 122.542 	 
C 	 -76.2852 	 47.2904 	 121.927 	 
C 	 -75.6915 	 46.0782 	 121.994 	 
C 	 -76.6475 	 45.0617 	 121.999 	 
C 	 -77.9293 	 45.4892 	 122.374 	 
H 	 -74.6374 	 45.9439 	 121.78 	 
C 	 -76.2999 	 43.623 	 121.754 	 
H 	 -76.5809 	 43.0056 	 122.564 	 
H 	 -75.2382 	 43.6166 	 121.738 	 
C 	 -77.029 	 42.9416 	 120.545 	 
H 	 -78.0715 	 43.1678 	 120.565 	 
H 	 -76.9293 	 41.8608 	 120.69 	 
C 	 -76.5883 	 43.3976 	 119.138 	 
H 	 -75.5726 	 43.241 	 118.825 	 
H 	 -76.7944 	 44.474 	 118.943 	 
H 	 -77.2487 	 42.9627 	 118.443 	 
H 	 -81.2516 	 41.96 	 123.556 	 
H 	 -75.8269 	 48.2711 	 121.834 	 
*
