! wB97X-D3 SP def2-SVP
%pal
nprocs 16
end

* xyz 0 1
S 	 -9.05086 	 -5.52631 	 85.0808 	 
C 	 -8.8491 	 -4.61049 	 86.5508 	 
C 	 -9.03203 	 -5.41625 	 87.655 	 
C 	 -9.18808 	 -6.83557 	 87.2775 	 
C 	 -9.02638 	 -7.06993 	 85.9385 	 
H 	 -9.56104 	 -7.64183 	 87.8974 	 
C 	 -9.43994 	 -4.96593 	 88.9957 	 
H 	 -10.2691 	 -5.62207 	 89.3682 	 
H 	 -9.89372 	 -4.00316 	 89.0336 	 
C 	 -8.29728 	 -4.9851 	 90.0508 	 
H 	 -7.99766 	 -6.03034 	 90.2374 	 
H 	 -7.50701 	 -4.32626 	 89.6865 	 
C 	 -8.76383 	 -4.56 	 91.4656 	 
H 	 -7.86908 	 -4.55545 	 92.1082 	 
H 	 -9.11902 	 -3.54461 	 91.5115 	 
H 	 -9.45251 	 -5.25842 	 91.8934 	 
S 	 -9.81036 	 -8.45178 	 83.6833 	 
C 	 -9.35689 	 -10.0895 	 83.3538 	 
C 	 -8.75367 	 -10.5711 	 84.469 	 
C 	 -8.60489 	 -9.63303 	 85.5582 	 
C 	 -9.02511 	 -8.32667 	 85.2356 	 
H 	 -8.52988 	 -11.5896 	 84.4609 	 
C 	 -7.91108 	 -9.96161 	 86.8489 	 
H 	 -7.54088 	 -8.94723 	 87.2013 	 
H 	 -7.10699 	 -10.6762 	 86.68 	 
C 	 -8.77437 	 -10.6824 	 87.8801 	 
H 	 -9.12715 	 -11.6104 	 87.305 	 
H 	 -9.59345 	 -9.98193 	 88.2176 	 
C 	 -8.02291 	 -11.0936 	 89.1078 	 
H 	 -7.7275 	 -10.235 	 89.7395 	 
H 	 -7.05189 	 -11.5512 	 88.8369 	 
H 	 -8.55923 	 -11.8769 	 89.6785 	 
H 	 -8.98045 	 -3.53583 	 86.651 	 
H 	 -9.41394 	 -10.7173 	 82.4136 	 
*
