! wB97X-D3 SP def2-SVP
%pal
nprocs 16
end

* xyz 0 1
S 	 1.3815 	 2.3689 	 82.2759 	 
C 	 0.404809 	 0.805474 	 82.1875 	 
C 	 -0.902349 	 0.969718 	 82.5406 	 
C 	 -1.11146 	 2.34927 	 82.8997 	 
C 	 0.00186625 	 3.21424 	 82.8184 	 
H 	 -2.06859 	 2.64713 	 83.2336 	 
C 	 -1.98087 	 -0.165746 	 82.6522 	 
H 	 -1.4247 	 -1.06434 	 82.9449 	 
H 	 -2.42808 	 -0.370169 	 81.6487 	 
C 	 -3.03955 	 0.0127887 	 83.7158 	 
H 	 -2.59707 	 0.198947 	 84.7473 	 
H 	 -3.73011 	 0.865443 	 83.4468 	 
C 	 -3.97789 	 -1.13705 	 83.832 	 
H 	 -4.69137 	 -1.09438 	 84.6407 	 
H 	 -4.42217 	 -1.24949 	 82.9424 	 
H 	 -3.35852 	 -2.02269 	 83.9422 	 
S 	 1.27767 	 5.62493 	 82.1557 	 
C 	 0.774043 	 7.03957 	 83.0051 	 
C 	 0.0224909 	 6.71775 	 84.1214 	 
C 	 -0.465284 	 5.38813 	 84.1422 	 
C 	 0.124538 	 4.61882 	 83.1548 	 
H 	 -0.272701 	 7.51581 	 84.7855 	 
C 	 -1.41624 	 4.89277 	 85.1711 	 
H 	 -2.27565 	 4.56733 	 84.5757 	 
H 	 -1.67926 	 5.66708 	 85.9172 	 
C 	 -0.872557 	 3.84287 	 86.1358 	 
H 	 -0.233511 	 3.1777 	 85.4948 	 
H 	 -1.67228 	 3.16078 	 86.378 	 
C 	 -0.0280616 	 4.3122 	 87.3699 	 
H 	 0.993433 	 4.68961 	 87.2073 	 
H 	 0.156902 	 3.42351 	 88.0779 	 
H 	 -0.657914 	 4.95741 	 87.9518 	 
H 	 0.734408 	 -0.192756 	 81.9819 	 
H 	 1.13169 	 8.0742 	 82.7758 	 
*
