! wB97X-D3 SP def2-SVP
%pal
nprocs 16
end

* xyz 0 1
S 	 -46.2788 	 54.8673 	 100.222 	 
C 	 -47.7734 	 54.5068 	 101.092 	 
C 	 -48.8559 	 55.2479 	 100.651 	 
C 	 -48.4236 	 56.1854 	 99.6321 	 
C 	 -47.0967 	 56.0108 	 99.1764 	 
H 	 -49.03 	 56.9663 	 99.1998 	 
C 	 -50.3507 	 55.1628 	 101.066 	 
H 	 -50.7103 	 56.1343 	 101.174 	 
H 	 -50.3111 	 54.7605 	 102.053 	 
C 	 -51.2811 	 54.4111 	 100.105 	 
H 	 -51.3562 	 54.9013 	 99.1321 	 
H 	 -50.9553 	 53.4181 	 99.9332 	 
C 	 -52.7223 	 54.2337 	 100.706 	 
H 	 -52.5974 	 53.8556 	 101.814 	 
H 	 -53.2347 	 55.197 	 100.441 	 
H 	 -53.4346 	 53.5234 	 100.222 	 
S 	 -44.8522 	 57.6123 	 98.6748 	 
C 	 -44.8456 	 58.7042 	 97.3024 	 
C 	 -45.8623 	 58.3737 	 96.4771 	 
C 	 -46.7935 	 57.4232 	 96.9848 	 
C 	 -46.4752 	 56.909 	 98.2618 	 
H 	 -45.8113 	 58.7753 	 95.4771 	 
C 	 -48.0123 	 56.9402 	 96.1475 	 
H 	 -48.3766 	 57.8331 	 95.5763 	 
H 	 -48.7712 	 56.7508 	 96.843 	 
C 	 -48.0121 	 55.6561 	 95.2963 	 
H 	 -47.2952 	 55.7983 	 94.4749 	 
H 	 -49.0163 	 55.534 	 94.8138 	 
C 	 -47.5884 	 54.3522 	 96.0184 	 
H 	 -48.0416 	 54.3389 	 97.0362 	 
H 	 -46.4526 	 54.2167 	 96.1086 	 
H 	 -47.9034 	 53.4925 	 95.4708 	 
H 	 -47.8442 	 53.5944 	 101.733 	 
H 	 -44.0594 	 59.4026 	 97.0817 	 
*
