! wB97X-D3 SP def2-SVP
%pal
nprocs 16
end

* xyz 0 1
S 	 5.94901 	 -10.4972 	 63.6147 	 
C 	 6.03719 	 -8.79412 	 63.3756 	 
C 	 6.84305 	 -8.17694 	 64.3039 	 
C 	 7.38189 	 -9.12594 	 65.1961 	 
C 	 6.99818 	 -10.4626 	 65.0019 	 
H 	 8.07312 	 -8.94986 	 65.9758 	 
C 	 7.00043 	 -6.68765 	 64.3909 	 
H 	 6.6953 	 -6.23639 	 65.3025 	 
H 	 6.21852 	 -6.28416 	 63.7706 	 
C 	 8.42726 	 -6.08194 	 64.0333 	 
H 	 8.7273 	 -6.34282 	 62.9955 	 
H 	 8.35293 	 -4.98496 	 64.0804 	 
C 	 9.55631 	 -6.34273 	 65.0036 	 
H 	 10.4886 	 -5.87129 	 64.6894 	 
H 	 9.31166 	 -5.93004 	 65.9804 	 
H 	 9.6994 	 -7.45064 	 65.1641 	 
S 	 5.82949 	 -12.7799 	 65.8302 	 
C 	 6.57269 	 -13.868 	 66.8986 	 
C 	 7.84581 	 -13.4694 	 67.1519 	 
C 	 8.23878 	 -12.254 	 66.4787 	 
C 	 7.22159 	 -11.708 	 65.7946 	 
H 	 8.46853 	 -14.0485 	 67.8416 	 
C 	 9.57459 	 -11.5895 	 66.8305 	 
H 	 9.88112 	 -11.1414 	 65.8819 	 
H 	 10.2163 	 -12.5124 	 67.0381 	 
C 	 9.62795 	 -10.7365 	 68.1221 	 
H 	 9.15009 	 -11.3098 	 68.9454 	 
H 	 9.00041 	 -9.91025 	 68.0789 	 
C 	 10.9841 	 -10.2612 	 68.5298 	 
H 	 11.6654 	 -11.0489 	 68.5424 	 
H 	 10.8744 	 -9.80395 	 69.4976 	 
H 	 11.2654 	 -9.50371 	 67.7782 	 
H 	 5.52183 	 -8.1949 	 62.6715 	 
H 	 6.22703 	 -14.8339 	 67.1785 	 
*
