! wB97X-D3 SP def2-SVP
%pal
nprocs 16
end

* xyz 0 1
S 	 -13.1366 	 67.0998 	 53.4491 	 
C 	 -13.2778 	 65.7854 	 54.6415 	 
C 	 -12.0374 	 65.1529 	 54.8086 	 
C 	 -11.0918 	 65.6118 	 53.8449 	 
C 	 -11.4679 	 66.6458 	 53.0399 	 
H 	 -10.0515 	 65.3053 	 53.8264 	 
C 	 -11.6417 	 64.2573 	 56.0091 	 
H 	 -10.6312 	 63.8249 	 55.8049 	 
H 	 -12.4108 	 63.502 	 56.058 	 
C 	 -11.6069 	 65.014 	 57.3553 	 
H 	 -11.0282 	 65.9963 	 57.3094 	 
H 	 -12.6743 	 65.1847 	 57.5345 	 
C 	 -11.1117 	 64.0889 	 58.5319 	 
H 	 -10.8206 	 64.604 	 59.4077 	 
H 	 -12.0252 	 63.5409 	 58.8699 	 
H 	 -10.3923 	 63.2807 	 58.2696 	 
S 	 -11.3629 	 68.0643 	 50.632 	 
C 	 -9.88404 	 68.8722 	 50.2233 	 
C 	 -8.89253 	 68.6766 	 51.1148 	 
C 	 -9.34701 	 67.8139 	 52.1673 	 
C 	 -10.6853 	 67.3908 	 52.1042 	 
H 	 -7.98085 	 69.2171 	 50.9584 	 
C 	 -8.36839 	 67.4936 	 53.2723 	 
H 	 -7.35972 	 67.7583 	 52.9101 	 
H 	 -8.38137 	 66.3753 	 53.3927 	 
C 	 -8.771 	 68.2786 	 54.4849 	 
H 	 -9.73072 	 68.0963 	 54.7122 	 
H 	 -8.83679 	 69.368 	 54.3715 	 
C 	 -7.89545 	 67.9497 	 55.7264 	 
H 	 -8.36042 	 67.0332 	 56.0416 	 
H 	 -8.07158 	 68.7375 	 56.5186 	 
H 	 -6.79278 	 67.8516 	 55.5399 	 
H 	 -14.0573 	 65.6655 	 55.3002 	 
H 	 -9.75099 	 69.5904 	 49.3992 	 
*
