! wB97X-D3 SP def2-SVP
%pal
nprocs 16
end

* xyz 0 1
S 	 53.6586 	 -3.70857 	 87.3679 	 
C 	 52.6599 	 -3.93613 	 88.8043 	 
C 	 52.9004 	 -2.90817 	 89.7504 	 
C 	 53.7786 	 -1.88898 	 89.2591 	 
C 	 54.2836 	 -2.21609 	 87.9719 	 
H 	 54.0423 	 -0.999347 	 89.7825 	 
C 	 52.2198 	 -2.67344 	 91.0998 	 
H 	 51.7089 	 -1.7097 	 90.8555 	 
H 	 53.0186 	 -2.65567 	 91.8053 	 
C 	 51.0552 	 -3.63401 	 91.5682 	 
H 	 50.3726 	 -3.95931 	 90.756 	 
H 	 51.5168 	 -4.5605 	 91.8267 	 
C 	 50.2145 	 -3.15366 	 92.838 	 
H 	 50.8851 	 -2.68966 	 93.6427 	 
H 	 49.4798 	 -2.46979 	 92.512 	 
H 	 49.6985 	 -3.99823 	 93.3825 	 
S 	 54.4456 	 -1.09065 	 85.4692 	 
C 	 55.4811 	 0.284189 	 85.2637 	 
C 	 56.4183 	 0.386108 	 86.275 	 
C 	 56.1824 	 -0.563883 	 87.3156 	 
C 	 55.071 	 -1.37079 	 87.0686 	 
H 	 57.0644 	 1.30435 	 86.3636 	 
C 	 56.9364 	 -0.58444 	 88.6081 	 
H 	 58.0179 	 -0.596379 	 88.3539 	 
H 	 56.7293 	 -1.48953 	 89.1702 	 
C 	 56.6753 	 0.559636 	 89.5406 	 
H 	 55.5918 	 0.651854 	 89.5216 	 
H 	 56.906 	 1.53217 	 89.1391 	 
C 	 57.3769 	 0.521779 	 90.9082 	 
H 	 56.735 	 1.06918 	 91.6129 	 
H 	 58.3842 	 1.04229 	 90.9176 	 
H 	 57.4018 	 -0.545242 	 91.1865 	 
H 	 51.8743 	 -4.6801 	 88.9142 	 
H 	 55.4647 	 0.918989 	 84.3293 	 
*
