! wB97X-D3 SP def2-SVP
%pal
nprocs 16
end

* xyz 0 1
S 	 -12.6216 	 -3.45831 	 84.5117 	 
C 	 -12.3141 	 -3.04594 	 86.2478 	 
C 	 -12.8412 	 -4.01329 	 87.086 	 
C 	 -13.2049 	 -5.21844 	 86.3528 	 
C 	 -12.9838 	 -5.13406 	 84.9952 	 
H 	 -13.6081 	 -6.11123 	 86.7481 	 
C 	 -12.6265 	 -3.83115 	 88.5479 	 
H 	 -13.5372 	 -3.94499 	 89.1145 	 
H 	 -12.1706 	 -2.78205 	 88.75 	 
C 	 -11.6754 	 -4.84146 	 89.1348 	 
H 	 -11.8483 	 -5.81795 	 88.6214 	 
H 	 -10.628 	 -4.6422 	 88.8136 	 
C 	 -11.714 	 -4.95695 	 90.68 	 
H 	 -11.4323 	 -4.0749 	 91.2307 	 
H 	 -12.6391 	 -5.41429 	 91.1186 	 
H 	 -10.9797 	 -5.74888 	 90.926 	 
S 	 -14.6365 	 -5.98729 	 83.0176 	 
C 	 -14.4298 	 -7.48816 	 82.2697 	 
C 	 -13.197 	 -8.07815 	 82.7396 	 
C 	 -12.5945 	 -7.39251 	 83.8467 	 
C 	 -13.2502 	 -6.19916 	 84.0724 	 
H 	 -12.934 	 -9.09228 	 82.4264 	 
C 	 -11.4268 	 -7.91008 	 84.6388 	 
H 	 -10.6915 	 -7.09885 	 84.718 	 
H 	 -10.8757 	 -8.67973 	 84.0402 	 
C 	 -11.8328 	 -8.54816 	 85.9981 	 
H 	 -12.198 	 -9.58681 	 85.8867 	 
H 	 -12.5932 	 -7.94055 	 86.3864 	 
C 	 -10.8048 	 -8.49658 	 87.0925 	 
H 	 -9.81538 	 -8.76898 	 86.7868 	 
H 	 -11.1769 	 -9.06757 	 87.936 	 
H 	 -10.6884 	 -7.46238 	 87.3603 	 
H 	 -11.7304 	 -2.16714 	 86.5573 	 
H 	 -15.1123 	 -7.77448 	 81.5162 	 
*
