! wB97X-D3 SP def2-SVP
%pal
nprocs 16
end

* xyz 0 1
S 	 -34.1747 	 61.73 	 106.77 	 
C 	 -34.164 	 62.3532 	 108.421 	 
C 	 -35.3377 	 62.194 	 109.023 	 
C 	 -36.3221 	 61.6992 	 108.171 	 
C 	 -35.9265 	 61.5092 	 106.854 	 
H 	 -37.3825 	 61.5312 	 108.398 	 
C 	 -35.5918 	 62.4429 	 110.51 	 
H 	 -36.5826 	 62.8714 	 110.592 	 
H 	 -34.787 	 63.1712 	 110.843 	 
C 	 -35.4718 	 61.2543 	 111.534 	 
H 	 -34.3942 	 60.909 	 111.605 	 
H 	 -35.7333 	 61.4605 	 112.566 	 
C 	 -36.4189 	 60.0995 	 111.134 	 
H 	 -36.2472 	 59.2305 	 111.776 	 
H 	 -37.4683 	 60.4914 	 111.22 	 
H 	 -36.2788 	 59.6571 	 110.111 	 
S 	 -35.9625 	 60.0633 	 104.601 	 
C 	 -37.5559 	 59.6594 	 103.904 	 
C 	 -38.5863 	 60.3287 	 104.511 	 
C 	 -38.1201 	 61.3001 	 105.438 	 
C 	 -36.7071 	 61.1743 	 105.699 	 
H 	 -39.6059 	 60.2483 	 104.217 	 
C 	 -39.052 	 62.2163 	 106.177 	 
H 	 -39.4762 	 62.8347 	 105.413 	 
H 	 -38.3974 	 62.8332 	 106.746 	 
C 	 -40.0395 	 61.6056 	 107.243 	 
H 	 -39.3881 	 61.148 	 108.004 	 
H 	 -40.6952 	 60.8565 	 106.785 	 
C 	 -40.9748 	 62.5725 	 108.103 	 
H 	 -41.6137 	 61.8416 	 108.599 	 
H 	 -41.4413 	 63.3665 	 107.509 	 
H 	 -40.3871 	 63.0162 	 108.912 	 
H 	 -33.1782 	 62.472 	 108.955 	 
H 	 -37.755 	 58.8299 	 103.226 	 
*
