! wB97X-D3 SP def2-SVP
%pal
nprocs 16
end

* xyz 0 1
S 	 -74.031 	 49.4903 	 139.51 	 
C 	 -74.0064 	 47.86 	 139.913 	 
C 	 -73.4987 	 47.0808 	 138.938 	 
C 	 -73.0131 	 47.8287 	 137.76 	 
C 	 -73.2776 	 49.1818 	 137.929 	 
H 	 -72.6062 	 47.3907 	 136.861 	 
C 	 -73.3853 	 45.5647 	 139.095 	 
H 	 -74.467 	 45.2805 	 138.88 	 
H 	 -73.0898 	 45.3449 	 140.146 	 
C 	 -72.3445 	 44.8886 	 138.201 	 
H 	 -72.7579 	 44.891 	 137.196 	 
H 	 -71.4446 	 45.5552 	 138.127 	 
C 	 -72.0064 	 43.4161 	 138.65 	 
H 	 -71.6363 	 42.9721 	 137.806 	 
H 	 -71.3634 	 43.3139 	 139.496 	 
H 	 -73.0429 	 43.0522 	 138.934 	 
S 	 -71.0336 	 50.4267 	 136.915 	 
C 	 -71.2817 	 51.6684 	 135.774 	 
C 	 -72.6363 	 51.9795 	 135.485 	 
C 	 -73.4979 	 51.153 	 136.251 	 
C 	 -72.8029 	 50.2055 	 136.99 	 
H 	 -72.9646 	 52.7799 	 134.801 	 
C 	 -74.9576 	 51.396 	 136.446 	 
H 	 -75.4052 	 50.502 	 136.825 	 
H 	 -75.4212 	 51.6958 	 135.527 	 
C 	 -75.3776 	 52.4243 	 137.419 	 
H 	 -74.9883 	 53.4158 	 137.134 	 
H 	 -75.0582 	 52.2173 	 138.499 	 
C 	 -76.9242 	 52.5789 	 137.577 	 
H 	 -77.142 	 53.0668 	 138.523 	 
H 	 -77.2484 	 51.5358 	 137.767 	 
H 	 -77.4365 	 52.8439 	 136.683 	 
H 	 -74.2137 	 47.4557 	 140.923 	 
H 	 -70.4945 	 52.0314 	 135.177 	 
*
