! wB97X-D3 SP def2-SVP
%pal
nprocs 16
end

* xyz 0 1
S 	 -21.9662 	 -0.685827 	 79.307 	 
C 	 -20.2353 	 -1.06042 	 78.9877 	 
C 	 -20.0942 	 -1.37892 	 77.6519 	 
C 	 -21.327 	 -1.15422 	 76.9263 	 
C 	 -22.4827 	 -0.902087 	 77.6979 	 
H 	 -21.5638 	 -1.37633 	 75.8818 	 
C 	 -18.7385 	 -1.63352 	 76.9716 	 
H 	 -17.929 	 -1.72425 	 77.6751 	 
H 	 -18.4463 	 -0.733134 	 76.4547 	 
C 	 -18.4878 	 -2.92354 	 76.1559 	 
H 	 -19.1301 	 -3.04069 	 75.3266 	 
H 	 -17.4503 	 -2.77323 	 75.858 	 
C 	 -18.4962 	 -4.15498 	 77.0909 	 
H 	 -19.5123 	 -4.39264 	 77.4574 	 
H 	 -18.1696 	 -5.00712 	 76.4964 	 
H 	 -17.7162 	 -4.09168 	 77.8631 	 
S 	 -24.7516 	 0.706991 	 78.1848 	 
C 	 -26.0024 	 0.837736 	 76.9531 	 
C 	 -25.7528 	 0.0134718 	 75.8484 	 
C 	 -24.5432 	 -0.800961 	 75.9956 	 
C 	 -23.8132 	 -0.468999 	 77.1681 	 
H 	 -26.4078 	 0.031731 	 74.9832 	 
C 	 -24.1765 	 -1.6737 	 74.8248 	 
H 	 -23.2857 	 -1.26925 	 74.3598 	 
H 	 -24.8821 	 -1.5332 	 73.9578 	 
C 	 -24.0363 	 -3.14572 	 75.2804 	 
H 	 -25.1001 	 -3.48724 	 75.4725 	 
H 	 -23.4322 	 -3.28581 	 76.2354 	 
C 	 -23.4822 	 -4.14002 	 74.27 	 
H 	 -22.4535 	 -3.92755 	 73.9765 	 
H 	 -23.9924 	 -4.08236 	 73.3081 	 
H 	 -23.5453 	 -5.15467 	 74.6793 	 
H 	 -19.4335 	 -1.17743 	 79.6938 	 
H 	 -26.853 	 1.40642 	 76.9904 	 
*
