! wB97X-D3 SP def2-SVP
%pal
nprocs 16
end

* xyz 0 1
S 	 41.614 	 11.7167 	 67.4513 	 
C 	 39.8514 	 11.3985 	 67.7805 	 
C 	 39.1236 	 12.5915 	 67.6103 	 
C 	 39.9236 	 13.7008 	 67.0979 	 
C 	 41.2426 	 13.3453 	 66.9464 	 
H 	 39.5664 	 14.6883 	 66.9539 	 
C 	 37.6914 	 12.7067 	 68.0923 	 
H 	 37.268 	 11.7098 	 67.9969 	 
H 	 37.1181 	 13.4512 	 67.5499 	 
C 	 37.5565 	 13.1201 	 69.5721 	 
H 	 38.1435 	 12.3696 	 70.0709 	 
H 	 37.9442 	 14.092 	 69.6513 	 
C 	 36.0871 	 13.15 	 70.0048 	 
H 	 35.5786 	 12.2238 	 69.8878 	 
H 	 35.9929 	 13.5277 	 71.0011 	 
H 	 35.6186 	 13.7539 	 69.2836 	 
S 	 43.6955 	 13.2885 	 65.672 	 
C 	 44.2825 	 14.7476 	 65.0316 	 
C 	 43.7405 	 15.8335 	 65.6441 	 
C 	 42.576 	 15.5306 	 66.3308 	 
C 	 42.3026 	 14.1781 	 66.3499 	 
H 	 44.2497 	 16.7573 	 65.686 	 
C 	 41.7907 	 16.6477 	 67.0443 	 
H 	 40.7482 	 16.6263 	 66.6715 	 
H 	 42.2534 	 17.6216 	 66.7915 	 
C 	 41.6154 	 16.6114 	 68.557 	 
H 	 42.5677 	 16.8794 	 69.01 	 
H 	 41.2689 	 15.5875 	 68.7983 	 
C 	 40.657 	 17.7131 	 69.0255 	 
H 	 40.3436 	 17.4809 	 70.0557 	 
H 	 39.706 	 17.5292 	 68.517 	 
H 	 40.9295 	 18.7654 	 68.8697 	 
H 	 39.4551 	 10.4398 	 68.1318 	 
H 	 45.2358 	 14.8342 	 64.5205 	 
*
