! wB97X-D3 SP def2-SVP
%pal
nprocs 16
end

* xyz 0 1
S 	 -25.1344 	 -9.30123 	 90.0911 	 
C 	 -25.1547 	 -11.0527 	 89.933 	 
C 	 -23.9843 	 -11.5135 	 89.3507 	 
C 	 -23.2015 	 -10.4228 	 88.9265 	 
C 	 -23.6572 	 -9.15337 	 89.0915 	 
H 	 -22.16 	 -10.4709 	 88.6504 	 
C 	 -23.4829 	 -12.9256 	 89.3826 	 
H 	 -22.5319 	 -13.044 	 89.9714 	 
H 	 -23.1054 	 -13.2322 	 88.3979 	 
C 	 -24.5761 	 -13.9689 	 89.8217 	 
H 	 -25.5845 	 -13.607 	 89.6601 	 
H 	 -24.497 	 -14.7691 	 89.0953 	 
C 	 -24.483 	 -14.4662 	 91.2477 	 
H 	 -24.0001 	 -15.3918 	 91.308 	 
H 	 -24.0405 	 -13.7153 	 91.9375 	 
H 	 -25.4884 	 -14.7493 	 91.7416 	 
S 	 -22.5989 	 -7.14104 	 90.5805 	 
C 	 -21.6488 	 -5.77137 	 89.8325 	 
C 	 -21.6821 	 -5.95076 	 88.4399 	 
C 	 -22.3127 	 -7.15084 	 88.0074 	 
C 	 -22.9408 	 -7.86068 	 89.0548 	 
H 	 -21.1734 	 -5.20351 	 87.8235 	 
C 	 -22.4365 	 -7.5812 	 86.6127 	 
H 	 -22.2123 	 -8.67671 	 86.6924 	 
H 	 -21.5134 	 -7.24935 	 86.1417 	 
C 	 -23.6885 	 -7.2196 	 85.8087 	 
H 	 -23.8177 	 -6.15696 	 86.0261 	 
H 	 -24.5488 	 -7.75856 	 86.1745 	 
C 	 -23.455 	 -7.50915 	 84.3328 	 
H 	 -22.5477 	 -7.11885 	 83.8475 	 
H 	 -24.177 	 -7.1011 	 83.7316 	 
H 	 -23.6499 	 -8.61141 	 84.0981 	 
H 	 -25.9535 	 -11.6419 	 90.2487 	 
H 	 -21.1846 	 -4.98552 	 90.3573 	 
*
