! wB97X-D3 SP def2-SVP
%pal
nprocs 16
end

* xyz 0 1
S 	 -0.893181 	 27.1551 	 39.2987 	 
C 	 -1.27049 	 26.7604 	 37.6614 	 
C 	 -0.223998 	 26.9947 	 36.8046 	 
C 	 0.982774 	 27.3422 	 37.5662 	 
C 	 0.790115 	 27.3366 	 38.9294 	 
H 	 1.92953 	 27.7245 	 37.1994 	 
C 	 -0.209312 	 26.9189 	 35.3075 	 
H 	 0.471377 	 27.6941 	 35.0424 	 
H 	 -1.26536 	 27.0764 	 34.999 	 
C 	 0.250465 	 25.5148 	 34.8832 	 
H 	 1.21524 	 25.3896 	 35.2477 	 
H 	 -0.422297 	 24.7232 	 35.345 	 
C 	 -0.00758265 	 25.2927 	 33.3624 	 
H 	 0.30541 	 24.3085 	 33.0197 	 
H 	 -1.07119 	 25.516 	 33.0908 	 
H 	 0.634336 	 26.0231 	 32.8303 	 
S 	 1.37333 	 29.1986 	 40.8975 	 
C 	 2.90553 	 29.2266 	 41.6345 	 
C 	 3.77007 	 28.3223 	 41.1056 	 
C 	 3.17205 	 27.4804 	 40.1265 	 
C 	 1.81176 	 27.784 	 39.943 	 
H 	 4.84282 	 28.2857 	 41.4254 	 
C 	 3.98572 	 26.3722 	 39.3997 	 
H 	 4.99954 	 26.6931 	 39.3143 	 
H 	 3.61384 	 26.336 	 38.4153 	 
C 	 3.92448 	 24.9693 	 40.0825 	 
H 	 4.29514 	 25.0672 	 41.1275 	 
H 	 4.53042 	 24.2611 	 39.4879 	 
C 	 2.57028 	 24.267 	 40.2167 	 
H 	 1.9248 	 24.765 	 40.8011 	 
H 	 2.64638 	 23.2975 	 40.6592 	 
H 	 2.14413 	 24.2306 	 39.1805 	 
H 	 -2.24428 	 26.3724 	 37.3164 	 
H 	 3.18899 	 29.9173 	 42.3838 	 
*
