! wB97X-D3 SP def2-SVP
%pal
nprocs 16
end

* xyz 0 1
S 	 53.4478 	 23.1249 	 93.6205 	 
C 	 51.7284 	 23.4138 	 93.5728 	 
C 	 51.0918 	 22.4148 	 92.8596 	 
C 	 52.001 	 21.4929 	 92.255 	 
C 	 53.2993 	 21.6798 	 92.6396 	 
H 	 51.6973 	 20.7045 	 91.6273 	 
C 	 49.6075 	 22.3948 	 92.7139 	 
H 	 49.3881 	 22.8308 	 91.7656 	 
H 	 49.0177 	 23.0339 	 93.27 	 
C 	 48.8533 	 21.0006 	 92.8641 	 
H 	 47.7624 	 21.1968 	 92.6229 	 
H 	 49.0303 	 20.4381 	 91.9963 	 
C 	 49.0567 	 20.1803 	 94.1892 	 
H 	 48.9163 	 20.9021 	 94.9873 	 
H 	 48.3158 	 19.4579 	 94.4187 	 
H 	 50.0436 	 19.7659 	 94.253 	 
S 	 55.6399 	 22.4169 	 91.4412 	 
C 	 56.4807 	 21.2591 	 90.461 	 
C 	 56.1775 	 19.988 	 90.793 	 
C 	 55.0977 	 19.9272 	 91.7763 	 
C 	 54.5325 	 21.178 	 92.0222 	 
H 	 56.607 	 19.1647 	 90.229 	 
C 	 54.474 	 18.6347 	 92.1696 	 
H 	 54.8391 	 17.7915 	 91.6237 	 
H 	 53.4466 	 18.7626 	 91.7622 	 
C 	 54.4202 	 18.26 	 93.6548 	 
H 	 53.5302 	 17.7022 	 93.7962 	 
H 	 54.291 	 19.1492 	 94.1858 	 
C 	 55.7551 	 17.6041 	 94.17 	 
H 	 55.7303 	 16.5156 	 93.8684 	 
H 	 55.8187 	 17.4756 	 95.2724 	 
H 	 56.6003 	 18.1514 	 93.7765 	 
H 	 51.1564 	 24.2679 	 93.9274 	 
H 	 57.2454 	 21.5254 	 89.7414 	 
*
