! wB97X-D3 SP def2-SVP
%pal
nprocs 16
end

* xyz 0 1
S 	 41.188 	 12.3327 	 49.8313 	 
C 	 40.5961 	 13.9099 	 49.3466 	 
C 	 41.5392 	 14.9414 	 49.5743 	 
C 	 42.6351 	 14.3597 	 50.3388 	 
C 	 42.6348 	 13.0154 	 50.5221 	 
H 	 43.4282 	 14.9246 	 50.7098 	 
C 	 41.3984 	 16.4446 	 49.4571 	 
H 	 40.7565 	 16.6787 	 48.6239 	 
H 	 42.347 	 17.0238 	 49.3702 	 
C 	 40.6255 	 17.049 	 50.7138 	 
H 	 39.5577 	 17.0026 	 50.5096 	 
H 	 40.7614 	 16.5496 	 51.7085 	 
C 	 40.83 	 18.5943 	 50.9167 	 
H 	 41.8321 	 18.7659 	 51.2786 	 
H 	 40.7606 	 19.1479 	 49.9505 	 
H 	 40.0615 	 18.8583 	 51.653 	 
S 	 43.2738 	 10.6734 	 51.9122 	 
C 	 44.958 	 10.4182 	 52.4395 	 
C 	 45.7939 	 11.3388 	 51.8595 	 
C 	 45.1214 	 12.3504 	 51.1268 	 
C 	 43.6997 	 12.2039 	 51.0708 	 
H 	 46.8301 	 11.2898 	 52.0479 	 
C 	 45.9335 	 13.4866 	 50.5868 	 
H 	 46.8919 	 13.4865 	 51.0639 	 
H 	 45.3481 	 14.3723 	 50.8146 	 
C 	 46.1291 	 13.3985 	 49.0911 	 
H 	 45.167 	 13.5048 	 48.6575 	 
H 	 46.4387 	 12.3499 	 48.9701 	 
C 	 47.0434 	 14.4859 	 48.5268 	 
H 	 46.5093 	 15.4399 	 48.5364 	 
H 	 47.361 	 14.3132 	 47.4248 	 
H 	 47.864 	 14.5365 	 49.2748 	 
H 	 39.5474 	 14.015 	 49.0034 	 
H 	 45.2841 	 9.69901 	 53.1452 	 
*
