! wB97X-D3 SP def2-SVP
%pal
nprocs 16
end

* xyz 0 1
S 	 8.95864 	 24.6739 	 39.8618 	 
C 	 7.51798 	 24.2508 	 40.7347 	 
C 	 6.4334 	 25.0272 	 40.3893 	 
C 	 6.80351 	 26.2002 	 39.681 	 
C 	 8.1727 	 26.1947 	 39.4563 	 
H 	 6.14646 	 27.0548 	 39.3497 	 
C 	 5.07255 	 24.6457 	 40.7509 	 
H 	 5.27307 	 23.9112 	 41.5613 	 
H 	 4.71883 	 24.0852 	 39.8696 	 
C 	 4.24052 	 25.7845 	 41.4 	 
H 	 4.76839 	 26.1885 	 42.2146 	 
H 	 4.10289 	 26.7022 	 40.7705 	 
C 	 2.97551 	 25.2107 	 42.0717 	 
H 	 2.15994 	 25.2112 	 41.3608 	 
H 	 3.06754 	 24.1848 	 42.3356 	 
H 	 2.75136 	 25.9475 	 42.8365 	 
S 	 10.1941 	 28.1655 	 39.5852 	 
C 	 10.1981 	 29.2783 	 38.2403 	 
C 	 9.45436 	 28.8567 	 37.1901 	 
C 	 8.69941 	 27.6619 	 37.4838 	 
C 	 8.90059 	 27.2609 	 38.753 	 
H 	 9.43664 	 29.5287 	 36.3074 	 
C 	 7.88269 	 26.9789 	 36.3865 	 
H 	 7.34713 	 26.1366 	 36.7369 	 
H 	 8.60331 	 26.5894 	 35.699 	 
C 	 7.02292 	 27.9575 	 35.5875 	 
H 	 7.60072 	 28.7711 	 35.2682 	 
H 	 6.19199 	 28.2344 	 36.2015 	 
C 	 6.33493 	 27.4008 	 34.3505 	 
H 	 5.64581 	 26.5727 	 34.6005 	 
H 	 7.10044 	 26.9659 	 33.7441 	 
H 	 5.787 	 28.0909 	 33.7382 	 
H 	 7.45767 	 23.2549 	 41.162 	 
H 	 10.5731 	 30.357 	 38.3146 	 
*
