! wB97X-D3 SP def2-SVP
%pal
nprocs 16
end

* xyz 0 1
S 	 -75.0568 	 46.6823 	 135.185 	 
C 	 -75.0299 	 45.2751 	 136.177 	 
C 	 -75.3091 	 45.4908 	 137.533 	 
C 	 -75.7801 	 46.8197 	 137.693 	 
C 	 -75.6897 	 47.6419 	 136.589 	 
H 	 -76.0669 	 47.3226 	 138.638 	 
C 	 -75.1026 	 44.4003 	 138.643 	 
H 	 -75.3707 	 43.4052 	 138.278 	 
H 	 -75.7919 	 44.47 	 139.52 	 
C 	 -73.7224 	 44.2248 	 139.092 	 
H 	 -73.1295 	 43.9283 	 138.25 	 
H 	 -73.3917 	 45.2341 	 139.45 	 
C 	 -73.5976 	 43.239 	 140.275 	 
H 	 -73.988 	 42.2161 	 140.12 	 
H 	 -72.5124 	 43.2275 	 140.601 	 
H 	 -74.1599 	 43.5519 	 141.178 	 
S 	 -77.225 	 49.7027 	 137.359 	 
C 	 -76.7531 	 51.3534 	 136.901 	 
C 	 -75.573 	 51.2884 	 136.165 	 
C 	 -75.0053 	 50.0147 	 136.008 	 
C 	 -75.8029 	 49.0709 	 136.679 	 
H 	 -75.2029 	 52.2002 	 135.736 	 
C 	 -73.7408 	 49.7101 	 135.216 	 
H 	 -73.3359 	 50.6384 	 134.704 	 
H 	 -74.0009 	 49.0949 	 134.374 	 
C 	 -72.5256 	 49.104 	 135.919 	 
H 	 -72.7506 	 48.256 	 136.544 	 
H 	 -72.2887 	 49.9048 	 136.648 	 
C 	 -71.3486 	 48.8144 	 134.896 	 
H 	 -71.0656 	 49.794 	 134.377 	 
H 	 -71.705 	 48.1828 	 134.129 	 
H 	 -70.4963 	 48.4315 	 135.362 	 
H 	 -74.5108 	 44.3843 	 135.854 	 
H 	 -77.3736 	 52.1646 	 136.951 	 
*
