! wB97X-D3 SP def2-SVP
%pal
nprocs 16
end

* xyz 0 1
S 	 -42.8562 	 24.7161 	 83.1038 	 
C 	 -43.502 	 23.4156 	 84.07 	 
C 	 -43.0473 	 22.2104 	 83.6216 	 
C 	 -42.2212 	 22.3451 	 82.4996 	 
C 	 -42.0097 	 23.6126 	 82.0315 	 
H 	 -41.7566 	 21.5356 	 81.9952 	 
C 	 -43.3679 	 20.8989 	 84.3193 	 
H 	 -44.2032 	 20.4496 	 83.7148 	 
H 	 -43.7325 	 21.0852 	 85.362 	 
C 	 -42.2381 	 19.8149 	 84.4204 	 
H 	 -42.6612 	 19.0052 	 85.0629 	 
H 	 -41.9185 	 19.2324 	 83.4909 	 
C 	 -40.9735 	 20.2955 	 85.0596 	 
H 	 -40.3593 	 19.5219 	 85.4605 	 
H 	 -40.425 	 20.9671 	 84.4096 	 
H 	 -41.19 	 20.8721 	 85.9598 	 
S 	 -42.0121 	 25.4458 	 80.075 	 
C 	 -40.7833 	 25.3777 	 78.7725 	 
C 	 -39.7027 	 24.5747 	 79.1514 	 
C 	 -39.993 	 23.7599 	 80.2798 	 
C 	 -41.1854 	 24.1251 	 80.8991 	 
H 	 -38.7904 	 24.619 	 78.6029 	 
C 	 -38.9793 	 22.8188 	 80.8665 	 
H 	 -39.3812 	 22.5974 	 81.8706 	 
H 	 -38.0019 	 23.3646 	 81.0194 	 
C 	 -38.8747 	 21.4704 	 80.0898 	 
H 	 -38.2305 	 21.6188 	 79.1961 	 
H 	 -39.9276 	 21.1666 	 79.9684 	 
C 	 -38.1068 	 20.3903 	 80.9629 	 
H 	 -38.1575 	 19.4634 	 80.4184 	 
H 	 -38.3792 	 20.2739 	 82.0332 	 
H 	 -37.1414 	 20.8351 	 81.0337 	 
H 	 -44.0929 	 23.496 	 84.9747 	 
H 	 -40.8264 	 25.919 	 77.8588 	 
*
