! wB97X-D3 SP def2-SVP
%pal
nprocs 16
end

* xyz 0 1
S 	 16.7163 	 -11.5912 	 79.1376 	 
C 	 15.8752 	 -10.086 	 78.8336 	 
C 	 14.7673 	 -10.3034 	 78.0318 	 
C 	 14.4777 	 -11.6968 	 77.812 	 
C 	 15.4084 	 -12.5379 	 78.4337 	 
H 	 13.6559 	 -12.1816 	 77.3137 	 
C 	 13.8036 	 -9.18374 	 77.6292 	 
H 	 13.4612 	 -8.64057 	 78.536 	 
H 	 12.8991 	 -9.61054 	 77.1569 	 
C 	 14.3692 	 -8.25883 	 76.5755 	 
H 	 13.6949 	 -7.42546 	 76.6081 	 
H 	 15.3103 	 -7.85145 	 76.8677 	 
C 	 14.5015 	 -8.92865 	 75.1624 	 
H 	 13.5133 	 -9.28211 	 74.8168 	 
H 	 15.017 	 -8.30135 	 74.4137 	 
H 	 15.156 	 -9.76861 	 75.2143 	 
S 	 14.0182 	 -14.6814 	 79.1239 	 
C 	 14.7553 	 -16.2913 	 79.2206 	 
C 	 16.0501 	 -16.2219 	 78.7914 	 
C 	 16.4317 	 -14.9043 	 78.4926 	 
C 	 15.4066 	 -13.9715 	 78.46 	 
H 	 16.6183 	 -17.1447 	 78.8479 	 
C 	 17.8788 	 -14.606 	 78.2228 	 
H 	 18.2628 	 -14.368 	 79.1889 	 
H 	 17.9003 	 -13.7071 	 77.6549 	 
C 	 18.7141 	 -15.759 	 77.68 	 
H 	 18.117 	 -16.1382 	 76.8252 	 
H 	 18.7327 	 -16.6806 	 78.2665 	 
C 	 20.2096 	 -15.4166 	 77.4348 	 
H 	 20.9108 	 -16.2925 	 77.3785 	 
H 	 20.4865 	 -14.9453 	 78.4182 	 
H 	 20.4036 	 -14.7635 	 76.5787 	 
H 	 16.1468 	 -9.04075 	 79.1641 	 
H 	 14.3142 	 -17.1598 	 79.6373 	 
*
