! wB97X-D3 SP def2-SVP
%pal
nprocs 16
end

* xyz 0 1
S 	 -17.9269 	 -5.36083 	 88.0864 	 
C 	 -17.2577 	 -4.10934 	 87.0722 	 
C 	 -16.8848 	 -3.00665 	 87.7619 	 
C 	 -17.0981 	 -3.14308 	 89.1612 	 
C 	 -17.5723 	 -4.37534 	 89.5337 	 
H 	 -16.9683 	 -2.41974 	 89.9379 	 
C 	 -16.4045 	 -1.68945 	 87.0817 	 
H 	 -16.5631 	 -0.865924 	 87.7633 	 
H 	 -17.2291 	 -1.57981 	 86.3587 	 
C 	 -15.0783 	 -1.64673 	 86.3527 	 
H 	 -15.0675 	 -2.42102 	 85.5906 	 
H 	 -14.9175 	 -0.809452 	 85.7521 	 
C 	 -13.8217 	 -1.78642 	 87.243 	 
H 	 -12.9569 	 -2.02147 	 86.5704 	 
H 	 -13.6502 	 -0.894994 	 87.8867 	 
H 	 -14.0001 	 -2.51825 	 88.0308 	 
S 	 -16.5632 	 -4.96913 	 91.94 	 
C 	 -17.4802 	 -5.7923 	 93.149 	 
C 	 -18.802 	 -5.91579 	 92.767 	 
C 	 -19.0178 	 -5.32873 	 91.4884 	 
C 	 -17.874 	 -4.79512 	 90.8888 	 
H 	 -19.4373 	 -6.41162 	 93.4865 	 
C 	 -20.4102 	 -5.19121 	 90.8849 	 
H 	 -21.0318 	 -5.86399 	 91.449 	 
H 	 -20.4138 	 -5.52325 	 89.8072 	 
C 	 -21.06 	 -3.8225 	 90.8683 	 
H 	 -20.3771 	 -3.10993 	 90.4658 	 
H 	 -21.1857 	 -3.52384 	 91.9375 	 
C 	 -22.3229 	 -3.9291 	 90.0096 	 
H 	 -23.211 	 -4.01048 	 90.6189 	 
H 	 -22.2953 	 -4.64536 	 89.2257 	 
H 	 -22.402 	 -2.95277 	 89.6439 	 
H 	 -17.1889 	 -4.07696 	 85.971 	 
H 	 -17.1249 	 -6.27291 	 94.0662 	 
*
