! wB97X-D3 SP def2-SVP
%pal
nprocs 16
end

* xyz 0 1
S 	 -55.7675 	 38.8284 	 90.5678 	 
C 	 -56.9451 	 39.1385 	 91.7935 	 
C 	 -57.144 	 38.0582 	 92.6229 	 
C 	 -56.5258 	 36.8594 	 92.1497 	 
C 	 -55.7626 	 37.0599 	 90.9983 	 
H 	 -56.7987 	 35.8361 	 92.4495 	 
C 	 -57.9699 	 38.0862 	 93.8827 	 
H 	 -58.7216 	 38.9213 	 93.7574 	 
H 	 -57.215 	 38.2987 	 94.6493 	 
C 	 -58.6282 	 36.7024 	 94.2508 	 
H 	 -57.9381 	 35.8378 	 94.3066 	 
H 	 -59.1783 	 36.7312 	 95.2509 	 
C 	 -59.6712 	 36.2708 	 93.2193 	 
H 	 -59.3054 	 36.2125 	 92.1861 	 
H 	 -60.1018 	 35.2664 	 93.3655 	 
H 	 -60.4973 	 37.036 	 93.2487 	 
S 	 -53.8648 	 35.0651 	 90.7161 	 
C 	 -53.7182 	 34.1104 	 89.2197 	 
C 	 -54.7394 	 34.4781 	 88.372 	 
C 	 -55.5464 	 35.5791 	 88.8771 	 
C 	 -55.2269 	 35.9733 	 90.1572 	 
H 	 -54.8675 	 33.9247 	 87.4372 	 
C 	 -56.5861 	 36.1898 	 88.0558 	 
H 	 -56.165 	 36.3262 	 86.9894 	 
H 	 -57.0022 	 37.1332 	 88.4771 	 
C 	 -57.8483 	 35.3598 	 87.9835 	 
H 	 -57.7181 	 34.2598 	 87.8267 	 
H 	 -58.3776 	 35.567 	 87.0369 	 
C 	 -58.8472 	 35.4825 	 89.1118 	 
H 	 -59.385 	 36.4119 	 89.1294 	 
H 	 -58.3454 	 35.46 	 90.1083 	 
H 	 -59.6688 	 34.7066 	 89.0727 	 
H 	 -57.2017 	 40.2146 	 92.0482 	 
H 	 -52.8977 	 33.4365 	 88.9445 	 
*
