! wB97X-D3 SP def2-SVP
%pal
nprocs 16
end

* xyz 0 1
S 	 -1.0678 	 78.5722 	 49.305 	 
C 	 -0.0932068 	 80.1052 	 49.3671 	 
C 	 1.07991 	 79.976 	 48.6638 	 
C 	 1.18445 	 78.6957 	 48.0472 	 
C 	 0.12966 	 77.8209 	 48.3426 	 
H 	 1.96163 	 78.3978 	 47.3746 	 
C 	 2.1749 	 80.9904 	 48.686 	 
H 	 2.45592 	 81.2564 	 49.6953 	 
H 	 1.73105 	 81.9159 	 48.2727 	 
C 	 3.50106 	 80.5777 	 47.9928 	 
H 	 3.76681 	 79.6412 	 48.4436 	 
H 	 3.27513 	 80.4849 	 46.9236 	 
C 	 4.61737 	 81.6196 	 48.0694 	 
H 	 4.77806 	 81.7701 	 49.1585 	 
H 	 5.58599 	 81.4258 	 47.4828 	 
H 	 4.32676 	 82.6438 	 47.7978 	 
S 	 1.05731 	 75.2572 	 48.3415 	 
C 	 0.115917 	 73.9824 	 47.5619 	 
C 	 -1.14813 	 74.3925 	 47.1933 	 
C 	 -1.26217 	 75.8285 	 47.436 	 
C 	 -0.0867519 	 76.411 	 47.8389 	 
H 	 -1.93417 	 73.7447 	 46.8331 	 
C 	 -2.58072 	 76.5323 	 47.1298 	 
H 	 -3.08521 	 76.1397 	 46.2232 	 
H 	 -2.22237 	 77.5228 	 47.002 	 
C 	 -3.6321 	 76.3985 	 48.3086 	 
H 	 -3.14509 	 76.6663 	 49.2307 	 
H 	 -3.99014 	 75.3715 	 48.4781 	 
C 	 -4.81681 	 77.3144 	 48.1386 	 
H 	 -4.46492 	 78.2961 	 48.0545 	 
H 	 -5.31266 	 77.364 	 49.0896 	 
H 	 -5.45855 	 77.1204 	 47.3126 	 
H 	 -0.440003 	 80.988 	 49.9082 	 
H 	 0.353069 	 72.9266 	 47.6966 	 
*
