! wB97X-D3 SP def2-SVP
%pal
nprocs 16
end

* xyz 0 1
S 	 -40.8857 	 0.681176 	 98.6992 	 
C 	 -39.5074 	 0.19405 	 99.4758 	 
C 	 -38.4519 	 0.0837469 	 98.6646 	 
C 	 -38.7828 	 0.491947 	 97.3263 	 
C 	 -40.102 	 0.774707 	 97.1138 	 
H 	 -38.0708 	 0.573994 	 96.436 	 
C 	 -37.1499 	 -0.457999 	 99.1458 	 
H 	 -37.3134 	 -1.43479 	 99.6496 	 
H 	 -36.7517 	 0.151927 	 99.9954 	 
C 	 -36.0629 	 -0.666129 	 98.0953 	 
H 	 -36.5801 	 -1.2514 	 97.391 	 
H 	 -35.9553 	 0.315693 	 97.592 	 
C 	 -34.715 	 -1.18406 	 98.5135 	 
H 	 -34.8154 	 -2.19776 	 98.9511 	 
H 	 -34.202 	 -1.45245 	 97.5626 	 
H 	 -34.1355 	 -0.454955 	 99.1351 	 
S 	 -42.0987 	 2.25379 	 95.8398 	 
C 	 -42.1878 	 2.27331 	 94.1346 	 
C 	 -41.2674 	 1.447 	 93.5548 	 
C 	 -40.4848 	 0.702268 	 94.509 	 
C 	 -40.773 	 1.08793 	 95.8154 	 
H 	 -41.3786 	 1.27118 	 92.4767 	 
C 	 -39.4709 	 -0.31452 	 94.0519 	 
H 	 -38.5571 	 -0.194153 	 94.6606 	 
H 	 -39.1566 	 -0.00365716 	 93.0975 	 
C 	 -39.9805 	 -1.76428 	 93.9118 	 
H 	 -40.8614 	 -1.85982 	 93.2648 	 
H 	 -40.3222 	 -2.20648 	 94.8511 	 
C 	 -38.8788 	 -2.68968 	 93.4863 	 
H 	 -38.4799 	 -2.37788 	 92.5302 	 
H 	 -39.3274 	 -3.73409 	 93.3415 	 
H 	 -38.2555 	 -2.65919 	 94.3438 	 
H 	 -39.4432 	 0.0862641 	 100.538 	 
H 	 -42.9147 	 2.88615 	 93.6126 	 
*
