! wB97X-D3 SP def2-SVP
%pal
nprocs 16
end

* xyz 0 1
S 	 33.6141 	 23.5831 	 51.0074 	 
C 	 33.1951 	 23.8617 	 52.6832 	 
C 	 33.1562 	 22.7311 	 53.4552 	 
C 	 33.2997 	 21.5345 	 52.5927 	 
C 	 33.6705 	 21.8219 	 51.2778 	 
H 	 33.0542 	 20.5776 	 52.9721 	 
C 	 32.6668 	 22.5924 	 54.8935 	 
H 	 33.441 	 22.8031 	 55.5992 	 
H 	 32.5474 	 21.5344 	 55.0494 	 
C 	 31.3249 	 23.1355 	 55.2566 	 
H 	 31.2616 	 24.2045 	 55.0739 	 
H 	 30.4748 	 22.6718 	 54.6803 	 
C 	 30.9725 	 22.8835 	 56.7647 	 
H 	 31.5418 	 21.9422 	 57.0264 	 
H 	 31.3446 	 23.6486 	 57.4524 	 
H 	 29.9397 	 22.7446 	 57.0639 	 
S 	 33.4494 	 21.3871 	 48.615 	 
C 	 34.0928 	 19.9329 	 47.9482 	 
C 	 34.5234 	 19.0113 	 48.8859 	 
C 	 34.4793 	 19.6074 	 50.1705 	 
C 	 34.0058 	 20.9219 	 50.1559 	 
H 	 34.8147 	 17.9516 	 48.5952 	 
C 	 34.8881 	 18.8212 	 51.4133 	 
H 	 34.6829 	 17.7051 	 51.303 	 
H 	 34.1688 	 19.1484 	 52.1227 	 
C 	 36.3364 	 19.0751 	 51.9778 	 
H 	 36.3587 	 19.9854 	 52.5364 	 
H 	 37.0182 	 19.2257 	 51.1589 	 
C 	 36.8104 	 18.0088 	 52.8921 	 
H 	 37.0467 	 17.0541 	 52.3127 	 
H 	 36.0941 	 17.7081 	 53.6465 	 
H 	 37.6958 	 18.112 	 53.45 	 
H 	 32.992 	 24.8771 	 53.1003 	 
H 	 33.9392 	 19.6587 	 46.8963 	 
*
