! wB97X-D3 SP def2-SVP
%pal
nprocs 16
end

* xyz 0 1
S 	 -14.7667 	 35.1631 	 36.643 	 
C 	 -14.0509 	 36.0019 	 38.0346 	 
C 	 -12.8552 	 35.4321 	 38.4053 	 
C 	 -12.4685 	 34.3907 	 37.5194 	 
C 	 -13.5719 	 33.9853 	 36.6919 	 
H 	 -11.6249 	 33.7924 	 37.5345 	 
C 	 -12.0538 	 35.8417 	 39.6171 	 
H 	 -12.351 	 36.7778 	 39.9481 	 
H 	 -11.0512 	 36.001 	 39.3268 	 
C 	 -12.1919 	 34.8606 	 40.8006 	 
H 	 -11.5867 	 33.9816 	 40.629 	 
H 	 -11.9244 	 35.214 	 41.7956 	 
C 	 -13.7179 	 34.4719 	 41.01 	 
H 	 -13.7568 	 33.7973 	 41.8784 	 
H 	 -14.227 	 35.3736 	 41.3636 	 
H 	 -14.144 	 33.9385 	 40.1359 	 
S 	 -13.6167 	 33.1457 	 34.0861 	 
C 	 -13.6763 	 31.4254 	 33.7888 	 
C 	 -13.2213 	 30.7461 	 34.8673 	 
C 	 -13.0235 	 31.5628 	 36.0205 	 
C 	 -13.5476 	 32.845 	 35.8344 	 
H 	 -13.0001 	 29.6448 	 34.6755 	 
C 	 -12.5872 	 30.8701 	 37.2988 	 
H 	 -13.2984 	 30.0839 	 37.5339 	 
H 	 -12.7649 	 31.5431 	 38.1577 	 
C 	 -11.1694 	 30.3263 	 37.4048 	 
H 	 -10.5393 	 31.1128 	 37.6785 	 
H 	 -10.6851 	 30.0067 	 36.4454 	 
C 	 -10.8956 	 29.2392 	 38.4614 	 
H 	 -11.1982 	 28.1238 	 38.3316 	 
H 	 -11.2336 	 29.5502 	 39.4816 	 
H 	 -9.84166 	 29.2205 	 38.5238 	 
H 	 -14.4908 	 36.8482 	 38.5049 	 
H 	 -13.6574 	 30.9321 	 32.8303 	 
*
