! wB97X-D3 SP def2-SVP
%pal
nprocs 16
end

* xyz 0 1
S 	 -54.3706 	 27.5771 	 96.1752 	 
C 	 -53.0515 	 26.5493 	 95.929 	 
C 	 -51.8885 	 27.0695 	 96.3311 	 
C 	 -52.0986 	 28.3186 	 97.0404 	 
C 	 -53.4023 	 28.7911 	 97.0047 	 
H 	 -51.343 	 28.9766 	 97.4148 	 
C 	 -50.5874 	 26.387 	 96.2217 	 
H 	 -50.4778 	 25.8474 	 95.2928 	 
H 	 -50.5294 	 25.6661 	 97.0286 	 
C 	 -49.3333 	 27.2446 	 96.3092 	 
H 	 -49.3202 	 27.9675 	 95.5628 	 
H 	 -49.1942 	 27.685 	 97.3302 	 
C 	 -48.0842 	 26.5314 	 96.1963 	 
H 	 -47.9498 	 25.8563 	 97.0315 	 
H 	 -47.979 	 25.914 	 95.3205 	 
H 	 -47.1664 	 27.1799 	 96.1634 	 
S 	 -55.4941 	 30.0187 	 98.4358 	 
C 	 -55.4487 	 31.7601 	 98.6508 	 
C 	 -54.4108 	 32.3138 	 97.9435 	 
C 	 -53.6036 	 31.4044 	 97.1987 	 
C 	 -53.8907 	 30.0878 	 97.491 	 
H 	 -54.2703 	 33.4015 	 97.8248 	 
C 	 -52.5231 	 31.8965 	 96.2106 	 
H 	 -53.0309 	 32.7043 	 95.6471 	 
H 	 -52.2573 	 31.0851 	 95.554 	 
C 	 -51.2056 	 32.4354 	 96.9166 	 
H 	 -50.6056 	 31.6123 	 97.5167 	 
H 	 -51.433 	 33.2184 	 97.6005 	 
C 	 -50.1636 	 32.9272 	 95.7809 	 
H 	 -49.1717 	 33.1338 	 96.1134 	 
H 	 -50.4608 	 33.7415 	 95.1283 	 
H 	 -50.0478 	 32.1367 	 95.0247 	 
H 	 -53.1467 	 25.5375 	 95.5545 	 
H 	 -56.2227 	 32.2326 	 99.1614 	 
*
