! wB97X-D3 SP def2-SVP
%pal
nprocs 16
end

* xyz 0 1
S 	 -15.2352 	 36.732 	 36.5116 	 
C 	 -15.2833 	 37.3326 	 38.1176 	 
C 	 -14.312 	 38.2993 	 38.3554 	 
C 	 -13.3805 	 38.3625 	 37.2075 	 
C 	 -13.8489 	 37.6713 	 36.0982 	 
H 	 -12.5412 	 39.062 	 37.2747 	 
C 	 -14.1252 	 39.0682 	 39.5552 	 
H 	 -13.1923 	 38.8859 	 39.9932 	 
H 	 -14.8593 	 38.796 	 40.244 	 
C 	 -14.2432 	 40.5837 	 39.2996 	 
H 	 -13.4717 	 40.8732 	 38.6174 	 
H 	 -15.1463 	 40.7794 	 38.7523 	 
C 	 -14.0486 	 41.3739 	 40.6249 	 
H 	 -13.1161 	 41.2097 	 41.2073 	 
H 	 -14.1002 	 42.4306 	 40.46 	 
H 	 -14.8659 	 41.218 	 41.2807 	 
S 	 -13.1996 	 36.2185 	 33.8046 	 
C 	 -12.6612 	 37.0654 	 32.3531 	 
C 	 -12.526 	 38.4283 	 32.5865 	 
C 	 -12.9126 	 38.7774 	 33.9113 	 
C 	 -13.31 	 37.7135 	 34.7263 	 
H 	 -12.2462 	 39.0699 	 31.7223 	 
C 	 -13.0067 	 40.2527 	 34.268 	 
H 	 -12.4556 	 40.9397 	 33.7018 	 
H 	 -12.7016 	 40.4426 	 35.3115 	 
C 	 -14.4047 	 40.8689 	 34.143 	 
H 	 -15.0612 	 40.6001 	 34.9658 	 
H 	 -14.8574 	 40.5071 	 33.2593 	 
C 	 -14.338 	 42.4431 	 34.2134 	 
H 	 -13.7456 	 43.0417 	 33.5193 	 
H 	 -13.9744 	 42.8806 	 35.1858 	 
H 	 -15.3383 	 42.8073 	 34.1354 	 
H 	 -16.017 	 36.9466 	 38.7942 	 
H 	 -12.4793 	 36.6466 	 31.406 	 
*
