! wB97X-D3 SP def2-SVP
%pal
nprocs 16
end

* xyz 0 1
S 	 -25.6172 	 57.7764 	 110.992 	 
C 	 -24.5006 	 58.7511 	 110.105 	 
C 	 -24.8625 	 58.8547 	 108.772 	 
C 	 -25.9912 	 58.0462 	 108.487 	 
C 	 -26.4841 	 57.3568 	 109.575 	 
H 	 -26.5563 	 57.8306 	 107.607 	 
C 	 -24.2075 	 59.7379 	 107.783 	 
H 	 -23.3283 	 59.1171 	 107.564 	 
H 	 -23.8277 	 60.6298 	 108.245 	 
C 	 -24.9939 	 60.0006 	 106.545 	 
H 	 -26.052 	 60.0797 	 106.72 	 
H 	 -24.7098 	 60.978 	 106.092 	 
C 	 -24.7505 	 58.9015 	 105.431 	 
H 	 -25.3808 	 59.102 	 104.555 	 
H 	 -23.7435 	 58.9267 	 105.154 	 
H 	 -25.0546 	 58.0073 	 105.915 	 
S 	 -27.2431 	 54.7826 	 109.234 	 
C 	 -28.8762 	 54.2427 	 109.173 	 
C 	 -29.6953 	 55.3309 	 109.321 	 
C 	 -29.01 	 56.5625 	 109.548 	 
C 	 -27.6365 	 56.4541 	 109.521 	 
H 	 -30.796 	 55.2709 	 109.331 	 
C 	 -29.7634 	 57.7924 	 109.968 	 
H 	 -29.0354 	 58.5038 	 109.92 	 
H 	 -29.9246 	 57.5922 	 111.038 	 
C 	 -30.9552 	 58.2261 	 109.186 	 
H 	 -31.5861 	 58.8762 	 109.716 	 
H 	 -31.5864 	 57.3554 	 109.02 	 
C 	 -30.4779 	 58.9277 	 107.977 	 
H 	 -29.7325 	 59.7467 	 108.21 	 
H 	 -31.2582 	 59.4109 	 107.358 	 
H 	 -29.9453 	 58.2645 	 107.286 	 
H 	 -23.6206 	 59.4016 	 110.443 	 
H 	 -29.1381 	 53.2487 	 108.76 	 
*
