! wB97X-D3 SP def2-SVP
%pal
nprocs 16
end

* xyz 0 1
S 	 -38.5663 	 28.2459 	 82.638 	 
C 	 -39.0803 	 27.386 	 81.1949 	 
C 	 -38.4215 	 26.1449 	 81.1064 	 
C 	 -37.6987 	 25.8045 	 82.3176 	 
C 	 -37.6024 	 26.8597 	 83.1764 	 
H 	 -37.1713 	 24.8167 	 82.485 	 
C 	 -38.4999 	 25.1231 	 79.9184 	 
H 	 -37.3851 	 24.9706 	 79.5724 	 
H 	 -38.9395 	 25.5202 	 78.9107 	 
C 	 -39.0804 	 23.7268 	 80.1577 	 
H 	 -38.5051 	 23.1204 	 79.5524 	 
H 	 -38.6877 	 23.3728 	 81.0936 	 
C 	 -40.6379 	 23.5223 	 80.1152 	 
H 	 -41.0465 	 24.2781 	 80.7874 	 
H 	 -40.904 	 23.6512 	 79.1651 	 
H 	 -40.9362 	 22.5031 	 80.4441 	 
S 	 -37.6962 	 27.4576 	 85.8392 	 
C 	 -36.4453 	 26.8837 	 86.886 	 
C 	 -35.4959 	 26.2084 	 86.1675 	 
C 	 -35.6429 	 26.242 	 84.7473 	 
C 	 -36.8485 	 26.8549 	 84.4147 	 
H 	 -34.7027 	 25.7876 	 86.7013 	 
C 	 -34.6357 	 25.5896 	 83.8227 	 
H 	 -35.2416 	 24.7913 	 83.4041 	 
H 	 -33.8713 	 25.1667 	 84.3993 	 
C 	 -34.1182 	 26.5486 	 82.6623 	 
H 	 -34.9489 	 26.8877 	 81.9881 	 
H 	 -33.3798 	 25.9822 	 82.0415 	 
C 	 -33.4514 	 27.786 	 83.2689 	 
H 	 -34.2102 	 28.5513 	 83.3708 	 
H 	 -32.6056 	 28.2074 	 82.7073 	 
H 	 -33.1497 	 27.6263 	 84.3258 	 
H 	 -39.7099 	 27.8291 	 80.3855 	 
H 	 -36.438 	 26.8511 	 87.9911 	 
*
