! wB97X-D3 SP def2-SVP
%pal
nprocs 16
end

* xyz 0 1
S 	 -59.4571 	 36.7312 	 91.153 	 
C 	 -60.2751 	 35.5666 	 90.1254 	 
C 	 -59.764 	 35.4677 	 88.8859 	 
C 	 -58.7075 	 36.4019 	 88.7782 	 
C 	 -58.3463 	 37.1259 	 89.8792 	 
H 	 -58.1421 	 36.6026 	 87.9124 	 
C 	 -60.2244 	 34.4948 	 87.8458 	 
H 	 -59.6654 	 34.6103 	 86.8832 	 
H 	 -61.2422 	 34.6716 	 87.4733 	 
C 	 -60.2433 	 33.0259 	 88.2433 	 
H 	 -60.9138 	 32.916 	 89.0488 	 
H 	 -60.7279 	 32.4697 	 87.4753 	 
C 	 -58.8514 	 32.4804 	 88.5124 	 
H 	 -58.6432 	 31.5043 	 88.0152 	 
H 	 -58.0891 	 33.1982 	 88.2298 	 
H 	 -58.801 	 32.3748 	 89.5865 	 
S 	 -58.2566 	 39.8533 	 90.6478 	 
C 	 -56.8725 	 40.79 	 90.2159 	 
C 	 -56.1415 	 40.1079 	 89.2308 	 
C 	 -56.4152 	 38.707 	 89.1007 	 
C 	 -57.575 	 38.3414 	 89.8205 	 
H 	 -55.2756 	 40.5899 	 88.7374 	 
C 	 -55.4544 	 37.7785 	 88.4099 	 
H 	 -54.5428 	 38.2909 	 87.9503 	 
H 	 -56.0708 	 37.4593 	 87.5471 	 
C 	 -54.9345 	 36.59 	 89.1572 	 
H 	 -54.3462 	 35.9929 	 88.4583 	 
H 	 -55.7268 	 35.9766 	 89.6076 	 
C 	 -53.9159 	 36.9418 	 90.2417 	 
H 	 -54.3227 	 37.4569 	 91.1073 	 
H 	 -53.132 	 37.4611 	 89.7211 	 
H 	 -53.5103 	 36.0315 	 90.6375 	 
H 	 -61.1815 	 35.0955 	 90.5334 	 
H 	 -56.7421 	 41.8415 	 90.4657 	 
*
