! wB97X-D3 SP def2-SVP
%pal
nprocs 16
end

* xyz 0 1
S 	 -34.0085 	 57.782 	 100.886 	 
C 	 -33.2005 	 56.9938 	 99.4703 	 
C 	 -32.7879 	 55.7151 	 99.7609 	 
C 	 -33.1427 	 55.3831 	 101.112 	 
C 	 -33.8531 	 56.3132 	 101.836 	 
H 	 -32.935 	 54.4271 	 101.512 	 
C 	 -32.1759 	 54.7204 	 98.797 	 
H 	 -31.5025 	 54.0936 	 99.3547 	 
H 	 -31.5236 	 55.2616 	 98.1741 	 
C 	 -33.1314 	 54.0051 	 97.7315 	 
H 	 -33.6506 	 54.7014 	 97.1008 	 
H 	 -32.462 	 53.4557 	 97.0674 	 
C 	 -33.9462 	 53.0168 	 98.4014 	 
H 	 -33.4239 	 52.2873 	 99.0297 	 
H 	 -34.8344 	 53.4665 	 98.9362 	 
H 	 -34.3242 	 52.3754 	 97.5999 	 
S 	 -34.5953 	 54.4172 	 103.675 	 
C 	 -35.3469 	 54.8726 	 105.133 	 
C 	 -35.1466 	 56.2345 	 105.46 	 
C 	 -34.7228 	 56.9527 	 104.289 	 
C 	 -34.383 	 56.1513 	 103.189 	 
H 	 -35.3383 	 56.6489 	 106.431 	 
C 	 -34.5355 	 58.4156 	 104.376 	 
H 	 -33.6769 	 58.6443 	 103.731 	 
H 	 -34.3709 	 58.7237 	 105.415 	 
C 	 -35.5894 	 59.311 	 103.808 	 
H 	 -36.4464 	 59.165 	 104.395 	 
H 	 -35.8025 	 59.0243 	 102.82 	 
C 	 -35.1581 	 60.7501 	 103.885 	 
H 	 -36.0658 	 61.4099 	 103.901 	 
H 	 -34.4514 	 60.9574 	 103.152 	 
H 	 -34.6963 	 60.9162 	 104.804 	 
H 	 -32.9993 	 57.4706 	 98.5255 	 
H 	 -35.7628 	 54.1666 	 105.857 	 
*
