! wB97X-D3 SP def2-SVP
%pal
nprocs 16
end

* xyz 0 1
S 	 -102.597 	 53.9211 	 116.83 	 
C 	 -102.131 	 54.3507 	 115.187 	 
C 	 -103.098 	 55.1447 	 114.56 	 
C 	 -104.168 	 55.425 	 115.5 	 
C 	 -104.011 	 54.9133 	 116.781 	 
H 	 -104.999 	 56.1503 	 115.27 	 
C 	 -103.056 	 55.772 	 113.129 	 
H 	 -102.695 	 56.814 	 113.131 	 
H 	 -104.038 	 55.6302 	 112.585 	 
C 	 -102.08 	 55.1133 	 112.181 	 
H 	 -102.125 	 55.6569 	 111.262 	 
H 	 -101.027 	 55.2573 	 112.589 	 
C 	 -102.433 	 53.6419 	 111.798 	 
H 	 -101.636 	 53.1651 	 111.247 	 
H 	 -102.64 	 53.0435 	 112.704 	 
H 	 -103.281 	 53.4589 	 111.17 	 
S 	 -104.045 	 55.9139 	 119.32 	 
C 	 -105.51 	 55.8461 	 120.209 	 
C 	 -106.604 	 55.3491 	 119.508 	 
C 	 -106.191 	 54.974 	 118.174 	 
C 	 -104.843 	 55.1345 	 117.967 	 
H 	 -107.635 	 55.445 	 119.878 	 
C 	 -107.12 	 54.3387 	 117.167 	 
H 	 -107.506 	 53.4414 	 117.603 	 
H 	 -106.518 	 54.0686 	 116.334 	 
C 	 -108.243 	 55.1597 	 116.617 	 
H 	 -108.907 	 55.5939 	 117.388 	 
H 	 -109.028 	 54.519 	 116.187 	 
C 	 -107.808 	 56.279 	 115.685 	 
H 	 -107.428 	 55.7893 	 114.784 	 
H 	 -107.077 	 56.8084 	 116.283 	 
H 	 -108.52 	 57.0479 	 115.478 	 
H 	 -101.198 	 54.1173 	 114.745 	 
H 	 -105.521 	 56.28 	 121.184 	 
*
