! wB97X-D3 SP def2-SVP
%pal
nprocs 16
end

* xyz 0 1
S 	 -72.6515 	 36.0849 	 126.139 	 
C 	 -70.8923 	 35.7966 	 125.898 	 
C 	 -70.3257 	 36.9215 	 125.425 	 
C 	 -71.2875 	 37.8742 	 124.978 	 
C 	 -72.6338 	 37.5704 	 125.133 	 
H 	 -70.921 	 38.8339 	 124.637 	 
C 	 -68.8734 	 37.1256 	 125.231 	 
H 	 -68.6338 	 38.1262 	 125.47 	 
H 	 -68.6573 	 36.7984 	 124.186 	 
C 	 -67.932 	 36.3599 	 126.116 	 
H 	 -68.1949 	 36.4469 	 127.171 	 
H 	 -68.1211 	 35.3103 	 125.956 	 
C 	 -66.3808 	 36.5503 	 125.786 	 
H 	 -66.0815 	 36.4508 	 124.754 	 
H 	 -65.9948 	 37.4758 	 126.14 	 
H 	 -65.8353 	 35.6667 	 126.215 	 
S 	 -74.2494 	 39.1973 	 126.504 	 
C 	 -75.3064 	 40.3172 	 125.599 	 
C 	 -75.3677 	 39.996 	 124.28 	 
C 	 -74.5055 	 38.9147 	 123.942 	 
C 	 -73.7148 	 38.5331 	 125.019 	 
H 	 -76.0013 	 40.6105 	 123.737 	 
C 	 -74.2331 	 38.5967 	 122.55 	 
H 	 -75.2271 	 38.4215 	 122.026 	 
H 	 -73.783 	 37.5933 	 122.616 	 
C 	 -73.3419 	 39.583 	 121.78 	 
H 	 -72.3446 	 39.515 	 122.177 	 
H 	 -73.6145 	 40.631 	 122.036 	 
C 	 -73.3053 	 39.3493 	 120.282 	 
H 	 -74.2275 	 39.568 	 119.703 	 
H 	 -73.0982 	 38.2972 	 120.147 	 
H 	 -72.5608 	 39.879 	 119.781 	 
H 	 -70.3391 	 35.0202 	 126.274 	 
H 	 -75.8849 	 41.0196 	 126.126 	 
*
