! wB97X-D3 SP def2-SVP
%pal
nprocs 16
end

* xyz 0 1
S 	 -92.0578 	 42.4905 	 119.172 	 
C 	 -91.4075 	 41.8192 	 120.663 	 
C 	 -92.2326 	 40.7418 	 121.063 	 
C 	 -93.1839 	 40.3468 	 120.053 	 
C 	 -93.116 	 41.1639 	 118.916 	 
H 	 -93.8654 	 39.5297 	 120.024 	 
C 	 -91.945 	 39.9586 	 122.299 	 
H 	 -91.1139 	 39.2411 	 122.176 	 
H 	 -92.8663 	 39.4224 	 122.415 	 
C 	 -91.826 	 40.7516 	 123.609 	 
H 	 -91.1089 	 41.5663 	 123.513 	 
H 	 -92.7908 	 41.2276 	 123.759 	 
C 	 -91.5135 	 39.7581 	 124.725 	 
H 	 -90.5614 	 39.2003 	 124.592 	 
H 	 -91.1903 	 40.2994 	 125.636 	 
H 	 -92.3245 	 39.0882 	 124.961 	 
S 	 -94.7815 	 42.5502 	 117.142 	 
C 	 -95.5931 	 41.6261 	 115.927 	 
C 	 -95.1 	 40.3541 	 115.816 	 
C 	 -94.3275 	 39.9925 	 116.934 	 
C 	 -93.9953 	 41.0873 	 117.732 	 
H 	 -95.5231 	 39.7831 	 115.005 	 
C 	 -93.8352 	 38.5251 	 117.003 	 
H 	 -92.8625 	 38.3703 	 117.598 	 
H 	 -93.5251 	 38.1514 	 116.028 	 
C 	 -94.8726 	 37.5107 	 117.641 	 
H 	 -95.7329 	 37.5321 	 117.035 	 
H 	 -95.1831 	 37.7922 	 118.673 	 
C 	 -94.5039 	 35.9343 	 117.544 	 
H 	 -93.5464 	 35.7007 	 118 	 
H 	 -94.3521 	 35.6155 	 116.498 	 
H 	 -95.2882 	 35.3686 	 118.026 	 
H 	 -90.6474 	 42.1835 	 121.248 	 
H 	 -96.288 	 42.1305 	 115.287 	 
*
