! wB97X-D3 SP def2-SVP
%pal
nprocs 16
end

* xyz 0 1
S 	 -3.62379 	 -19.4069 	 57.2426 	 
C 	 -2.15464 	 -18.5788 	 56.7373 	 
C 	 -2.3751 	 -17.9116 	 55.5149 	 
C 	 -3.78714 	 -17.8025 	 55.297 	 
C 	 -4.61204 	 -18.4389 	 56.2195 	 
H 	 -4.17739 	 -17.1703 	 54.5307 	 
C 	 -1.24448 	 -17.3331 	 54.6563 	 
H 	 -0.475957 	 -17.0462 	 55.3996 	 
H 	 -1.65874 	 -16.4513 	 54.2675 	 
C 	 -0.632492 	 -18.2918 	 53.5775 	 
H 	 0.185991 	 -17.7876 	 53.1469 	 
H 	 -0.13017 	 -19.1569 	 54.0387 	 
C 	 -1.72057 	 -18.6403 	 52.5286 	 
H 	 -1.35695 	 -19.1859 	 51.552 	 
H 	 -2.50887 	 -19.2421 	 52.8897 	 
H 	 -2.17294 	 -17.7045 	 52.1612 	 
S 	 -6.65203 	 -20.1434 	 55.7088 	 
C 	 -8.31984 	 -19.6201 	 56.0735 	 
C 	 -8.33138 	 -18.3486 	 56.4581 	 
C 	 -7.02847 	 -17.8375 	 56.7461 	 
C 	 -6.06207 	 -18.6047 	 56.1566 	 
H 	 -9.25311 	 -17.7927 	 56.7481 	 
C 	 -6.8312 	 -16.5304 	 57.51 	 
H 	 -6.16794 	 -16.4729 	 58.3535 	 
H 	 -7.90139 	 -16.4533 	 57.9328 	 
C 	 -6.4075 	 -15.2614 	 56.6307 	 
H 	 -7.3258 	 -14.8761 	 56.1138 	 
H 	 -5.85316 	 -15.7293 	 55.8025 	 
C 	 -5.51436 	 -14.2733 	 57.3335 	 
H 	 -5.29651 	 -13.4346 	 56.6348 	 
H 	 -4.55528 	 -14.7748 	 57.5887 	 
H 	 -6.0578 	 -13.8522 	 58.1586 	 
H 	 -1.13171 	 -18.8342 	 57.122 	 
H 	 -9.12585 	 -20.3315 	 56.0705 	 
*
