! wB97X-D3 SP def2-SVP
%pal
nprocs 16
end

* xyz 0 1
S 	 -75.2673 	 54.0085 	 138.04 	 
C 	 -74.0684 	 53.2353 	 139.096 	 
C 	 -73.4098 	 52.2016 	 138.49 	 
C 	 -73.8024 	 52.0348 	 137.159 	 
C 	 -74.85 	 52.8487 	 136.783 	 
H 	 -73.4893 	 51.2444 	 136.447 	 
C 	 -72.349 	 51.31 	 139.117 	 
H 	 -71.6823 	 51.9075 	 139.804 	 
H 	 -71.7888 	 50.9485 	 138.224 	 
C 	 -72.8873 	 50.0196 	 139.836 	 
H 	 -73.2462 	 49.2144 	 139.162 	 
H 	 -72.0279 	 49.6196 	 140.374 	 
C 	 -74.1052 	 50.2906 	 140.805 	 
H 	 -74.5102 	 49.3234 	 141.247 	 
H 	 -73.783 	 51.0295 	 141.505 	 
H 	 -74.818 	 50.7804 	 140.162 	 
S 	 -76.7387 	 51.8003 	 135.074 	 
C 	 -76.6523 	 52.3172 	 133.364 	 
C 	 -75.7886 	 53.3603 	 133.165 	 
C 	 -75.0817 	 53.7796 	 134.331 	 
C 	 -75.386 	 52.9316 	 135.401 	 
H 	 -75.7106 	 53.7922 	 132.158 	 
C 	 -74.2085 	 55.0068 	 134.322 	 
H 	 -73.4509 	 55.0383 	 133.586 	 
H 	 -73.5914 	 54.8124 	 135.147 	 
C 	 -75.0659 	 56.2917 	 134.44 	 
H 	 -75.7647 	 56.3731 	 135.351 	 
H 	 -75.6141 	 56.358 	 133.455 	 
C 	 -74.0993 	 57.5453 	 134.382 	 
H 	 -73.5861 	 57.6928 	 133.409 	 
H 	 -73.2299 	 57.435 	 135.139 	 
H 	 -74.6241 	 58.493 	 134.601 	 
H 	 -73.9419 	 53.4507 	 140.107 	 
H 	 -77.2361 	 51.9359 	 132.609 	 
*
