! wB97X-D3 SP def2-SVP
%pal
nprocs 16
end

* xyz 0 1
S 	 60.5675 	 16.5624 	 79.9381 	 
C 	 62.0795 	 15.7726 	 79.5175 	 
C 	 61.9808 	 15.0455 	 78.3377 	 
C 	 60.7411 	 15.1932 	 77.6578 	 
C 	 59.8937 	 16.0841 	 78.3041 	 
H 	 60.4956 	 14.609 	 76.8044 	 
C 	 63.105 	 13.9997 	 77.8643 	 
H 	 63.8037 	 14.0677 	 78.7191 	 
H 	 63.5713 	 14.5641 	 77.1118 	 
C 	 62.663 	 12.5034 	 77.5717 	 
H 	 61.8444 	 12.6169 	 76.8655 	 
H 	 63.346 	 11.9797 	 76.9607 	 
C 	 62.4124 	 11.6061 	 78.7528 	 
H 	 62.557 	 10.6037 	 78.3833 	 
H 	 62.9523 	 11.8374 	 79.7301 	 
H 	 61.3263 	 11.6999 	 79.0377 	 
S 	 57.2198 	 15.652 	 78.6775 	 
C 	 56.0336 	 16.2275 	 77.5086 	 
C 	 56.7045 	 16.9345 	 76.4881 	 
C 	 58.1111 	 17.0602 	 76.6488 	 
C 	 58.5364 	 16.3673 	 77.7848 	 
H 	 56.1275 	 17.3541 	 75.665 	 
C 	 59.0678 	 17.752 	 75.6392 	 
H 	 58.7839 	 17.4236 	 74.662 	 
H 	 60.0282 	 17.3522 	 75.9289 	 
C 	 58.9126 	 19.3069 	 75.5937 	 
H 	 57.8869 	 19.6057 	 75.5483 	 
H 	 59.3875 	 19.758 	 74.7116 	 
C 	 59.5645 	 19.9741 	 76.8272 	 
H 	 60.6049 	 20.0093 	 76.7143 	 
H 	 59.4581 	 19.3701 	 77.7585 	 
H 	 59.2155 	 20.9961 	 76.9425 	 
H 	 62.9857 	 15.8019 	 80.0942 	 
H 	 54.9233 	 16.1247 	 77.5849 	 
*
