! wB97X-D3 SP def2-SVP
%pal
nprocs 16
end

* xyz 0 1
S 	 -2.54426 	 32.3899 	 54.4917 	 
C 	 -0.904617 	 31.9776 	 54.5437 	 
C 	 -0.429658 	 31.4975 	 53.2976 	 
C 	 -1.48143 	 31.5394 	 52.3616 	 
C 	 -2.70123 	 32.0293 	 52.8265 	 
H 	 -1.39927 	 31.2118 	 51.3485 	 
C 	 0.946816 	 30.7698 	 53.1077 	 
H 	 1.76782 	 31.3619 	 53.4321 	 
H 	 0.991272 	 30.6395 	 52.0552 	 
C 	 1.00398 	 29.379 	 53.7143 	 
H 	 2.02603 	 29.001 	 53.985 	 
H 	 0.480567 	 29.6654 	 54.6577 	 
C 	 0.0328453 	 28.3795 	 52.9985 	 
H 	 -0.936155 	 28.8113 	 52.9091 	 
H 	 0.360024 	 28.1725 	 51.9643 	 
H 	 0.136817 	 27.4195 	 53.5432 	 
S 	 -4.90114 	 30.3562 	 52.7531 	 
C 	 -5.8788 	 30.3229 	 51.2969 	 
C 	 -5.43344 	 31.2606 	 50.3813 	 
C 	 -4.34387 	 32.0636 	 50.8915 	 
C 	 -3.89979 	 31.6874 	 52.1319 	 
H 	 -5.95158 	 31.2816 	 49.4985 	 
C 	 -3.96777 	 33.2759 	 50.1366 	 
H 	 -3.56952 	 32.9126 	 49.2089 	 
H 	 -3.15498 	 33.8169 	 50.6692 	 
C 	 -5.04695 	 34.2229 	 49.782 	 
H 	 -5.8323 	 33.6596 	 49.2931 	 
H 	 -4.78316 	 34.9568 	 49.027 	 
C 	 -5.59964 	 35.0538 	 50.9845 	 
H 	 -4.90083 	 35.5315 	 51.6514 	 
H 	 -6.24829 	 34.3339 	 51.5249 	 
H 	 -6.29726 	 35.8197 	 50.6548 	 
H 	 -0.323426 	 31.9354 	 55.4873 	 
H 	 -6.6965 	 29.6496 	 50.9992 	 
*
