! wB97X-D3 SP def2-SVP
%pal
nprocs 16
end

* xyz 0 1
S 	 -70.9574 	 55.9336 	 123.295 	 
C 	 -71.5741 	 57.5057 	 122.812 	 
C 	 -71.5954 	 58.4268 	 123.887 	 
C 	 -70.8781 	 57.9122 	 125.004 	 
C 	 -70.4698 	 56.5716 	 124.883 	 
H 	 -70.7641 	 58.4399 	 125.959 	 
C 	 -72.0675 	 59.8953 	 123.859 	 
H 	 -73.0252 	 59.7376 	 123.333 	 
H 	 -71.5048 	 60.5217 	 123.074 	 
C 	 -72.4627 	 60.6977 	 125.162 	 
H 	 -73.2729 	 60.0355 	 125.606 	 
H 	 -71.6944 	 60.8967 	 125.85 	 
C 	 -73.1413 	 62.0963 	 124.854 	 
H 	 -74.0533 	 61.845 	 124.208 	 
H 	 -73.2355 	 62.6748 	 125.748 	 
H 	 -72.4351 	 62.6658 	 124.285 	 
S 	 -71.2249 	 54.8095 	 126.88 	 
C 	 -70.0275 	 54.1362 	 127.941 	 
C 	 -68.7632 	 54.6178 	 127.621 	 
C 	 -68.7666 	 55.5047 	 126.482 	 
C 	 -70.0256 	 55.7806 	 126.002 	 
H 	 -67.8482 	 54.2762 	 128.072 	 
C 	 -67.4915 	 56.0264 	 125.891 	 
H 	 -66.7583 	 56.3372 	 126.632 	 
H 	 -67.6715 	 56.8975 	 125.276 	 
C 	 -66.7242 	 54.9874 	 124.989 	 
H 	 -67.4875 	 54.6895 	 124.288 	 
H 	 -66.4775 	 54.1651 	 125.671 	 
C 	 -65.4242 	 55.4092 	 124.244 	 
H 	 -64.9668 	 54.553 	 123.809 	 
H 	 -64.7121 	 55.9245 	 124.836 	 
H 	 -65.7178 	 56.0189 	 123.373 	 
H 	 -71.9292 	 57.7551 	 121.767 	 
H 	 -70.2614 	 53.5124 	 128.841 	 
*
