! wB97X-D3 SP def2-SVP
%pal
nprocs 16
end

* xyz 0 1
S 	 49.5327 	 11.3287 	 86.6845 	 
C 	 49.2039 	 11.661 	 88.4248 	 
C 	 49.6669 	 12.9107 	 88.875 	 
C 	 50.1691 	 13.5986 	 87.7092 	 
C 	 50.1928 	 12.8947 	 86.5188 	 
H 	 50.5882 	 14.5762 	 87.5901 	 
C 	 49.6332 	 13.552 	 90.21 	 
H 	 50.6592 	 13.6586 	 90.466 	 
H 	 49.2061 	 12.7581 	 90.9045 	 
C 	 48.696 	 14.8029 	 90.4915 	 
H 	 48.7431 	 15.1669 	 91.5352 	 
H 	 49.1391 	 15.6693 	 89.9116 	 
C 	 47.2113 	 14.6697 	 90.0086 	 
H 	 47.0409 	 14.2789 	 88.9984 	 
H 	 46.6661 	 13.972 	 90.6572 	 
H 	 46.7754 	 15.6167 	 90.1238 	 
S 	 51.967 	 12.4657 	 84.4585 	 
C 	 51.839 	 13.4954 	 83.0448 	 
C 	 51.0037 	 14.5514 	 83.1578 	 
C 	 50.3959 	 14.5468 	 84.4646 	 
C 	 50.6799 	 13.3858 	 85.1996 	 
H 	 50.8404 	 15.2788 	 82.4272 	 
C 	 49.4799 	 15.6505 	 84.8563 	 
H 	 49.184 	 15.4141 	 85.8658 	 
H 	 48.4884 	 15.5525 	 84.2937 	 
C 	 50.2328 	 17.0542 	 84.8615 	 
H 	 50.6005 	 17.3767 	 83.8897 	 
H 	 51.0924 	 17.0259 	 85.3955 	 
C 	 49.2183 	 18.1184 	 85.4496 	 
H 	 48.4846 	 18.3749 	 84.6712 	 
H 	 49.7394 	 19.0188 	 85.6397 	 
H 	 48.6206 	 17.7992 	 86.2799 	 
H 	 48.7245 	 10.9845 	 89.1538 	 
H 	 52.308 	 13.2172 	 82.1876 	 
*
