! wB97X-D3 SP def2-SVP
%pal
nprocs 16
end

* xyz 0 1
S 	 -40.2916 	 -0.504898 	 95.3525 	 
C 	 -40.5719 	 -2.13984 	 94.9803 	 
C 	 -39.7155 	 -2.94279 	 95.7098 	 
C 	 -38.6714 	 -2.19208 	 96.4102 	 
C 	 -38.8625 	 -0.868669 	 96.2735 	 
H 	 -37.8623 	 -2.61729 	 96.988 	 
C 	 -39.8479 	 -4.49673 	 95.7113 	 
H 	 -40.2477 	 -4.86435 	 94.7336 	 
H 	 -40.6256 	 -4.6341 	 96.3719 	 
C 	 -38.6407 	 -5.39153 	 96.1673 	 
H 	 -38.2794 	 -4.96616 	 97.0785 	 
H 	 -38.98 	 -6.41744 	 96.3287 	 
C 	 -37.5039 	 -5.36036 	 95.2925 	 
H 	 -36.5398 	 -5.85387 	 95.7233 	 
H 	 -37.7704 	 -5.90406 	 94.3577 	 
H 	 -37.1634 	 -4.33087 	 95.0462 	 
S 	 -38.3993 	 0.702778 	 98.5022 	 
C 	 -37.0878 	 1.79992 	 98.6006 	 
C 	 -36.26 	 1.63584 	 97.5143 	 
C 	 -36.7626 	 0.645907 	 96.5654 	 
C 	 -38.0185 	 0.196442 	 96.8713 	 
H 	 -35.2898 	 2.17863 	 97.4943 	 
C 	 -35.9595 	 0.33164 	 95.3329 	 
H 	 -36.129 	 1.2251 	 94.7468 	 
H 	 -36.4483 	 -0.429126 	 94.7916 	 
C 	 -34.4644 	 0.044174 	 95.5215 	 
H 	 -34.365 	 -0.758505 	 96.2796 	 
H 	 -34.0171 	 0.943049 	 95.9541 	 
C 	 -33.8188 	 -0.285711 	 94.2008 	 
H 	 -34.1199 	 -1.25076 	 93.7528 	 
H 	 -32.7666 	 -0.34435 	 94.4093 	 
H 	 -34.1453 	 0.588778 	 93.6292 	 
H 	 -41.496 	 -2.42478 	 94.5462 	 
H 	 -37.0248 	 2.42887 	 99.4799 	 
*
