! wB97X-D3 SP def2-SVP
%pal
nprocs 16
end

* xyz 0 1
S 	 -11.0977 	 -3.02118 	 78.3261 	 
C 	 -9.91829 	 -2.5943 	 79.5724 	 
C 	 -9.85911 	 -3.50526 	 80.5866 	 
C 	 -10.8424 	 -4.52023 	 80.4518 	 
C 	 -11.533 	 -4.48001 	 79.266 	 
H 	 -11.0525 	 -5.30691 	 81.1571 	 
C 	 -8.82613 	 -3.48253 	 81.6799 	 
H 	 -9.22397 	 -3.64863 	 82.6713 	 
H 	 -8.50093 	 -2.4986 	 81.827 	 
C 	 -7.53259 	 -4.25935 	 81.4597 	 
H 	 -7.6964 	 -5.34756 	 81.2646 	 
H 	 -7.13269 	 -3.79447 	 80.5109 	 
C 	 -6.61968 	 -4.09451 	 82.6469 	 
H 	 -6.5117 	 -3.06686 	 83.0174 	 
H 	 -6.86507 	 -4.78346 	 83.4782 	 
H 	 -5.72613 	 -4.5012 	 82.2041 	 
S 	 -14.1529 	 -4.64751 	 78.5968 	 
C 	 -14.917 	 -6.22273 	 78.414 	 
C 	 -14.1042 	 -7.18667 	 78.8346 	 
C 	 -12.7751 	 -6.77052 	 79.2143 	 
C 	 -12.582 	 -5.42894 	 78.9216 	 
H 	 -14.4504 	 -8.22551 	 78.8537 	 
C 	 -11.7596 	 -7.80896 	 79.7125 	 
H 	 -10.7996 	 -7.32969 	 79.8535 	 
H 	 -11.6836 	 -8.38633 	 78.8282 	 
C 	 -12.0819 	 -8.80542 	 80.8407 	 
H 	 -11.3921 	 -9.69888 	 80.723 	 
H 	 -13.1298 	 -9.16925 	 80.834 	 
C 	 -11.9001 	 -8.13512 	 82.1538 	 
H 	 -12.5914 	 -8.66615 	 82.8545 	 
H 	 -12.1005 	 -7.03521 	 82.1195 	 
H 	 -10.9437 	 -8.31689 	 82.5958 	 
H 	 -9.21528 	 -1.76941 	 79.3801 	 
H 	 -15.9237 	 -6.40061 	 78.2201 	 
*
