! wB97X-D3 SP def2-SVP
%pal
nprocs 16
end

* xyz 0 1
S 	 -97.1315 	 51.188 	 123.542 	 
C 	 -96.1238 	 51.0741 	 122.102 	 
C 	 -96.8754 	 51.2556 	 120.916 	 
C 	 -98.291 	 51.0768 	 121.216 	 
C 	 -98.5104 	 50.9059 	 122.57 	 
H 	 -99.0344 	 51.2706 	 120.484 	 
C 	 -96.2751 	 51.5217 	 119.489 	 
H 	 -95.9011 	 52.5083 	 119.459 	 
H 	 -97.059 	 51.4055 	 118.77 	 
C 	 -95.0378 	 50.6506 	 118.968 	 
H 	 -94.2447 	 50.8205 	 119.741 	 
H 	 -95.2646 	 49.6422 	 118.964 	 
C 	 -94.5371 	 51.0387 	 117.623 	 
H 	 -93.6392 	 50.4097 	 117.384 	 
H 	 -95.3366 	 50.9952 	 116.832 	 
H 	 -94.2979 	 52.1522 	 117.626 	 
S 	 -100.22 	 52.087 	 124.434 	 
C 	 -101.896 	 51.7175 	 124.273 	 
C 	 -102.192 	 50.7879 	 123.308 	 
C 	 -100.984 	 50.3141 	 122.657 	 
C 	 -99.8575 	 50.9428 	 123.128 	 
H 	 -103.249 	 50.5221 	 123.068 	 
C 	 -101.12 	 49.2183 	 121.673 	 
H 	 -100.194 	 48.9812 	 121.285 	 
H 	 -101.717 	 49.3674 	 120.799 	 
C 	 -101.638 	 47.8279 	 122.233 	 
H 	 -101.301 	 47.1538 	 121.499 	 
H 	 -102.711 	 47.8902 	 122.23 	 
C 	 -101.082 	 47.3498 	 123.648 	 
H 	 -100.963 	 46.219 	 123.631 	 
H 	 -101.766 	 47.6676 	 124.44 	 
H 	 -100.148 	 47.8766 	 123.87 	 
H 	 -95.0109 	 51.187 	 122.248 	 
H 	 -102.663 	 52.2304 	 124.817 	 
*
