! wB97X-D3 SP def2-SVP
%pal
nprocs 16
end

* xyz 0 1
S 	 5.60395 	 -27.8739 	 83.4529 	 
C 	 4.79271 	 -26.6569 	 84.4344 	 
C 	 5.45574 	 -25.4387 	 84.3906 	 
C 	 6.45389 	 -25.4751 	 83.3995 	 
C 	 6.75774 	 -26.7291 	 82.9425 	 
H 	 7.02199 	 -24.5958 	 83.081 	 
C 	 5.07981 	 -24.1253 	 84.9668 	 
H 	 6.00799 	 -23.7018 	 85.3495 	 
H 	 4.3859 	 -24.26 	 85.8206 	 
C 	 4.65763 	 -23.0246 	 84.0253 	 
H 	 5.50369 	 -22.7165 	 83.3743 	 
H 	 3.80642 	 -23.3545 	 83.4951 	 
C 	 4.22751 	 -21.7761 	 84.7231 	 
H 	 3.26714 	 -21.8859 	 85.3211 	 
H 	 4.97771 	 -21.4718 	 85.5753 	 
H 	 4.15932 	 -20.9745 	 84.0725 	 
S 	 7.67012 	 -28.5968 	 81.168 	 
C 	 9.09744 	 -28.3512 	 80.2336 	 
C 	 9.70909 	 -27.177 	 80.6469 	 
C 	 9.0572 	 -26.3986 	 81.7105 	 
C 	 7.91913 	 -27.1212 	 82.1339 	 
H 	 10.6399 	 -26.9076 	 80.1247 	 
C 	 9.5709 	 -25.0251 	 82.2308 	 
H 	 9.65058 	 -25.1515 	 83.289 	 
H 	 8.74447 	 -24.3107 	 82.104 	 
C 	 10.8782 	 -24.4613 	 81.6495 	 
H 	 10.9127 	 -24.6029 	 80.583 	 
H 	 11.6329 	 -25.1185 	 82.164 	 
C 	 11.0975 	 -22.9807 	 81.8871 	 
H 	 12.1638 	 -22.6972 	 81.8767 	 
H 	 10.6237 	 -22.7095 	 82.8159 	 
H 	 10.5833 	 -22.554 	 81.0479 	 
H 	 3.98985 	 -26.9018 	 85.1509 	 
H 	 9.43894 	 -29.0432 	 79.4465 	 
*
