! wB97X-D3 SP def2-SVP
%pal
nprocs 16
end

* xyz 0 1
S 	 -6.77421 	 41.1484 	 32.4705 	 
C 	 -6.34723 	 39.534 	 31.9057 	 
C 	 -5.05186 	 39.2674 	 32.1881 	 
C 	 -4.47244 	 40.2862 	 33.0299 	 
C 	 -5.21729 	 41.4717 	 33.1234 	 
H 	 -3.49968 	 40.3004 	 33.4797 	 
C 	 -4.35486 	 38.0274 	 31.7194 	 
H 	 -4.83908 	 37.2154 	 32.1868 	 
H 	 -3.39602 	 38.0487 	 32.1691 	 
C 	 -4.24011 	 37.8104 	 30.2657 	 
H 	 -5.0759 	 38.2623 	 29.7365 	 
H 	 -3.49215 	 38.5549 	 29.9093 	 
C 	 -4.0405 	 36.2866 	 29.8105 	 
H 	 -3.00531 	 36.0257 	 29.7605 	 
H 	 -4.51852 	 35.5923 	 30.5207 	 
H 	 -4.44518 	 36.1701 	 28.7324 	 
S 	 -6.18084 	 43.0222 	 35.1193 	 
C 	 -5.21596 	 44.4873 	 35.5942 	 
C 	 -3.92193 	 44.4044 	 35.2193 	 
C 	 -3.75211 	 43.3701 	 34.1923 	 
C 	 -4.9289 	 42.6421 	 33.9904 	 
H 	 -3.31744 	 45.2184 	 35.5983 	 
C 	 -2.37197 	 43.0643 	 33.6165 	 
H 	 -2.0852 	 42.1776 	 34.1427 	 
H 	 -1.77029 	 43.8051 	 33.987 	 
C 	 -2.32164 	 42.9854 	 32.1056 	 
H 	 -2.66008 	 43.9422 	 31.5948 	 
H 	 -2.99578 	 42.2442 	 31.7779 	 
C 	 -0.928239 	 42.6031 	 31.6415 	 
H 	 -0.535018 	 41.6728 	 32.1214 	 
H 	 -0.264092 	 43.3801 	 31.8261 	 
H 	 -0.866787 	 42.468 	 30.5732 	 
H 	 -6.99148 	 38.8432 	 31.3459 	 
H 	 -5.43174 	 44.9908 	 36.4261 	 
*
