! wB97X-D3 SP def2-SVP
%pal
nprocs 16
end

* xyz 0 1
S 	 -11.8734 	 -4.85587 	 84.1498 	 
C 	 -11.1438 	 -4.63477 	 85.783 	 
C 	 -11.438 	 -5.68324 	 86.5915 	 
C 	 -12.3343 	 -6.61669 	 85.9903 	 
C 	 -12.5308 	 -6.42661 	 84.5905 	 
H 	 -12.803 	 -7.49398 	 86.4012 	 
C 	 -10.9161 	 -5.93805 	 87.9932 	 
H 	 -9.86506 	 -5.58383 	 88.133 	 
H 	 -10.7545 	 -6.96208 	 88.089 	 
C 	 -11.8266 	 -5.31763 	 89.099 	 
H 	 -12.2227 	 -4.41364 	 88.6627 	 
H 	 -12.6004 	 -6.07833 	 89.2575 	 
C 	 -11.0703 	 -5.01703 	 90.3734 	 
H 	 -10.1609 	 -4.50398 	 90.1227 	 
H 	 -11.5599 	 -4.35842 	 91.1139 	 
H 	 -10.8423 	 -5.90632 	 90.9639 	 
S 	 -14.319 	 -6.53238 	 82.5642 	 
C 	 -14.7389 	 -8.09849 	 81.8485 	 
C 	 -14.1971 	 -9.11694 	 82.5126 	 
C 	 -13.4038 	 -8.77363 	 83.6221 	 
C 	 -13.231 	 -7.36895 	 83.7172 	 
H 	 -14.4595 	 -10.1268 	 82.1669 	 
C 	 -12.7544 	 -9.86082 	 84.3689 	 
H 	 -11.8133 	 -9.38521 	 84.7242 	 
H 	 -12.4437 	 -10.6557 	 83.7197 	 
C 	 -13.6483 	 -10.2011 	 85.6142 	 
H 	 -14.7102 	 -10.1137 	 85.3208 	 
H 	 -13.4663 	 -9.55014 	 86.4203 	 
C 	 -13.1238 	 -11.5533 	 86.0442 	 
H 	 -13.4286 	 -12.2928 	 85.3475 	 
H 	 -13.5496 	 -11.7869 	 87.0442 	 
H 	 -12.0854 	 -11.6185 	 86.1067 	 
H 	 -10.5865 	 -3.73569 	 86.0817 	 
H 	 -15.3551 	 -8.21367 	 81.0102 	 
*
