! wB97X-D3 SP def2-SVP
%pal
nprocs 16
end

* xyz 0 1
S 	 -47.9263 	 6.31917 	 87.4292 	 
C 	 -47.8965 	 6.45924 	 89.2099 	 
C 	 -49.0315 	 5.87885 	 89.744 	 
C 	 -50.0113 	 5.54211 	 88.7303 	 
C 	 -49.5851 	 5.86917 	 87.4637 	 
H 	 -50.9292 	 5.17575 	 89.0972 	 
C 	 -49.3203 	 5.62366 	 91.2033 	 
H 	 -48.6721 	 4.7739 	 91.4906 	 
H 	 -50.3751 	 5.36916 	 91.396 	 
C 	 -48.9863 	 6.77361 	 92.1818 	 
H 	 -49.3687 	 6.45865 	 93.2006 	 
H 	 -47.9365 	 6.92108 	 92.3104 	 
C 	 -49.535 	 8.15523 	 91.8119 	 
H 	 -48.7811 	 8.82383 	 91.2727 	 
H 	 -50.5283 	 8.06389 	 91.3492 	 
H 	 -49.7157 	 8.70412 	 92.7894 	 
S 	 -49.8603 	 4.65245 	 85.0531 	 
C 	 -51.1184 	 5.00129 	 83.949 	 
C 	 -52.0191 	 5.86549 	 84.5484 	 
C 	 -51.6772 	 6.24637 	 85.9174 	 
C 	 -50.4067 	 5.74158 	 86.3129 	 
H 	 -52.8584 	 6.16902 	 83.967 	 
C 	 -52.5978 	 7.16409 	 86.7567 	 
H 	 -52.3844 	 8.24467 	 86.5923 	 
H 	 -52.3211 	 6.93973 	 87.7384 	 
C 	 -54.1274 	 7.10807 	 86.5215 	 
H 	 -54.4445 	 6.08239 	 86.5301 	 
H 	 -54.3568 	 7.67731 	 85.5821 	 
C 	 -54.7307 	 7.87482 	 87.7389 	 
H 	 -54.495 	 7.37234 	 88.6953 	 
H 	 -55.7778 	 7.92935 	 87.8688 	 
H 	 -54.3036 	 8.84627 	 87.7872 	 
H 	 -47.0831 	 6.80594 	 89.8547 	 
H 	 -51.2028 	 4.60001 	 82.9321 	 
*
