! wB97X-D3 SP def2-SVP
%pal
nprocs 16
end

* xyz 0 1
S 	 51.3542 	 24.2567 	 89.1535 	 
C 	 49.6731 	 23.9594 	 88.7146 	 
C 	 49.4989 	 22.642 	 88.2703 	 
C 	 50.6624 	 21.841 	 88.4866 	 
C 	 51.7238 	 22.5873 	 88.7809 	 
H 	 50.9207 	 20.7955 	 88.3977 	 
C 	 48.2039 	 22.0118 	 87.8591 	 
H 	 47.5232 	 22.069 	 88.7755 	 
H 	 48.4235 	 20.9568 	 87.6193 	 
C 	 47.4768 	 22.7014 	 86.6761 	 
H 	 47.5166 	 23.7543 	 86.694 	 
H 	 48.0619 	 22.3073 	 85.8668 	 
C 	 46.0002 	 22.3152 	 86.4506 	 
H 	 45.8132 	 22.7589 	 85.446 	 
H 	 45.9487 	 21.244 	 86.4824 	 
H 	 45.2315 	 22.6876 	 87.1284 	 
S 	 53.9858 	 22.7992 	 90.3428 	 
C 	 54.9684 	 21.3711 	 90.5159 	 
C 	 54.8705 	 20.5136 	 89.3921 	 
C 	 53.7602 	 20.9279 	 88.5691 	 
C 	 53.0799 	 22.0554 	 89.0329 	 
H 	 55.6489 	 19.7968 	 89.2252 	 
C 	 53.3074 	 19.9859 	 87.4266 	 
H 	 54.1606 	 19.7531 	 86.7392 	 
H 	 52.5727 	 20.5353 	 86.7885 	 
C 	 52.6732 	 18.6824 	 87.9306 	 
H 	 51.6681 	 18.983 	 88.3519 	 
H 	 53.311 	 18.2504 	 88.7282 	 
C 	 52.3729 	 17.5561 	 86.954 	 
H 	 51.6674 	 16.7078 	 87.2576 	 
H 	 53.2699 	 16.9678 	 86.6707 	 
H 	 51.8863 	 18.0519 	 86.1554 	 
H 	 48.9197 	 24.7989 	 88.8252 	 
H 	 55.7409 	 21.2066 	 91.3063 	 
*
