! wB97X-D3 SP def2-SVP
%pal
nprocs 16
end

* xyz 0 1
S 	 -15.8774 	 34.672 	 37.1798 	 
C 	 -15.8663 	 35.6603 	 38.6154 	 
C 	 -14.9465 	 36.6583 	 38.5299 	 
C 	 -14.1955 	 36.576 	 37.2837 	 
C 	 -14.7524 	 35.6626 	 36.4145 	 
H 	 -13.4466 	 37.3011 	 36.845 	 
C 	 -14.5558 	 37.5664 	 39.6196 	 
H 	 -13.5083 	 37.4907 	 39.6534 	 
H 	 -15.0153 	 37.1688 	 40.4817 	 
C 	 -15.0139 	 39.032 	 39.3992 	 
H 	 -14.5319 	 39.333 	 38.5091 	 
H 	 -16.089 	 39.1948 	 39.2258 	 
C 	 -14.4416 	 40.0342 	 40.4451 	 
H 	 -14.9921 	 39.9577 	 41.4163 	 
H 	 -13.3903 	 39.9615 	 40.5609 	 
H 	 -14.6206 	 41.0979 	 40.173 	 
S 	 -13.6144 	 33.605 	 35.0352 	 
C 	 -13.2893 	 33.8773 	 33.4302 	 
C 	 -13.3353 	 35.1566 	 33.0189 	 
C 	 -13.9667 	 36.0106 	 33.9893 	 
C 	 -14.3252 	 35.2679 	 35.1067 	 
H 	 -13.0156 	 35.3515 	 32.0631 	 
C 	 -14.1533 	 37.5052 	 33.7916 	 
H 	 -13.6672 	 37.7894 	 32.854 	 
H 	 -13.51 	 37.9237 	 34.554 	 
C 	 -15.6253 	 38.104 	 33.6076 	 
H 	 -16.2328 	 37.4226 	 34.2101 	 
H 	 -15.9269 	 37.9254 	 32.5743 	 
C 	 -15.794 	 39.5464 	 34.0558 	 
H 	 -15.9279 	 39.5548 	 35.1252 	 
H 	 -16.5201 	 40.2631 	 33.7105 	 
H 	 -14.8759 	 40.0728 	 33.857 	 
H 	 -16.4822 	 35.5877 	 39.5237 	 
H 	 -12.8088 	 33.2657 	 32.739 	 
*
