! wB97X-D3 SP def2-SVP
%pal
nprocs 16
end

* xyz 0 1
S 	 2.45253 	 -11.1155 	 53.7767 	 
C 	 1.79885 	 -11.5809 	 52.2187 	 
C 	 1.15621 	 -12.798 	 52.2346 	 
C 	 1.47313 	 -13.5232 	 53.4549 	 
C 	 2.15601 	 -12.7512 	 54.3757 	 
H 	 1.19223 	 -14.5649 	 53.71 	 
C 	 0.342459 	 -13.3123 	 51.083 	 
H 	 1.0532 	 -13.6362 	 50.3037 	 
H 	 -0.0972299 	 -12.4106 	 50.6392 	 
C 	 -0.515365 	 -14.5973 	 51.2068 	 
H 	 -1.15419 	 -14.7598 	 50.2571 	 
H 	 0.1841 	 -15.4659 	 51.3341 	 
C 	 -1.53884 	 -14.6349 	 52.404 	 
H 	 -2.10623 	 -15.5431 	 52.4649 	 
H 	 -1.1696 	 -14.4152 	 53.3873 	 
H 	 -2.26334 	 -13.8124 	 52.335 	 
S 	 4.23094 	 -12.7014 	 56.1911 	 
C 	 4.1891 	 -13.4541 	 57.7055 	 
C 	 2.9522 	 -13.9943 	 57.8997 	 
C 	 2.08634 	 -13.9176 	 56.7502 	 
C 	 2.62192 	 -13.2049 	 55.7082 	 
H 	 2.72459 	 -14.5506 	 58.7719 	 
C 	 0.685037 	 -14.4803 	 56.8591 	 
H 	 0.874411 	 -15.4616 	 57.3389 	 
H 	 0.294132 	 -14.6804 	 55.8076 	 
C 	 -0.279179 	 -13.6483 	 57.6213 	 
H 	 -0.291365 	 -12.7064 	 57.1305 	 
H 	 -0.0584169 	 -13.4209 	 58.6625 	 
C 	 -1.72335 	 -14.1473 	 57.608 	 
H 	 -2.43817 	 -13.3338 	 57.5345 	 
H 	 -1.9547 	 -14.6209 	 58.6294 	 
H 	 -2.01326 	 -14.7947 	 56.8493 	 
H 	 1.69229 	 -10.8555 	 51.4219 	 
H 	 4.92471 	 -13.5218 	 58.4902 	 
*
