! wB97X-D3 SP def2-SVP
%pal
nprocs 16
end

* xyz 0 1
S 	 44.6083 	 10.3889 	 82.5477 	 
C 	 43.2772 	 10.1176 	 81.4299 	 
C 	 42.4102 	 11.1865 	 81.445 	 
C 	 42.796 	 12.1283 	 82.4066 	 
C 	 43.923 	 11.8604 	 83.1721 	 
H 	 42.506 	 13.1752 	 82.4129 	 
C 	 41.1111 	 11.2354 	 80.5915 	 
H 	 41.3479 	 11.0649 	 79.5399 	 
H 	 40.63 	 12.2007 	 80.6395 	 
C 	 40.0452 	 10.2772 	 81.1356 	 
H 	 40.3524 	 9.24285 	 81.0941 	 
H 	 40.0326 	 10.245 	 82.1703 	 
C 	 38.5857 	 10.4798 	 80.5633 	 
H 	 38.5684 	 10.3131 	 79.4937 	 
H 	 38.0599 	 9.61786 	 81.0147 	 
H 	 38.0819 	 11.4752 	 80.6999 	 
S 	 44.9726 	 12.1299 	 85.7308 	 
C 	 46.1784 	 13.3464 	 85.9448 	 
C 	 46.2458 	 14.2466 	 84.8808 	 
C 	 45.4557 	 13.8936 	 83.7464 	 
C 	 44.7778 	 12.6837 	 84.0304 	 
H 	 46.858 	 15.1841 	 85.0072 	 
C 	 45.434 	 14.7404 	 82.4271 	 
H 	 44.6066 	 15.462 	 82.5653 	 
H 	 44.9575 	 14.0592 	 81.6641 	 
C 	 46.6622 	 15.3962 	 82.0816 	 
H 	 47.1262 	 15.9145 	 82.9125 	 
H 	 46.4116 	 16.1967 	 81.3748 	 
C 	 47.6666 	 14.4576 	 81.4375 	 
H 	 47.8399 	 13.5914 	 82.0668 	 
H 	 48.6247 	 14.9709 	 81.2897 	 
H 	 47.3556 	 14.2185 	 80.3833 	 
H 	 43.1339 	 9.21964 	 80.7958 	 
H 	 46.4653 	 13.6144 	 86.9371 	 
*
