! wB97X-D3 SP def2-SVP
%pal
nprocs 16
end

* xyz 0 1
S 	 5.97078 	 75.8954 	 47.942 	 
C 	 4.82751 	 74.7188 	 47.2911 	 
C 	 5.40727 	 73.4643 	 47.3822 	 
C 	 6.76079 	 73.4371 	 48.007 	 
C 	 7.22065 	 74.6699 	 48.4106 	 
H 	 7.38319 	 72.6258 	 48.2305 	 
C 	 4.73995 	 72.1325 	 46.9509 	 
H 	 3.77734 	 72.3201 	 46.4209 	 
H 	 4.54481 	 71.4858 	 47.9476 	 
C 	 5.54718 	 71.2907 	 45.9308 	 
H 	 5.51903 	 71.808 	 45.0355 	 
H 	 6.57654 	 71.2154 	 46.1591 	 
C 	 4.97178 	 69.7798 	 45.8331 	 
H 	 4.00012 	 69.8886 	 45.3999 	 
H 	 5.49255 	 69.1945 	 45.1426 	 
H 	 4.80491 	 69.23 	 46.752 	 
S 	 9.95576 	 74.8559 	 48.1016 	 
C 	 10.8766 	 75.0162 	 49.5882 	 
C 	 10.1171 	 75.1566 	 50.7337 	 
C 	 8.72794 	 75.0869 	 50.422 	 
C 	 8.46797 	 74.9161 	 49.0778 	 
H 	 10.6157 	 75.3588 	 51.7033 	 
C 	 7.70113 	 75.3127 	 51.5127 	 
H 	 7.00899 	 75.9477 	 50.9825 	 
H 	 8.08939 	 75.9793 	 52.2518 	 
C 	 7.31731 	 73.9827 	 52.1801 	 
H 	 8.28917 	 73.4716 	 52.3519 	 
H 	 6.76303 	 73.2917 	 51.5556 	 
C 	 6.6005 	 74.1632 	 53.5265 	 
H 	 6.58117 	 73.3695 	 54.284 	 
H 	 5.59619 	 74.4908 	 53.3468 	 
H 	 7.01193 	 74.9905 	 54.0925 	 
H 	 3.86557 	 74.8841 	 46.7951 	 
H 	 11.9712 	 75.044 	 49.6521 	 
*
