! wB97X-D3 SP def2-SVP
%pal
nprocs 16
end

* xyz 0 1
S 	 8.75861 	 -10.1412 	 65.0576 	 
C 	 8.39662 	 -9.66541 	 66.6674 	 
C 	 9.18414 	 -10.2856 	 67.6532 	 
C 	 10.1074 	 -11.2019 	 66.9793 	 
C 	 9.98623 	 -11.3509 	 65.6386 	 
H 	 10.8397 	 -11.829 	 67.3928 	 
C 	 8.8695 	 -10.1887 	 69.17 	 
H 	 8.37846 	 -11.1351 	 69.5513 	 
H 	 8.11163 	 -9.39508 	 69.2556 	 
C 	 10.0301 	 -9.89444 	 70.0791 	 
H 	 10.8287 	 -10.6936 	 70.0421 	 
H 	 10.4937 	 -9.03758 	 69.6904 	 
C 	 9.44068 	 -9.68266 	 71.4792 	 
H 	 10.1692 	 -9.56032 	 72.2352 	 
H 	 8.87805 	 -8.77594 	 71.616 	 
H 	 8.83722 	 -10.5382 	 71.8638 	 
S 	 12.1795 	 -10.96 	 64.1695 	 
C 	 12.9095 	 -12.3392 	 63.3712 	 
C 	 12.3026 	 -13.5258 	 63.7553 	 
C 	 11.1008 	 -13.3763 	 64.4625 	 
C 	 10.8968 	 -12.017 	 64.7514 	 
H 	 12.7689 	 -14.3811 	 63.3631 	 
C 	 10.3952 	 -14.5252 	 65.0427 	 
H 	 10.2729 	 -14.4359 	 66.1087 	 
H 	 11.0328 	 -15.3811 	 64.9682 	 
C 	 9.04257 	 -14.9501 	 64.2897 	 
H 	 9.28084 	 -15.3846 	 63.3525 	 
H 	 8.39355 	 -14.067 	 64.1054 	 
C 	 8.26149 	 -16.0253 	 65.0746 	 
H 	 8.75175 	 -16.925 	 65.1229 	 
H 	 7.29707 	 -16.2064 	 64.5866 	 
H 	 8.12031 	 -15.6986 	 66.0889 	 
H 	 7.50836 	 -9.12235 	 66.976 	 
H 	 13.8404 	 -12.3421 	 62.7885 	 
*
