! wB97X-D3 SP def2-SVP
%pal
nprocs 16
end

* xyz 0 1
S 	 55.0165 	 12.8074 	 75.9461 	 
C 	 56.1147 	 14.2203 	 75.7459 	 
C 	 57.3366 	 13.8082 	 75.347 	 
C 	 57.4946 	 12.3766 	 75.3801 	 
C 	 56.3403 	 11.7316 	 75.65 	 
H 	 58.3474 	 11.8531 	 75.0958 	 
C 	 58.4074 	 14.7237 	 74.9277 	 
H 	 58.012 	 15.6758 	 74.453 	 
H 	 58.8796 	 14.1506 	 74.1271 	 
C 	 59.4548 	 15.1504 	 76.0298 	 
H 	 59.8706 	 14.17 	 76.4388 	 
H 	 60.3078 	 15.6749 	 75.638 	 
C 	 59.0118 	 15.9444 	 77.3023 	 
H 	 58.0836 	 15.5364 	 77.6245 	 
H 	 59.766 	 15.8733 	 78.0807 	 
H 	 58.9194 	 17.0044 	 77.0757 	 
S 	 55.5338 	 9.79818 	 77.4559 	 
C 	 55.8999 	 8.18896 	 77.3052 	 
C 	 56.3862 	 7.90958 	 76.0319 	 
C 	 56.513 	 9.08814 	 75.2285 	 
C 	 56.1432 	 10.2668 	 75.8706 	 
H 	 56.8073 	 6.98574 	 75.7134 	 
C 	 57.1349 	 8.94533 	 73.8182 	 
H 	 57.8182 	 8.04757 	 73.7368 	 
H 	 57.7804 	 9.81323 	 73.6017 	 
C 	 56.1636 	 8.7892 	 72.6694 	 
H 	 55.4809 	 9.67132 	 72.6306 	 
H 	 55.6403 	 7.95511 	 72.973 	 
C 	 56.8398 	 8.61775 	 71.2377 	 
H 	 57.8073 	 9.17311 	 71.0901 	 
H 	 56.1135 	 8.83337 	 70.4515 	 
H 	 57.1305 	 7.57716 	 71.1289 	 
H 	 55.8414 	 15.2201 	 75.9519 	 
H 	 55.7686 	 7.36449 	 77.9999 	 
*
