! wB97X-D3 SP def2-SVP
%pal
nprocs 16
end

* xyz 0 1
S 	 -31.0628 	 56.2501 	 109.343 	 
C 	 -32.045 	 57.0777 	 108.127 	 
C 	 -33.0284 	 56.2732 	 107.524 	 
C 	 -32.8536 	 54.9529 	 107.943 	 
C 	 -31.8062 	 54.7703 	 108.834 	 
H 	 -33.3584 	 54.1003 	 107.576 	 
C 	 -33.9597 	 56.8021 	 106.483 	 
H 	 -34.5837 	 56.0306 	 106.077 	 
H 	 -33.3631 	 57.3058 	 105.687 	 
C 	 -35.1001 	 57.747 	 106.939 	 
H 	 -35.7251 	 57.2411 	 107.633 	 
H 	 -34.6347 	 58.5465 	 107.51 	 
C 	 -35.9157 	 58.3411 	 105.752 	 
H 	 -36.116 	 57.5795 	 104.999 	 
H 	 -36.6784 	 59.0564 	 106.108 	 
H 	 -35.1718 	 58.9644 	 105.261 	 
S 	 -32.7225 	 52.8405 	 110.504 	 
C 	 -31.6289 	 51.4434 	 110.742 	 
C 	 -30.3895 	 51.6417 	 110.238 	 
C 	 -30.2711 	 52.9245 	 109.606 	 
C 	 -31.4538 	 53.5546 	 109.522 	 
H 	 -29.6576 	 50.8997 	 110.27 	 
C 	 -29.0172 	 53.3686 	 108.831 	 
H 	 -29.2001 	 54.2212 	 108.175 	 
H 	 -28.6729 	 52.4836 	 108.229 	 
C 	 -27.7949 	 53.5958 	 109.788 	 
H 	 -27.6768 	 52.8805 	 110.537 	 
H 	 -28.1017 	 54.402 	 110.433 	 
C 	 -26.4731 	 53.9156 	 109.158 	 
H 	 -25.7942 	 54.1191 	 109.978 	 
H 	 -26.4884 	 54.7639 	 108.477 	 
H 	 -26.0064 	 53.0655 	 108.632 	 
H 	 -32.0005 	 58.0915 	 108.023 	 
H 	 -31.8362 	 50.5204 	 111.268 	 
*
