! wB97X-D3 SP def2-SVP
%pal
nprocs 16
end

* xyz 0 1
S 	 -110.069 	 55.0547 	 115.318 	 
C 	 -110.498 	 55.4188 	 113.641 	 
C 	 -110.29 	 54.3349 	 112.847 	 
C 	 -109.756 	 53.2407 	 113.523 	 
C 	 -109.484 	 53.4929 	 114.852 	 
H 	 -109.437 	 52.2697 	 113.134 	 
C 	 -110.627 	 54.2869 	 111.392 	 
H 	 -111.706 	 54.1787 	 111.214 	 
H 	 -110.206 	 53.3224 	 111.079 	 
C 	 -110.048 	 55.3875 	 110.468 	 
H 	 -110.612 	 56.2229 	 110.636 	 
H 	 -109.121 	 55.5941 	 110.896 	 
C 	 -110.036 	 55.143 	 108.887 	 
H 	 -109.888 	 55.9954 	 108.25 	 
H 	 -109.318 	 54.3583 	 108.725 	 
H 	 -111.069 	 54.791 	 108.539 	 
S 	 -107.5 	 53.088 	 116.653 	 
C 	 -107.545 	 51.8033 	 117.823 	 
C 	 -108.355 	 50.7938 	 117.269 	 
C 	 -109.188 	 51.2671 	 116.158 	 
C 	 -108.867 	 52.5656 	 115.789 	 
H 	 -108.395 	 49.8407 	 117.72 	 
C 	 -110.341 	 50.4489 	 115.611 	 
H 	 -109.95 	 49.4346 	 115.771 	 
H 	 -110.442 	 50.6049 	 114.546 	 
C 	 -111.697 	 50.5244 	 116.208 	 
H 	 -111.659 	 50.1874 	 117.236 	 
H 	 -112.424 	 49.8648 	 115.722 	 
C 	 -112.354 	 51.906 	 116.236 	 
H 	 -112.838 	 52.1367 	 115.261 	 
H 	 -111.642 	 52.6263 	 116.465 	 
H 	 -113.113 	 51.9487 	 116.927 	 
H 	 -111.062 	 56.3448 	 113.314 	 
H 	 -106.945 	 51.7844 	 118.712 	 
*
