! wB97X-D3 SP def2-SVP
%pal
nprocs 16
end

* xyz 0 1
S 	 -47.8743 	 61.3173 	 131.482 	 
C 	 -48.0048 	 59.5251 	 131.393 	 
C 	 -46.7663 	 58.9786 	 131.784 	 
C 	 -45.8538 	 59.9261 	 132.242 	 
C 	 -46.3458 	 61.1752 	 132.342 	 
H 	 -44.9515 	 59.723 	 132.704 	 
C 	 -46.4442 	 57.4926 	 131.852 	 
H 	 -45.4895 	 57.3628 	 132.459 	 
H 	 -46.1685 	 57.163 	 130.858 	 
C 	 -47.3972 	 56.4808 	 132.466 	 
H 	 -46.7628 	 55.5652 	 132.65 	 
H 	 -47.6596 	 56.6066 	 133.474 	 
C 	 -48.6739 	 56.1914 	 131.735 	 
H 	 -49.4371 	 56.945 	 131.871 	 
H 	 -48.6292 	 56.0648 	 130.688 	 
H 	 -49.194 	 55.2228 	 132.041 	 
S 	 -45.4554 	 63.677 	 131.582 	 
C 	 -44.1465 	 64.4355 	 132.409 	 
C 	 -43.8913 	 63.7437 	 133.562 	 
C 	 -44.7165 	 62.5733 	 133.751 	 
C 	 -45.5935 	 62.3478 	 132.695 	 
H 	 -43.1497 	 64.0828 	 134.329 	 
C 	 -44.493 	 61.6711 	 135.035 	 
H 	 -43.7598 	 62.1532 	 135.675 	 
H 	 -43.9598 	 60.8042 	 134.719 	 
C 	 -45.778 	 61.2751 	 135.723 	 
H 	 -46.4993 	 61.0276 	 134.961 	 
H 	 -46.1699 	 62.2153 	 136.198 	 
C 	 -45.5974 	 60.077 	 136.709 	 
H 	 -46.6122 	 59.8474 	 137.027 	 
H 	 -45.1212 	 60.3293 	 137.701 	 
H 	 -45.1848 	 59.1123 	 136.244 	 
H 	 -48.8158 	 58.9027 	 130.996 	 
H 	 -43.6871 	 65.3466 	 132.133 	 
*
