! wB97X-D3 SP def2-SVP
%pal
nprocs 16
end

* xyz 0 1
S 	 -34.2186 	 64.5157 	 139.651 	 
C 	 -33.1199 	 64.4457 	 138.306 	 
C 	 -32.5413 	 65.7436 	 138.048 	 
C 	 -32.6791 	 66.4954 	 139.228 	 
C 	 -33.4469 	 65.8849 	 140.25 	 
H 	 -32.1777 	 67.4811 	 139.342 	 
C 	 -31.5209 	 66.1629 	 136.957 	 
H 	 -31.3948 	 67.2667 	 136.945 	 
H 	 -31.8233 	 65.7987 	 136.063 	 
C 	 -30.1584 	 65.4548 	 137.107 	 
H 	 -30.3956 	 64.4168 	 137.397 	 
H 	 -29.8837 	 65.489 	 136.038 	 
C 	 -29.173 	 65.9073 	 138.144 	 
H 	 -29.6773 	 66.1405 	 139.112 	 
H 	 -28.2597 	 65.2693 	 138.193 	 
H 	 -28.7974 	 66.8669 	 137.817 	 
S 	 -35.5329 	 67.3563 	 141.548 	 
C 	 -35.2894 	 68.0102 	 143.116 	 
C 	 -34.0692 	 67.6012 	 143.614 	 
C 	 -33.2345 	 66.8021 	 142.666 	 
C 	 -33.9261 	 66.5637 	 141.468 	 
H 	 -33.64 	 67.9422 	 144.553 	 
C 	 -31.8462 	 66.3325 	 142.962 	 
H 	 -31.4771 	 65.6115 	 142.168 	 
H 	 -31.9732 	 65.6703 	 143.856 	 
C 	 -30.7942 	 67.3581 	 143.418 	 
H 	 -30.078 	 66.7952 	 143.982 	 
H 	 -31.1307 	 68.1662 	 144.146 	 
C 	 -30.1662 	 67.9858 	 142.203 	 
H 	 -30.9483 	 68.3563 	 141.455 	 
H 	 -29.4208 	 67.2996 	 141.879 	 
H 	 -29.4598 	 68.7313 	 142.559 	 
H 	 -33.0906 	 63.7241 	 137.517 	 
H 	 -36.0623 	 68.5616 	 143.659 	 
*
