! wB97X-D3 SP def2-SVP
%pal
nprocs 16
end

* xyz 0 1
S 	 57.8937 	 0.213456 	 85.8338 	 
C 	 57.6271 	 1.08277 	 84.3332 	 
C 	 57.5507 	 0.247008 	 83.2582 	 
C 	 57.6633 	 -1.13792 	 83.6833 	 
C 	 57.7607 	 -1.34657 	 85.0407 	 
H 	 57.5086 	 -1.98672 	 83.0119 	 
C 	 57.5231 	 0.731321 	 81.8487 	 
H 	 57.2402 	 -0.107055 	 81.1936 	 
H 	 58.4827 	 0.915308 	 81.408 	 
C 	 56.6145 	 2.0071 	 81.6565 	 
H 	 55.5417 	 1.79983 	 82.0568 	 
H 	 56.8624 	 2.84979 	 82.2337 	 
C 	 56.4612 	 2.35666 	 80.1759 	 
H 	 55.8852 	 3.22997 	 79.967 	 
H 	 57.4608 	 2.47735 	 79.7232 	 
H 	 55.961 	 1.5383 	 79.5942 	 
S 	 56.6681 	 -2.70457 	 87.1546 	 
C 	 56.7565 	 -4.43149 	 87.2742 	 
C 	 57.7093 	 -4.90142 	 86.3768 	 
C 	 58.1236 	 -3.87231 	 85.4867 	 
C 	 57.6138 	 -2.59721 	 85.7029 	 
H 	 57.9145 	 -5.93422 	 86.3907 	 
C 	 59.1031 	 -4.21207 	 84.4113 	 
H 	 59.9 	 -4.72155 	 84.8758 	 
H 	 59.5063 	 -3.23371 	 84.1218 	 
C 	 58.6165 	 -5.01881 	 83.2919 	 
H 	 57.6486 	 -4.67685 	 83.0433 	 
H 	 58.5883 	 -6.10257 	 83.5995 	 
C 	 59.5382 	 -5.00925 	 82.0177 	 
H 	 58.9924 	 -5.33215 	 81.0759 	 
H 	 60.4542 	 -5.60663 	 82.0973 	 
H 	 59.8057 	 -4.00095 	 81.8198 	 
H 	 57.5069 	 2.14509 	 84.2819 	 
H 	 56.1301 	 -5.05931 	 87.8656 	 
*
