! wB97X-D3 SP def2-SVP
%pal
nprocs 16
end

* xyz 0 1
S 	 -50.0688 	 62.4244 	 129.759 	 
C 	 -49.3021 	 61.447 	 128.525 	 
C 	 -50.0888 	 60.995 	 127.564 	 
C 	 -51.4287 	 61.47 	 127.787 	 
C 	 -51.6084 	 62.1738 	 128.988 	 
H 	 -52.3656 	 61.2765 	 127.216 	 
C 	 -49.7349 	 60.2315 	 126.28 	 
H 	 -48.6525 	 60.1879 	 126.222 	 
H 	 -50.0055 	 60.7735 	 125.347 	 
C 	 -50.2164 	 58.8209 	 126.171 	 
H 	 -49.9345 	 58.4078 	 127.009 	 
H 	 -51.2944 	 58.8914 	 126.288 	 
C 	 -49.87 	 58.1353 	 124.938 	 
H 	 -50.5009 	 58.503 	 124.108 	 
H 	 -48.7958 	 58.2015 	 124.619 	 
H 	 -49.9641 	 57.0071 	 125.017 	 
S 	 -53.4747 	 64.185 	 128.723 	 
C 	 -54.8707 	 64.046 	 129.799 	 
C 	 -55.0097 	 62.8683 	 130.43 	 
C 	 -53.7858 	 62.0885 	 130.283 	 
C 	 -52.8624 	 62.7243 	 129.481 	 
H 	 -55.8176 	 62.6526 	 131.112 	 
C 	 -53.594 	 60.8219 	 131.073 	 
H 	 -54.1084 	 60.8818 	 131.97 	 
H 	 -52.5831 	 60.5567 	 131.388 	 
C 	 -54.1897 	 59.5393 	 130.417 	 
H 	 -55.2356 	 59.6993 	 130.37 	 
H 	 -54.0679 	 58.5891 	 130.981 	 
C 	 -53.6493 	 59.1984 	 129.005 	 
H 	 -53.7833 	 59.9829 	 128.264 	 
H 	 -53.9862 	 58.2132 	 128.586 	 
H 	 -52.5779 	 59.0287 	 128.973 	 
H 	 -48.181 	 61.3023 	 128.474 	 
H 	 -55.676 	 64.7336 	 129.761 	 
*
