! wB97X-D3 SP def2-SVP
%pal
nprocs 16
end

* xyz 0 1
S 	 4.28131 	 13.2608 	 87.2331 	 
C 	 2.95724 	 13.8808 	 86.2046 	 
C 	 3.3326 	 13.8409 	 84.8801 	 
C 	 4.41842 	 12.9676 	 84.6562 	 
C 	 5.09029 	 12.5347 	 85.8055 	 
H 	 4.90335 	 12.7346 	 83.7733 	 
C 	 2.60787 	 14.5419 	 83.7767 	 
H 	 2.74356 	 15.6038 	 83.8851 	 
H 	 1.51879 	 14.4101 	 83.802 	 
C 	 2.8772 	 14.1381 	 82.3142 	 
H 	 3.90503 	 14.2284 	 81.9918 	 
H 	 2.63264 	 13.0504 	 82.238 	 
C 	 2.16723 	 15.1867 	 81.4103 	 
H 	 1.15445 	 15.391 	 81.7291 	 
H 	 2.65844 	 16.1785 	 81.3035 	 
H 	 2.22034 	 14.7999 	 80.4206 	 
S 	 5.82539 	 10.0709 	 85.1634 	 
C 	 7.22989 	 9.3872 	 85.8443 	 
C 	 7.91636 	 10.243 	 86.6638 	 
C 	 7.33796 	 11.5524 	 86.6305 	 
C 	 6.1995 	 11.5945 	 85.8764 	 
H 	 8.70774 	 9.95969 	 87.289 	 
C 	 7.934 	 12.6623 	 87.5222 	 
H 	 8.35481 	 12.184 	 88.374 	 
H 	 7.17598 	 13.2625 	 87.9621 	 
C 	 8.80132 	 13.7824 	 86.7776 	 
H 	 8.08427 	 14.3384 	 86.2031 	 
H 	 9.34016 	 13.3303 	 85.9318 	 
C 	 9.66717 	 14.6157 	 87.7225 	 
H 	 9.08566 	 15.2203 	 88.3913 	 
H 	 10.3161 	 15.3308 	 87.175 	 
H 	 10.2407 	 13.9474 	 88.3169 	 
H 	 2.10966 	 14.376 	 86.516 	 
H 	 7.61567 	 8.35855 	 85.727 	 
*
