! wB97X-D3 SP def2-SVP
%pal
nprocs 16
end

* xyz 0 1
S 	 70.4899 	 23.8832 	 79.0953 	 
C 	 71.4934 	 23.7658 	 80.5489 	 
C 	 72.8311 	 24.0906 	 80.2444 	 
C 	 72.958 	 24.6335 	 78.9328 	 
C 	 71.7961 	 24.7679 	 78.2305 	 
H 	 73.9777 	 24.8753 	 78.5215 	 
C 	 74.0571 	 23.8698 	 81.0658 	 
H 	 74.7257 	 23.2355 	 80.4624 	 
H 	 73.6851 	 23.3695 	 81.9946 	 
C 	 74.7561 	 25.1976 	 81.5309 	 
H 	 75.7205 	 24.9669 	 81.9786 	 
H 	 74.8915 	 25.735 	 80.6084 	 
C 	 73.9548 	 26.163 	 82.4781 	 
H 	 74.6863 	 26.7248 	 82.9527 	 
H 	 73.1202 	 26.6239 	 81.9158 	 
H 	 73.458 	 25.5746 	 83.3129 	 
S 	 71.0775 	 24.3644 	 75.5277 	 
C 	 71.3875 	 25.6412 	 74.3772 	 
C 	 71.7945 	 26.7749 	 74.9893 	 
C 	 71.8868 	 26.6689 	 76.4442 	 
C 	 71.6039 	 25.3863 	 76.9067 	 
H 	 71.8855 	 27.6483 	 74.4173 	 
C 	 72.3845 	 27.8023 	 77.2859 	 
H 	 72.5939 	 28.5696 	 76.5193 	 
H 	 73.3559 	 27.4545 	 77.7077 	 
C 	 71.5223 	 28.3788 	 78.3846 	 
H 	 71.2978 	 27.5471 	 79.0447 	 
H 	 70.5203 	 28.6686 	 77.9122 	 
C 	 72.1634 	 29.4482 	 79.2381 	 
H 	 72.1429 	 30.4574 	 78.8241 	 
H 	 73.1107 	 29.2793 	 79.7554 	 
H 	 71.4965 	 29.5761 	 80.0916 	 
H 	 71.2297 	 23.342 	 81.501 	 
H 	 71.182 	 25.6732 	 73.2715 	 
*
