! wB97X-D3 SP def2-SVP
%pal
nprocs 16
end

* xyz 0 1
S 	 -34.0975 	 73.3984 	 153.12 	 
C 	 -32.8621 	 73.1226 	 152.01 	 
C 	 -33.1466 	 72.0663 	 151.15 	 
C 	 -34.5042 	 71.6015 	 151.288 	 
C 	 -35.1426 	 72.1287 	 152.428 	 
H 	 -34.9991 	 70.8646 	 150.647 	 
C 	 -32.2068 	 71.3294 	 150.258 	 
H 	 -32.7185 	 70.9345 	 149.399 	 
H 	 -32.0003 	 70.3945 	 150.773 	 
C 	 -31.0768 	 72.1569 	 149.693 	 
H 	 -31.565 	 73.0494 	 149.217 	 
H 	 -30.461 	 72.5519 	 150.483 	 
C 	 -30.1378 	 71.4332 	 148.642 	 
H 	 -30.6166 	 71.3319 	 147.687 	 
H 	 -29.1655 	 71.9103 	 148.51 	 
H 	 -29.8541 	 70.407 	 148.943 	 
S 	 -37.5596 	 73.2328 	 152.976 	 
C 	 -38.806 	 72.1986 	 153.611 	 
C 	 -38.4772 	 70.8582 	 153.573 	 
C 	 -37.0582 	 70.661 	 153.369 	 
C 	 -36.4848 	 71.8864 	 152.984 	 
H 	 -39.1678 	 70.0488 	 153.792 	 
C 	 -36.3254 	 69.4238 	 153.714 	 
H 	 -35.4598 	 69.524 	 153.164 	 
H 	 -37.0597 	 68.6469 	 153.263 	 
C 	 -35.8753 	 69.1964 	 155.142 	 
H 	 -35.6422 	 68.1708 	 155.434 	 
H 	 -36.7277 	 69.3959 	 155.803 	 
C 	 -34.5641 	 69.9743 	 155.535 	 
H 	 -34.4048 	 69.8017 	 156.582 	 
H 	 -34.5881 	 71.042 	 155.434 	 
H 	 -33.7176 	 69.4695 	 155.005 	 
H 	 -31.8578 	 73.5 	 152.026 	 
H 	 -39.7722 	 72.5138 	 153.816 	 
*
