! wB97X-D3 SP def2-SVP
%pal
nprocs 16
end

* xyz 0 1
S 	 50.1023 	 29.1001 	 42.4003 	 
C 	 51.8285 	 29.3291 	 43.0354 	 
C 	 52.0539 	 28.3885 	 44.0588 	 
C 	 50.896 	 27.5489 	 44.3263 	 
C 	 49.8461 	 27.7639 	 43.5025 	 
H 	 50.8197 	 26.842 	 45.2035 	 
C 	 53.3414 	 28.23 	 44.8233 	 
H 	 54.1617 	 28.3759 	 44.2179 	 
H 	 53.4419 	 27.2086 	 45.0259 	 
C 	 53.516 	 29.0173 	 46.1661 	 
H 	 53.0551 	 29.9371 	 46.0351 	 
H 	 52.9255 	 28.4501 	 46.9035 	 
C 	 54.9371 	 29.212 	 46.6924 	 
H 	 55.3073 	 28.3102 	 46.9573 	 
H 	 55.6543 	 29.5098 	 45.8868 	 
H 	 55.0472 	 29.9122 	 47.5205 	 
S 	 47.1558 	 28.0653 	 44.1787 	 
C 	 46.0447 	 26.7108 	 43.9352 	 
C 	 46.6719 	 25.7048 	 43.2838 	 
C 	 48.0763 	 25.9298 	 43.1791 	 
C 	 48.4958 	 27.1735 	 43.5349 	 
H 	 46.1327 	 24.8108 	 42.9759 	 
C 	 49.0177 	 24.8124 	 42.7005 	 
H 	 49.662 	 25.0484 	 41.7886 	 
H 	 48.4667 	 23.9379 	 42.4047 	 
C 	 50.0348 	 24.4036 	 43.77 	 
H 	 49.5567 	 24.411 	 44.7892 	 
H 	 50.8703 	 25.1266 	 43.6039 	 
C 	 50.4288 	 22.876 	 43.667 	 
H 	 51.1913 	 22.761 	 42.9169 	 
H 	 49.6498 	 22.3054 	 43.2539 	 
H 	 50.6709 	 22.4494 	 44.686 	 
H 	 52.5061 	 30.1854 	 42.721 	 
H 	 44.9852 	 26.6818 	 44.0603 	 
*
