! wB97X-D3 SP def2-SVP
%pal
nprocs 16
end

* xyz 0 1
S 	 -41.9319 	 -1.19226 	 94.237 	 
C 	 -42.3763 	 -2.86962 	 94.2402 	 
C 	 -41.8922 	 -3.48944 	 95.3786 	 
C 	 -41.2314 	 -2.55651 	 96.2444 	 
C 	 -41.2664 	 -1.26988 	 95.8742 	 
H 	 -40.8277 	 -2.90127 	 97.1833 	 
C 	 -42.0724 	 -4.86942 	 95.7458 	 
H 	 -42.6659 	 -5.43466 	 95.051 	 
H 	 -42.7344 	 -4.93531 	 96.6552 	 
C 	 -40.7997 	 -5.72259 	 95.8693 	 
H 	 -40.3023 	 -5.60498 	 96.8589 	 
H 	 -41.101 	 -6.81763 	 95.8655 	 
C 	 -39.6788 	 -5.54308 	 94.8509 	 
H 	 -40.2689 	 -5.45776 	 93.8794 	 
H 	 -39.0994 	 -4.63614 	 95.1585 	 
H 	 -39.0497 	 -6.40069 	 94.6983 	 
S 	 -41.9978 	 0.820441 	 97.5617 	 
C 	 -40.7647 	 1.71539 	 98.4298 	 
C 	 -39.5191 	 1.2513 	 98.0902 	 
C 	 -39.5473 	 0.254286 	 97.0335 	 
C 	 -40.8393 	 -0.145486 	 96.6704 	 
H 	 -38.6122 	 1.6694 	 98.4941 	 
C 	 -38.3275 	 -0.311114 	 96.4188 	 
H 	 -37.6381 	 0.476013 	 96.3761 	 
H 	 -38.6048 	 -0.699386 	 95.4675 	 
C 	 -37.7003 	 -1.41136 	 97.2714 	 
H 	 -38.4242 	 -2.11271 	 97.7027 	 
H 	 -37.1986 	 -0.966828 	 98.1218 	 
C 	 -36.6169 	 -2.2303 	 96.6158 	 
H 	 -37.0745 	 -3.15682 	 96.1945 	 
H 	 -36.0509 	 -2.71036 	 97.4944 	 
H 	 -35.9122 	 -1.73276 	 95.9821 	 
H 	 -42.9111 	 -3.38513 	 93.4332 	 
H 	 -41.0148 	 2.46743 	 99.1416 	 
*
