! wB97X-D3 SP def2-SVP
%pal
nprocs 16
end

* xyz 0 1
S 	 5.69664 	 -12.4177 	 55.1714 	 
C 	 4.16734 	 -12.8114 	 55.9291 	 
C 	 4.16006 	 -14.0647 	 56.5835 	 
C 	 5.39335 	 -14.7544 	 56.3704 	 
C 	 6.35597 	 -14.0293 	 55.6516 	 
H 	 5.56799 	 -15.7002 	 56.8377 	 
C 	 2.90951 	 -14.6582 	 57.3103 	 
H 	 2.65838 	 -15.5361 	 56.6652 	 
H 	 2.10092 	 -13.9911 	 57.157 	 
C 	 2.90828 	 -15.2443 	 58.7206 	 
H 	 1.96664 	 -15.6773 	 58.9102 	 
H 	 3.5107 	 -16.107 	 58.649 	 
C 	 3.49738 	 -14.5034 	 59.873 	 
H 	 4.51923 	 -14.1236 	 59.6452 	 
H 	 2.79221 	 -13.7574 	 60.2176 	 
H 	 3.67101 	 -15.085 	 60.8036 	 
S 	 8.01352 	 -14.5692 	 53.532 	 
C 	 9.72956 	 -15.0197 	 53.8926 	 
C 	 9.84815 	 -15.3071 	 55.24 	 
C 	 8.65774 	 -15.0392 	 56.042 	 
C 	 7.60884 	 -14.5354 	 55.248 	 
H 	 10.7996 	 -15.568 	 55.7114 	 
C 	 8.63588 	 -15.3354 	 57.5703 	 
H 	 7.78764 	 -14.7913 	 58.0675 	 
H 	 9.5825 	 -14.9386 	 58.097 	 
C 	 8.54551 	 -16.8497 	 57.9265 	 
H 	 7.62337 	 -17.2933 	 57.5022 	 
H 	 8.47996 	 -17.0466 	 59.0243 	 
C 	 9.79328 	 -17.7549 	 57.5532 	 
H 	 10.6262 	 -17.6308 	 58.2303 	 
H 	 10.1793 	 -17.4695 	 56.5299 	 
H 	 9.52867 	 -18.8439 	 57.4406 	 
H 	 3.2946 	 -12.1817 	 55.8586 	 
H 	 10.6395 	 -15.1244 	 53.1612 	 
*
