! wB97X-D3 SP def2-SVP
%pal
nprocs 16
end

* xyz 0 1
S 	 35.5108 	 1.95359 	 68.0778 	 
C 	 35.5309 	 3.65216 	 67.7162 	 
C 	 34.6533 	 4.35016 	 68.5528 	 
C 	 34.0473 	 3.44734 	 69.4942 	 
C 	 34.4711 	 2.11948 	 69.3858 	 
H 	 33.4516 	 3.65796 	 70.286 	 
C 	 34.319 	 5.83779 	 68.4508 	 
H 	 35.2519 	 6.31928 	 68.124 	 
H 	 34.2657 	 6.16201 	 69.4971 	 
C 	 33.0862 	 6.27738 	 67.603 	 
H 	 32.2035 	 5.67304 	 67.9357 	 
H 	 32.9105 	 7.37017 	 67.7084 	 
C 	 33.3052 	 6.1427 	 66.0614 	 
H 	 32.3438 	 6.13274 	 65.6139 	 
H 	 33.8272 	 7.07029 	 65.6878 	 
H 	 33.8551 	 5.2288 	 65.7338 	 
S 	 33.1745 	 -0.352621 	 69.0349 	 
C 	 32.6877 	 -1.26226 	 70.4307 	 
C 	 33.2307 	 -0.777382 	 71.5778 	 
C 	 33.8354 	 0.495403 	 71.3826 	 
C 	 33.9383 	 0.90098 	 70.0251 	 
H 	 33.1555 	 -1.34766 	 72.5067 	 
C 	 34.4029 	 1.31027 	 72.5402 	 
H 	 35.3017 	 1.73619 	 72.2032 	 
H 	 34.8134 	 0.633337 	 73.3572 	 
C 	 33.4755 	 2.30141 	 73.3196 	 
H 	 32.9228 	 2.96547 	 72.7069 	 
H 	 34.0607 	 3.0749 	 73.8465 	 
C 	 32.4268 	 1.70442 	 74.2482 	 
H 	 31.7628 	 2.44892 	 74.5608 	 
H 	 32.9003 	 1.27841 	 75.1798 	 
H 	 32.002 	 0.746901 	 73.8181 	 
H 	 36.0599 	 3.9674 	 66.832 	 
H 	 31.9561 	 -2.11406 	 70.4089 	 
*
