! wB97X-D3 SP def2-SVP
%pal
nprocs 16
end

* xyz 0 1
S 	 -25.6342 	 -5.93255 	 87.8083 	 
C 	 -27.3531 	 -6.02434 	 87.501 	 
C 	 -27.8529 	 -4.75272 	 87.3769 	 
C 	 -26.8384 	 -3.74385 	 87.6278 	 
C 	 -25.5712 	 -4.23947 	 87.7927 	 
H 	 -26.8716 	 -2.67501 	 87.4994 	 
C 	 -29.2784 	 -4.3912 	 87.1488 	 
H 	 -29.5284 	 -3.44486 	 87.6096 	 
H 	 -29.8973 	 -5.08212 	 87.7227 	 
C 	 -29.7716 	 -4.42691 	 85.7168 	 
H 	 -29.6829 	 -5.4426 	 85.3751 	 
H 	 -30.7719 	 -4.15169 	 85.5821 	 
C 	 -28.9395 	 -3.53072 	 84.7814 	 
H 	 -27.8715 	 -3.86454 	 84.8969 	 
H 	 -29.3629 	 -3.52654 	 83.8153 	 
H 	 -28.9497 	 -2.48882 	 85.1043 	 
S 	 -23.8555 	 -3.15887 	 89.5524 	 
C 	 -22.6218 	 -2.01225 	 89.0998 	 
C 	 -22.473 	 -2.01364 	 87.7215 	 
C 	 -23.4935 	 -2.73113 	 87.1023 	 
C 	 -24.4097 	 -3.41074 	 87.8988 	 
H 	 -21.7192 	 -1.38383 	 87.4085 	 
C 	 -23.5534 	 -2.70597 	 85.589 	 
H 	 -24.2441 	 -3.41019 	 85.184 	 
H 	 -22.53 	 -3.04679 	 85.4721 	 
C 	 -23.7964 	 -1.2492 	 85.168 	 
H 	 -22.8714 	 -0.72499 	 84.9888 	 
H 	 -24.3567 	 -0.753082 	 85.9865 	 
C 	 -24.6657 	 -1.15467 	 83.903 	 
H 	 -25.6619 	 -1.48812 	 84.0728 	 
H 	 -24.2066 	 -1.79469 	 83.0904 	 
H 	 -24.8215 	 -0.131833 	 83.6659 	 
H 	 -27.9934 	 -6.92911 	 87.2617 	 
H 	 -21.9656 	 -1.47237 	 89.817 	 
*
