! wB97X-D3 SP def2-SVP
%pal
nprocs 16
end

* xyz 0 1
S 	 69.5436 	 19.3524 	 76.1599 	 
C 	 68.5605 	 17.9187 	 76.0799 	 
C 	 67.241 	 18.1957 	 76.0439 	 
C 	 66.9828 	 19.6354 	 76.0832 	 
C 	 68.1341 	 20.3821 	 76.0378 	 
H 	 66.1284 	 20.119 	 75.7516 	 
C 	 66.1837 	 17.1353 	 75.8717 	 
H 	 66.5315 	 16.4425 	 75.1162 	 
H 	 65.1863 	 17.5848 	 75.6962 	 
C 	 65.8495 	 16.4458 	 77.1628 	 
H 	 66.7525 	 15.9732 	 77.6263 	 
H 	 65.6063 	 17.3104 	 77.8508 	 
C 	 64.8229 	 15.2527 	 77.1067 	 
H 	 63.8419 	 15.5908 	 76.6939 	 
H 	 65.1783 	 14.4882 	 76.4019 	 
H 	 64.6065 	 14.8382 	 78.111 	 
S 	 67.6706 	 22.8289 	 77.0223 	 
C 	 68.5111 	 24.2141 	 76.3283 	 
C 	 69.128 	 23.9202 	 75.1866 	 
C 	 68.9392 	 22.5519 	 74.7932 	 
C 	 68.2366 	 21.8001 	 75.7781 	 
H 	 69.7113 	 24.6719 	 74.7212 	 
C 	 69.5832 	 21.9743 	 73.5582 	 
H 	 69.6585 	 20.8666 	 73.7313 	 
H 	 70.6727 	 22.2952 	 73.5703 	 
C 	 68.907 	 22.0757 	 72.1888 	 
H 	 68.0107 	 21.4461 	 72.0868 	 
H 	 69.5879 	 21.6944 	 71.3957 	 
C 	 68.549 	 23.5302 	 71.745 	 
H 	 69.5443 	 23.8781 	 71.5585 	 
H 	 68.1854 	 24.3035 	 72.4498 	 
H 	 67.9518 	 23.5463 	 70.8183 	 
H 	 68.9246 	 16.8406 	 76.0772 	 
H 	 68.4318 	 25.2331 	 76.7684 	 
*
