! wB97X-D3 SP def2-SVP
%pal
nprocs 16
end

* xyz 0 1
S 	 -93.7423 	 58.5948 	 125.907 	 
C 	 -92.1566 	 58.0336 	 126.18 	 
C 	 -92.0851 	 57.4706 	 127.434 	 
C 	 -93.2865 	 57.5939 	 128.159 	 
C 	 -94.2769 	 58.3088 	 127.51 	 
H 	 -93.3718 	 57.3003 	 129.221 	 
C 	 -90.8866 	 56.824 	 128.167 	 
H 	 -90.5579 	 57.4642 	 129.027 	 
H 	 -90.033 	 56.6913 	 127.489 	 
C 	 -91.2423 	 55.4227 	 128.737 	 
H 	 -92.2649 	 55.3217 	 129.095 	 
H 	 -91.2136 	 54.6421 	 128.004 	 
C 	 -90.2714 	 55.0181 	 129.823 	 
H 	 -90.3424 	 53.9685 	 130.215 	 
H 	 -89.2479 	 55.2037 	 129.467 	 
H 	 -90.3201 	 55.6037 	 130.711 	 
S 	 -96.9231 	 57.7244 	 127.581 	 
C 	 -98.0457 	 58.601 	 128.607 	 
C 	 -97.3449 	 59.5143 	 129.434 	 
C 	 -95.9356 	 59.5126 	 129.088 	 
C 	 -95.5645 	 58.6931 	 128.08 	 
H 	 -97.865 	 60.1064 	 130.21 	 
C 	 -95.0344 	 60.5026 	 129.855 	 
H 	 -95.4992 	 61.4118 	 129.879 	 
H 	 -94.1359 	 60.489 	 129.128 	 
C 	 -94.6468 	 60.0535 	 131.311 	 
H 	 -94.1549 	 59.0639 	 131.094 	 
H 	 -95.5439 	 59.8083 	 132.002 	 
C 	 -93.6631 	 60.9087 	 131.97 	 
H 	 -93.6181 	 60.681 	 133.062 	 
H 	 -93.9043 	 62.0046 	 132.076 	 
H 	 -92.6143 	 60.6431 	 131.532 	 
H 	 -91.4251 	 58.1624 	 125.492 	 
H 	 -99.1274 	 58.4916 	 128.65 	 
*
