! wB97X-D3 SP def2-SVP
%pal
nprocs 16
end

* xyz 0 1
S 	 33.3109 	 0.0211432 	 66.8961 	 
C 	 32.9683 	 1.0847 	 68.1665 	 
C 	 31.8897 	 0.613033 	 68.9027 	 
C 	 31.6 	 -0.774276 	 68.5904 	 
C 	 32.3591 	 -1.26129 	 67.5758 	 
H 	 30.9337 	 -1.46666 	 69.106 	 
C 	 31.1475 	 1.35634 	 69.9977 	 
H 	 30.4296 	 0.637034 	 70.4081 	 
H 	 30.6125 	 2.15894 	 69.6295 	 
C 	 32.1527 	 1.90453 	 71.0732 	 
H 	 33.005 	 2.53481 	 70.7671 	 
H 	 31.5615 	 2.38576 	 71.8675 	 
C 	 32.8993 	 0.81768 	 71.8952 	 
H 	 33.6649 	 0.257484 	 71.3179 	 
H 	 33.3071 	 1.24742 	 72.8003 	 
H 	 32.2817 	 0.0352275 	 72.3293 	 
S 	 32.1252 	 -2.87224 	 65.3728 	 
C 	 31.7808 	 -4.54526 	 65.6502 	 
C 	 31.6899 	 -4.91346 	 66.9421 	 
C 	 31.8385 	 -3.8058 	 67.8347 	 
C 	 32.245 	 -2.62183 	 67.1462 	 
H 	 31.3689 	 -5.9624 	 67.1791 	 
C 	 31.6952 	 -3.93455 	 69.3317 	 
H 	 30.6286 	 -3.96407 	 69.3567 	 
H 	 32.1357 	 -3.07896 	 69.7592 	 
C 	 32.3977 	 -5.158 	 69.9795 	 
H 	 33.4797 	 -5.04571 	 69.9834 	 
H 	 32.0676 	 -5.94096 	 69.4378 	 
C 	 32.1614 	 -5.14447 	 71.5361 	 
H 	 32.7997 	 -5.86831 	 72.0822 	 
H 	 31.1509 	 -5.42552 	 71.8174 	 
H 	 32.4908 	 -4.20772 	 71.8868 	 
H 	 33.4369 	 2.11034 	 68.2043 	 
H 	 31.726 	 -5.29722 	 64.9412 	 
*
