! wB97X-D3 SP def2-SVP
%pal
nprocs 16
end

* xyz 0 1
S 	 -39.358 	 20.5207 	 80.4781 	 
C 	 -40.2402 	 19.1188 	 81.02 	 
C 	 -41.2474 	 19.5281 	 81.8431 	 
C 	 -41.4404 	 20.9705 	 81.9318 	 
C 	 -40.4944 	 21.7039 	 81.1853 	 
H 	 -42.2761 	 21.4529 	 82.4637 	 
C 	 -42.3203 	 18.6167 	 82.5205 	 
H 	 -42.3649 	 17.6573 	 82.0604 	 
H 	 -43.2977 	 18.9917 	 82.4991 	 
C 	 -41.9243 	 18.3349 	 83.9926 	 
H 	 -42.249 	 17.3243 	 84.2705 	 
H 	 -40.8209 	 18.2979 	 84.0156 	 
C 	 -42.4932 	 19.3905 	 85.0145 	 
H 	 -43.5336 	 19.0458 	 85.3045 	 
H 	 -41.8052 	 19.4335 	 85.8829 	 
H 	 -42.5685 	 20.4035 	 84.593 	 
S 	 -38.7433 	 23.8582 	 81.2555 	 
C 	 -39.3348 	 25.4368 	 80.9762 	 
C 	 -40.6441 	 25.5127 	 80.5729 	 
C 	 -41.2674 	 24.1859 	 80.7008 	 
C 	 -40.3881 	 23.1806 	 81.0762 	 
H 	 -41.0691 	 26.454 	 80.2683 	 
C 	 -42.6582 	 23.9898 	 80.2289 	 
H 	 -43.1994 	 24.9364 	 80.0403 	 
H 	 -43.3003 	 23.4665 	 80.9916 	 
C 	 -42.8918 	 23.1454 	 78.905 	 
H 	 -42.7102 	 22.0888 	 79.1866 	 
H 	 -42.1871 	 23.4383 	 78.2011 	 
C 	 -44.2839 	 23.3145 	 78.2811 	 
H 	 -44.5536 	 22.7507 	 77.3722 	 
H 	 -44.2873 	 24.3074 	 77.8474 	 
H 	 -45.0074 	 23.0674 	 78.9825 	 
H 	 -39.9561 	 18.071 	 80.8324 	 
H 	 -38.7377 	 26.2171 	 81.0987 	 
*
