! wB97X-D3 SP def2-SVP
%pal
nprocs 16
end

* xyz 0 1
S 	 -7.23739 	 49.7439 	 40.5117 	 
C 	 -8.38945 	 48.6602 	 41.1685 	 
C 	 -7.82462 	 47.5297 	 41.7263 	 
C 	 -6.37619 	 47.6195 	 41.7966 	 
C 	 -5.98655 	 48.7541 	 41.1992 	 
H 	 -5.68107 	 46.983 	 42.277 	 
C 	 -8.62009 	 46.4363 	 42.4703 	 
H 	 -8.16683 	 45.4595 	 42.3666 	 
H 	 -9.57307 	 46.4009 	 41.9359 	 
C 	 -8.84181 	 46.6189 	 43.9176 	 
H 	 -9.25127 	 45.7209 	 44.2184 	 
H 	 -7.84176 	 46.7666 	 44.3755 	 
C 	 -9.8481 	 47.7038 	 44.2386 	 
H 	 -10.8901 	 47.4208 	 43.8914 	 
H 	 -9.92783 	 47.8498 	 45.2717 	 
H 	 -9.49587 	 48.6879 	 43.864 	 
S 	 -3.86577 	 49.3065 	 39.4737 	 
C 	 -2.4495 	 50.0523 	 40.1231 	 
C 	 -2.51989 	 50.1234 	 41.4937 	 
C 	 -3.75679 	 49.6214 	 42.0581 	 
C 	 -4.63616 	 49.2286 	 41.1151 	 
H 	 -1.67757 	 50.6252 	 41.8917 	 
C 	 -4.1358 	 49.8643 	 43.5439 	 
H 	 -5.11731 	 49.5701 	 43.7505 	 
H 	 -4.11894 	 50.9036 	 43.7089 	 
C 	 -3.13401 	 49.1167 	 44.4334 	 
H 	 -2.09436 	 49.5126 	 44.4498 	 
H 	 -3.00439 	 48.1074 	 44.087 	 
C 	 -3.64494 	 49.0166 	 45.8553 	 
H 	 -2.90167 	 48.6196 	 46.5965 	 
H 	 -4.62995 	 48.5665 	 45.8449 	 
H 	 -3.83092 	 49.9858 	 46.2055 	 
H 	 -9.41119 	 48.913 	 41.1734 	 
H 	 -1.577 	 50.5086 	 39.5805 	 
*
