! wB97X-D3 SP def2-SVP
%pal
nprocs 16
end

* xyz 0 1
S 	 -45.0622 	 38.8344 	 85.4404 	 
C 	 -46.4055 	 39.1414 	 86.5769 	 
C 	 -47.6399 	 39.2075 	 85.8437 	 
C 	 -47.4624 	 39.0167 	 84.43 	 
C 	 -46.1414 	 38.7633 	 84.0842 	 
H 	 -48.2453 	 39.0077 	 83.6984 	 
C 	 -49.0048 	 39.3957 	 86.4184 	 
H 	 -49.0066 	 38.6712 	 87.1949 	 
H 	 -49.7928 	 39.0773 	 85.7285 	 
C 	 -49.0815 	 40.8247 	 86.9896 	 
H 	 -49.7165 	 40.9047 	 87.8727 	 
H 	 -48.0408 	 41.0677 	 87.3374 	 
C 	 -49.6298 	 41.8862 	 85.954 	 
H 	 -49.7428 	 42.8414 	 86.3677 	 
H 	 -48.9492 	 41.937 	 85.0822 	 
H 	 -50.5664 	 41.6235 	 85.5457 	 
S 	 -44.612 	 37.2009 	 82.5112 	 
C 	 -44.3821 	 37.5454 	 80.8706 	 
C 	 -45.0776 	 38.6675 	 80.4593 	 
C 	 -45.782 	 39.3162 	 81.5499 	 
C 	 -45.6594 	 38.5991 	 82.7233 	 
H 	 -44.9465 	 38.9593 	 79.4723 	 
C 	 -46.5191 	 40.5382 	 81.3699 	 
H 	 -47.3017 	 40.7036 	 82.1577 	 
H 	 -46.9812 	 40.3786 	 80.3677 	 
C 	 -45.7288 	 41.8131 	 81.2948 	 
H 	 -45.1421 	 41.7912 	 82.2643 	 
H 	 -46.4512 	 42.6603 	 81.3832 	 
C 	 -44.7725 	 42.0303 	 80.0949 	 
H 	 -44.0836 	 42.9404 	 80.1569 	 
H 	 -45.4934 	 42.1809 	 79.3395 	 
H 	 -44.1162 	 41.1372 	 79.8802 	 
H 	 -46.3975 	 39.2457 	 87.6905 	 
H 	 -43.7839 	 37.0209 	 80.1638 	 
*
