! wB97X-D3 SP def2-SVP
%pal
nprocs 16
end

* xyz 0 1
S 	 42.3443 	 20.1123 	 81.5221 	 
C 	 40.838 	 21.0563 	 81.3523 	 
C 	 39.7216 	 20.1882 	 81.3858 	 
C 	 40.0779 	 18.8975 	 81.8219 	 
C 	 41.451 	 18.6546 	 81.9211 	 
H 	 39.3403 	 18.0735 	 81.9858 	 
C 	 38.2911 	 20.5527 	 81.2214 	 
H 	 37.6989 	 19.8739 	 81.8282 	 
H 	 37.9431 	 20.4371 	 80.2101 	 
C 	 37.9093 	 21.9562 	 81.7567 	 
H 	 38.1739 	 21.8629 	 82.8437 	 
H 	 38.56 	 22.6647 	 81.1876 	 
C 	 36.3873 	 22.1817 	 81.5459 	 
H 	 36.273 	 22.6266 	 80.5507 	 
H 	 35.8797 	 21.22 	 81.7483 	 
H 	 36.0688 	 22.8644 	 82.2916 	 
S 	 43.3119 	 16.8045 	 81.0007 	 
C 	 43.4296 	 15.2352 	 81.6357 	 
C 	 42.6384 	 15.1472 	 82.8081 	 
C 	 41.8398 	 16.3173 	 83.001 	 
C 	 42.0844 	 17.3494 	 82.155 	 
H 	 42.6136 	 14.2009 	 83.3491 	 
C 	 40.7682 	 16.3735 	 84.0401 	 
H 	 40.5071 	 17.4669 	 84.0193 	 
H 	 41.2047 	 16.205 	 85.0249 	 
C 	 39.6118 	 15.4496 	 83.6475 	 
H 	 40.0648 	 14.4625 	 83.7657 	 
H 	 39.1408 	 15.5973 	 82.6824 	 
C 	 38.4225 	 15.717 	 84.604 	 
H 	 37.5694 	 15.0951 	 84.3268 	 
H 	 38.1263 	 16.7 	 84.4791 	 
H 	 38.6774 	 15.5777 	 85.657 	 
H 	 40.7772 	 22.126 	 81.0844 	 
H 	 44.045 	 14.4272 	 81.2011 	 
*
