! wB97X-D3 SP def2-SVP
%pal
nprocs 16
end

* xyz 0 1
S 	 -40.3559 	 -1.05229 	 97.6755 	 
C 	 -40.3227 	 -2.09714 	 96.2308 	 
C 	 -40.282 	 -3.45348 	 96.6365 	 
C 	 -40.3189 	 -3.57815 	 98.0355 	 
C 	 -40.3385 	 -2.3884 	 98.7326 	 
H 	 -40.3126 	 -4.45446 	 98.6463 	 
C 	 -40.1133 	 -4.67958 	 95.8356 	 
H 	 -40.1753 	 -5.61207 	 96.4498 	 
H 	 -39.016 	 -4.65442 	 95.5424 	 
C 	 -40.9689 	 -4.74575 	 94.5789 	 
H 	 -41.9566 	 -4.79859 	 94.9998 	 
H 	 -40.8788 	 -3.80129 	 94.115 	 
C 	 -40.759 	 -5.93484 	 93.6484 	 
H 	 -41.1133 	 -6.78882 	 94.1466 	 
H 	 -41.3719 	 -5.82196 	 92.7601 	 
H 	 -39.6885 	 -5.98032 	 93.481 	 
S 	 -41.2321 	 -0.970868 	 100.834 	 
C 	 -40.6062 	 -1.29503 	 102.382 	 
C 	 -39.5561 	 -2.11681 	 102.338 	 
C 	 -39.3078 	 -2.7056 	 101.101 	 
C 	 -40.2044 	 -2.24507 	 100.178 	 
H 	 -38.9923 	 -2.18066 	 103.298 	 
C 	 -38.1638 	 -3.73289 	 100.811 	 
H 	 -37.2948 	 -3.48802 	 101.416 	 
H 	 -37.892 	 -3.64201 	 99.749 	 
C 	 -38.536 	 -5.20123 	 100.983 	 
H 	 -39.2872 	 -5.43998 	 100.267 	 
H 	 -39.0153 	 -5.34389 	 101.985 	 
C 	 -37.2215 	 -6.03919 	 100.999 	 
H 	 -36.4298 	 -5.67537 	 100.308 	 
H 	 -37.3916 	 -7.07709 	 100.703 	 
H 	 -36.738 	 -6.14461 	 101.999 	 
H 	 -40.2095 	 -1.7869 	 95.1831 	 
H 	 -40.8199 	 -0.7092 	 103.281 	 
*
