! wB97X-D3 SP def2-SVP
%pal
nprocs 16
end

* xyz 0 1
S 	 -37.9782 	 54.3103 	 111.608 	 
C 	 -39.4156 	 53.5927 	 112.315 	 
C 	 -39.6868 	 52.3856 	 111.74 	 
C 	 -39.02 	 52.3188 	 110.462 	 
C 	 -38.051 	 53.2683 	 110.245 	 
H 	 -39.049 	 51.4861 	 109.84 	 
C 	 -40.6464 	 51.3275 	 112.241 	 
H 	 -41.5076 	 51.8396 	 112.781 	 
H 	 -40.1958 	 50.876 	 113.091 	 
C 	 -41.182 	 50.3358 	 111.204 	 
H 	 -41.9072 	 50.8871 	 110.626 	 
H 	 -40.3506 	 49.9922 	 110.659 	 
C 	 -41.6844 	 48.9781 	 111.898 	 
H 	 -42.1508 	 48.2172 	 111.277 	 
H 	 -40.823 	 48.5111 	 112.361 	 
H 	 -42.3703 	 49.113 	 112.835 	 
S 	 -35.2722 	 52.775 	 109.912 	 
C 	 -34.6193 	 52.9027 	 108.305 	 
C 	 -35.6057 	 53.1217 	 107.356 	 
C 	 -36.9481 	 53.1298 	 107.935 	 
C 	 -36.9212 	 53.1526 	 109.334 	 
H 	 -35.4648 	 53.1266 	 106.323 	 
C 	 -38.1951 	 53.3478 	 107.07 	 
H 	 -38.0022 	 54.0913 	 106.314 	 
H 	 -38.8184 	 53.9703 	 107.74 	 
C 	 -38.9475 	 52.1567 	 106.459 	 
H 	 -39.9156 	 52.4779 	 106.19 	 
H 	 -39.1893 	 51.5296 	 107.344 	 
C 	 -38.1618 	 51.3821 	 105.362 	 
H 	 -37.8138 	 52.0464 	 104.548 	 
H 	 -38.7758 	 50.5924 	 104.866 	 
H 	 -37.3368 	 50.8322 	 105.722 	 
H 	 -39.8903 	 54.0476 	 113.169 	 
H 	 -33.6649 	 52.575 	 107.98 	 
*
