! wB97X-D3 SP def2-SVP
%pal
nprocs 16
end

* xyz 0 1
S 	 62.3493 	 -4.67721 	 87.6297 	 
C 	 61.4242 	 -3.6219 	 88.6088 	 
C 	 60.6365 	 -4.33888 	 89.5008 	 
C 	 60.9419 	 -5.73887 	 89.491 	 
C 	 61.7063 	 -6.13522 	 88.4095 	 
H 	 60.4524 	 -6.59964 	 90.0074 	 
C 	 59.5911 	 -3.82211 	 90.4421 	 
H 	 59.9754 	 -3.05934 	 91.0189 	 
H 	 59.4563 	 -4.55084 	 91.1497 	 
C 	 58.2751 	 -3.3542 	 89.9047 	 
H 	 57.7957 	 -2.88557 	 90.8122 	 
H 	 58.3119 	 -2.50578 	 89.1976 	 
C 	 57.2542 	 -4.48914 	 89.4567 	 
H 	 56.2295 	 -4.10734 	 89.2034 	 
H 	 57.64 	 -5.04424 	 88.6021 	 
H 	 57.1418 	 -5.2447 	 90.2453 	 
S 	 62.2437 	 -8.8297 	 88.9861 	 
C 	 62.4901 	 -9.91451 	 87.6684 	 
C 	 62.2465 	 -9.30402 	 86.4742 	 
C 	 61.8822 	 -7.94031 	 86.5822 	 
C 	 62.0233 	 -7.49664 	 87.8791 	 
H 	 62.3493 	 -9.86873 	 85.4625 	 
C 	 61.7226 	 -7.06773 	 85.3649 	 
H 	 61.4022 	 -6.07012 	 85.6411 	 
H 	 60.8394 	 -7.56342 	 84.8032 	 
C 	 63.0472 	 -6.92154 	 84.5367 	 
H 	 62.8408 	 -6.49139 	 83.5875 	 
H 	 63.3885 	 -7.90788 	 84.3276 	 
C 	 64.191 	 -6.28946 	 85.3557 	 
H 	 65.1179 	 -6.39768 	 84.7775 	 
H 	 64.297 	 -6.89705 	 86.2396 	 
H 	 64.0464 	 -5.25574 	 85.6032 	 
H 	 61.426 	 -2.55971 	 88.5937 	 
H 	 62.9142 	 -10.8375 	 87.7498 	 
*
