! wB97X-D3 SP def2-SVP
%pal
nprocs 16
end

* xyz 0 1
S 	 40.26 	 11.3981 	 78.3781 	 
C 	 41.1504 	 10.3207 	 79.4455 	 
C 	 41.8884 	 11.0239 	 80.3429 	 
C 	 41.6146 	 12.4088 	 80.2193 	 
C 	 40.8881 	 12.7924 	 79.1179 	 
H 	 41.8671 	 13.2093 	 80.8825 	 
C 	 42.6851 	 10.4239 	 81.4911 	 
H 	 42.0247 	 9.78637 	 82.1464 	 
H 	 43.0127 	 11.2728 	 82.1543 	 
C 	 43.8394 	 9.52941 	 80.9277 	 
H 	 44.4273 	 9.0546 	 81.7044 	 
H 	 43.4312 	 8.57972 	 80.4722 	 
C 	 44.8485 	 10.3211 	 80.0431 	 
H 	 45.5361 	 10.9868 	 80.5914 	 
H 	 45.4313 	 9.53146 	 79.6146 	 
H 	 44.307 	 10.9371 	 79.3076 	 
S 	 38.9936 	 14.3538 	 77.9868 	 
C 	 39.1587 	 16.0728 	 78.0002 	 
C 	 40.415 	 16.4924 	 78.4466 	 
C 	 41.2401 	 15.4061 	 78.8236 	 
C 	 40.5701 	 14.1647 	 78.7448 	 
H 	 40.6301 	 17.5483 	 78.429 	 
C 	 42.6405 	 15.6938 	 79.3784 	 
H 	 42.7465 	 15.1911 	 80.3725 	 
H 	 42.7762 	 16.7321 	 79.7023 	 
C 	 43.8913 	 15.3817 	 78.4945 	 
H 	 44.6962 	 15.8054 	 79.0351 	 
H 	 43.8652 	 15.9994 	 77.579 	 
C 	 44.0915 	 13.9322 	 78.1481 	 
H 	 44.263 	 13.23 	 79.0004 	 
H 	 44.8847 	 13.8099 	 77.4472 	 
H 	 43.1902 	 13.38 	 77.8349 	 
H 	 41.0807 	 9.22632 	 79.377 	 
H 	 38.3711 	 16.7676 	 77.7678 	 
*
