! wB97X-D3 SP def2-SVP
%pal
nprocs 16
end

* xyz 0 1
S 	 -4.4163 	 34.6472 	 52.0253 	 
C 	 -2.79517 	 34.229 	 52.4778 	 
C 	 -2.49656 	 32.9518 	 52.0981 	 
C 	 -3.3607 	 32.4872 	 51.0806 	 
C 	 -4.45458 	 33.3712 	 50.9327 	 
H 	 -3.38505 	 31.5149 	 50.5888 	 
C 	 -1.33149 	 32.1373 	 52.6522 	 
H 	 -1.42415 	 32.2022 	 53.7356 	 
H 	 -0.471378 	 32.7158 	 52.4756 	 
C 	 -1.17605 	 30.6931 	 52.1194 	 
H 	 -2.1308 	 30.1963 	 52.083 	 
H 	 -0.921487 	 30.8157 	 51.1355 	 
C 	 -0.0406065 	 29.9538 	 52.7344 	 
H 	 0.0614374 	 30.0964 	 53.7965 	 
H 	 -0.0542742 	 28.8808 	 52.4474 	 
H 	 0.967608 	 30.268 	 52.3645 	 
S 	 -7.1657 	 33.2666 	 50.9613 	 
C 	 -8.00471 	 32.8421 	 49.5099 	 
C 	 -7.18151 	 32.5326 	 48.5196 	 
C 	 -5.81014 	 32.9068 	 48.738 	 
C 	 -5.60267 	 33.1727 	 50.1114 	 
H 	 -7.63855 	 32.2706 	 47.6204 	 
C 	 -4.71643 	 32.6648 	 47.659 	 
H 	 -4.9529 	 31.8023 	 47.019 	 
H 	 -3.79361 	 32.3632 	 48.1487 	 
C 	 -4.50484 	 33.8485 	 46.7514 	 
H 	 -5.49105 	 34.0068 	 46.2224 	 
H 	 -3.8745 	 33.6428 	 45.9119 	 
C 	 -4.06085 	 35.1158 	 47.4528 	 
H 	 -4.7152 	 35.2839 	 48.2743 	 
H 	 -3.94289 	 35.9833 	 46.8145 	 
H 	 -3.08697 	 34.8244 	 47.857 	 
H 	 -2.30029 	 34.7197 	 53.324 	 
H 	 -9.04498 	 32.7254 	 49.5169 	 
*
