! wB97X-D3 SP def2-SVP
%pal
nprocs 16
end

* xyz 0 1
S 	 -80.1357 	 44.6986 	 140.125 	 
C 	 -80.465 	 43.0685 	 140.518 	 
C 	 -80.0328 	 42.1723 	 139.51 	 
C 	 -79.4455 	 42.8559 	 138.389 	 
C 	 -79.4134 	 44.2195 	 138.578 	 
H 	 -79.0651 	 42.3683 	 137.519 	 
C 	 -80.2902 	 40.6474 	 139.631 	 
H 	 -80.6404 	 40.2342 	 138.719 	 
H 	 -81.1615 	 40.6102 	 140.276 	 
C 	 -79.0624 	 39.8348 	 140.16 	 
H 	 -78.7289 	 40.3646 	 141.029 	 
H 	 -79.3148 	 38.7181 	 140.387 	 
C 	 -77.981 	 39.6502 	 138.989 	 
H 	 -77.8304 	 40.5082 	 138.396 	 
H 	 -77.0637 	 39.3713 	 139.426 	 
H 	 -78.1847 	 38.7754 	 138.345 	 
S 	 -80.6421 	 46.1642 	 137.159 	 
C 	 -79.7414 	 47.044 	 135.937 	 
C 	 -78.3885 	 46.6705 	 135.96 	 
C 	 -78.0827 	 45.5898 	 136.844 	 
C 	 -79.1485 	 45.2674 	 137.661 	 
H 	 -77.6496 	 47.1012 	 135.3 	 
C 	 -76.7654 	 44.8849 	 136.961 	 
H 	 -76.4689 	 44.8909 	 138.031 	 
H 	 -76.0848 	 45.4855 	 136.401 	 
C 	 -76.6532 	 43.4465 	 136.422 	 
H 	 -76.9615 	 42.7231 	 137.16 	 
H 	 -75.6164 	 43.0672 	 136.338 	 
C 	 -77.3659 	 43.1313 	 135.07 	 
H 	 -77.8163 	 43.9662 	 134.647 	 
H 	 -78.1892 	 42.4097 	 135.157 	 
H 	 -76.6062 	 42.8264 	 134.405 	 
H 	 -80.9014 	 42.7334 	 141.444 	 
H 	 -80.1831 	 47.7319 	 135.191 	 
*
