! wB97X-D3 SP def2-SVP
%pal
nprocs 16
end

* xyz 0 1
S 	 -15.0455 	 -11.2996 	 89.0008 	 
C 	 -13.5335 	 -12.29 	 89.1111 	 
C 	 -13.7341 	 -13.2671 	 90.0727 	 
C 	 -15.0658 	 -13.2953 	 90.5801 	 
C 	 -15.8796 	 -12.1979 	 90.2072 	 
H 	 -15.4311 	 -14.0812 	 91.2495 	 
C 	 -12.7908 	 -14.4129 	 90.5458 	 
H 	 -12.4978 	 -14.9903 	 89.688 	 
H 	 -13.3461 	 -15.1451 	 91.0809 	 
C 	 -11.5055 	 -13.9362 	 91.1331 	 
H 	 -11.1104 	 -13.0869 	 90.5966 	 
H 	 -11.7379 	 -13.6369 	 92.1886 	 
C 	 -10.4595 	 -15.0684 	 91.0962 	 
H 	 -10.0791 	 -15.0468 	 90.1088 	 
H 	 -9.57748 	 -14.9947 	 91.73 	 
H 	 -10.8178 	 -16.0958 	 91.1614 	 
S 	 -18.1272 	 -13.0923 	 91.5072 	 
C 	 -19.1968 	 -11.9849 	 92.2559 	 
C 	 -18.87 	 -10.6805 	 91.9419 	 
C 	 -17.7487 	 -10.5643 	 91.1103 	 
C 	 -17.1705 	 -11.783 	 90.7726 	 
H 	 -19.4949 	 -9.90054 	 92.2745 	 
C 	 -17.4691 	 -9.26505 	 90.4331 	 
H 	 -18.1109 	 -9.28362 	 89.5489 	 
H 	 -16.5124 	 -9.19236 	 90.0435 	 
C 	 -17.706 	 -8.03901 	 91.3236 	 
H 	 -17.3133 	 -8.25078 	 92.3513 	 
H 	 -18.7321 	 -7.75867 	 91.5166 	 
C 	 -16.9251 	 -6.83859 	 90.6734 	 
H 	 -16.7798 	 -5.90787 	 91.1889 	 
H 	 -17.4342 	 -6.52278 	 89.6699 	 
H 	 -15.8534 	 -7.05109 	 90.4805 	 
H 	 -12.5628 	 -12.0766 	 88.6222 	 
H 	 -20.0076 	 -12.2674 	 92.9538 	 
*
