! wB97X-D3 SP def2-SVP
%pal
nprocs 16
end

* xyz 0 1
S 	 -1.00216 	 -9.34914 	 53.0501 	 
C 	 -1.50078 	 -9.77604 	 51.406 	 
C 	 -1.10707 	 -11.0761 	 51.0897 	 
C 	 -0.427123 	 -11.8 	 52.1547 	 
C 	 -0.377224 	 -11.0233 	 53.3409 	 
H 	 -0.207487 	 -12.8308 	 52.2426 	 
C 	 -1.62042 	 -11.7682 	 49.8036 	 
H 	 -0.821279 	 -12.2849 	 49.289 	 
H 	 -2.11138 	 -11.0328 	 49.2316 	 
C 	 -2.63614 	 -12.9057 	 50.1268 	 
H 	 -2.95705 	 -13.3753 	 49.2151 	 
H 	 -2.14569 	 -13.7203 	 50.7579 	 
C 	 -4.01145 	 -12.3458 	 50.697 	 
H 	 -3.91433 	 -11.8604 	 51.6467 	 
H 	 -4.36791 	 -11.5598 	 50.1145 	 
H 	 -4.84371 	 -13.0855 	 50.8158 	 
S 	 0.834322 	 -10.1693 	 55.6966 	 
C 	 1.11613 	 -11.339 	 56.9458 	 
C 	 0.449349 	 -12.5106 	 56.7119 	 
C 	 -0.128811 	 -12.5285 	 55.3939 	 
C 	 0.0633534 	 -11.338 	 54.6912 	 
H 	 0.405971 	 -13.3246 	 57.4415 	 
C 	 -0.719257 	 -13.8248 	 54.8566 	 
H 	 -1.33901 	 -13.7626 	 54.0033 	 
H 	 -1.45392 	 -14.2038 	 55.5763 	 
C 	 0.368914 	 -14.9418 	 54.7172 	 
H 	 0.855172 	 -15.2801 	 55.6322 	 
H 	 1.25955 	 -14.5776 	 54.1563 	 
C 	 -0.185882 	 -16.1463 	 53.9348 	 
H 	 -0.954174 	 -16.6568 	 54.5272 	 
H 	 0.549351 	 -16.9309 	 53.7582 	 
H 	 -0.553221 	 -15.8093 	 52.9463 	 
H 	 -2.13998 	 -9.15221 	 50.845 	 
H 	 1.57593 	 -11.0397 	 57.9123 	 
*
