! wB97X-D3 SP def2-SVP
%pal
nprocs 16
end

* xyz 0 1
S 	 -71.4949 	 50.3167 	 139.033 	 
C 	 -70.3596 	 51.7 	 139 	 
C 	 -71.1346 	 52.8271 	 138.949 	 
C 	 -72.534 	 52.6587 	 138.885 	 
C 	 -72.9048 	 51.3236 	 138.878 	 
H 	 -73.2242 	 53.449 	 139.105 	 
C 	 -70.5582 	 54.2286 	 139.093 	 
H 	 -69.4945 	 54.1035 	 139.379 	 
H 	 -71.0648 	 54.6599 	 139.894 	 
C 	 -70.9511 	 55.1804 	 137.831 	 
H 	 -70.1881 	 55.1939 	 137.085 	 
H 	 -71.8932 	 54.9386 	 137.358 	 
C 	 -71.0518 	 56.649 	 138.147 	 
H 	 -70.0731 	 57.0762 	 138.465 	 
H 	 -71.3816 	 57.2649 	 137.282 	 
H 	 -71.572 	 56.8299 	 139.049 	 
S 	 -74.4695 	 48.9638 	 138.623 	 
C 	 -76.1626 	 48.9425 	 138.878 	 
C 	 -76.5527 	 50.2512 	 138.946 	 
C 	 -75.5535 	 51.2764 	 139.025 	 
C 	 -74.2636 	 50.7283 	 138.979 	 
H 	 -77.6628 	 50.4751 	 138.897 	 
C 	 -76.0486 	 52.6953 	 139.143 	 
H 	 -77.118 	 52.7361 	 138.692 	 
H 	 -75.4711 	 53.2742 	 138.41 	 
C 	 -76.076 	 53.2689 	 140.551 	 
H 	 -76.0615 	 54.342 	 140.563 	 
H 	 -75.2529 	 52.9733 	 141.13 	 
C 	 -77.2681 	 52.9001 	 141.318 	 
H 	 -77.3163 	 53.3474 	 142.302 	 
H 	 -77.3285 	 51.7697 	 141.378 	 
H 	 -78.1334 	 53.2925 	 140.783 	 
H 	 -69.3169 	 51.5886 	 139.15 	 
H 	 -76.8646 	 48.1695 	 138.821 	 
*
