! wB97X-D3 SP def2-SVP
%pal
nprocs 16
end

* xyz 0 1
S 	 -104.751 	 52.9723 	 119.485 	 
C 	 -104.633 	 53.9447 	 118.029 	 
C 	 -104.724 	 55.2716 	 118.314 	 
C 	 -104.852 	 55.5158 	 119.7 	 
C 	 -105.014 	 54.3743 	 120.437 	 
H 	 -104.907 	 56.482 	 120.17 	 
C 	 -104.716 	 56.3685 	 117.289 	 
H 	 -104.119 	 55.9447 	 116.446 	 
H 	 -104.045 	 57.1528 	 117.67 	 
C 	 -106.032 	 57.1058 	 116.925 	 
H 	 -106.168 	 57.8599 	 117.694 	 
H 	 -105.768 	 57.7332 	 116.051 	 
C 	 -107.248 	 56.1552 	 116.603 	 
H 	 -108.046 	 56.5948 	 115.95 	 
H 	 -106.965 	 55.365 	 115.966 	 
H 	 -107.718 	 55.6756 	 117.498 	 
S 	 -103.611 	 53.448 	 122.529 	 
C 	 -104.062 	 53.7939 	 124.207 	 
C 	 -105.28 	 54.4653 	 124.209 	 
C 	 -105.887 	 54.7283 	 122.901 	 
C 	 -105.033 	 54.2333 	 121.88 	 
H 	 -105.626 	 55.0116 	 125.059 	 
C 	 -107.195 	 55.5152 	 122.713 	 
H 	 -108.019 	 54.9265 	 123.119 	 
H 	 -107.324 	 55.6526 	 121.642 	 
C 	 -107.188 	 56.8657 	 123.308 	 
H 	 -106.635 	 57.6366 	 122.771 	 
H 	 -106.676 	 56.845 	 124.24 	 
C 	 -108.647 	 57.3523 	 123.365 	 
H 	 -108.973 	 57.696 	 122.367 	 
H 	 -108.732 	 58.2831 	 123.969 	 
H 	 -109.35 	 56.6974 	 123.924 	 
H 	 -104.327 	 53.5464 	 117.105 	 
H 	 -103.397 	 53.6678 	 125.049 	 
*
