! wB97X-D3 SP def2-SVP
%pal
nprocs 16
end

* xyz 0 1
S 	 -1.43418 	 -11.7528 	 80.2037 	 
C 	 -1.93227 	 -10.2888 	 79.3932 	 
C 	 -3.28314 	 -10.1698 	 79.4028 	 
C 	 -3.88519 	 -11.2787 	 80.0401 	 
C 	 -3.06407 	 -12.298 	 80.4623 	 
H 	 -4.98482 	 -11.3475 	 80.0778 	 
C 	 -4.09739 	 -9.08287 	 78.8534 	 
H 	 -4.54385 	 -9.46094 	 77.9151 	 
H 	 -3.43803 	 -8.25847 	 78.7086 	 
C 	 -5.27202 	 -8.66635 	 79.8317 	 
H 	 -5.64823 	 -9.50036 	 80.4012 	 
H 	 -4.85023 	 -7.88982 	 80.5 	 
C 	 -6.47438 	 -8.22895 	 78.9582 	 
H 	 -7.35009 	 -8.11884 	 79.6407 	 
H 	 -6.31641 	 -7.33926 	 78.4248 	 
H 	 -6.76664 	 -9.02982 	 78.2393 	 
S 	 -2.03864 	 -14.7012 	 81.3376 	 
C 	 -3.12631 	 -15.9743 	 81.8087 	 
C 	 -4.42111 	 -15.5217 	 81.7179 	 
C 	 -4.62893 	 -14.1787 	 81.4039 	 
C 	 -3.38295 	 -13.5806 	 81.1058 	 
H 	 -5.19944 	 -16.1433 	 82.0671 	 
C 	 -5.9625 	 -13.5062 	 81.4572 	 
H 	 -5.83636 	 -12.4975 	 81.8475 	 
H 	 -6.60439 	 -13.8463 	 82.2135 	 
C 	 -6.76578 	 -13.6487 	 80.0982 	 
H 	 -6.06419 	 -13.7117 	 79.3091 	 
H 	 -7.30016 	 -12.8217 	 79.8704 	 
C 	 -7.53965 	 -15.0061 	 80.2486 	 
H 	 -6.7948 	 -15.7501 	 80.4941 	 
H 	 -8.07118 	 -15.1534 	 79.3405 	 
H 	 -8.29119 	 -15.0235 	 81.0484 	 
H 	 -1.19917 	 -9.67877 	 78.8748 	 
H 	 -2.8992 	 -16.9657 	 82.0985 	 
*
