! wB97X-D3 SP def2-SVP
%pal
nprocs 16
end

* xyz 0 1
S 	 56.8675 	 11.7567 	 58.6866 	 
C 	 55.7766 	 13.0167 	 58.5819 	 
C 	 56.3539 	 14.2708 	 58.6875 	 
C 	 57.7837 	 14.0958 	 58.8288 	 
C 	 58.2314 	 12.8297 	 58.7021 	 
H 	 58.4543 	 14.9772 	 58.8334 	 
C 	 55.6807 	 15.6003 	 58.7313 	 
H 	 56.2969 	 16.312 	 59.2925 	 
H 	 54.7499 	 15.5174 	 59.2734 	 
C 	 55.3543 	 16.2807 	 57.3809 	 
H 	 56.291 	 16.1696 	 56.8353 	 
H 	 54.7024 	 15.6112 	 56.7307 	 
C 	 54.6715 	 17.664 	 57.5504 	 
H 	 54.4406 	 18.0946 	 56.5786 	 
H 	 53.7345 	 17.5941 	 58.2015 	 
H 	 55.3792 	 18.4142 	 57.9239 	 
S 	 59.7823 	 11.068 	 60.1892 	 
C 	 61.5195 	 11.3034 	 60.205 	 
C 	 61.9116 	 12.3488 	 59.4166 	 
C 	 60.8142 	 12.9878 	 58.7047 	 
C 	 59.5868 	 12.3714 	 59.0017 	 
H 	 62.9218 	 12.5266 	 59.1709 	 
C 	 61.0712 	 14.1237 	 57.7526 	 
H 	 61.2098 	 14.9491 	 58.4459 	 
H 	 60.1424 	 14.29 	 57.1686 	 
C 	 62.147 	 14.073 	 56.6902 	 
H 	 63.0335 	 13.7435 	 57.2304 	 
H 	 62.3766 	 14.9934 	 56.1803 	 
C 	 61.6982 	 13.1037 	 55.5845 	 
H 	 60.8813 	 13.3107 	 54.8937 	 
H 	 61.47 	 12.1775 	 55.9881 	 
H 	 62.4914 	 13.0604 	 54.7715 	 
H 	 54.714 	 12.8781 	 58.3268 	 
H 	 62.2201 	 10.6494 	 60.7104 	 
*
