! wB97X-D3 SP def2-SVP
%pal
nprocs 16
end

* xyz 0 1
S 	 -106.922 	 51.6855 	 115.738 	 
C 	 -108.017 	 52.544 	 116.812 	 
C 	 -107.255 	 53.1138 	 117.829 	 
C 	 -105.861 	 52.7564 	 117.89 	 
C 	 -105.525 	 52.0163 	 116.806 	 
H 	 -105.12 	 53.1283 	 118.564 	 
C 	 -107.858 	 54.0245 	 118.924 	 
H 	 -107.382 	 55.039 	 118.689 	 
H 	 -107.452 	 53.8517 	 119.864 	 
C 	 -109.366 	 54.2626 	 119.145 	 
H 	 -109.763 	 53.284 	 119.129 	 
H 	 -109.603 	 54.7416 	 120.081 	 
C 	 -110.138 	 55.1286 	 118.108 	 
H 	 -111.215 	 55.0994 	 118.305 	 
H 	 -109.818 	 56.2338 	 118.146 	 
H 	 -109.903 	 54.6579 	 117.115 	 
S 	 -103.955 	 49.7266 	 116.74 	 
C 	 -102.261 	 49.8395 	 116.402 	 
C 	 -101.878 	 51.1774 	 116.202 	 
C 	 -102.929 	 52.1073 	 116.431 	 
C 	 -104.221 	 51.4595 	 116.49 	 
H 	 -100.845 	 51.4936 	 116.029 	 
C 	 -102.742 	 53.6184 	 116.32 	 
H 	 -101.879 	 53.9149 	 116.888 	 
H 	 -103.664 	 54.052 	 116.732 	 
C 	 -102.365 	 54.1051 	 114.952 	 
H 	 -101.381 	 53.648 	 114.625 	 
H 	 -102.12 	 55.1835 	 114.816 	 
C 	 -103.572 	 53.9078 	 113.936 	 
H 	 -104.456 	 54.3169 	 114.251 	 
H 	 -103.789 	 52.8529 	 113.866 	 
H 	 -103.234 	 54.2419 	 112.98 	 
H 	 -109.05 	 52.7894 	 116.655 	 
H 	 -101.588 	 49.0004 	 116.306 	 
*
