! wB97X-D3 SP def2-SVP
%pal
nprocs 16
end

* xyz 0 1
S 	 26.9774 	 32.5453 	 57.783 	 
C 	 25.2985 	 32.1083 	 57.4767 	 
C 	 25.0268 	 31.927 	 56.096 	 
C 	 26.2315 	 32.2058 	 55.387 	 
C 	 27.4218 	 32.4443 	 56.0851 	 
H 	 26.1302 	 32.3398 	 54.3332 	 
C 	 23.6421 	 31.6557 	 55.4358 	 
H 	 23.4034 	 32.324 	 54.6119 	 
H 	 22.9617 	 31.8689 	 56.2562 	 
C 	 23.3315 	 30.21 	 55.0585 	 
H 	 23.7333 	 30.0643 	 54.0487 	 
H 	 23.7726 	 29.4753 	 55.6767 	 
C 	 21.8989 	 29.9725 	 54.7809 	 
H 	 21.5285 	 30.7319 	 54.085 	 
H 	 21.8791 	 29.1145 	 54.0851 	 
H 	 21.334 	 29.7366 	 55.7223 	 
S 	 29.4269 	 34.296 	 56.4194 	 
C 	 30.8815 	 34.1868 	 55.4124 	 
C 	 30.7714 	 33.2901 	 54.3574 	 
C 	 29.5146 	 32.5963 	 54.4725 	 
C 	 28.7411 	 32.8932 	 55.5813 	 
H 	 31.5212 	 33.3413 	 53.5663 	 
C 	 29.0601 	 31.5002 	 53.4963 	 
H 	 28.1163 	 31.0725 	 53.8692 	 
H 	 29.8832 	 30.7572 	 53.4618 	 
C 	 28.78 	 31.9077 	 51.9802 	 
H 	 28.5451 	 31.096 	 51.3987 	 
H 	 29.7939 	 32.2251 	 51.571 	 
C 	 27.8213 	 33.0465 	 51.7544 	 
H 	 28.0253 	 33.9033 	 52.3903 	 
H 	 26.7671 	 32.815 	 51.9351 	 
H 	 27.9019 	 33.2251 	 50.6561 	 
H 	 24.5844 	 31.9489 	 58.2248 	 
H 	 31.7161 	 34.8843 	 55.408 	 
*
