! wB97X-D3 SP def2-SVP
%pal
nprocs 16
end

* xyz 0 1
S 	 -19.175 	 -7.82419 	 86.1165 	 
C 	 -18.2358 	 -8.70096 	 84.9206 	 
C 	 -17.0828 	 -9.16473 	 85.5652 	 
C 	 -17.2225 	 -9.2063 	 86.9681 	 
C 	 -18.3864 	 -8.65674 	 87.4404 	 
H 	 -16.4838 	 -9.62318 	 87.6612 	 
C 	 -15.8475 	 -9.65171 	 84.8336 	 
H 	 -14.9033 	 -9.37129 	 85.3052 	 
H 	 -15.875 	 -9.1707 	 83.8601 	 
C 	 -15.7334 	 -11.1624 	 84.6629 	 
H 	 -14.7734 	 -11.4735 	 84.6219 	 
H 	 -16.1612 	 -11.6933 	 85.5495 	 
C 	 -16.3849 	 -11.6482 	 83.3881 	 
H 	 -15.9266 	 -11.2675 	 82.4474 	 
H 	 -16.2653 	 -12.6947 	 83.2845 	 
H 	 -17.4831 	 -11.5413 	 83.4004 	 
S 	 -20.5013 	 -8.95207 	 89.3189 	 
C 	 -20.2748 	 -8.45414 	 90.9866 	 
C 	 -18.9351 	 -8.4204 	 91.241 	 
C 	 -18.1494 	 -8.29562 	 90.0369 	 
C 	 -18.8436 	 -8.5491 	 88.8581 	 
H 	 -18.407 	 -8.35915 	 92.1907 	 
C 	 -16.6816 	 -8.12837 	 90.1504 	 
H 	 -16.4791 	 -7.23349 	 90.7262 	 
H 	 -16.3308 	 -7.83846 	 89.1775 	 
C 	 -15.8011 	 -9.35733 	 90.632 	 
H 	 -15.7422 	 -10.0801 	 89.8041 	 
H 	 -16.3454 	 -9.79705 	 91.433 	 
C 	 -14.4143 	 -8.97267 	 91.088 	 
H 	 -13.6924 	 -9.85543 	 91.0437 	 
H 	 -14.5445 	 -8.65371 	 92.1216 	 
H 	 -14.092 	 -8.23364 	 90.3663 	 
H 	 -18.5112 	 -8.76139 	 83.8578 	 
H 	 -21.0122 	 -8.61402 	 91.7548 	 
*
