! wB97X-D3 SP def2-SVP
%pal
nprocs 16
end

* xyz 0 1
S 	 -80.3752 	 44.6815 	 120.33 	 
C 	 -80.803 	 43.0377 	 120.186 	 
C 	 -80.0528 	 42.1801 	 121.029 	 
C 	 -79.0589 	 42.939 	 121.7 	 
C 	 -79.1444 	 44.2958 	 121.559 	 
H 	 -78.3517 	 42.4987 	 122.401 	 
C 	 -80.4157 	 40.7662 	 121.379 	 
H 	 -81.0558 	 40.3343 	 120.574 	 
H 	 -81.1836 	 40.7989 	 122.167 	 
C 	 -79.4033 	 39.7131 	 121.742 	 
H 	 -78.7637 	 40.0579 	 122.576 	 
H 	 -79.8997 	 38.7781 	 122.109 	 
C 	 -78.4874 	 39.4302 	 120.566 	 
H 	 -77.9678 	 40.3546 	 120.35 	 
H 	 -77.7905 	 38.5529 	 120.598 	 
H 	 -79.0934 	 39.2319 	 119.676 	 
S 	 -79.4049 	 46.4781 	 123.175 	 
C 	 -77.9494 	 47.2804 	 123.697 	 
C 	 -76.7698 	 46.5685 	 123.298 	 
C 	 -77.0237 	 45.3197 	 122.692 	 
C 	 -78.3914 	 45.2387 	 122.361 	 
H 	 -75.8365 	 46.9693 	 123.654 	 
C 	 -76.0052 	 44.2721 	 122.283 	 
H 	 -76.0401 	 44.1428 	 121.133 	 
H 	 -76.2412 	 43.3781 	 122.85 	 
C 	 -74.6374 	 44.6247 	 122.558 	 
H 	 -74.5012 	 44.7093 	 123.588 	 
H 	 -74.4086 	 45.6228 	 122.131 	 
C 	 -73.4868 	 43.6112 	 122.087 	 
H 	 -72.6106 	 44.1299 	 122.375 	 
H 	 -73.6084 	 43.4063 	 120.975 	 
H 	 -73.5105 	 42.6091 	 122.616 	 
H 	 -81.573 	 42.6334 	 119.53 	 
H 	 -77.8261 	 48.2539 	 124.155 	 
*
