! wB97X-D3 SP def2-SVP
%pal
nprocs 16
end

* xyz 0 1
S 	 -2.26381 	 34.7836 	 50.2318 	 
C 	 -0.555217 	 34.5291 	 50.6549 	 
C 	 -0.174645 	 33.1958 	 50.6547 	 
C 	 -1.25687 	 32.3381 	 50.1004 	 
C 	 -2.4422 	 33.0357 	 49.8312 	 
H 	 -1.27523 	 31.2668 	 49.9575 	 
C 	 1.1526 	 32.6129 	 51.2467 	 
H 	 1.99454 	 33.3836 	 51.1864 	 
H 	 1.2851 	 31.7303 	 50.6768 	 
C 	 1.1464 	 32.3095 	 52.7222 	 
H 	 0.773626 	 33.0908 	 53.2935 	 
H 	 0.417679 	 31.5744 	 52.8778 	 
C 	 2.40691 	 31.7614 	 53.208 	 
H 	 2.41448 	 31.6565 	 54.298 	 
H 	 2.55764 	 30.8055 	 52.9013 	 
H 	 3.2241 	 32.4214 	 52.8756 	 
S 	 -4.25822 	 30.967 	 49.7822 	 
C 	 -5.41437 	 30.8131 	 48.449 	 
C 	 -5.36516 	 32.0075 	 47.7059 	 
C 	 -4.46587 	 33.0173 	 48.194 	 
C 	 -3.6706 	 32.5114 	 49.2403 	 
H 	 -6.13736 	 32.1417 	 46.9141 	 
C 	 -4.32399 	 34.4218 	 47.5618 	 
H 	 -3.28675 	 34.6629 	 47.424 	 
H 	 -4.51374 	 35.1417 	 48.2804 	 
C 	 -5.11612 	 34.7515 	 46.3445 	 
H 	 -6.14026 	 34.4703 	 46.5055 	 
H 	 -4.88549 	 34.0445 	 45.469 	 
C 	 -5.12967 	 36.2765 	 46.0081 	 
H 	 -5.78401 	 36.545 	 45.2244 	 
H 	 -4.09796 	 36.6109 	 45.8455 	 
H 	 -5.53194 	 36.8808 	 46.8419 	 
H 	 0.0438685 	 35.3206 	 51.1419 	 
H 	 -6.04431 	 29.9757 	 48.1473 	 
*
