! wB97X-D3 SP def2-SVP
%pal
nprocs 16
end

* xyz 0 1
S 	 -8.27185 	 68.8919 	 47.9163 	 
C 	 -8.5549 	 67.3093 	 47.2541 	 
C 	 -9.19845 	 66.5129 	 48.1439 	 
C 	 -9.73309 	 67.3013 	 49.2245 	 
C 	 -9.45629 	 68.687 	 49.2119 	 
H 	 -10.2459 	 66.9573 	 50.0922 	 
C 	 -9.36823 	 64.999 	 47.9618 	 
H 	 -9.88083 	 64.7922 	 48.8931 	 
H 	 -8.35689 	 64.5311 	 47.9145 	 
C 	 -10.258 	 64.454 	 46.8215 	 
H 	 -9.68428 	 64.7528 	 45.9518 	 
H 	 -10.2128 	 63.4138 	 46.8617 	 
C 	 -11.6959 	 64.9886 	 46.7847 	 
H 	 -11.7136 	 66.055 	 46.8094 	 
H 	 -12.1225 	 64.4662 	 45.8391 	 
H 	 -12.1974 	 64.5717 	 47.6488 	 
S 	 -8.8942 	 69.9526 	 51.5683 	 
C 	 -9.83467 	 71.3178 	 52.1013 	 
C 	 -10.9968 	 71.469 	 51.3302 	 
C 	 -11.0011 	 70.6 	 50.1822 	 
C 	 -9.81991 	 69.7742 	 50.0804 	 
H 	 -11.7525 	 72.2107 	 51.5852 	 
C 	 -12.1014 	 70.6153 	 49.1982 	 
H 	 -12.8216 	 69.8031 	 49.492 	 
H 	 -11.6969 	 70.2196 	 48.243 	 
C 	 -12.8209 	 71.9337 	 49.0455 	 
H 	 -12.2367 	 72.8264 	 48.9326 	 
H 	 -13.3185 	 72.249 	 49.9417 	 
C 	 -13.8421 	 71.8383 	 47.8915 	 
H 	 -14.3638 	 70.8745 	 47.8495 	 
H 	 -13.4173 	 72.0844 	 46.8741 	 
H 	 -14.6387 	 72.6412 	 48.1226 	 
H 	 -7.96754 	 67.022 	 46.375 	 
H 	 -9.70075 	 71.7443 	 53.0792 	 
*
