! wB97X-D3 SP def2-SVP
%pal
nprocs 16
end

* xyz 0 1
S 	 -2.58598 	 79.6168 	 52.075 	 
C 	 -1.49176 	 80.4442 	 53.1068 	 
C 	 -1.11886 	 79.7593 	 54.2467 	 
C 	 -1.57866 	 78.417 	 54.1446 	 
C 	 -2.27839 	 78.1108 	 52.9795 	 
H 	 -1.44408 	 77.6897 	 54.8963 	 
C 	 -0.189574 	 80.3399 	 55.3817 	 
H 	 -0.81923 	 80.2051 	 56.3084 	 
H 	 -0.152882 	 81.3597 	 55.1707 	 
C 	 1.13705 	 79.5988 	 55.6019 	 
H 	 1.74193 	 79.981 	 56.3697 	 
H 	 0.850535 	 78.6808 	 56.0302 	 
C 	 2.00631 	 79.4265 	 54.3647 	 
H 	 2.3949 	 80.315 	 53.883 	 
H 	 2.92145 	 78.8443 	 54.5827 	 
H 	 1.39912 	 79.0238 	 53.5739 	 
S 	 -4.72611 	 77.0742 	 52.5696 	 
C 	 -4.86076 	 75.3199 	 52.3812 	 
C 	 -3.60591 	 74.6467 	 52.2625 	 
C 	 -2.55287 	 75.5659 	 52.4743 	 
C 	 -2.99468 	 76.835 	 52.7085 	 
H 	 -3.63311 	 73.5255 	 52.1915 	 
C 	 -1.08347 	 75.2099 	 52.6839 	 
H 	 -0.466718 	 76.1581 	 52.6729 	 
H 	 -0.820086 	 74.7223 	 51.7347 	 
C 	 -0.743661 	 74.3126 	 53.8935 	 
H 	 0.282272 	 74.0731 	 54.0009 	 
H 	 -1.04858 	 73.3388 	 53.4631 	 
C 	 -1.52573 	 74.7169 	 55.1955 	 
H 	 -2.53992 	 75.06 	 54.9363 	 
H 	 -0.875744 	 75.4841 	 55.6269 	 
H 	 -1.52307 	 73.9096 	 55.9549 	 
H 	 -1.22063 	 81.4756 	 52.9372 	 
H 	 -5.79808 	 74.7393 	 52.2611 	 
*
