! wB97X-D3 SP def2-SVP
%pal
nprocs 16
end

* xyz 0 1
S 	 49.3889 	 12.2806 	 84.328 	 
C 	 49.3443 	 12.3949 	 86.0685 	 
C 	 48.862 	 13.6364 	 86.4834 	 
C 	 48.6768 	 14.4793 	 85.3433 	 
C 	 48.9906 	 13.9642 	 84.0934 	 
H 	 48.3213 	 15.5095 	 85.3339 	 
C 	 48.7484 	 14.1965 	 87.8537 	 
H 	 49.0912 	 15.1991 	 87.7656 	 
H 	 49.406 	 13.6701 	 88.4815 	 
C 	 47.2887 	 14.1412 	 88.3548 	 
H 	 47.1296 	 14.8188 	 89.1738 	 
H 	 46.7536 	 14.4826 	 87.4793 	 
C 	 46.8848 	 12.7231 	 88.782 	 
H 	 45.9607 	 12.9055 	 89.4097 	 
H 	 46.5593 	 12.073 	 87.9917 	 
H 	 47.5794 	 12.1496 	 89.4191 	 
S 	 50.509 	 14.1852 	 81.723 	 
C 	 50.0982 	 15.4799 	 80.6577 	 
C 	 48.9854 	 16.1605 	 81.0706 	 
C 	 48.2974 	 15.5369 	 82.1551 	 
C 	 49.1132 	 14.5863 	 82.7905 	 
H 	 48.5692 	 16.9938 	 80.4266 	 
C 	 47.0781 	 16.152 	 82.6989 	 
H 	 47.0224 	 17.0997 	 82.1887 	 
H 	 47.1619 	 16.392 	 83.718 	 
C 	 45.881 	 15.2687 	 82.4075 	 
H 	 46.0153 	 14.3839 	 82.9325 	 
H 	 45.9131 	 15.1523 	 81.2728 	 
C 	 44.5286 	 15.7958 	 82.8016 	 
H 	 43.7807 	 15.2601 	 82.2428 	 
H 	 44.3378 	 16.7901 	 82.4854 	 
H 	 44.3225 	 15.8948 	 83.8806 	 
H 	 49.584 	 11.593 	 86.7896 	 
H 	 50.6948 	 15.692 	 79.7702 	 
*
