! wB97X-D3 SP def2-SVP
%pal
nprocs 16
end

* xyz 0 1
S 	 -55.1276 	 42.2128 	 111.62 	 
C 	 -53.7574 	 41.6514 	 110.794 	 
C 	 -53.5612 	 40.2837 	 110.967 	 
C 	 -54.5712 	 39.738 	 111.88 	 
C 	 -55.5591 	 40.6573 	 112.231 	 
H 	 -54.811 	 38.7431 	 112.26 	 
C 	 -52.5084 	 39.513 	 110.244 	 
H 	 -51.5108 	 39.8125 	 110.608 	 
H 	 -52.6137 	 39.8361 	 109.156 	 
C 	 -52.6251 	 37.9603 	 110.331 	 
H 	 -52.3277 	 37.7556 	 111.399 	 
H 	 -53.654 	 37.6608 	 110.12 	 
C 	 -51.7775 	 37.0981 	 109.361 	 
H 	 -50.7524 	 37.4814 	 109.301 	 
H 	 -51.7247 	 35.9766 	 109.613 	 
H 	 -52.1627 	 37.2227 	 108.377 	 
S 	 -56.6724 	 39.9755 	 114.659 	 
C 	 -58.3919 	 39.8715 	 114.908 	 
C 	 -59.0161 	 39.9835 	 113.703 	 
C 	 -58.0848 	 40.2834 	 112.598 	 
C 	 -56.7629 	 40.3559 	 112.974 	 
H 	 -60.0686 	 39.9235 	 113.721 	 
C 	 -58.5937 	 40.5821 	 111.181 	 
H 	 -58.1246 	 41.521 	 110.862 	 
H 	 -59.7106 	 40.7665 	 111.227 	 
C 	 -58.3177 	 39.4515 	 110.177 	 
H 	 -58.9335 	 38.5716 	 110.531 	 
H 	 -57.3101 	 39.0766 	 110.295 	 
C 	 -58.6236 	 39.8374 	 108.787 	 
H 	 -59.6655 	 40.2139 	 108.832 	 
H 	 -58.5571 	 38.8917 	 108.196 	 
H 	 -57.8823 	 40.5672 	 108.385 	 
H 	 -53.1804 	 42.2172 	 110.109 	 
H 	 -58.809 	 39.5231 	 115.811 	 
*
