! wB97X-D3 SP def2-SVP
%pal
nprocs 16
end

* xyz 0 1
S 	 50.2364 	 11.6495 	 78.4514 	 
C 	 48.8356 	 10.6298 	 78.3874 	 
C 	 47.604 	 11.2649 	 78.4193 	 
C 	 47.8646 	 12.6882 	 78.2258 	 
C 	 49.211 	 13.0232 	 78.3021 	 
H 	 47.0932 	 13.4226 	 78.178 	 
C 	 46.2015 	 10.6502 	 78.5275 	 
H 	 46.1192 	 9.93329 	 79.385 	 
H 	 45.9757 	 10.2438 	 77.5581 	 
C 	 45.1796 	 11.6737 	 78.8937 	 
H 	 45.511 	 12.2438 	 79.8046 	 
H 	 45.1532 	 12.4354 	 78.0779 	 
C 	 43.808 	 11.1559 	 79.1378 	 
H 	 43.5282 	 10.4868 	 78.2741 	 
H 	 43.7616 	 10.6168 	 80.1176 	 
H 	 43.0717 	 11.9077 	 79.148 	 
S 	 50.6785 	 14.4498 	 76.4879 	 
C 	 50.5761 	 16.221 	 76.4759 	 
C 	 49.6947 	 16.6485 	 77.3812 	 
C 	 49.2616 	 15.6155 	 78.2783 	 
C 	 49.7324 	 14.3353 	 77.9768 	 
H 	 49.6105 	 17.695 	 77.4168 	 
C 	 48.3143 	 15.9271 	 79.405 	 
H 	 47.8512 	 14.9963 	 79.7135 	 
H 	 47.4906 	 16.4645 	 78.9981 	 
C 	 49.0474 	 16.782 	 80.5289 	 
H 	 49.4594 	 17.6528 	 80.0733 	 
H 	 49.8613 	 16.1752 	 80.9529 	 
C 	 48.0177 	 17.2194 	 81.5705 	 
H 	 47.3244 	 17.8308 	 81.0805 	 
H 	 48.4626 	 17.9058 	 82.3165 	 
H 	 47.4862 	 16.4495 	 82.0993 	 
H 	 48.8958 	 9.59747 	 78.7206 	 
H 	 50.9393 	 16.9178 	 75.7675 	 
*
