! wB97X-D3 SP def2-SVP
%pal
nprocs 16
end

* xyz 0 1
S 	 -42.0849 	 19.4255 	 70.8545 	 
C 	 -41.4256 	 20.1083 	 69.4044 	 
C 	 -40.6724 	 19.2106 	 68.6729 	 
C 	 -40.9372 	 17.8789 	 69.1918 	 
C 	 -41.6482 	 17.8313 	 70.3544 	 
H 	 -40.7009 	 16.9481 	 68.7509 	 
C 	 -39.9414 	 19.4482 	 67.3457 	 
H 	 -39.5251 	 18.549 	 66.915 	 
H 	 -39.0675 	 20.0927 	 67.5138 	 
C 	 -40.7225 	 20.1708 	 66.2963 	 
H 	 -40.845 	 21.2604 	 66.4546 	 
H 	 -39.877 	 20.1842 	 65.5556 	 
C 	 -41.9505 	 19.3996 	 65.6786 	 
H 	 -41.5794 	 18.4408 	 65.2021 	 
H 	 -42.6881 	 19.1252 	 66.4592 	 
H 	 -42.4356 	 19.9027 	 64.8539 	 
S 	 -43.6676 	 16.7039 	 71.808 	 
C 	 -43.4536 	 15.1542 	 72.527 	 
C 	 -42.12 	 14.704 	 72.4293 	 
C 	 -41.371 	 15.5542 	 71.5858 	 
C 	 -42.0543 	 16.6456 	 71.1124 	 
H 	 -41.7399 	 13.8319 	 73.0053 	 
C 	 -39.8597 	 15.3284 	 71.4144 	 
H 	 -39.5697 	 15.4774 	 70.3869 	 
H 	 -39.6999 	 14.2646 	 71.6675 	 
C 	 -39.0059 	 16.2928 	 72.29 	 
H 	 -39.4738 	 17.286 	 72.2575 	 
H 	 -38.0333 	 16.2246 	 71.8883 	 
C 	 -39.0373 	 15.9116 	 73.8029 	 
H 	 -40.0516 	 16.0069 	 74.1959 	 
H 	 -38.3826 	 16.6108 	 74.2981 	 
H 	 -38.7827 	 14.9353 	 74.0817 	 
H 	 -41.5775 	 21.1541 	 69.1358 	 
H 	 -43.9899 	 14.5492 	 73.2721 	 
*
