! wB97X-D3 SP def2-SVP
%pal
nprocs 16
end

* xyz 0 1
S 	 -12.3158 	 60.7402 	 60.172 	 
C 	 -11.0933 	 59.5515 	 59.795 	 
C 	 -9.9598 	 60.1578 	 59.2345 	 
C 	 -10.1489 	 61.5561 	 58.9836 	 
C 	 -11.4388 	 62.0235 	 59.2748 	 
H 	 -9.33419 	 62.3192 	 58.7254 	 
C 	 -8.61575 	 59.4561 	 58.9289 	 
H 	 -8.32686 	 59.8893 	 58.0298 	 
H 	 -8.86965 	 58.3363 	 58.7955 	 
C 	 -7.64025 	 59.516 	 59.9966 	 
H 	 -6.74731 	 58.8124 	 59.9418 	 
H 	 -7.17738 	 60.5381 	 59.915 	 
C 	 -8.25266 	 59.297 	 61.3896 	 
H 	 -7.4288 	 59.0086 	 62.0833 	 
H 	 -8.84942 	 60.0991 	 61.8288 	 
H 	 -9.01526 	 58.5165 	 61.3058 	 
S 	 -12.3995 	 64.4259 	 60.3701 	 
C 	 -12.8764 	 65.7308 	 59.3241 	 
C 	 -12.7033 	 65.3843 	 58.0381 	 
C 	 -12.1841 	 64.0358 	 57.8691 	 
C 	 -11.9672 	 63.3775 	 59.0502 	 
H 	 -12.8584 	 66.093 	 57.2129 	 
C 	 -12.0539 	 63.5648 	 56.4425 	 
H 	 -13.1215 	 63.5093 	 56.1299 	 
H 	 -11.7023 	 62.5149 	 56.4943 	 
C 	 -11.3023 	 64.3873 	 55.4483 	 
H 	 -11.9078 	 65.3172 	 55.2587 	 
H 	 -11.3106 	 63.7867 	 54.4947 	 
C 	 -9.82618 	 64.547 	 55.9276 	 
H 	 -9.81827 	 64.6831 	 57.0099 	 
H 	 -9.35032 	 65.3861 	 55.3773 	 
H 	 -9.16765 	 63.723 	 55.6754 	 
H 	 -11.1435 	 58.5269 	 59.984 	 
H 	 -13.3116 	 66.7803 	 59.5813 	 
*
