! wB97X-D3 SP def2-SVP
%pal
nprocs 16
end

* xyz 0 1
S 	 -55.6416 	 38.3659 	 108.092 	 
C 	 -54.5765 	 39.0864 	 106.9 	 
C 	 -53.3405 	 38.4104 	 106.911 	 
C 	 -53.2718 	 37.2658 	 107.777 	 
C 	 -54.4675 	 37.0996 	 108.429 	 
H 	 -52.3702 	 36.6498 	 107.919 	 
C 	 -52.1944 	 38.834 	 105.979 	 
H 	 -51.9673 	 39.8806 	 106.022 	 
H 	 -52.5072 	 38.7556 	 104.917 	 
C 	 -50.8929 	 37.9778 	 105.995 	 
H 	 -50.6636 	 37.9758 	 107.092 	 
H 	 -51.2621 	 36.9904 	 105.63 	 
C 	 -49.9407 	 38.5543 	 105.067 	 
H 	 -50.2106 	 38.2942 	 104.014 	 
H 	 -49.7727 	 39.5861 	 105.186 	 
H 	 -48.9528 	 38.0584 	 105.171 	 
S 	 -53.8778 	 36.5554 	 111.04 	 
C 	 -54.569 	 35.1541 	 111.827 	 
C 	 -55.0803 	 34.33 	 110.854 	 
C 	 -55.0454 	 34.8459 	 109.485 	 
C 	 -54.6434 	 36.15 	 109.488 	 
H 	 -55.4496 	 33.379 	 111.101 	 
C 	 -55.8165 	 34.1857 	 108.39 	 
H 	 -55.1001 	 33.7587 	 107.65 	 
H 	 -56.3983 	 34.9331 	 107.847 	 
C 	 -56.8345 	 33.1783 	 108.829 	 
H 	 -57.5037 	 33.2423 	 107.971 	 
H 	 -57.413 	 33.4606 	 109.742 	 
C 	 -56.3413 	 31.7132 	 108.817 	 
H 	 -57.0698 	 30.8941 	 108.897 	 
H 	 -55.5866 	 31.4902 	 109.563 	 
H 	 -55.8734 	 31.5318 	 107.778 	 
H 	 -54.9445 	 39.8666 	 106.307 	 
H 	 -54.3621 	 34.912 	 112.844 	 
*
