! wB97X-D3 SP def2-SVP
%pal
nprocs 16
end

* xyz 0 1
S 	 -24.2218 	 -1.79013 	 88.7969 	 
C 	 -25.9255 	 -1.6027 	 89.0676 	 
C 	 -26.6612 	 -1.68117 	 87.8777 	 
C 	 -25.809 	 -1.93701 	 86.7346 	 
C 	 -24.4699 	 -2.06943 	 87.1206 	 
H 	 -26.0781 	 -2.01387 	 85.702 	 
C 	 -28.2177 	 -1.50402 	 87.7159 	 
H 	 -28.4102 	 -1.02034 	 86.7626 	 
H 	 -28.6665 	 -0.827889 	 88.4543 	 
C 	 -28.9163 	 -2.78441 	 87.8584 	 
H 	 -28.8321 	 -3.28656 	 88.8181 	 
H 	 -29.9121 	 -2.51679 	 87.6845 	 
C 	 -28.5789 	 -3.78748 	 86.7114 	 
H 	 -27.5419 	 -4.01775 	 86.7592 	 
H 	 -29.2413 	 -4.66198 	 86.8402 	 
H 	 -28.8738 	 -3.30839 	 85.8295 	 
S 	 -21.9847 	 -1.52722 	 86.3386 	 
C 	 -21.2632 	 -2.38393 	 84.9911 	 
C 	 -22.1032 	 -3.29898 	 84.4362 	 
C 	 -23.409 	 -3.29904 	 85.0435 	 
C 	 -23.4408 	 -2.45608 	 86.166 	 
H 	 -21.7269 	 -3.91518 	 83.5999 	 
C 	 -24.6157 	 -3.99638 	 84.5673 	 
H 	 -25.1906 	 -4.1141 	 85.4253 	 
H 	 -24.3301 	 -5.01471 	 84.2812 	 
C 	 -25.3484 	 -3.18462 	 83.4738 	 
H 	 -24.7501 	 -3.30675 	 82.5116 	 
H 	 -25.3592 	 -2.1337 	 83.7344 	 
C 	 -26.7385 	 -3.67538 	 82.8853 	 
H 	 -27.6168 	 -3.29794 	 83.3987 	 
H 	 -26.9069 	 -4.73497 	 82.8541 	 
H 	 -26.8315 	 -3.24082 	 81.9124 	 
H 	 -26.4991 	 -1.6327 	 90.0514 	 
H 	 -20.2701 	 -2.20352 	 84.6112 	 
*
