! wB97X-D3 SP def2-SVP
%pal
nprocs 16
end

* xyz 0 1
S 	 11.0842 	 -8.46251 	 97.6858 	 
C 	 10.4595 	 -10.1323 	 97.7061 	 
C 	 9.45096 	 -10.219 	 96.7847 	 
C 	 9.36211 	 -9.10545 	 95.924 	 
C 	 10.2433 	 -8.11513 	 96.1778 	 
H 	 8.62177 	 -9.0035 	 95.1765 	 
C 	 8.50014 	 -11.414 	 96.8282 	 
H 	 8.99356 	 -12.1918 	 97.4012 	 
H 	 8.27264 	 -11.6976 	 95.8631 	 
C 	 7.16399 	 -11.1798 	 97.5527 	 
H 	 6.61655 	 -12.0921 	 97.6642 	 
H 	 7.31466 	 -10.8279 	 98.5871 	 
C 	 6.19757 	 -10.3024 	 96.6276 	 
H 	 6.43481 	 -9.31296 	 96.9647 	 
H 	 6.26034 	 -10.4092 	 95.4877 	 
H 	 5.1963 	 -10.4267 	 96.9288 	 
S 	 9.88901 	 -5.28906 	 96.3355 	 
C 	 10.1183 	 -4.40639 	 94.8572 	 
C 	 10.6549 	 -5.15805 	 93.8323 	 
C 	 10.8148 	 -6.49736 	 94.2245 	 
C 	 10.2821 	 -6.80163 	 95.4954 	 
H 	 10.9808 	 -4.55489 	 92.923 	 
C 	 11.3403 	 -7.57632 	 93.2479 	 
H 	 11.76 	 -8.47123 	 93.7214 	 
H 	 12.2843 	 -7.3062 	 92.8249 	 
C 	 10.2384 	 -7.91067 	 92.1921 	 
H 	 10.0895 	 -7.01851 	 91.6923 	 
H 	 9.29383 	 -8.11272 	 92.7127 	 
C 	 10.565 	 -9.05393 	 91.2296 	 
H 	 11.623 	 -9.24219 	 91.0738 	 
H 	 10.1316 	 -8.97257 	 90.2388 	 
H 	 10.2598 	 -9.99275 	 91.787 	 
H 	 10.6276 	 -10.8546 	 98.4834 	 
H 	 9.92122 	 -3.37488 	 94.761 	 
*
