! wB97X-D3 SP def2-SVP
%pal
nprocs 16
end

* xyz 0 1
S 	 0.0317692 	 -6.71777 	 88.6173 	 
C 	 1.4139 	 -6.99755 	 89.7413 	 
C 	 1.08298 	 -6.68611 	 91.0488 	 
C 	 -0.370716 	 -6.63861 	 91.1433 	 
C 	 -1.0693 	 -6.55182 	 89.9648 	 
H 	 -0.977697 	 -6.76423 	 92.1195 	 
C 	 1.86404 	 -6.86822 	 92.3236 	 
H 	 1.58673 	 -5.99863 	 92.9753 	 
H 	 2.93846 	 -6.65799 	 92.1312 	 
C 	 1.66795 	 -8.24529 	 93.1208 	 
H 	 2.2062 	 -8.04638 	 94.0353 	 
H 	 0.595831 	 -8.35749 	 93.3702 	 
C 	 2.17683 	 -9.43892 	 92.3259 	 
H 	 1.62038 	 -9.52305 	 91.3845 	 
H 	 3.28483 	 -9.48466 	 92.1128 	 
H 	 1.99308 	 -10.3911 	 92.8307 	 
S 	 -3.41227 	 -5.33526 	 90.689 	 
C 	 -4.95467 	 -5.92797 	 90.0296 	 
C 	 -4.7369 	 -7.03039 	 89.1992 	 
C 	 -3.36068 	 -7.42748 	 89.037 	 
C 	 -2.53313 	 -6.64961 	 89.8933 	 
H 	 -5.56745 	 -7.54631 	 88.6788 	 
C 	 -3.00443 	 -8.73355 	 88.3158 	 
H 	 -2.25964 	 -8.4491 	 87.5671 	 
H 	 -3.84922 	 -8.95697 	 87.7129 	 
C 	 -2.55308 	 -9.93929 	 89.1523 	 
H 	 -3.18208 	 -10.0218 	 90.0898 	 
H 	 -1.564 	 -9.67691 	 89.4838 	 
C 	 -2.48242 	 -11.2805 	 88.3989 	 
H 	 -2.3873 	 -12.0702 	 89.0762 	 
H 	 -1.63265 	 -11.2962 	 87.63 	 
H 	 -3.43012 	 -11.567 	 87.9878 	 
H 	 2.43177 	 -7.41406 	 89.5798 	 
H 	 -5.88697 	 -5.47709 	 90.2218 	 
*
