! wB97X-D3 SP def2-SVP
%pal
nprocs 16
end

* xyz 0 1
S 	 -3.01888 	 34.1478 	 36.5125 	 
C 	 -2.77941 	 33.1768 	 35.1254 	 
C 	 -1.88127 	 32.1635 	 35.3023 	 
C 	 -1.3041 	 32.2063 	 36.62 	 
C 	 -1.76707 	 33.306 	 37.3866 	 
H 	 -0.673249 	 31.4973 	 37.0944 	 
C 	 -1.62953 	 30.9823 	 34.3909 	 
H 	 -0.626906 	 30.5487 	 34.5209 	 
H 	 -1.54085 	 31.4155 	 33.3736 	 
C 	 -2.73642 	 29.8894 	 34.4676 	 
H 	 -3.03856 	 29.6114 	 35.4907 	 
H 	 -3.59783 	 30.299 	 34.0077 	 
C 	 -2.4187 	 28.5108 	 33.7872 	 
H 	 -1.42918 	 28.1443 	 34.2466 	 
H 	 -3.19206 	 27.8058 	 33.8735 	 
H 	 -2.20669 	 28.7814 	 32.795 	 
S 	 -2.79729 	 33.1597 	 39.8783 	 
C 	 -1.77375 	 33.2874 	 41.304 	 
C 	 -0.452579 	 33.468 	 40.9945 	 
C 	 -0.22572 	 33.449 	 39.5459 	 
C 	 -1.43679 	 33.3675 	 38.8135 	 
H 	 0.252842 	 33.641 	 41.8151 	 
C 	 1.20254 	 33.4031 	 39.0511 	 
H 	 1.1909 	 34.0659 	 38.1963 	 
H 	 1.53099 	 32.4208 	 38.5615 	 
C 	 2.38043 	 34.0031 	 39.88 	 
H 	 2.55157 	 33.4002 	 40.8248 	 
H 	 2.16268 	 35.021 	 40.0933 	 
C 	 3.75917 	 33.8512 	 39.1532 	 
H 	 3.70577 	 34.4688 	 38.2028 	 
H 	 3.94986 	 32.8252 	 38.9736 	 
H 	 4.58907 	 34.181 	 39.7641 	 
H 	 -3.48173 	 33.2609 	 34.3338 	 
H 	 -2.10617 	 33.3293 	 42.2687 	 
*
