! wB97X-D3 SP def2-SVP
%pal
nprocs 16
end

* xyz 0 1
S 	 -43.3952 	 55.2739 	 101.177 	 
C 	 -43.4268 	 54.6366 	 102.782 	 
C 	 -44.6371 	 53.9661 	 103.032 	 
C 	 -45.6431 	 54.1085 	 101.995 	 
C 	 -45.1301 	 54.8316 	 100.906 	 
H 	 -46.6444 	 53.642 	 101.925 	 
C 	 -44.8622 	 52.9888 	 104.189 	 
H 	 -45.9271 	 53.1684 	 104.623 	 
H 	 -44.1798 	 53.234 	 104.977 	 
C 	 -44.7148 	 51.5048 	 104.037 	 
H 	 -44.7654 	 51.0111 	 105.018 	 
H 	 -45.5477 	 51.0237 	 103.549 	 
C 	 -43.3767 	 50.9709 	 103.443 	 
H 	 -42.4833 	 51.0479 	 104.039 	 
H 	 -43.5537 	 49.922 	 103.309 	 
H 	 -43.1565 	 51.4549 	 102.545 	 
S 	 -44.7161 	 55.5883 	 98.2056 	 
C 	 -46.1207 	 55.8197 	 97.1866 	 
C 	 -47.2569 	 55.4565 	 97.8465 	 
C 	 -47.047 	 54.9922 	 99.1855 	 
C 	 -45.7178 	 55.0948 	 99.5974 	 
H 	 -48.2779 	 55.4602 	 97.3469 	 
C 	 -48.2763 	 54.6248 	 99.9916 	 
H 	 -49.1507 	 55.1387 	 99.5639 	 
H 	 -48.1597 	 55.0917 	 100.961 	 
C 	 -48.6103 	 53.0827 	 99.9425 	 
H 	 -47.7753 	 52.464 	 100.282 	 
H 	 -48.9153 	 52.888 	 98.8755 	 
C 	 -49.851 	 52.711 	 100.904 	 
H 	 -50.1243 	 51.6435 	 100.764 	 
H 	 -50.7224 	 53.2655 	 100.504 	 
H 	 -49.7173 	 53.0926 	 101.909 	 
H 	 -42.5749 	 54.4269 	 103.439 	 
H 	 -46.0706 	 55.972 	 96.1722 	 
*
