! wB97X-D3 SP def2-SVP
%pal
nprocs 16
end

* xyz 0 1
S 	 -11.7947 	 47.1776 	 42.5515 	 
C 	 -12.5362 	 47.156 	 40.9398 	 
C 	 -12.2629 	 45.9687 	 40.2311 	 
C 	 -11.6064 	 45.0351 	 41.053 	 
C 	 -11.1379 	 45.5609 	 42.2267 	 
H 	 -11.3757 	 44.0078 	 40.7542 	 
C 	 -12.7845 	 45.5605 	 38.829 	 
H 	 -12.0806 	 45.2646 	 38.0997 	 
H 	 -13.2225 	 46.3969 	 38.312 	 
C 	 -13.8116 	 44.4003 	 38.8693 	 
H 	 -13.2943 	 43.4124 	 38.8595 	 
H 	 -14.3614 	 44.33 	 39.7623 	 
C 	 -14.8313 	 44.5347 	 37.7398 	 
H 	 -15.6364 	 43.8042 	 37.9448 	 
H 	 -15.3759 	 45.4482 	 37.7917 	 
H 	 -14.3422 	 44.4211 	 36.7966 	 
S 	 -11.3656 	 44.3794 	 44.7218 	 
C 	 -10.3582 	 43.0782 	 45.1654 	 
C 	 -9.25369 	 43.0106 	 44.2597 	 
C 	 -9.34787 	 43.9702 	 43.1944 	 
C 	 -10.4478 	 44.7768 	 43.2664 	 
H 	 -8.43309 	 42.2871 	 44.4175 	 
C 	 -8.35426 	 43.9976 	 42.0852 	 
H 	 -8.63849 	 44.523 	 41.2062 	 
H 	 -8.32747 	 43.0269 	 41.6271 	 
C 	 -6.99159 	 44.5985 	 42.4191 	 
H 	 -6.56015 	 44.0632 	 43.288 	 
H 	 -7.04041 	 45.6049 	 42.7268 	 
C 	 -5.95029 	 44.4857 	 41.3191 	 
H 	 -5.79618 	 43.3887 	 41.1786 	 
H 	 -5.03271 	 45.0565 	 41.6094 	 
H 	 -6.43565 	 44.8957 	 40.397 	 
H 	 -13.0408 	 48.066 	 40.5359 	 
H 	 -10.4483 	 42.5589 	 46.1491 	 
*
