! wB97X-D3 SP def2-SVP
%pal
nprocs 16
end

* xyz 0 1
S 	 1.11975 	 -13.899 	 80.1194 	 
C 	 1.08079 	 -14.7508 	 81.6705 	 
C 	 1.84413 	 -14.1563 	 82.609 	 
C 	 2.24407 	 -12.8396 	 82.1419 	 
C 	 2.05567 	 -12.5761 	 80.775 	 
H 	 2.68987 	 -12.0418 	 82.7266 	 
C 	 2.05407 	 -14.6085 	 84.061 	 
H 	 3.12015 	 -14.6926 	 84.1417 	 
H 	 1.66646 	 -15.5904 	 84.3126 	 
C 	 1.59312 	 -13.7247 	 85.2129 	 
H 	 2.13469 	 -12.813 	 85.0228 	 
H 	 0.493981 	 -13.5837 	 85.1949 	 
C 	 1.92018 	 -14.2753 	 86.6275 	 
H 	 1.55734 	 -13.5024 	 87.3334 	 
H 	 1.4113 	 -15.2287 	 86.7745 	 
H 	 3.03897 	 -14.4186 	 86.8197 	 
S 	 1.07287 	 -10.7099 	 79.0561 	 
C 	 2.10025 	 -9.39933 	 78.4852 	 
C 	 3.35883 	 -9.48747 	 79.0699 	 
C 	 3.52737 	 -10.6356 	 79.8376 	 
C 	 2.37632 	 -11.3864 	 80.0035 	 
H 	 4.12998 	 -8.72531 	 78.7716 	 
C 	 4.87386 	 -10.9749 	 80.4412 	 
H 	 4.85831 	 -11.2914 	 81.4612 	 
H 	 5.36992 	 -10.0411 	 80.614 	 
C 	 5.84071 	 -11.979 	 79.6824 	 
H 	 5.74859 	 -11.6792 	 78.658 	 
H 	 5.63746 	 -13.0268 	 79.6954 	 
C 	 7.28451 	 -11.7706 	 80.1104 	 
H 	 7.39628 	 -12.2026 	 81.0861 	 
H 	 7.47629 	 -10.7484 	 80.3654 	 
H 	 8.07404 	 -12.2017 	 79.4786 	 
H 	 0.685293 	 -15.7232 	 81.8059 	 
H 	 1.75192 	 -8.64568 	 77.8625 	 
*
