! wB97X-D3 SP def2-SVP
%pal
nprocs 16
end

* xyz 0 1
S 	 10.3933 	 -9.26194 	 69.1425 	 
C 	 8.71117 	 -8.87851 	 69.3432 	 
C 	 8.05908 	 -8.72931 	 68.0534 	 
C 	 9.03814 	 -8.57619 	 67.0241 	 
C 	 10.3483 	 -8.78141 	 67.4711 	 
H 	 8.81381 	 -8.37529 	 65.9632 	 
C 	 6.55296 	 -8.4424 	 67.9051 	 
H 	 6.06609 	 -8.41867 	 68.836 	 
H 	 6.09066 	 -9.33517 	 67.4663 	 
C 	 6.12347 	 -7.29932 	 66.9816 	 
H 	 6.85275 	 -6.47632 	 67.0134 	 
H 	 6.08821 	 -7.62863 	 65.9331 	 
C 	 4.86423 	 -6.55656 	 67.4711 	 
H 	 4.63209 	 -5.65483 	 66.9271 	 
H 	 3.98233 	 -7.17869 	 67.4118 	 
H 	 4.956 	 -6.27695 	 68.522 	 
S 	 12.5673 	 -10.0891 	 66.4551 	 
C 	 13.6093 	 -9.20262 	 65.2655 	 
C 	 13.1404 	 -7.89369 	 65.118 	 
C 	 11.9339 	 -7.60374 	 65.8858 	 
C 	 11.5118 	 -8.65761 	 66.6814 	 
H 	 13.636 	 -7.20285 	 64.4306 	 
C 	 11.241 	 -6.25806 	 65.8446 	 
H 	 10.1947 	 -6.23555 	 65.6172 	 
H 	 11.7879 	 -5.62726 	 65.1538 	 
C 	 11.4092 	 -5.46 	 67.1599 	 
H 	 12.45 	 -5.40356 	 67.4323 	 
H 	 10.9663 	 -6.07685 	 68.002 	 
C 	 10.724 	 -4.13735 	 67.2042 	 
H 	 11.1217 	 -3.41069 	 66.4812 	 
H 	 10.9365 	 -3.64717 	 68.1761 	 
H 	 9.70636 	 -4.25881 	 67.0635 	 
H 	 8.17941 	 -8.82265 	 70.2291 	 
H 	 14.4644 	 -9.66868 	 64.8523 	 
*
