! wB97X-D3 SP def2-SVP
%pal
nprocs 16
end

* xyz 0 1
S 	 -66.914 	 37.7916 	 131.376 	 
C 	 -66.6249 	 39.1047 	 130.316 	 
C 	 -65.8247 	 40.0984 	 130.837 	 
C 	 -65.4638 	 39.7684 	 132.21 	 
C 	 -65.9359 	 38.5618 	 132.673 	 
H 	 -64.9308 	 40.2665 	 132.966 	 
C 	 -65.4812 	 41.4151 	 130.203 	 
H 	 -65.0794 	 41.2519 	 129.182 	 
H 	 -64.6951 	 41.8913 	 130.796 	 
C 	 -66.7674 	 42.3377 	 130.084 	 
H 	 -66.3758 	 43.2439 	 129.644 	 
H 	 -67.3897 	 41.737 	 129.385 	 
C 	 -67.4286 	 42.5616 	 131.46 	 
H 	 -67.8795 	 41.6726 	 131.876 	 
H 	 -66.6973 	 43.0352 	 132.11 	 
H 	 -68.3384 	 43.1981 	 131.176 	 
S 	 -67.3191 	 37.2529 	 134.692 	 
C 	 -66.5135 	 36.6887 	 136.173 	 
C 	 -65.1558 	 37.1126 	 136.109 	 
C 	 -64.8041 	 37.8895 	 134.943 	 
C 	 -65.8529 	 37.9803 	 134.029 	 
H 	 -64.421 	 36.7652 	 136.847 	 
C 	 -63.4163 	 38.2355 	 134.489 	 
H 	 -63.174 	 39.2501 	 134.85 	 
H 	 -63.5392 	 38.2395 	 133.388 	 
C 	 -62.215 	 37.3415 	 134.831 	 
H 	 -62.0829 	 37.3455 	 135.916 	 
H 	 -61.3653 	 37.8537 	 134.331 	 
C 	 -62.3486 	 35.8868 	 134.225 	 
H 	 -63.3903 	 35.4563 	 134.424 	 
H 	 -61.7002 	 35.1025 	 134.669 	 
H 	 -62.2975 	 35.8357 	 133.135 	 
H 	 -67.2499 	 39.2493 	 129.384 	 
H 	 -66.8936 	 36.0151 	 136.924 	 
*
