! wB97X-D3 SP def2-SVP
%pal
nprocs 16
end

* xyz 0 1
S 	 -32.8927 	 62.2883 	 106.322 	 
C 	 -31.7346 	 62.4772 	 107.563 	 
C 	 -30.4644 	 62.8378 	 107.084 	 
C 	 -30.5549 	 63.088 	 105.673 	 
C 	 -31.756 	 62.7277 	 105.079 	 
H 	 -29.7357 	 63.4573 	 105.048 	 
C 	 -29.2317 	 63.1186 	 107.927 	 
H 	 -28.4311 	 62.5113 	 107.434 	 
H 	 -29.3299 	 62.7456 	 108.976 	 
C 	 -28.7217 	 64.578 	 108.037 	 
H 	 -29.5729 	 65.0552 	 108.416 	 
H 	 -27.9183 	 64.5131 	 108.766 	 
C 	 -28.2386 	 65.3238 	 106.726 	 
H 	 -29.0695 	 65.4429 	 106.054 	 
H 	 -27.9267 	 66.339 	 107.081 	 
H 	 -27.4059 	 64.7641 	 106.149 	 
S 	 -33.8146 	 63.0065 	 103.139 	 
C 	 -33.3962 	 62.9431 	 101.462 	 
C 	 -32.0608 	 62.7743 	 101.334 	 
C 	 -31.3379 	 62.6914 	 102.562 	 
C 	 -32.1277 	 62.8346 	 103.68 	 
H 	 -31.6538 	 62.5195 	 100.308 	 
C 	 -29.8766 	 62.2961 	 102.445 	 
H 	 -29.8334 	 61.5721 	 101.672 	 
H 	 -29.7312 	 61.7689 	 103.36 	 
C 	 -28.8753 	 63.4294 	 102.221 	 
H 	 -29.0905 	 64.3056 	 102.88 	 
H 	 -28.9555 	 63.8156 	 101.155 	 
C 	 -27.415 	 63.0725 	 102.275 	 
H 	 -26.8386 	 63.4879 	 101.409 	 
H 	 -27.3512 	 62.028 	 102.364 	 
H 	 -26.9352 	 63.4841 	 103.083 	 
H 	 -31.9155 	 62.308 	 108.599 	 
H 	 -34.1489 	 62.971 	 100.658 	 
*
