! wB97X-D3 SP def2-SVP
%pal
nprocs 16
end

* xyz 0 1
S 	 -16.0172 	 -3.8907 	 83.8651 	 
C 	 -16.2077 	 -4.9183 	 82.4754 	 
C 	 -16.7911 	 -6.12482 	 82.8269 	 
C 	 -17.3646 	 -6.07619 	 84.1733 	 
C 	 -17.2549 	 -4.8317 	 84.7277 	 
H 	 -17.9568 	 -6.83969 	 84.6333 	 
C 	 -16.7519 	 -7.37649 	 82.1511 	 
H 	 -17.5852 	 -8.00742 	 82.5005 	 
H 	 -15.842 	 -7.90396 	 82.4733 	 
C 	 -16.8048 	 -7.36276 	 80.5609 	 
H 	 -17.8097 	 -6.90034 	 80.2549 	 
H 	 -16.0154 	 -6.7345 	 80.2067 	 
C 	 -16.6159 	 -8.71927 	 79.9177 	 
H 	 -17.3901 	 -9.46147 	 80.2073 	 
H 	 -16.7935 	 -8.76014 	 78.8418 	 
H 	 -15.6511 	 -9.18242 	 80.0961 	 
S 	 -19.3978 	 -5.17142 	 86.3806 	 
C 	 -19.3852 	 -4.3606 	 87.9251 	 
C 	 -18.2459 	 -3.59776 	 88.2405 	 
C 	 -17.3777 	 -3.67603 	 87.0983 	 
C 	 -17.8138 	 -4.48762 	 86.0254 	 
H 	 -18.1858 	 -2.94222 	 89.1144 	 
C 	 -16.0631 	 -2.91098 	 87.1995 	 
H 	 -15.3891 	 -3.53802 	 86.5602 	 
H 	 -15.8181 	 -2.81266 	 88.22 	 
C 	 -16.1032 	 -1.47161 	 86.5292 	 
H 	 -16.8532 	 -0.972558 	 87.0686 	 
H 	 -16.3907 	 -1.53664 	 85.4368 	 
C 	 -14.8505 	 -0.663297 	 86.7185 	 
H 	 -15.0345 	 0.346162 	 86.1987 	 
H 	 -13.9598 	 -1.20422 	 86.2791 	 
H 	 -14.734 	 -0.488616 	 87.7263 	 
H 	 -15.6961 	 -4.79267 	 81.4958 	 
H 	 -20.2209 	 -4.30016 	 88.5505 	 
*
