! wB97X-D3 SP def2-SVP
%pal
nprocs 16
end

* xyz 0 1
S 	 53.5137 	 24.2347 	 42.329 	 
C 	 54.3459 	 25.1097 	 41.0103 	 
C 	 53.5052 	 26.0836 	 40.416 	 
C 	 52.245 	 26.1323 	 41.068 	 
C 	 52.0836 	 25.207 	 42.0639 	 
H 	 51.4536 	 26.7894 	 40.9144 	 
C 	 53.8535 	 26.9681 	 39.2585 	 
H 	 54.7792 	 26.5927 	 38.8084 	 
H 	 54.1519 	 27.9638 	 39.664 	 
C 	 52.6974 	 27.0819 	 38.226 	 
H 	 52.4951 	 26.0281 	 38.1291 	 
H 	 51.9051 	 27.6692 	 38.6943 	 
C 	 53.2204 	 27.7718 	 36.9492 	 
H 	 53.7418 	 27.0204 	 36.2984 	 
H 	 52.2877 	 28.104 	 36.5043 	 
H 	 53.8627 	 28.6385 	 37.1511 	 
S 	 50.8944 	 25.6059 	 44.4951 	 
C 	 49.2689 	 25.0313 	 44.7578 	 
C 	 48.6651 	 24.6352 	 43.5893 	 
C 	 49.5772 	 24.5892 	 42.4494 	 
C 	 50.8493 	 25.0395 	 42.8513 	 
H 	 47.5845 	 24.3813 	 43.5676 	 
C 	 49.1183 	 24.1346 	 41.0586 	 
H 	 49.6367 	 24.7893 	 40.4166 	 
H 	 48.0795 	 24.3321 	 40.8647 	 
C 	 49.4709 	 22.6772 	 40.6725 	 
H 	 48.9161 	 22.0771 	 41.3945 	 
H 	 50.5299 	 22.5012 	 40.9986 	 
C 	 49.2586 	 22.2031 	 39.2402 	 
H 	 49.9299 	 22.7802 	 38.5862 	 
H 	 48.1878 	 22.3488 	 39.0307 	 
H 	 49.5424 	 21.1128 	 39.072 	 
H 	 55.2996 	 24.8981 	 40.6787 	 
H 	 48.5592 	 25.271 	 45.5405 	 
*
