! wB97X-D3 SP def2-SVP
%pal
nprocs 16
end

* xyz 0 1
S 	 5.44959 	 26.9162 	 68.1948 	 
C 	 4.2183 	 26.8921 	 67.0178 	 
C 	 4.64618 	 26.1412 	 65.9338 	 
C 	 6.05552 	 26.0731 	 65.9014 	 
C 	 6.7037 	 26.473 	 67.0337 	 
H 	 6.68379 	 25.8185 	 65.0392 	 
C 	 3.79139 	 25.7436 	 64.7342 	 
H 	 4.27331 	 24.9345 	 64.2839 	 
H 	 3.94014 	 26.4755 	 63.904 	 
C 	 2.4311 	 25.1227 	 65.0237 	 
H 	 2.50879 	 24.2543 	 65.6588 	 
H 	 1.87775 	 25.8969 	 65.5238 	 
C 	 1.61214 	 24.8523 	 63.7339 	 
H 	 2.04606 	 24.0393 	 63.1861 	 
H 	 0.611937 	 24.5502 	 63.9701 	 
H 	 1.5954 	 25.7299 	 63.1031 	 
S 	 8.62091 	 25.7246 	 68.8426 	 
C 	 10.2958 	 26.1752 	 68.586 	 
C 	 10.4318 	 26.8845 	 67.4599 	 
C 	 9.20105 	 27.0631 	 66.7586 	 
C 	 8.10396 	 26.4832 	 67.382 	 
H 	 11.4001 	 27.252 	 67.191 	 
C 	 9.14974 	 27.907 	 65.446 	 
H 	 8.18047 	 27.9906 	 64.978 	 
H 	 9.61185 	 27.279 	 64.6472 	 
C 	 9.87414 	 29.3211 	 65.4325 	 
H 	 10.9068 	 29.274 	 65.7279 	 
H 	 9.29245 	 29.8502 	 66.0901 	 
C 	 9.97291 	 29.9645 	 64.0199 	 
H 	 9.82023 	 31.0836 	 64.1587 	 
H 	 9.23867 	 29.6143 	 63.3429 	 
H 	 10.8934 	 29.6804 	 63.4758 	 
H 	 3.1679 	 27.1095 	 67.1198 	 
H 	 11.0418 	 26.1295 	 69.3878 	 
*
