! wB97X-D3 SP def2-SVP
%pal
nprocs 16
end

* xyz 0 1
S 	 -1.08489 	 -12.7532 	 86.3914 	 
C 	 -2.41488 	 -13.6947 	 85.7351 	 
C 	 -2.23657 	 -14.0504 	 84.4276 	 
C 	 -0.949942 	 -13.5763 	 83.9379 	 
C 	 -0.207367 	 -12.9186 	 84.902 	 
H 	 -0.610072 	 -13.61 	 82.9078 	 
C 	 -3.24724 	 -14.8209 	 83.5801 	 
H 	 -3.22305 	 -15.8606 	 83.9567 	 
H 	 -2.79628 	 -14.7871 	 82.6107 	 
C 	 -4.67598 	 -14.2644 	 83.6689 	 
H 	 -4.98711 	 -14.2439 	 84.7176 	 
H 	 -4.67869 	 -13.2586 	 83.4252 	 
C 	 -5.71215 	 -15.152 	 82.9082 	 
H 	 -6.68683 	 -14.924 	 83.366 	 
H 	 -5.84166 	 -15.0439 	 81.859 	 
H 	 -5.41165 	 -16.2027 	 83.0017 	 
S 	 2.12535 	 -12.8009 	 86.183 	 
C 	 3.3361 	 -11.7458 	 85.5099 	 
C 	 3.03693 	 -11.2937 	 84.2243 	 
C 	 1.79877 	 -11.7951 	 83.7301 	 
C 	 1.11715 	 -12.4159 	 84.7802 	 
H 	 3.64771 	 -10.5687 	 83.7094 	 
C 	 1.31254 	 -11.3488 	 82.3433 	 
H 	 1.2941 	 -10.2912 	 82.4359 	 
H 	 0.227005 	 -11.5099 	 82.2217 	 
C 	 2.14655 	 -11.8208 	 81.222 	 
H 	 3.1844 	 -11.5661 	 81.4723 	 
H 	 1.93637 	 -11.1761 	 80.3167 	 
C 	 2.09104 	 -13.2479 	 80.9366 	 
H 	 2.20393 	 -13.8454 	 81.8159 	 
H 	 2.86148 	 -13.468 	 80.2139 	 
H 	 1.21423 	 -13.6186 	 80.4269 	 
H 	 -3.18256 	 -13.9642 	 86.3979 	 
H 	 4.23957 	 -11.5473 	 86.0238 	 
*
