! wB97X-D3 SP def2-SVP
%pal
nprocs 16
end

* xyz 0 1
S 	 0.808631 	 -14.7649 	 79.9198 	 
C 	 0.838712 	 -16.3172 	 79.0994 	 
C 	 -0.409818 	 -16.5241 	 78.5464 	 
C 	 -1.3935 	 -15.6102 	 79.0618 	 
C 	 -0.913672 	 -14.6979 	 79.9253 	 
H 	 -2.4769 	 -15.5378 	 78.8027 	 
C 	 -0.83505 	 -17.6093 	 77.5959 	 
H 	 -1.94284 	 -17.658 	 77.6146 	 
H 	 -0.605222 	 -18.6456 	 77.903 	 
C 	 -0.219827 	 -17.4355 	 76.1658 	 
H 	 0.871494 	 -17.5705 	 76.2908 	 
H 	 -0.636573 	 -18.1995 	 75.5042 	 
C 	 -0.686921 	 -16.1421 	 75.6149 	 
H 	 -0.46545 	 -16.2329 	 74.5126 	 
H 	 -1.78923 	 -16.0297 	 75.6172 	 
H 	 -0.242087 	 -15.3574 	 76.1496 	 
S 	 -0.687294 	 -12.1635 	 80.9483 	 
C 	 -2.13513 	 -11.2012 	 81.2558 	 
C 	 -3.24093 	 -11.9616 	 81.159 	 
C 	 -3.01077 	 -13.3491 	 80.8511 	 
C 	 -1.62536 	 -13.5499 	 80.4694 	 
H 	 -4.18272 	 -11.4666 	 81.1728 	 
C 	 -4.16196 	 -14.3538 	 80.7021 	 
H 	 -4.74535 	 -14.3449 	 81.574 	 
H 	 -3.76738 	 -15.3285 	 80.6693 	 
C 	 -5.19426 	 -14.0014 	 79.6515 	 
H 	 -4.61564 	 -13.8931 	 78.7736 	 
H 	 -5.63708 	 -13.0395 	 79.8742 	 
C 	 -6.32714 	 -15.1742 	 79.5084 	 
H 	 -7.05296 	 -14.8968 	 78.7441 	 
H 	 -6.90524 	 -15.2251 	 80.4101 	 
H 	 -6.0843 	 -16.1881 	 79.218 	 
H 	 1.75759 	 -16.8034 	 78.7348 	 
H 	 -2.08819 	 -10.1454 	 81.23 	 
*
