! wB97X-D3 SP def2-SVP
%pal
nprocs 16
end

* xyz 0 1
S 	 -38.2709 	 34.2677 	 81.34 	 
C 	 -37.5523 	 33.3018 	 80.1005 	 
C 	 -37.9274 	 31.9559 	 80.1769 	 
C 	 -38.982 	 31.7737 	 81.1427 	 
C 	 -39.1514 	 32.8855 	 81.9227 	 
H 	 -39.4988 	 30.8784 	 81.5392 	 
C 	 -37.4407 	 30.9331 	 79.2375 	 
H 	 -37.3149 	 29.9851 	 79.7646 	 
H 	 -36.4141 	 31.256 	 78.9777 	 
C 	 -38.255 	 30.7412 	 77.9765 	 
H 	 -39.253 	 30.365 	 78.2033 	 
H 	 -38.3093 	 31.7612 	 77.6782 	 
C 	 -37.5581 	 30.025 	 76.8044 	 
H 	 -38.1924 	 30.2357 	 75.9741 	 
H 	 -36.6335 	 30.516 	 76.4692 	 
H 	 -37.4363 	 28.9149 	 76.9187 	 
S 	 -41.7235 	 33.0971 	 82.7943 	 
C 	 -41.9991 	 33.2236 	 84.5432 	 
C 	 -40.8373 	 33.3724 	 85.2956 	 
C 	 -39.6995 	 33.2963 	 84.3862 	 
C 	 -40.0023 	 33.0654 	 83.0968 	 
H 	 -40.6908 	 33.6324 	 86.3269 	 
C 	 -38.3571 	 33.3278 	 84.9435 	 
H 	 -37.7099 	 32.8115 	 84.1921 	 
H 	 -38.1911 	 32.737 	 85.9146 	 
C 	 -37.8774 	 34.7243 	 85.1953 	 
H 	 -38.3567 	 35.0924 	 86.1355 	 
H 	 -38.1015 	 35.3721 	 84.3532 	 
C 	 -36.3349 	 34.73 	 85.3559 	 
H 	 -35.9664 	 35.7599 	 85.513 	 
H 	 -35.8012 	 34.3989 	 84.4778 	 
H 	 -36.0064 	 34.0941 	 86.2145 	 
H 	 -36.8394 	 33.6561 	 79.4225 	 
H 	 -42.9147 	 33.2236 	 85.0823 	 
*
