! wB97X-D3 SP def2-SVP
%pal
nprocs 16
end

* xyz 0 1
S 	 -0.972689 	 0.219431 	 83.2486 	 
C 	 -1.55792 	 -1.35409 	 83.8217 	 
C 	 -0.668729 	 -1.8651 	 84.7058 	 
C 	 0.428403 	 -1.01865 	 84.9936 	 
C 	 0.266695 	 0.258902 	 84.4726 	 
H 	 1.19363 	 -1.10671 	 85.7414 	 
C 	 -0.928129 	 -3.16199 	 85.4267 	 
H 	 -0.112714 	 -3.88044 	 85.2856 	 
H 	 -1.84313 	 -3.5705 	 84.9284 	 
C 	 -0.957451 	 -2.97506 	 87.002 	 
H 	 -1.04301 	 -3.91414 	 87.5034 	 
H 	 0.0398934 	 -2.57435 	 87.3034 	 
C 	 -1.95805 	 -1.90453 	 87.4878 	 
H 	 -1.88791 	 -0.997172 	 86.9918 	 
H 	 -2.94368 	 -2.14788 	 87.2596 	 
H 	 -1.87719 	 -1.83048 	 88.5629 	 
S 	 1.73069 	 2.38961 	 83.3329 	 
C 	 2.71846 	 3.38239 	 84.3013 	 
C 	 2.59372 	 3.10982 	 85.6558 	 
C 	 1.67292 	 2.00918 	 85.8701 	 
C 	 1.15232 	 1.43719 	 84.6935 	 
H 	 3.01233 	 3.72324 	 86.4173 	 
C 	 1.26232 	 1.57659 	 87.2745 	 
H 	 2.22299 	 1.30047 	 87.6963 	 
H 	 0.624585 	 0.65762 	 87.2138 	 
C 	 0.51316 	 2.66981 	 88.1485 	 
H 	 1.1803 	 3.6095 	 88.1886 	 
H 	 0.493684 	 2.27222 	 89.2379 	 
C 	 -0.878165 	 2.87066 	 87.653 	 
H 	 -0.760573 	 3.37326 	 86.7408 	 
H 	 -1.63281 	 3.36262 	 88.3041 	 
H 	 -1.34523 	 1.96308 	 87.4842 	 
H 	 -2.40806 	 -1.87259 	 83.3647 	 
H 	 3.31108 	 4.16175 	 83.8861 	 
*
