! wB97X-D3 SP def2-SVP
%pal
nprocs 16
end

* xyz 0 1
S 	 -41.6499 	 50.9016 	 107.471 	 
C 	 -40.1249 	 51.8023 	 107.278 	 
C 	 -39.0398 	 51.0781 	 107.873 	 
C 	 -39.4042 	 49.741 	 108.124 	 
C 	 -40.7706 	 49.495 	 107.907 	 
H 	 -38.7574 	 49.0066 	 108.577 	 
C 	 -37.6554 	 51.629 	 108.096 	 
H 	 -37.4453 	 52.4258 	 107.395 	 
H 	 -36.8172 	 51.0093 	 107.838 	 
C 	 -37.4778 	 52.1009 	 109.539 	 
H 	 -37.5592 	 51.2941 	 110.285 	 
H 	 -36.4319 	 52.4252 	 109.622 	 
C 	 -38.3908 	 53.2119 	 109.999 	 
H 	 -38.1588 	 54.1023 	 109.467 	 
H 	 -39.4368 	 52.9298 	 109.978 	 
H 	 -38.2064 	 53.2674 	 111.057 	 
S 	 -42.4833 	 48.2881 	 109.604 	 
C 	 -43.0775 	 46.6757 	 109.369 	 
C 	 -42.4375 	 46.1115 	 108.274 	 
C 	 -41.4526 	 46.9923 	 107.737 	 
C 	 -41.4882 	 48.2901 	 108.217 	 
H 	 -42.7377 	 45.0986 	 108.069 	 
C 	 -40.6335 	 46.4378 	 106.564 	 
H 	 -39.9248 	 47.216 	 106.329 	 
H 	 -41.2112 	 46.1755 	 105.694 	 
C 	 -39.7307 	 45.2884 	 106.965 	 
H 	 -40.3531 	 44.4815 	 107.408 	 
H 	 -39.0748 	 45.712 	 107.76 	 
C 	 -39.0447 	 44.6618 	 105.708 	 
H 	 -39.808 	 44.5749 	 105.035 	 
H 	 -38.7131 	 43.5858 	 105.823 	 
H 	 -38.2436 	 45.2889 	 105.375 	 
H 	 -39.9634 	 52.7229 	 106.842 	 
H 	 -43.9586 	 46.2803 	 109.899 	 
*
