! wB97X-D3 SP def2-SVP
%pal
nprocs 16
end

* xyz 0 1
S 	 -96.2903 	 51.2701 	 122.357 	 
C 	 -95.0747 	 51.459 	 121.153 	 
C 	 -95.7072 	 51.6043 	 119.957 	 
C 	 -97.1059 	 51.6123 	 120.027 	 
C 	 -97.6637 	 51.5059 	 121.269 	 
H 	 -97.728 	 51.8892 	 119.174 	 
C 	 -94.9945 	 51.768 	 118.658 	 
H 	 -93.998 	 51.4039 	 118.773 	 
H 	 -94.9119 	 52.8468 	 118.407 	 
C 	 -95.6384 	 51.123 	 117.428 	 
H 	 -95.7298 	 50.1041 	 117.531 	 
H 	 -96.6821 	 51.4402 	 117.333 	 
C 	 -94.9561 	 51.3604 	 116.079 	 
H 	 -95.3688 	 50.7293 	 115.277 	 
H 	 -95.0642 	 52.3827 	 115.75 	 
H 	 -93.8876 	 51.0934 	 116.263 	 
S 	 -99.4107 	 53.2452 	 122.577 	 
C 	 -101.149 	 52.9966 	 122.478 	 
C 	 -101.453 	 51.9181 	 121.651 	 
C 	 -100.219 	 51.2995 	 121.123 	 
C 	 -99.044 	 51.8194 	 121.607 	 
H 	 -102.533 	 51.6081 	 121.56 	 
C 	 -100.278 	 50.1414 	 120.096 	 
H 	 -99.4165 	 49.554 	 120.167 	 
H 	 -100.179 	 50.4932 	 119.118 	 
C 	 -101.499 	 49.1199 	 120.252 	 
H 	 -101.558 	 48.4019 	 119.37 	 
H 	 -102.436 	 49.6775 	 120.253 	 
C 	 -101.491 	 48.3139 	 121.619 	 
H 	 -101.507 	 49.0509 	 122.414 	 
H 	 -100.599 	 47.6896 	 121.705 	 
H 	 -102.313 	 47.6456 	 121.748 	 
H 	 -94.0405 	 51.5508 	 121.463 	 
H 	 -101.922 	 53.4946 	 123.075 	 
*
