! wB97X-D3 SP def2-SVP
%pal
nprocs 16
end

* xyz 0 1
S 	 -7.88358 	 33.6574 	 54.6316 	 
C 	 -6.12896 	 33.2934 	 54.6834 	 
C 	 -5.44132 	 34.0854 	 53.788 	 
C 	 -6.30946 	 34.9443 	 53.131 	 
C 	 -7.63334 	 34.825 	 53.4205 	 
H 	 -6.14294 	 35.6741 	 52.4043 	 
C 	 -3.97022 	 33.9467 	 53.5 	 
H 	 -3.78314 	 33.3028 	 52.6516 	 
H 	 -3.4274 	 33.4125 	 54.3139 	 
C 	 -3.13584 	 35.2346 	 53.3641 	 
H 	 -2.21547 	 35.0096 	 52.8926 	 
H 	 -3.68278 	 35.8552 	 52.7153 	 
C 	 -2.89881 	 35.9714 	 54.6569 	 
H 	 -3.70803 	 36.7059 	 54.8178 	 
H 	 -2.65306 	 35.4855 	 55.5682 	 
H 	 -2.06954 	 36.6739 	 54.5174 	 
S 	 -9.82853 	 36.4003 	 53.7036 	 
C 	 -10.8138 	 36.8182 	 52.3066 	 
C 	 -10.385 	 36.2158 	 51.1703 	 
C 	 -9.18631 	 35.4723 	 51.3622 	 
C 	 -8.71571 	 35.4203 	 52.6941 	 
H 	 -10.7741 	 36.2359 	 50.1247 	 
C 	 -8.68396 	 34.4945 	 50.2632 	 
H 	 -9.43717 	 33.7199 	 50.0758 	 
H 	 -7.88545 	 33.9326 	 50.6531 	 
C 	 -8.1425 	 35.2108 	 48.9811 	 
H 	 -7.2627 	 35.7055 	 49.2713 	 
H 	 -8.85402 	 35.9963 	 48.6157 	 
C 	 -7.90093 	 34.2532 	 47.8837 	 
H 	 -7.57564 	 33.2285 	 48.17 	 
H 	 -7.26001 	 34.6402 	 47.1352 	 
H 	 -8.85502 	 34.1905 	 47.327 	 
H 	 -5.55638 	 32.4846 	 55.2202 	 
H 	 -11.6701 	 37.484 	 52.3714 	 
*
