! wB97X-D3 SP def2-SVP
%pal
nprocs 16
end

* xyz 0 1
S 	 6.23383 	 -21.1305 	 83.858 	 
C 	 5.20279 	 -21.9637 	 85.039 	 
C 	 5.00149 	 -21.2271 	 86.1863 	 
C 	 5.68387 	 -19.9494 	 86.1327 	 
C 	 6.39895 	 -19.7677 	 84.9631 	 
H 	 5.81628 	 -19.2705 	 86.9551 	 
C 	 4.15208 	 -21.6278 	 87.3301 	 
H 	 4.75602 	 -21.2899 	 88.239 	 
H 	 4.19577 	 -22.7179 	 87.3382 	 
C 	 2.73034 	 -21.0736 	 87.389 	 
H 	 2.17301 	 -21.1616 	 88.401 	 
H 	 2.75266 	 -20.0555 	 87.0487 	 
C 	 1.80394 	 -21.8631 	 86.4938 	 
H 	 2.23924 	 -22.0848 	 85.5435 	 
H 	 1.65111 	 -22.9092 	 86.9576 	 
H 	 0.813885 	 -21.4956 	 86.4966 	 
S 	 8.78752 	 -18.529 	 84.0497 	 
C 	 8.76623 	 -16.8493 	 83.6064 	 
C 	 7.55803 	 -16.3462 	 84.078 	 
C 	 6.5824 	 -17.2543 	 84.6159 	 
C 	 7.07606 	 -18.5653 	 84.5801 	 
H 	 7.41341 	 -15.3011 	 83.9686 	 
C 	 5.19794 	 -16.7933 	 84.9732 	 
H 	 4.72133 	 -17.4816 	 85.698 	 
H 	 4.72034 	 -16.9942 	 84.0449 	 
C 	 5.08994 	 -15.3331 	 85.2876 	 
H 	 5.20269 	 -14.7632 	 84.3338 	 
H 	 5.77769 	 -14.9903 	 86.0513 	 
C 	 3.73008 	 -14.93 	 85.855 	 
H 	 3.61144 	 -15.2687 	 86.8485 	 
H 	 2.84015 	 -15.2086 	 85.3097 	 
H 	 3.60675 	 -13.8939 	 85.8412 	 
H 	 4.92819 	 -23.0156 	 84.8918 	 
H 	 9.53097 	 -16.2838 	 83.1124 	 
*
