! wB97X-D3 SP def2-SVP
%pal
nprocs 16
end

* xyz 0 1
S 	 -73.9015 	 49.4768 	 139.337 	 
C 	 -72.57 	 50.5169 	 138.858 	 
C 	 -73.0437 	 51.7039 	 138.275 	 
C 	 -74.4996 	 51.6167 	 138.079 	 
C 	 -75.0734 	 50.4424 	 138.529 	 
H 	 -74.9897 	 52.3895 	 137.549 	 
C 	 -72.1372 	 52.8314 	 137.743 	 
H 	 -72.7482 	 53.704 	 137.49 	 
H 	 -71.713 	 52.4316 	 136.835 	 
C 	 -70.9846 	 53.1907 	 138.614 	 
H 	 -71.3268 	 53.5908 	 139.563 	 
H 	 -70.3695 	 52.2929 	 138.783 	 
C 	 -69.9906 	 54.1364 	 137.889 	 
H 	 -70.3841 	 55.1082 	 137.885 	 
H 	 -69.0696 	 54.2954 	 138.455 	 
H 	 -69.7787 	 53.8515 	 136.929 	 
S 	 -77.2077 	 49.4036 	 137.226 	 
C 	 -78.8111 	 49.4156 	 137.826 	 
C 	 -78.8283 	 49.9626 	 139.074 	 
C 	 -77.5415 	 50.493 	 139.515 	 
C 	 -76.5197 	 50.2485 	 138.547 	 
H 	 -79.7397 	 49.9086 	 139.617 	 
C 	 -77.3491 	 51.0461 	 140.932 	 
H 	 -78.1115 	 51.7338 	 141.321 	 
H 	 -76.474 	 51.7218 	 140.77 	 
C 	 -76.9759 	 49.943 	 141.961 	 
H 	 -76.4727 	 50.404 	 142.779 	 
H 	 -76.3061 	 49.2216 	 141.504 	 
C 	 -78.1208 	 49.1059 	 142.5 	 
H 	 -77.9072 	 48.2364 	 143.051 	 
H 	 -78.7664 	 48.8814 	 141.721 	 
H 	 -78.6765 	 49.8324 	 143.126 	 
H 	 -71.5648 	 50.4137 	 139.224 	 
H 	 -79.7256 	 49.0213 	 137.468 	 
*
