! wB97X-D3 SP def2-SVP
%pal
nprocs 16
end

* xyz 0 1
S 	 56.5438 	 6.99524 	 62.1896 	 
C 	 57.3555 	 8.27446 	 63.1644 	 
C 	 56.4159 	 9.29782 	 63.3347 	 
C 	 55.0977 	 8.92291 	 62.846 	 
C 	 55.0865 	 7.84515 	 62.0074 	 
H 	 54.226 	 9.53811 	 62.8759 	 
C 	 56.6711 	 10.473 	 64.2306 	 
H 	 56.7279 	 11.346 	 63.5778 	 
H 	 57.7392 	 10.3737 	 64.5983 	 
C 	 55.7908 	 10.6777 	 65.381 	 
H 	 54.7611 	 10.9307 	 65.0266 	 
H 	 55.7016 	 9.78031 	 66.0149 	 
C 	 56.24 	 11.8107 	 66.2957 	 
H 	 57.0472 	 11.5081 	 66.976 	 
H 	 56.7429 	 12.6829 	 65.7419 	 
H 	 55.3595 	 12.2298 	 66.903 	 
S 	 53.6799 	 5.5565 	 61.4174 	 
C 	 52.2949 	 5.62777 	 60.4058 	 
C 	 52.2443 	 6.95076 	 59.8355 	 
C 	 53.2925 	 7.80266 	 60.2846 	 
C 	 54.0225 	 7.26312 	 61.2896 	 
H 	 51.514 	 7.12917 	 59.1 	 
C 	 53.5147 	 9.12828 	 59.5077 	 
H 	 53.5268 	 9.96458 	 60.2614 	 
H 	 52.6976 	 9.29292 	 58.8117 	 
C 	 54.8194 	 9.02598 	 58.7375 	 
H 	 55.6718 	 8.73743 	 59.3968 	 
H 	 55.0798 	 9.95884 	 58.3642 	 
C 	 54.8048 	 8.02402 	 57.5259 	 
H 	 54.5263 	 6.97144 	 57.7608 	 
H 	 55.8007 	 7.938 	 57.0352 	 
H 	 53.97 	 8.30774 	 56.8507 	 
H 	 58.3488 	 8.20083 	 63.4336 	 
H 	 51.6289 	 4.79279 	 60.066 	 
*
