! wB97X-D3 SP def2-SVP
%pal
nprocs 16
end

* xyz 0 1
S 	 -11.645 	 56.4108 	 57.1381 	 
C 	 -10.7284 	 55.8819 	 55.7132 	 
C 	 -9.82143 	 56.9009 	 55.3627 	 
C 	 -9.8537 	 57.9946 	 56.2308 	 
C 	 -10.7621 	 57.8976 	 57.2546 	 
H 	 -9.21728 	 58.8718 	 56.0925 	 
C 	 -8.83862 	 56.7453 	 54.232 	 
H 	 -8.96026 	 57.3877 	 53.3553 	 
H 	 -9.12635 	 55.7532 	 53.8144 	 
C 	 -7.34899 	 56.6777 	 54.5224 	 
H 	 -6.82527 	 56.3351 	 53.5996 	 
H 	 -7.01314 	 57.7299 	 54.7843 	 
C 	 -7.01785 	 55.6543 	 55.6265 	 
H 	 -5.93474 	 55.5178 	 55.5313 	 
H 	 -7.28657 	 56.0762 	 56.6168 	 
H 	 -7.38123 	 54.5746 	 55.3653 	 
S 	 -11.1084 	 58.2501 	 59.9738 	 
C 	 -11.3323 	 59.8149 	 60.6368 	 
C 	 -11.531 	 60.7482 	 59.6768 	 
C 	 -11.1665 	 60.285 	 58.3548 	 
C 	 -10.9934 	 58.8686 	 58.3255 	 
H 	 -11.782 	 61.7868 	 59.8857 	 
C 	 -11.3542 	 61.1568 	 57.1334 	 
H 	 -12.4057 	 61.1397 	 56.734 	 
H 	 -10.7153 	 60.7878 	 56.3366 	 
C 	 -11.0265 	 62.693 	 57.2682 	 
H 	 -11.6938 	 63.3056 	 57.8398 	 
H 	 -11.2349 	 63.1446 	 56.2817 	 
C 	 -9.60786 	 62.8898 	 57.7241 	 
H 	 -9.39367 	 63.8609 	 58.1881 	 
H 	 -8.85134 	 62.5893 	 56.8797 	 
H 	 -9.36365 	 62.1588 	 58.5116 	 
H 	 -10.8015 	 54.8875 	 55.2478 	 
H 	 -11.5965 	 60.0255 	 61.6573 	 
*
