! wB97X-D3 SP def2-SVP
%pal
nprocs 16
end

* xyz 0 1
S 	 38.5123 	 30.0912 	 93.6191 	 
C 	 39.6427 	 30.2002 	 92.258 	 
C 	 39.7899 	 29.0174 	 91.6632 	 
C 	 39.2132 	 27.9654 	 92.5076 	 
C 	 38.5865 	 28.4506 	 93.6438 	 
H 	 39.2572 	 26.8871 	 92.3492 	 
C 	 40.604 	 28.6873 	 90.3946 	 
H 	 41.2099 	 27.8655 	 90.6174 	 
H 	 41.2485 	 29.4971 	 90.2557 	 
C 	 39.8221 	 28.3175 	 89.1701 	 
H 	 39.1004 	 29.1276 	 89.1391 	 
H 	 40.4309 	 28.2617 	 88.2318 	 
C 	 39.0456 	 26.9664 	 89.3621 	 
H 	 38.4903 	 26.9245 	 90.2306 	 
H 	 38.331 	 26.7956 	 88.586 	 
H 	 39.6667 	 26.1372 	 89.3596 	 
S 	 36.5631 	 28.1845 	 95.5525 	 
C 	 36.5558 	 26.8999 	 96.7132 	 
C 	 37.6709 	 26.0812 	 96.5681 	 
C 	 38.5069 	 26.4964 	 95.4474 	 
C 	 38.0913 	 27.6607 	 94.7934 	 
H 	 37.8277 	 25.1715 	 97.1104 	 
C 	 39.7398 	 25.6973 	 95.0991 	 
H 	 40.1713 	 25.4519 	 96.0686 	 
H 	 40.3911 	 26.308 	 94.465 	 
C 	 39.5864 	 24.4371 	 94.3018 	 
H 	 39.1949 	 24.6571 	 93.2822 	 
H 	 38.906 	 23.7183 	 94.7371 	 
C 	 40.9544 	 23.8576 	 93.9971 	 
H 	 40.9283 	 23.085 	 93.2102 	 
H 	 41.3674 	 23.6771 	 94.9611 	 
H 	 41.7348 	 24.3928 	 93.382 	 
H 	 40.1012 	 31.0916 	 91.7615 	 
H 	 35.8004 	 26.6981 	 97.4765 	 
*
