! wB97X-D3 SP def2-SVP
%pal
nprocs 16
end

* xyz 0 1
S 	 -8.36269 	 62.9527 	 57.1906 	 
C 	 -7.16337 	 62.4867 	 58.368 	 
C 	 -7.46985 	 61.2618 	 58.9231 	 
C 	 -8.82251 	 60.8047 	 58.6138 	 
C 	 -9.44339 	 61.6385 	 57.7224 	 
H 	 -9.26556 	 59.8916 	 58.9886 	 
C 	 -6.46376 	 60.3777 	 59.6525 	 
H 	 -6.71453 	 60.1825 	 60.6711 	 
H 	 -5.66589 	 61.1727 	 59.8933 	 
C 	 -6.06937 	 59.0531 	 59.0886 	 
H 	 -5.16091 	 58.6761 	 59.5615 	 
H 	 -6.85318 	 58.2525 	 59.1722 	 
C 	 -5.80377 	 59.0067 	 57.5437 	 
H 	 -6.67832 	 59.3385 	 56.9467 	 
H 	 -4.96005 	 59.6744 	 57.3168 	 
H 	 -5.60805 	 58.0064 	 57.2614 	 
S 	 -11.248 	 59.965 	 56.3836 	 
C 	 -12.8087 	 60.6681 	 55.8706 	 
C 	 -12.8855 	 62.0193 	 56.2909 	 
C 	 -11.8283 	 62.5053 	 57.1114 	 
C 	 -10.8193 	 61.5718 	 57.208 	 
H 	 -13.8174 	 62.5485 	 56.2272 	 
C 	 -11.9059 	 63.9548 	 57.6982 	 
H 	 -11.5509 	 64.6706 	 56.9796 	 
H 	 -11.1656 	 63.9135 	 58.5061 	 
C 	 -13.2511 	 64.4824 	 58.2418 	 
H 	 -14.102 	 64.3787 	 57.5416 	 
H 	 -13.2141 	 65.5911 	 58.6537 	 
C 	 -13.7508 	 63.7177 	 59.5299 	 
H 	 -13.0455 	 63.4573 	 60.3174 	 
H 	 -14.3688 	 62.8451 	 59.3024 	 
H 	 -14.3788 	 64.4 	 60.0334 	 
H 	 -6.18854 	 63.0524 	 58.5081 	 
H 	 -13.6435 	 60.1348 	 55.446 	 
*
