! wB97X-D3 SP def2-SVP
%pal
nprocs 16
end

* xyz 0 1
S 	 -98.261 	 48.7959 	 128.598 	 
C 	 -96.9553 	 49.2199 	 127.601 	 
C 	 -97.1758 	 50.3695 	 126.866 	 
C 	 -98.5608 	 50.7608 	 127.015 	 
C 	 -99.3313 	 49.9434 	 127.815 	 
H 	 -99.0267 	 51.5787 	 126.576 	 
C 	 -96.2118 	 51.2075 	 125.973 	 
H 	 -95.2077 	 50.8769 	 126.211 	 
H 	 -96.1338 	 52.2605 	 126.22 	 
C 	 -96.3817 	 51.0522 	 124.476 	 
H 	 -95.9257 	 50.096 	 124.033 	 
H 	 -97.4304 	 51.0496 	 124.328 	 
C 	 -95.9592 	 52.2937 	 123.674 	 
H 	 -94.9327 	 52.2496 	 123.58 	 
H 	 -96.3368 	 52.2165 	 122.641 	 
H 	 -96.189 	 53.1811 	 124.243 	 
S 	 -101.121 	 51.2481 	 129.523 	 
C 	 -102.835 	 51.2136 	 129.052 	 
C 	 -103.058 	 50.5689 	 127.887 	 
C 	 -101.84 	 50.0528 	 127.311 	 
C 	 -100.706 	 50.2447 	 128.118 	 
H 	 -104.056 	 50.493 	 127.435 	 
C 	 -101.858 	 49.3398 	 125.954 	 
H 	 -102.895 	 49.3723 	 125.658 	 
H 	 -101.782 	 48.2818 	 126.211 	 
C 	 -100.972 	 49.7772 	 124.782 	 
H 	 -99.972 	 49.44 	 124.973 	 
H 	 -101.084 	 50.8453 	 124.773 	 
C 	 -101.438 	 49.3088 	 123.471 	 
H 	 -102.484 	 49.6606 	 123.142 	 
H 	 -101.401 	 48.2078 	 123.384 	 
H 	 -100.722 	 49.7006 	 122.69 	 
H 	 -95.9473 	 48.8044 	 127.661 	 
H 	 -103.644 	 51.7034 	 129.47 	 
*
