! wB97X-D3 SP def2-SVP
%pal
nprocs 16
end

* xyz 0 1
S 	 -0.976385 	 -11.93 	 89.1291 	 
C 	 0.421398 	 -11.9128 	 90.221 	 
C 	 0.793532 	 -10.6348 	 90.669 	 
C 	 -0.121521 	 -9.69723 	 90.0996 	 
C 	 -1.22691 	 -10.193 	 89.3778 	 
H 	 -0.132467 	 -8.67454 	 90.3171 	 
C 	 1.96321 	 -10.1539 	 91.465 	 
H 	 2.42967 	 -9.48085 	 90.8024 	 
H 	 2.57729 	 -10.9353 	 91.6816 	 
C 	 1.5504 	 -9.39967 	 92.7186 	 
H 	 2.44393 	 -8.90073 	 93.1065 	 
H 	 0.915633 	 -8.58247 	 92.3187 	 
C 	 0.802794 	 -10.252 	 93.7622 	 
H 	 1.34219 	 -11.2447 	 93.8323 	 
H 	 0.848795 	 -9.79088 	 94.7449 	 
H 	 -0.26262 	 -10.3862 	 93.427 	 
S 	 -3.91988 	 -10.1553 	 89.6847 	 
C 	 -4.92942 	 -8.8252 	 89.1363 	 
C 	 -4.0657 	 -7.82443 	 88.6488 	 
C 	 -2.62799 	 -8.1669 	 88.6392 	 
C 	 -2.43762 	 -9.47049 	 89.037 	 
H 	 -4.42548 	 -6.89702 	 88.1825 	 
C 	 -1.50415 	 -7.11555 	 88.4028 	 
H 	 -1.87541 	 -6.52075 	 87.5021 	 
H 	 -0.588312 	 -7.67027 	 88.0942 	 
C 	 -1.25871 	 -6.02703 	 89.4562 	 
H 	 -0.943664 	 -6.53812 	 90.3735 	 
H 	 -2.16672 	 -5.44521 	 89.7789 	 
C 	 -0.072054 	 -5.06026 	 89.1702 	 
H 	 0.209694 	 -4.61518 	 90.0774 	 
H 	 -0.288003 	 -4.3387 	 88.4681 	 
H 	 0.780756 	 -5.64314 	 88.7335 	 
H 	 1.00531 	 -12.7939 	 90.5406 	 
H 	 -6.03595 	 -8.80292 	 89.1238 	 
*
