! wB97X-D3 SP def2-SVP
%pal
nprocs 16
end

* xyz 0 1
S 	 10.639 	 -13.7611 	 102.25 	 
C 	 11.5012 	 -13.16 	 103.612 	 
C 	 10.6231 	 -12.3343 	 104.332 	 
C 	 9.29504 	 -12.3336 	 103.882 	 
C 	 9.15137 	 -13.0242 	 102.73 	 
H 	 8.52385 	 -11.6818 	 104.273 	 
C 	 11.0519 	 -11.5501 	 105.534 	 
H 	 11.1977 	 -10.4895 	 105.295 	 
H 	 12.0537 	 -11.9555 	 105.783 	 
C 	 10.2396 	 -11.6153 	 106.792 	 
H 	 10.7358 	 -10.918 	 107.542 	 
H 	 9.3279 	 -11.1702 	 106.653 	 
C 	 10.0356 	 -13.0657 	 107.324 	 
H 	 9.73498 	 -13.2419 	 108.368 	 
H 	 9.20568 	 -13.4707 	 106.718 	 
H 	 10.9054 	 -13.6967 	 107.135 	 
S 	 8.11996 	 -12.84 	 100.221 	 
C 	 6.38897 	 -12.9802 	 99.9505 	 
C 	 5.64827 	 -13.0573 	 101.099 	 
C 	 6.52473 	 -12.9911 	 102.235 	 
C 	 7.88087 	 -13.0336 	 101.943 	 
H 	 4.60217 	 -13.0579 	 101.145 	 
C 	 6.02374 	 -13.0462 	 103.722 	 
H 	 4.93552 	 -12.9499 	 103.772 	 
H 	 6.30978 	 -12.1394 	 104.286 	 
C 	 6.45805 	 -14.3208 	 104.501 	 
H 	 7.54335 	 -14.4682 	 104.478 	 
H 	 5.92132 	 -15.1815 	 104.096 	 
C 	 6.2701 	 -14.0911 	 106.021 	 
H 	 5.17815 	 -14.091 	 106.22 	 
H 	 6.65599 	 -13.1562 	 106.284 	 
H 	 6.91431 	 -14.8601 	 106.538 	 
H 	 12.5391 	 -13.4045 	 103.855 	 
H 	 5.87927 	 -12.9287 	 98.9597 	 
*
