! wB97X-D3 SP def2-SVP
%pal
nprocs 16
end

* xyz 0 1
S 	 68.0241 	 20.7051 	 76.6243 	 
C 	 69.7265 	 20.8738 	 77.02 	 
C 	 70.0996 	 22.2234 	 76.9457 	 
C 	 69.0158 	 23.0419 	 76.5574 	 
C 	 67.8335 	 22.4034 	 76.4127 	 
H 	 69.0481 	 24.0936 	 76.3484 	 
C 	 71.4762 	 22.5748 	 77.3229 	 
H 	 72.0145 	 23.1921 	 76.6266 	 
H 	 72.0658 	 21.7055 	 77.441 	 
C 	 71.4614 	 23.5094 	 78.6517 	 
H 	 70.8411 	 24.341 	 78.506 	 
H 	 70.9581 	 22.9003 	 79.4129 	 
C 	 72.8986 	 23.8102 	 79.0905 	 
H 	 73.7206 	 23.0934 	 78.8415 	 
H 	 73.2167 	 24.8255 	 78.8266 	 
H 	 72.9949 	 23.7972 	 80.1712 	 
S 	 65.3891 	 21.9639 	 75.1417 	 
C 	 64.2222 	 23.2289 	 74.9377 	 
C 	 64.8102 	 24.4163 	 75.3251 	 
C 	 66.0485 	 24.3347 	 76.038 	 
C 	 66.5101 	 22.9855 	 76.0798 	 
H 	 64.2283 	 25.3219 	 75.1346 	 
C 	 66.8121 	 25.5635 	 76.4925 	 
H 	 67.3643 	 25.2651 	 77.2998 	 
H 	 66.1103 	 26.2891 	 76.9042 	 
C 	 67.7803 	 26.281 	 75.5273 	 
H 	 67.1911 	 26.8759 	 74.7778 	 
H 	 68.5126 	 25.6336 	 75.0102 	 
C 	 68.6579 	 27.4258 	 76.2373 	 
H 	 69.4624 	 27.7784 	 75.6312 	 
H 	 69.0482 	 26.9029 	 77.1057 	 
H 	 68.0089 	 28.2913 	 76.4522 	 
H 	 70.3877 	 20.0366 	 77.3876 	 
H 	 63.2378 	 23.0474 	 74.5029 	 
*
