! wB97X-D3 SP def2-SVP
%pal
nprocs 16
end

* xyz 0 1
S 	 1.74632 	 -24.1477 	 83.6009 	 
C 	 3.23124 	 -24.6765 	 82.7839 	 
C 	 4.30456 	 -23.7614 	 82.9369 	 
C 	 3.98706 	 -22.6542 	 83.7845 	 
C 	 2.61556 	 -22.6179 	 84.0991 	 
H 	 4.66691 	 -21.8795 	 84.0505 	 
C 	 5.71911 	 -23.9688 	 82.3625 	 
H 	 5.9712 	 -23.1361 	 81.6831 	 
H 	 5.71204 	 -24.8307 	 81.6739 	 
C 	 6.90834 	 -24.1121 	 83.3123 	 
H 	 6.84808 	 -23.364 	 84.0817 	 
H 	 6.81563 	 -25.0005 	 83.8837 	 
C 	 8.33761 	 -24.0649 	 82.7935 	 
H 	 9.00597 	 -23.7507 	 83.5346 	 
H 	 8.67969 	 -25.0424 	 82.4937 	 
H 	 8.45984 	 -23.3822 	 81.9676 	 
S 	 1.61608 	 -21.7021 	 86.5366 	 
C 	 1.38107 	 -19.9636 	 86.6745 	 
C 	 1.65834 	 -19.2898 	 85.4888 	 
C 	 2.11077 	 -20.1453 	 84.4637 	 
C 	 2.00797 	 -21.5093 	 84.8617 	 
H 	 1.63016 	 -18.1746 	 85.4317 	 
C 	 2.51959 	 -19.6169 	 83.1006 	 
H 	 2.88681 	 -20.402 	 82.3765 	 
H 	 3.41671 	 -19.1424 	 83.371 	 
C 	 1.65416 	 -18.6039 	 82.4465 	 
H 	 2.2104 	 -18.011 	 81.6525 	 
H 	 1.35127 	 -17.8419 	 83.1457 	 
C 	 0.357313 	 -19.2688 	 81.9386 	 
H 	 -0.278435 	 -19.4827 	 82.7359 	 
H 	 0.49303 	 -20.1906 	 81.3179 	 
H 	 -0.202447 	 -18.5595 	 81.351 	 
H 	 3.16402 	 -25.5914 	 82.1588 	 
H 	 1.23899 	 -19.5938 	 87.6937 	 
*
