! wB97X-D3 SP def2-SVP
%pal
nprocs 16
end

* xyz 0 1
S 	 -66.1458 	 40.7659 	 122.802 	 
C 	 -67.7894 	 41.0962 	 122.444 	 
C 	 -68.7324 	 40.3201 	 123.083 	 
C 	 -68.1401 	 39.4893 	 124.104 	 
C 	 -66.7224 	 39.6063 	 124.077 	 
H 	 -68.6439 	 38.7396 	 124.703 	 
C 	 -70.2081 	 40.5959 	 122.936 	 
H 	 -70.4102 	 41.615 	 123.353 	 
H 	 -70.7616 	 39.9739 	 123.568 	 
C 	 -70.8231 	 40.4669 	 121.546 	 
H 	 -70.2796 	 41.0473 	 120.78 	 
H 	 -70.6527 	 39.4942 	 121.152 	 
C 	 -72.302 	 40.6854 	 121.338 	 
H 	 -72.5577 	 40.4838 	 120.347 	 
H 	 -72.9315 	 40.0882 	 122.052 	 
H 	 -72.5386 	 41.7482 	 121.489 	 
S 	 -64.5455 	 37.9691 	 123.831 	 
C 	 -63.7227 	 37.4419 	 125.293 	 
C 	 -64.4484 	 37.6984 	 126.43 	 
C 	 -65.5943 	 38.5594 	 126.155 	 
C 	 -65.8063 	 38.7396 	 124.757 	 
H 	 -64.0943 	 37.4157 	 127.393 	 
C 	 -66.3191 	 39.1337 	 127.388 	 
H 	 -67.0363 	 38.4336 	 127.836 	 
H 	 -66.8731 	 39.8947 	 127.018 	 
C 	 -65.3449 	 39.8246 	 128.491 	 
H 	 -64.7957 	 40.5445 	 127.963 	 
H 	 -64.661 	 39.092 	 128.787 	 
C 	 -66.1754 	 40.3943 	 129.725 	 
H 	 -66.8231 	 41.2797 	 129.585 	 
H 	 -65.5489 	 40.6319 	 130.61 	 
H 	 -66.8467 	 39.5951 	 130.057 	 
H 	 -68.3094 	 41.7009 	 121.665 	 
H 	 -62.8297 	 36.8223 	 125.173 	 
*
