! wB97X-D3 SP def2-SVP
%pal
nprocs 16
end

* xyz 0 1
S 	 -33.7932 	 55.9761 	 111.662 	 
C 	 -32.5193 	 57.2116 	 111.591 	 
C 	 -33.0379 	 58.4267 	 112.012 	 
C 	 -34.3864 	 58.4078 	 112.358 	 
C 	 -34.9424 	 57.1871 	 112.195 	 
H 	 -34.9615 	 59.3359 	 112.458 	 
C 	 -32.2549 	 59.6983 	 111.792 	 
H 	 -32.8574 	 60.4295 	 111.287 	 
H 	 -31.453 	 59.4175 	 111.091 	 
C 	 -31.5388 	 60.3569 	 113.043 	 
H 	 -30.8315 	 59.6477 	 113.461 	 
H 	 -30.9769 	 61.2437 	 112.694 	 
C 	 -32.5347 	 60.847 	 114.107 	 
H 	 -32.1347 	 61.3712 	 115.037 	 
H 	 -33.06 	 61.6434 	 113.66 	 
H 	 -33.1022 	 60.1418 	 114.706 	 
S 	 -36.6122 	 55.547 	 113.679 	 
C 	 -38.3163 	 55.6811 	 113.481 	 
C 	 -38.5955 	 56.3363 	 112.333 	 
C 	 -37.5198 	 57.2085 	 111.923 	 
C 	 -36.3274 	 56.9026 	 112.504 	 
H 	 -39.6422 	 56.5378 	 111.994 	 
C 	 -37.6928 	 58.2975 	 110.845 	 
H 	 -37.0063 	 57.946 	 110.008 	 
H 	 -37.1301 	 59.2582 	 111.07 	 
C 	 -39.0808 	 58.4767 	 110.281 	 
H 	 -39.8085 	 58.8036 	 111.076 	 
H 	 -39.5405 	 57.5157 	 110.042 	 
C 	 -39.0087 	 59.3823 	 108.936 	 
H 	 -38.3529 	 59.0324 	 108.216 	 
H 	 -38.6742 	 60.3922 	 109.136 	 
H 	 -39.976 	 59.5193 	 108.507 	 
H 	 -31.5006 	 57.0768 	 111.096 	 
H 	 -39.1148 	 55.0833 	 113.957 	 
*
