! wB97X-D3 SP def2-SVP
%pal
nprocs 16
end

* xyz 0 1
S 	 -88.6667 	 47.7059 	 127.73 	 
C 	 -89.3852 	 49.2379 	 128.207 	 
C 	 -88.417 	 50.1789 	 128.587 	 
C 	 -87.1415 	 49.5884 	 128.684 	 
C 	 -87.0923 	 48.2408 	 128.297 	 
H 	 -86.3197 	 50.1381 	 128.995 	 
C 	 -88.5091 	 51.732 	 128.722 	 
H 	 -89.4258 	 52.1054 	 128.297 	 
H 	 -87.8015 	 52.2561 	 128.022 	 
C 	 -88.2828 	 52.2555 	 130.172 	 
H 	 -88.9713 	 51.6628 	 130.689 	 
H 	 -87.2912 	 51.9405 	 130.514 	 
C 	 -88.6131 	 53.6939 	 130.318 	 
H 	 -89.64 	 53.8025 	 130.29 	 
H 	 -88.1554 	 54.0014 	 131.274 	 
H 	 -88.2117 	 54.3538 	 129.491 	 
S 	 -85.8156 	 46.2219 	 127.147 	 
C 	 -84.4606 	 45.3681 	 127.976 	 
C 	 -84.2191 	 45.9212 	 129.199 	 
C 	 -85.1115 	 47.022 	 129.471 	 
C 	 -86.059 	 47.2494 	 128.513 	 
H 	 -83.5064 	 45.4782 	 129.844 	 
C 	 -85.005 	 47.7684 	 130.809 	 
H 	 -85.2579 	 48.8343 	 130.795 	 
H 	 -83.9139 	 47.831 	 130.951 	 
C 	 -85.7231 	 47.0594 	 131.954 	 
H 	 -85.2845 	 47.339 	 132.994 	 
H 	 -85.5617 	 46.0213 	 131.986 	 
C 	 -87.2355 	 47.3782 	 132.095 	 
H 	 -87.4224 	 48.4521 	 132.162 	 
H 	 -87.6562 	 46.9235 	 132.996 	 
H 	 -87.8522 	 47.1631 	 131.252 	 
H 	 -90.3627 	 49.5829 	 128.034 	 
H 	 -84.1123 	 44.3983 	 127.797 	 
*
