! wB97X-D3 SP def2-SVP
%pal
nprocs 16
end

* xyz 0 1
S 	 -98.0805 	 40.4387 	 122.622 	 
C 	 -97.9015 	 38.7839 	 123.135 	 
C 	 -98.9074 	 38.3565 	 124.034 	 
C 	 -99.8186 	 39.4913 	 124.33 	 
C 	 -99.5606 	 40.6237 	 123.525 	 
H 	 -100.595 	 39.4925 	 125.154 	 
C 	 -98.9387 	 37.1683 	 124.95 	 
H 	 -98.8764 	 36.2641 	 124.351 	 
H 	 -99.8868 	 37.1063 	 125.447 	 
C 	 -97.8307 	 37.2688 	 126.077 	 
H 	 -96.7966 	 37.4714 	 125.675 	 
H 	 -98.0203 	 38.1084 	 126.635 	 
C 	 -97.7756 	 36.0962 	 127.058 	 
H 	 -98.7039 	 35.9674 	 127.7 	 
H 	 -97.512 	 35.1711 	 126.505 	 
H 	 -96.8941 	 36.2964 	 127.715 	 
S 	 -99.3677 	 43.3527 	 123.604 	 
C 	 -100.808 	 44.3266 	 123.473 	 
C 	 -101.911 	 43.5309 	 123.409 	 
C 	 -101.721 	 42.1075 	 123.355 	 
C 	 -100.324 	 41.8558 	 123.481 	 
H 	 -102.901 	 43.9378 	 123.227 	 
C 	 -102.89 	 41.1719 	 123.322 	 
H 	 -103.758 	 41.866 	 123.223 	 
H 	 -103.013 	 40.7339 	 124.371 	 
C 	 -102.858 	 40.1875 	 122.127 	 
H 	 -102.071 	 39.3582 	 122.403 	 
H 	 -102.638 	 40.7521 	 121.205 	 
C 	 -104.129 	 39.2748 	 122.136 	 
H 	 -104.295 	 38.8415 	 123.083 	 
H 	 -103.971 	 38.4386 	 121.442 	 
H 	 -105.009 	 39.7058 	 121.803 	 
H 	 -97.0974 	 38.1711 	 122.863 	 
H 	 -100.82 	 45.3486 	 123.817 	 
*
