! wB97X-D3 SP def2-SVP
%pal
nprocs 16
end

* xyz 0 1
S 	 5.55587 	 -4.27169 	 89.68 	 
C 	 7.22021 	 -3.81153 	 89.8613 	 
C 	 8.01061 	 -4.24129 	 88.8078 	 
C 	 7.27832 	 -5.13405 	 87.9357 	 
C 	 5.90507 	 -4.98253 	 88.1113 	 
H 	 7.80111 	 -5.65671 	 87.1497 	 
C 	 9.47411 	 -4.02933 	 88.6161 	 
H 	 9.99354 	 -4.77748 	 89.3019 	 
H 	 9.59219 	 -2.97058 	 89.0521 	 
C 	 10.1171 	 -4.11783 	 87.1571 	 
H 	 9.92062 	 -5.13338 	 86.7487 	 
H 	 9.53936 	 -3.52384 	 86.3659 	 
C 	 11.6393 	 -3.74839 	 87.3233 	 
H 	 11.9837 	 -3.63695 	 86.2725 	 
H 	 11.6997 	 -2.7363 	 87.8494 	 
H 	 12.1711 	 -4.51248 	 87.8931 	 
S 	 3.81041 	 -6.59628 	 88.5091 	 
C 	 2.75777 	 -6.90428 	 87.0855 	 
C 	 3.27919 	 -6.47543 	 85.9026 	 
C 	 4.48911 	 -5.74566 	 86.0639 	 
C 	 4.88607 	 -5.70303 	 87.4266 	 
H 	 2.84176 	 -6.65851 	 84.9175 	 
C 	 5.20378 	 -5.02645 	 84.9205 	 
H 	 5.77463 	 -4.26273 	 85.4102 	 
H 	 4.50487 	 -4.58535 	 84.2456 	 
C 	 5.92039 	 -6.02909 	 83.9826 	 
H 	 5.2409 	 -6.51152 	 83.324 	 
H 	 6.28373 	 -6.85019 	 84.6463 	 
C 	 7.12661 	 -5.37741 	 83.3128 	 
H 	 7.68437 	 -6.10727 	 82.6299 	 
H 	 7.71075 	 -4.79482 	 83.9993 	 
H 	 6.79428 	 -4.57796 	 82.5515 	 
H 	 7.55284 	 -3.22456 	 90.7137 	 
H 	 2.03474 	 -7.64994 	 87.1011 	 
*
