! wB97X-D3 SP def2-SVP
%pal
nprocs 16
end

* xyz 0 1
S 	 -2.96024 	 74.53 	 53.4526 	 
C 	 -2.25461 	 72.9548 	 53.2587 	 
C 	 -3.20344 	 71.9815 	 52.9426 	 
C 	 -4.56463 	 72.4442 	 53.2325 	 
C 	 -4.59874 	 73.8397 	 53.39 	 
H 	 -5.48667 	 71.8928 	 53.2686 	 
C 	 -2.77566 	 70.5793 	 52.3863 	 
H 	 -2.04864 	 70.0377 	 53.0428 	 
H 	 -2.34983 	 70.8873 	 51.4083 	 
C 	 -4.08952 	 69.7352 	 52.147 	 
H 	 -4.65854 	 69.4219 	 53.0642 	 
H 	 -4.77032 	 70.3983 	 51.6467 	 
C 	 -3.92928 	 68.4433 	 51.3289 	 
H 	 -4.84456 	 67.8346 	 51.3563 	 
H 	 -3.79617 	 68.9074 	 50.3242 	 
H 	 -3.09947 	 67.8048 	 51.6286 	 
S 	 -5.63702 	 76.1274 	 54.6354 	 
C 	 -7.3375 	 76.496 	 54.5703 	 
C 	 -7.98872 	 75.6013 	 53.7332 	 
C 	 -7.16973 	 74.5283 	 53.2189 	 
C 	 -5.82708 	 74.6719 	 53.5902 	 
H 	 -9.03916 	 75.678 	 53.577 	 
C 	 -7.78525 	 73.5997 	 52.2277 	 
H 	 -6.95472 	 73.2641 	 51.5017 	 
H 	 -8.52171 	 74.111 	 51.6345 	 
C 	 -8.45988 	 72.2829 	 52.7421 	 
H 	 -9.16972 	 72.4103 	 53.515 	 
H 	 -7.78087 	 71.5246 	 53.25 	 
C 	 -9.07654 	 71.3373 	 51.6827 	 
H 	 -8.30317 	 71.0654 	 51.0726 	 
H 	 -9.7487 	 71.8307 	 50.9984 	 
H 	 -9.70623 	 70.5155 	 52.147 	 
H 	 -1.25556 	 72.8745 	 53.0607 	 
H 	 -7.70623 	 77.3958 	 55.0727 	 
*
