! wB97X-D3 SP def2-SVP
%pal
nprocs 16
end

* xyz 0 1
S 	 -81.0784 	 32.924 	 133.143 	 
C 	 -79.3602 	 33.0295 	 133.235 	 
C 	 -78.9331 	 34.1391 	 133.896 	 
C 	 -79.9952 	 35.0588 	 134.013 	 
C 	 -81.2528 	 34.5822 	 133.608 	 
H 	 -79.8418 	 36.0738 	 134.292 	 
C 	 -77.502 	 34.4731 	 134.262 	 
H 	 -77.2684 	 35.5705 	 134.456 	 
H 	 -76.9569 	 34.1577 	 133.355 	 
C 	 -76.8884 	 33.8018 	 135.507 	 
H 	 -77.202 	 32.7525 	 135.428 	 
H 	 -75.8044 	 33.8015 	 135.464 	 
C 	 -77.419 	 34.4496 	 136.768 	 
H 	 -77.0913 	 35.4964 	 136.846 	 
H 	 -78.4886 	 34.5975 	 136.813 	 
H 	 -77.0714 	 33.9984 	 137.752 	 
S 	 -83.4279 	 35.1359 	 132.141 	 
C 	 -84.6883 	 36.1906 	 132.816 	 
C 	 -84.3648 	 36.7795 	 133.978 	 
C 	 -83.0068 	 36.3983 	 134.347 	 
C 	 -82.4578 	 35.3654 	 133.537 	 
H 	 -84.9362 	 37.5134 	 134.454 	 
C 	 -82.4363 	 36.977 	 135.636 	 
H 	 -81.5531 	 36.3314 	 135.895 	 
H 	 -83.3045 	 36.8681 	 136.329 	 
C 	 -82.1153 	 38.4758 	 135.567 	 
H 	 -83.0012 	 39.0246 	 135.268 	 
H 	 -81.3679 	 38.6139 	 134.789 	 
C 	 -81.6512 	 39.0709 	 136.907 	 
H 	 -80.765 	 38.5437 	 137.243 	 
H 	 -82.4799 	 38.9718 	 137.631 	 
H 	 -81.3938 	 40.1112 	 136.761 	 
H 	 -78.7224 	 32.2004 	 132.928 	 
H 	 -85.6157 	 36.5098 	 132.282 	 
*
