! wB97X-D3 SP def2-SVP
%pal
nprocs 16
end

* xyz 0 1
S 	 -104.302 	 46.6698 	 122.421 	 
C 	 -103.769 	 47.9652 	 123.54 	 
C 	 -102.403 	 47.7723 	 123.828 	 
C 	 -101.894 	 46.6311 	 123.171 	 
C 	 -102.683 	 45.9513 	 122.315 	 
H 	 -100.945 	 46.1465 	 123.332 	 
C 	 -101.553 	 48.6788 	 124.659 	 
H 	 -100.672 	 48.0619 	 124.948 	 
H 	 -102.188 	 48.9718 	 125.545 	 
C 	 -100.963 	 49.9174 	 123.901 	 
H 	 -100.16 	 50.452 	 124.512 	 
H 	 -100.469 	 49.6351 	 123.011 	 
C 	 -102.03 	 50.9075 	 123.531 	 
H 	 -101.563 	 51.9193 	 123.31 	 
H 	 -102.537 	 50.4399 	 122.702 	 
H 	 -102.831 	 50.9804 	 124.309 	 
S 	 -103.501 	 43.3206 	 121.848 	 
C 	 -102.49 	 42.2698 	 120.969 	 
C 	 -101.407 	 42.9196 	 120.509 	 
C 	 -101.339 	 44.2949 	 120.931 	 
C 	 -102.399 	 44.6798 	 121.72 	 
H 	 -100.698 	 42.4063 	 119.889 	 
C 	 -100.156 	 45.1452 	 120.5 	 
H 	 -100.652 	 46.1259 	 120.334 	 
H 	 -99.8626 	 44.9373 	 119.482 	 
C 	 -99.0099 	 45.3341 	 121.469 	 
H 	 -98.4975 	 44.3866 	 121.482 	 
H 	 -99.1249 	 45.6894 	 122.529 	 
C 	 -97.9549 	 46.2705 	 121.006 	 
H 	 -98.1664 	 47.3525 	 121.049 	 
H 	 -97.6806 	 45.9025 	 119.905 	 
H 	 -97.0644 	 46.2616 	 121.589 	 
H 	 -104.372 	 48.7304 	 123.925 	 
H 	 -102.708 	 41.2554 	 120.649 	 
*
