! wB97X-D3 SP def2-SVP
%pal
nprocs 16
end

* xyz 0 1
S 	 -33.0986 	 57.0831 	 105.563 	 
C 	 -31.7921 	 57.7827 	 104.601 	 
C 	 -31.0745 	 58.7701 	 105.277 	 
C 	 -31.4419 	 58.7971 	 106.65 	 
C 	 -32.428 	 57.839 	 106.98 	 
H 	 -31.0165 	 59.4046 	 107.388 	 
C 	 -29.9993 	 59.6421 	 104.651 	 
H 	 -30.4727 	 60.6192 	 104.506 	 
H 	 -29.8789 	 59.1866 	 103.672 	 
C 	 -28.6841 	 59.8268 	 105.291 	 
H 	 -28.7533 	 60.1381 	 106.349 	 
H 	 -28.1777 	 58.8951 	 105.411 	 
C 	 -27.7675 	 60.8777 	 104.482 	 
H 	 -28.1563 	 61.8588 	 104.728 	 
H 	 -26.7647 	 60.7617 	 104.827 	 
H 	 -27.7903 	 60.6646 	 103.45 	 
S 	 -32.0831 	 57.7246 	 109.766 	 
C 	 -33.4964 	 57.8476 	 110.729 	 
C 	 -34.6939 	 57.9135 	 110.054 	 
C 	 -34.4739 	 57.6294 	 108.663 	 
C 	 -33.107 	 57.7127 	 108.273 	 
H 	 -35.5949 	 57.8655 	 110.608 	 
C 	 -35.7266 	 57.5058 	 107.767 	 
H 	 -35.5753 	 56.9347 	 106.844 	 
H 	 -35.9954 	 58.5475 	 107.444 	 
C 	 -36.8827 	 56.766 	 108.456 	 
H 	 -37.1377 	 57.4683 	 109.33 	 
H 	 -36.6973 	 55.7912 	 108.835 	 
C 	 -38.0352 	 56.4884 	 107.385 	 
H 	 -38.1655 	 57.2917 	 106.693 	 
H 	 -39.0314 	 56.2393 	 107.812 	 
H 	 -37.8572 	 55.6471 	 106.694 	 
H 	 -31.6506 	 57.5741 	 103.529 	 
H 	 -33.4982 	 57.7151 	 111.769 	 
*
