! wB97X-D3 SP def2-SVP
%pal
nprocs 16
end

* xyz 0 1
S 	 -2.7764 	 -11.8873 	 86.4535 	 
C 	 -3.39527 	 -13.2538 	 87.2958 	 
C 	 -3.485 	 -13.0936 	 88.6362 	 
C 	 -3.28591 	 -11.7031 	 89.0019 	 
C 	 -2.83137 	 -10.9314 	 87.9045 	 
H 	 -3.34262 	 -11.1642 	 89.973 	 
C 	 -3.79556 	 -14.2732 	 89.5989 	 
H 	 -3.71753 	 -15.2545 	 89.1244 	 
H 	 -4.85031 	 -14.1036 	 89.8278 	 
C 	 -2.94356 	 -14.2363 	 90.8668 	 
H 	 -1.91554 	 -14.4898 	 90.4742 	 
H 	 -2.9794 	 -13.2704 	 91.3478 	 
C 	 -3.37674 	 -15.2867 	 91.9 	 
H 	 -2.97612 	 -16.2365 	 91.5866 	 
H 	 -2.88594 	 -15.0565 	 92.8543 	 
H 	 -4.51087 	 -15.2348 	 92.0052 	 
S 	 -0.649904 	 -9.17269 	 87.6936 	 
C 	 -0.886538 	 -7.49432 	 88.1112 	 
C 	 -2.12016 	 -7.33794 	 88.5938 	 
C 	 -2.93173 	 -8.48366 	 88.6571 	 
C 	 -2.3226 	 -9.58316 	 88.0524 	 
H 	 -2.53953 	 -6.40025 	 88.842 	 
C 	 -4.37328 	 -8.42371 	 89.1074 	 
H 	 -4.43145 	 -7.59067 	 89.8615 	 
H 	 -4.58828 	 -9.30206 	 89.5555 	 
C 	 -5.32335 	 -8.18368 	 87.9507 	 
H 	 -5.10003 	 -9.01866 	 87.3059 	 
H 	 -5.01457 	 -7.17962 	 87.5458 	 
C 	 -6.801 	 -8.20442 	 88.3136 	 
H 	 -7.44808 	 -8.38012 	 87.4619 	 
H 	 -7.12946 	 -7.31785 	 88.8057 	 
H 	 -6.96606 	 -9.16466 	 88.8256 	 
H 	 -3.62117 	 -14.2552 	 86.8478 	 
H 	 -0.136023 	 -6.73052 	 88.0866 	 
*
