! wB97X-D3 SP def2-SVP
%pal
nprocs 16
end

* xyz 0 1
S 	 -44.0598 	 64.5943 	 146.737 	 
C 	 -43.8055 	 64.41 	 144.994 	 
C 	 -44.3007 	 65.4895 	 144.27 	 
C 	 -44.9961 	 66.392 	 145.128 	 
C 	 -44.9229 	 66.1015 	 146.47 	 
H 	 -45.5253 	 67.2905 	 144.708 	 
C 	 -44.261 	 65.5242 	 142.757 	 
H 	 -44.8392 	 66.3716 	 142.371 	 
H 	 -44.8307 	 64.6242 	 142.389 	 
C 	 -42.8744 	 65.6732 	 142.041 	 
H 	 -42.1943 	 64.9102 	 142.383 	 
H 	 -42.9979 	 65.6766 	 140.87 	 
C 	 -42.2926 	 67.0086 	 142.438 	 
H 	 -41.3009 	 67.1604 	 141.994 	 
H 	 -42.8023 	 67.8338 	 142.039 	 
H 	 -42.1055 	 67.2828 	 143.459 	 
S 	 -46.7335 	 65.905 	 148.511 	 
C 	 -47.1998 	 67.3186 	 149.326 	 
C 	 -46.6071 	 68.4911 	 148.772 	 
C 	 -45.6836 	 68.1912 	 147.764 	 
C 	 -45.5602 	 66.8359 	 147.538 	 
H 	 -46.882 	 69.3969 	 149.171 	 
C 	 -44.7138 	 69.2235 	 147.232 	 
H 	 -45.151 	 70.205 	 147.371 	 
H 	 -44.4338 	 69.1135 	 146.223 	 
C 	 -43.4433 	 69.2115 	 148.03 	 
H 	 -42.8125 	 68.3581 	 147.854 	 
H 	 -43.7716 	 69.2362 	 149.104 	 
C 	 -42.6673 	 70.5186 	 147.712 	 
H 	 -41.6345 	 70.3157 	 148.001 	 
H 	 -43.0043 	 71.3502 	 148.297 	 
H 	 -42.695 	 70.8807 	 146.665 	 
H 	 -43.2223 	 63.7154 	 144.601 	 
H 	 -47.9856 	 67.3497 	 150.118 	 
*
