! wB97X-D3 SP def2-SVP
%pal
nprocs 16
end

* xyz 0 1
S 	 -95.113 	 46.4075 	 122.586 	 
C 	 -94.3009 	 46.8803 	 124.125 	 
C 	 -95.0377 	 47.8509 	 124.741 	 
C 	 -96.1539 	 48.3108 	 123.913 	 
C 	 -96.37 	 47.6257 	 122.772 	 
H 	 -96.9037 	 48.951 	 124.375 	 
C 	 -94.8398 	 48.3678 	 126.135 	 
H 	 -95.5572 	 49.1411 	 126.269 	 
H 	 -93.9051 	 48.9313 	 126.263 	 
C 	 -94.9606 	 47.3931 	 127.296 	 
H 	 -94.0567 	 46.688 	 127.163 	 
H 	 -94.7177 	 47.9103 	 128.251 	 
C 	 -96.2939 	 46.6133 	 127.467 	 
H 	 -96.451 	 45.8783 	 126.68 	 
H 	 -96.2101 	 46.0862 	 128.389 	 
H 	 -97.1972 	 47.233 	 127.52 	 
S 	 -97.8253 	 49.4394 	 121.275 	 
C 	 -98.8467 	 48.8327 	 119.939 	 
C 	 -98.9168 	 47.4734 	 119.977 	 
C 	 -98.2489 	 46.8806 	 121.083 	 
C 	 -97.4106 	 47.7911 	 121.72 	 
H 	 -99.523 	 46.9791 	 119.2 	 
C 	 -98.3016 	 45.3626 	 121.377 	 
H 	 -97.5837 	 45.1866 	 122.146 	 
H 	 -97.8217 	 44.9161 	 120.548 	 
C 	 -99.5309 	 44.6344 	 121.676 	 
H 	 -100.156 	 44.5928 	 120.829 	 
H 	 -100.126 	 45.1099 	 122.477 	 
C 	 -99.2507 	 43.1924 	 122.193 	 
H 	 -98.4204 	 43.0136 	 122.88 	 
H 	 -99.0545 	 42.4377 	 121.464 	 
H 	 -100.043 	 42.8344 	 122.822 	 
H 	 -93.369 	 46.4921 	 124.587 	 
H 	 -99.2531 	 49.4064 	 119.094 	 
*
