! wB97X-D3 SP def2-SVP
%pal
nprocs 16
end

* xyz 0 1
S 	 -89.424 	 49.9585 	 130.413 	 
C 	 -89.6472 	 51.7159 	 130.084 	 
C 	 -88.4763 	 52.4048 	 130.005 	 
C 	 -87.3684 	 51.5005 	 130.214 	 
C 	 -87.6872 	 50.1824 	 130.527 	 
H 	 -86.3223 	 51.8565 	 130.124 	 
C 	 -88.3052 	 53.8613 	 129.624 	 
H 	 -88.9331 	 53.9444 	 128.717 	 
H 	 -87.2661 	 54.191 	 129.404 	 
C 	 -88.8855 	 54.8003 	 130.645 	 
H 	 -88.7264 	 55.863 	 130.352 	 
H 	 -89.9308 	 54.6191 	 130.665 	 
C 	 -88.3464 	 54.6515 	 132.085 	 
H 	 -87.3419 	 54.8353 	 132.148 	 
H 	 -88.736 	 55.4524 	 132.745 	 
H 	 -88.5068 	 53.6112 	 132.362 	 
S 	 -87.0011 	 47.7394 	 129.6 	 
C 	 -85.9235 	 46.677 	 130.512 	 
C 	 -85.3243 	 47.4017 	 131.569 	 
C 	 -85.8523 	 48.7792 	 131.691 	 
C 	 -86.8485 	 49.0015 	 130.754 	 
H 	 -84.5958 	 46.8693 	 132.17 	 
C 	 -85.524 	 49.6691 	 132.863 	 
H 	 -86.0716 	 50.638 	 132.76 	 
H 	 -84.4209 	 49.9616 	 132.849 	 
C 	 -85.7278 	 48.9597 	 134.189 	 
H 	 -85.3476 	 49.637 	 134.968 	 
H 	 -85.1133 	 48.0772 	 134.216 	 
C 	 -87.2197 	 48.7217 	 134.507 	 
H 	 -87.3641 	 48.1842 	 135.338 	 
H 	 -87.7961 	 48.2535 	 133.74 	 
H 	 -87.8149 	 49.5994 	 134.698 	 
H 	 -90.6414 	 52.189 	 129.924 	 
H 	 -85.4748 	 45.7054 	 130.164 	 
*
