! wB97X-D3 SP def2-SVP
%pal
nprocs 16
end

* xyz 0 1
S 	 -35.6772 	 51.7936 	 113.739 	 
C 	 -36.0491 	 53.2879 	 112.872 	 
C 	 -36.4243 	 54.3274 	 113.693 	 
C 	 -36.3945 	 53.8871 	 115.041 	 
C 	 -36.065 	 52.5784 	 115.256 	 
H 	 -36.6673 	 54.4902 	 115.918 	 
C 	 -37.0125 	 55.7034 	 113.312 	 
H 	 -37.321 	 55.7384 	 112.233 	 
H 	 -36.1516 	 56.3515 	 113.372 	 
C 	 -38.3076 	 56.1347 	 114.148 	 
H 	 -38.1698 	 56.0748 	 115.285 	 
H 	 -38.4727 	 57.2157 	 113.857 	 
C 	 -39.4168 	 55.3041 	 113.571 	 
H 	 -40.4366 	 55.3672 	 113.953 	 
H 	 -39.375 	 55.2406 	 112.521 	 
H 	 -39.2127 	 54.2997 	 113.728 	 
S 	 -34.5615 	 51.0509 	 116.882 	 
C 	 -35.3081 	 50.4183 	 118.339 	 
C 	 -36.3585 	 51.1727 	 118.813 	 
C 	 -36.7318 	 52.1172 	 117.769 	 
C 	 -35.9848 	 51.9452 	 116.57 	 
H 	 -36.9038 	 50.9589 	 119.733 	 
C 	 -38.0686 	 52.8706 	 117.942 	 
H 	 -38.8111 	 52.2542 	 118.527 	 
H 	 -38.5033 	 52.9835 	 116.906 	 
C 	 -38.0288 	 54.2892 	 118.496 	 
H 	 -37.1786 	 54.9466 	 118.192 	 
H 	 -37.8607 	 54.2418 	 119.607 	 
C 	 -39.3027 	 55.0265 	 118.244 	 
H 	 -40.1656 	 54.5119 	 118.693 	 
H 	 -39.5115 	 55.2268 	 117.19 	 
H 	 -39.1401 	 55.9829 	 118.726 	 
H 	 -35.9994 	 53.4661 	 111.812 	 
H 	 -34.8898 	 49.623 	 118.901 	 
*
