! wB97X-D3 SP def2-SVP
%pal
nprocs 16
end

* xyz 0 1
S 	 -0.531054 	 -27.7086 	 84.7045 	 
C 	 0.559624 	 -29.0285 	 84.1827 	 
C 	 1.66533 	 -28.5429 	 83.4923 	 
C 	 1.56169 	 -27.1656 	 83.2239 	 
C 	 0.509064 	 -26.5431 	 83.8939 	 
H 	 2.32398 	 -26.622 	 82.6541 	 
C 	 2.78262 	 -29.4812 	 83.0794 	 
H 	 2.39348 	 -30.3988 	 83.3164 	 
H 	 3.64628 	 -29.444 	 83.7341 	 
C 	 3.12259 	 -29.4713 	 81.6149 	 
H 	 2.17802 	 -29.4579 	 81.0962 	 
H 	 3.54657 	 -28.4545 	 81.3343 	 
C 	 3.99284 	 -30.6321 	 81.1031 	 
H 	 3.75139 	 -31.5924 	 81.5262 	 
H 	 3.78889 	 -30.6557 	 79.9929 	 
H 	 5.12252 	 -30.4589 	 81.1657 	 
S 	 1.59734 	 -24.2606 	 84.8998 	 
C 	 0.826692 	 -22.7358 	 84.5248 	 
C 	 -0.521571 	 -22.9457 	 84.1443 	 
C 	 -0.779135 	 -24.304 	 83.8509 	 
C 	 0.333049 	 -25.1267 	 84.0257 	 
H 	 -1.1969 	 -22.1743 	 83.9914 	 
C 	 -2.13193 	 -24.7859 	 83.322 	 
H 	 -2.90906 	 -24.2901 	 83.8997 	 
H 	 -2.30497 	 -25.8284 	 83.5243 	 
C 	 -2.30148 	 -24.5098 	 81.77 	 
H 	 -3.08833 	 -25.1356 	 81.3997 	 
H 	 -1.45921 	 -24.7591 	 81.1288 	 
C 	 -2.7804 	 -23.0994 	 81.4515 	 
H 	 -2.3202 	 -22.3833 	 82.1314 	 
H 	 -3.87934 	 -23.0236 	 81.7735 	 
H 	 -2.45125 	 -22.8109 	 80.423 	 
H 	 0.551513 	 -30.1274 	 84.2858 	 
H 	 1.11583 	 -21.7452 	 84.6292 	 
*
