! wB97X-D3 SP def2-SVP
%pal
nprocs 16
end

* xyz 0 1
S 	 -46.71 	 26.4 	 86.0981 	 
C 	 -47.9478 	 25.2463 	 85.8192 	 
C 	 -47.6695 	 24.4488 	 84.7034 	 
C 	 -46.3108 	 24.6065 	 84.3124 	 
C 	 -45.6211 	 25.5372 	 85.0423 	 
H 	 -45.755 	 24.1226 	 83.5139 	 
C 	 -48.5431 	 23.358 	 84.0159 	 
H 	 -49.1145 	 23.7729 	 83.201 	 
H 	 -49.2108 	 23.1641 	 84.8621 	 
C 	 -47.948 	 22.0041 	 83.64 	 
H 	 -48.7414 	 21.2693 	 83.3744 	 
H 	 -47.3614 	 21.9627 	 82.7592 	 
C 	 -47.0132 	 21.3534 	 84.7005 	 
H 	 -46.0052 	 21.6788 	 84.7314 	 
H 	 -47.405 	 21.5889 	 85.7072 	 
H 	 -46.9844 	 20.3027 	 84.5243 	 
S 	 -43.8586 	 27.6205 	 84.611 	 
C 	 -42.1177 	 27.3452 	 84.7969 	 
C 	 -41.837 	 26.0127 	 85.0183 	 
C 	 -43.0332 	 25.2836 	 85.0836 	 
C 	 -44.2329 	 25.9649 	 84.9044 	 
H 	 -40.7958 	 25.6054 	 84.943 	 
C 	 -42.8571 	 23.8379 	 85.4242 	 
H 	 -43.7393 	 23.5829 	 86.0994 	 
H 	 -41.9283 	 23.5452 	 85.9036 	 
C 	 -42.9292 	 22.8564 	 84.2781 	 
H 	 -42.1762 	 23.023 	 83.4941 	 
H 	 -43.872 	 22.9847 	 83.7993 	 
C 	 -42.7912 	 21.3376 	 84.7076 	 
H 	 -41.8486 	 21.1582 	 85.153 	 
H 	 -42.7753 	 20.8233 	 83.8096 	 
H 	 -43.5464 	 21.0118 	 85.4614 	 
H 	 -48.7904 	 25.0671 	 86.4967 	 
H 	 -41.2812 	 28.0208 	 84.7973 	 
*
