! wB97X-D3 SP def2-SVP
%pal
nprocs 16
end

* xyz 0 1
S 	 56.2597 	 6.30584 	 64.6643 	 
C 	 56.3902 	 7.74763 	 65.6644 	 
C 	 55.4442 	 8.67262 	 65.2532 	 
C 	 54.5252 	 8.0402 	 64.3222 	 
C 	 54.824 	 6.77847 	 63.8496 	 
H 	 53.5786 	 8.59956 	 64.0786 	 
C 	 55.3114 	 10.14 	 65.6807 	 
H 	 55.3406 	 10.6852 	 64.7131 	 
H 	 56.2563 	 10.4584 	 66.1627 	 
C 	 54.1195 	 10.5735 	 66.5771 	 
H 	 53.1854 	 10.2775 	 66.1683 	 
H 	 54.1517 	 9.93641 	 67.4977 	 
C 	 53.9951 	 12.0266 	 67.0031 	 
H 	 54.4546 	 12.1722 	 67.9797 	 
H 	 54.3089 	 12.6508 	 66.2002 	 
H 	 52.9248 	 12.2836 	 67.1652 	 
S 	 53.7787 	 4.24523 	 63.7293 	 
C 	 52.9711 	 3.67152 	 62.3231 	 
C 	 52.655 	 4.69995 	 61.4716 	 
C 	 53.3196 	 5.90524 	 61.8769 	 
C 	 53.9853 	 5.83173 	 63.1277 	 
H 	 52.0977 	 4.58643 	 60.5519 	 
C 	 53.2209 	 7.17914 	 60.9967 	 
H 	 53.648 	 7.96324 	 61.6767 	 
H 	 52.1579 	 7.43022 	 60.7415 	 
C 	 53.9323 	 6.99536 	 59.7306 	 
H 	 53.4736 	 6.16193 	 59.18 	 
H 	 55.0071 	 6.66361 	 60.0275 	 
C 	 53.9417 	 8.31658 	 58.8989 	 
H 	 54.4649 	 8.08063 	 57.966 	 
H 	 54.5111 	 9.07352 	 59.465 	 
H 	 52.9832 	 8.65459 	 58.6105 	 
H 	 57.1156 	 7.94966 	 66.3821 	 
H 	 52.5935 	 2.66652 	 62.2192 	 
*
