! wB97X-D3 SP def2-SVP
%pal
nprocs 16
end

* xyz 0 1
S 	 -78.39 	 48.5813 	 135.577 	 
C 	 -78.0238 	 47.2423 	 136.555 	 
C 	 -76.7873 	 47.4415 	 137.156 	 
C 	 -76.1398 	 48.6582 	 136.772 	 
C 	 -76.9096 	 49.4032 	 135.985 	 
H 	 -75.1628 	 49.0198 	 137.121 	 
C 	 -76.186 	 46.3358 	 138.042 	 
H 	 -76.7897 	 45.4389 	 137.989 	 
H 	 -76.52 	 46.651 	 139.102 	 
C 	 -74.6913 	 45.9449 	 138.022 	 
H 	 -74.735 	 45.2429 	 137.164 	 
H 	 -74.08 	 46.895 	 137.904 	 
C 	 -74.2191 	 45.1622 	 139.304 	 
H 	 -73.2121 	 44.6914 	 139.245 	 
H 	 -74.3461 	 45.7957 	 140.213 	 
H 	 -74.9247 	 44.2615 	 139.352 	 
S 	 -77.6549 	 52.0722 	 135.88 	 
C 	 -76.5397 	 53.1901 	 135.186 	 
C 	 -75.2939 	 52.6722 	 135.095 	 
C 	 -75.2751 	 51.2432 	 135.209 	 
C 	 -76.5409 	 50.7678 	 135.568 	 
H 	 -74.5355 	 53.2841 	 134.797 	 
C 	 -73.9278 	 50.5491 	 134.904 	 
H 	 -73.604 	 51.0692 	 133.981 	 
H 	 -74.1177 	 49.5049 	 134.654 	 
C 	 -72.8712 	 50.6239 	 136.006 	 
H 	 -72.8596 	 49.7804 	 136.639 	 
H 	 -73.1641 	 51.5757 	 136.509 	 
C 	 -71.4306 	 50.6869 	 135.489 	 
H 	 -71.2519 	 51.4295 	 134.704 	 
H 	 -71.211 	 49.7419 	 135.004 	 
H 	 -70.7041 	 50.8739 	 136.266 	 
H 	 -78.4578 	 46.2666 	 136.57 	 
H 	 -76.6 	 54.2692 	 135.214 	 
*
