! wB97X-D3 SP def2-SVP
%pal
nprocs 16
end

* xyz 0 1
S 	 -12.1758 	 61.0617 	 54.5112 	 
C 	 -11.423 	 59.7082 	 53.7895 	 
C 	 -10.2123 	 59.3842 	 54.3617 	 
C 	 -9.77559 	 60.4924 	 55.2919 	 
C 	 -10.7401 	 61.4583 	 55.4089 	 
H 	 -8.88295 	 60.5534 	 55.8741 	 
C 	 -9.3257 	 58.1972 	 53.8814 	 
H 	 -9.88867 	 57.3412 	 53.4597 	 
H 	 -8.87015 	 57.6749 	 54.7771 	 
C 	 -8.10275 	 58.4863 	 53.1258 	 
H 	 -7.6782 	 57.5641 	 52.8259 	 
H 	 -8.32755 	 59.0697 	 52.2009 	 
C 	 -7.00064 	 59.185 	 53.8909 	 
H 	 -6.07363 	 59.0633 	 53.463 	 
H 	 -7.32218 	 60.2089 	 53.6971 	 
H 	 -6.95033 	 59.0413 	 54.9817 	 
S 	 -11.8762 	 62.8308 	 57.5399 	 
C 	 -10.9981 	 64.1345 	 58.1294 	 
C 	 -9.82567 	 64.3889 	 57.5219 	 
C 	 -9.58687 	 63.5104 	 56.4212 	 
C 	 -10.6355 	 62.5892 	 56.3154 	 
H 	 -9.18359 	 65.2509 	 57.7629 	 
C 	 -8.40778 	 63.5541 	 55.5103 	 
H 	 -8.26991 	 64.5887 	 55.1323 	 
H 	 -8.61336 	 62.8098 	 54.6972 	 
C 	 -7.06334 	 63.1297 	 56.2007 	 
H 	 -7.30093 	 62.2611 	 56.7367 	 
H 	 -6.59971 	 64.0392 	 56.7343 	 
C 	 -6.05691 	 62.7793 	 55.1086 	 
H 	 -5.02983 	 62.9093 	 55.4383 	 
H 	 -6.06189 	 63.4526 	 54.2548 	 
H 	 -6.15724 	 61.8699 	 54.4792 	 
H 	 -11.9163 	 59.0394 	 53.1514 	 
H 	 -11.4059 	 64.7312 	 58.9165 	 
*
