! wB97X-D3 SP def2-SVP
%pal
nprocs 16
end

* xyz 0 1
S 	 -49.3304 	 14.1693 	 79.3123 	 
C 	 -47.954 	 13.2162 	 79.2662 	 
C 	 -47.7454 	 12.4634 	 80.3963 	 
C 	 -48.7781 	 12.7488 	 81.3759 	 
C 	 -49.7371 	 13.6208 	 80.9196 	 
H 	 -48.8505 	 12.4804 	 82.4621 	 
C 	 -46.4998 	 11.7296 	 80.7792 	 
H 	 -46.1266 	 11.1468 	 79.9315 	 
H 	 -46.8988 	 11.0198 	 81.5018 	 
C 	 -45.2971 	 12.6447 	 81.2685 	 
H 	 -44.3681 	 12.1288 	 81.0711 	 
H 	 -45.23 	 13.5683 	 80.6425 	 
C 	 -45.2523 	 13.0017 	 82.749 	 
H 	 -44.9336 	 12.1633 	 83.4505 	 
H 	 -44.6582 	 13.8447 	 82.8964 	 
H 	 -46.2848 	 13.2381 	 83.1145 	 
S 	 -52.146 	 14.7947 	 80.5399 	 
C 	 -53.0636 	 15.342 	 81.8164 	 
C 	 -52.503 	 15.0914 	 83.038 	 
C 	 -51.2725 	 14.4329 	 82.9639 	 
C 	 -50.8907 	 14.2366 	 81.6388 	 
H 	 -52.9428 	 15.316 	 83.9873 	 
C 	 -50.4835 	 14.0781 	 84.2323 	 
H 	 -49.7976 	 14.9017 	 84.4131 	 
H 	 -49.881 	 13.2748 	 83.9738 	 
C 	 -51.2926 	 13.7606 	 85.5393 	 
H 	 -52.0607 	 13.0472 	 85.3264 	 
H 	 -51.8421 	 14.6367 	 85.8662 	 
C 	 -50.4332 	 13.1843 	 86.704 	 
H 	 -50.8898 	 13.6156 	 87.5768 	 
H 	 -49.4741 	 13.5722 	 86.796 	 
H 	 -50.4199 	 12.0386 	 86.8386 	 
H 	 -47.1273 	 13.2188 	 78.4972 	 
H 	 -53.9367 	 15.9734 	 81.834 	 
*
