! wB97X-D3 SP def2-SVP
%pal
nprocs 16
end

* xyz 0 1
S 	 -40.774 	 27.5597 	 78.4735 	 
C 	 -40.5596 	 28.7602 	 77.1718 	 
C 	 -41.7171 	 29.5296 	 76.9389 	 
C 	 -42.6956 	 29.2636 	 77.9802 	 
C 	 -42.3657 	 28.3039 	 78.8953 	 
H 	 -43.6554 	 29.7017 	 78.1378 	 
C 	 -41.8542 	 30.5483 	 75.8514 	 
H 	 -41.2871 	 30.3256 	 74.9121 	 
H 	 -41.3419 	 31.4384 	 76.3286 	 
C 	 -43.2734 	 30.9782 	 75.4077 	 
H 	 -43.8975 	 30.1635 	 75.1223 	 
H 	 -43.7462 	 31.4339 	 76.2262 	 
C 	 -43.2305 	 32.0611 	 74.2827 	 
H 	 -44.1742 	 32.1291 	 73.6857 	 
H 	 -43.0895 	 33.0943 	 74.6894 	 
H 	 -42.4542 	 31.7862 	 73.5533 	 
S 	 -42.2771 	 27.5964 	 81.5482 	 
C 	 -43.7069 	 27.6408 	 82.5036 	 
C 	 -44.8032 	 27.6926 	 81.7162 	 
C 	 -44.4864 	 27.9311 	 80.2962 	 
C 	 -43.1648 	 27.8788 	 80.056 	 
H 	 -45.8217 	 27.722 	 82.1543 	 
C 	 -45.6106 	 28.1461 	 79.2963 	 
H 	 -46.2594 	 27.2238 	 79.3528 	 
H 	 -45.2114 	 28.1303 	 78.3079 	 
C 	 -46.5552 	 29.3396 	 79.5864 	 
H 	 -45.9671 	 30.0037 	 80.2175 	 
H 	 -47.4652 	 29.0212 	 80.1875 	 
C 	 -46.8495 	 30.0769 	 78.2685 	 
H 	 -47.6702 	 30.7583 	 78.4964 	 
H 	 -47.1969 	 29.3761 	 77.519 	 
H 	 -45.8629 	 30.5585 	 77.8695 	 
H 	 -39.6992 	 28.851 	 76.5071 	 
H 	 -43.7225 	 27.8076 	 83.5945 	 
*
