! wB97X-D3 SP def2-SVP
%pal
nprocs 16
end

* xyz 0 1
S 	 -38.792 	 38.239 	 80.9422 	 
C 	 -37.3102 	 38.0775 	 79.9845 	 
C 	 -36.9592 	 36.7512 	 79.7367 	 
C 	 -38.0261 	 35.8966 	 80.0731 	 
C 	 -39.0892 	 36.4898 	 80.7962 	 
H 	 -38.2006 	 34.8405 	 79.8606 	 
C 	 -35.7379 	 36.4007 	 78.8986 	 
H 	 -35.6062 	 35.3343 	 79.017 	 
H 	 -34.8588 	 36.8377 	 79.3239 	 
C 	 -35.9818 	 36.758 	 77.3302 	 
H 	 -36.8407 	 36.3669 	 76.8551 	 
H 	 -36.1323 	 37.8412 	 77.3135 	 
C 	 -34.6697 	 36.261 	 76.5156 	 
H 	 -33.6718 	 36.4188 	 77.0516 	 
H 	 -34.7669 	 35.1607 	 76.385 	 
H 	 -34.5781 	 36.731 	 75.5431 	 
S 	 -41.8741 	 36.6604 	 81.0273 	 
C 	 -42.7744 	 35.2384 	 81.347 	 
C 	 -41.9372 	 34.1529 	 81.5648 	 
C 	 -40.5634 	 34.5004 	 81.542 	 
C 	 -40.3643 	 35.8574 	 81.2321 	 
H 	 -42.4032 	 33.1858 	 81.7657 	 
C 	 -39.4922 	 33.4635 	 81.7395 	 
H 	 -38.5175 	 34.0049 	 81.8523 	 
H 	 -39.4165 	 32.9467 	 80.8134 	 
C 	 -39.6455 	 32.5805 	 82.9513 	 
H 	 -40.7199 	 32.4414 	 83.0938 	 
H 	 -39.1292 	 33.089 	 83.8412 	 
C 	 -38.9528 	 31.2144 	 82.8563 	 
H 	 -37.8672 	 31.3018 	 82.7774 	 
H 	 -39.3009 	 30.6803 	 81.9601 	 
H 	 -39.1123 	 30.6476 	 83.6965 	 
H 	 -36.7334 	 38.9085 	 79.62 	 
H 	 -43.8476 	 35.1049 	 81.1188 	 
*
