! wB97X-D3 SP def2-SVP
%pal
nprocs 16
end

* xyz 0 1
S 	 -94.4745 	 62.3549 	 125.261 	 
C 	 -94.4347 	 60.5723 	 125.018 	 
C 	 -93.2514 	 59.9814 	 125.48 	 
C 	 -92.3621 	 60.9316 	 126.049 	 
C 	 -92.8971 	 62.2372 	 126.094 	 
H 	 -91.42 	 60.7048 	 126.486 	 
C 	 -92.8551 	 58.531 	 125.333 	 
H 	 -93.8082 	 58.0662 	 125.484 	 
H 	 -92.2541 	 58.1712 	 126.148 	 
C 	 -92.064 	 58.1779 	 124.143 	 
H 	 -92.6049 	 58.5486 	 123.224 	 
H 	 -91.1658 	 58.8007 	 124.248 	 
C 	 -91.869 	 56.6718 	 124.144 	 
H 	 -91.4418 	 56.3401 	 123.233 	 
H 	 -91.3921 	 56.2631 	 125.027 	 
H 	 -92.8704 	 56.169 	 124.256 	 
S 	 -93.6837 	 64.6767 	 127.051 	 
C 	 -92.5562 	 65.6476 	 127.956 	 
C 	 -91.2581 	 65.0717 	 127.869 	 
C 	 -91.177 	 63.8456 	 127.128 	 
C 	 -92.4211 	 63.4816 	 126.649 	 
H 	 -90.4409 	 65.6232 	 128.308 	 
C 	 -89.8891 	 63.1901 	 126.796 	 
H 	 -89.9842 	 62.0921 	 126.781 	 
H 	 -89.1038 	 63.5216 	 127.605 	 
C 	 -89.2273 	 63.7125 	 125.495 	 
H 	 -88.9658 	 64.7649 	 125.628 	 
H 	 -89.9758 	 63.6615 	 124.716 	 
C 	 -88.0055 	 62.8584 	 125.128 	 
H 	 -87.3132 	 62.7956 	 125.97 	 
H 	 -87.4211 	 63.3008 	 124.271 	 
H 	 -88.2352 	 61.8901 	 124.693 	 
H 	 -95.0967 	 59.9685 	 124.506 	 
H 	 -92.8573 	 66.621 	 128.186 	 
*
