! wB97X-D3 SP def2-SVP
%pal
nprocs 16
end

* xyz 0 1
S 	 -1.71973 	 -23.4004 	 59.5208 	 
C 	 -0.852709 	 -22.0261 	 60.1508 	 
C 	 0.262869 	 -22.4026 	 60.8542 	 
C 	 0.457327 	 -23.8437 	 60.791 	 
C 	 -0.524403 	 -24.4913 	 60.0926 	 
H 	 1.26047 	 -24.4735 	 61.3216 	 
C 	 1.20024 	 -21.4469 	 61.5094 	 
H 	 1.50426 	 -21.901 	 62.4973 	 
H 	 0.66153 	 -20.4484 	 61.5936 	 
C 	 2.58046 	 -21.1308 	 60.7946 	 
H 	 3.04792 	 -20.304 	 61.3054 	 
H 	 3.27937 	 -21.9662 	 61.0017 	 
C 	 2.52426 	 -20.9408 	 59.3089 	 
H 	 1.83615 	 -20.1785 	 59.0417 	 
H 	 3.42939 	 -20.428 	 58.9497 	 
H 	 2.32644 	 -21.7306 	 58.6761 	 
S 	 -2.02972 	 -26.7961 	 60.1091 	 
C 	 -1.43959 	 -28.2094 	 59.2224 	 
C 	 -0.125712 	 -28.0084 	 58.9128 	 
C 	 0.412211 	 -26.7 	 59.2082 	 
C 	 -0.568163 	 -25.8983 	 59.7507 	 
H 	 0.457038 	 -28.8614 	 58.5398 	 
C 	 1.78157 	 -26.3086 	 58.7611 	 
H 	 2.27537 	 -25.9591 	 59.6636 	 
H 	 1.81345 	 -25.3952 	 58.249 	 
C 	 2.60906 	 -27.3375 	 57.9998 	 
H 	 2.04805 	 -27.7376 	 57.1632 	 
H 	 2.73258 	 -28.1593 	 58.6781 	 
C 	 4.03844 	 -26.8416 	 57.5608 	 
H 	 4.59226 	 -26.5571 	 58.4755 	 
H 	 3.8553 	 -26.0272 	 56.8613 	 
H 	 4.71715 	 -27.6661 	 57.1624 	 
H 	 -1.1917 	 -20.996 	 60.0656 	 
H 	 -1.89404 	 -29.2491 	 59.2024 	 
*
