! wB97X-D3 SP def2-SVP
%pal
nprocs 16
end

* xyz 0 1
S 	 34.7084 	 14.0214 	 71.6401 	 
C 	 33.1083 	 14.6861 	 71.4508 	 
C 	 32.3414 	 13.972 	 70.566 	 
C 	 33.051 	 12.8403 	 70.0907 	 
C 	 34.3116 	 12.6896 	 70.6721 	 
H 	 32.6118 	 12.0343 	 69.4673 	 
C 	 30.8935 	 14.0827 	 70.1247 	 
H 	 30.3963 	 14.8794 	 70.7128 	 
H 	 30.5309 	 13.1397 	 70.2746 	 
C 	 30.6263 	 14.4271 	 68.6662 	 
H 	 30.9563 	 15.4578 	 68.5298 	 
H 	 31.3183 	 13.9531 	 67.979 	 
C 	 29.1577 	 14.4431 	 68.2528 	 
H 	 28.5326 	 15.102 	 68.8777 	 
H 	 29.0081 	 14.7737 	 67.2045 	 
H 	 28.7266 	 13.4039 	 68.2713 	 
S 	 36.8165 	 12.5297 	 69.8012 	 
C 	 37.7863 	 11.1143 	 70.0961 	 
C 	 36.8985 	 10.0378 	 70.164 	 
C 	 35.4942 	 10.3479 	 70.2146 	 
C 	 35.3725 	 11.736 	 70.3734 	 
H 	 37.2594 	 9.05268 	 70.0495 	 
C 	 34.3944 	 9.2865 	 70.2179 	 
H 	 33.7288 	 9.57122 	 69.48 	 
H 	 33.7737 	 9.41431 	 71.1717 	 
C 	 34.7592 	 7.85991 	 69.8041 	 
H 	 35.3658 	 7.43829 	 70.6335 	 
H 	 35.3637 	 7.75875 	 68.9722 	 
C 	 33.5607 	 7.02928 	 69.5559 	 
H 	 33.834 	 6.06727 	 69.1766 	 
H 	 33.0266 	 7.44366 	 68.6973 	 
H 	 32.9596 	 6.91606 	 70.4116 	 
H 	 32.7663 	 15.6101 	 71.8515 	 
H 	 38.8598 	 11.0384 	 69.9678 	 
*
