! wB97X-D3 SP def2-SVP
%pal
nprocs 16
end

* xyz 0 1
S 	 -40.4418 	 24.4841 	 79.9518 	 
C 	 -39.6781 	 25.8724 	 80.6987 	 
C 	 -38.6378 	 26.3465 	 79.8826 	 
C 	 -38.4036 	 25.4963 	 78.751 	 
C 	 -39.2996 	 24.4194 	 78.6347 	 
H 	 -37.725 	 25.6857 	 77.9418 	 
C 	 -37.8267 	 27.5693 	 80.2332 	 
H 	 -37.0173 	 27.1605 	 80.7638 	 
H 	 -38.4458 	 28.1249 	 80.9183 	 
C 	 -37.508 	 28.4493 	 79.0033 	 
H 	 -36.9197 	 27.8759 	 78.1887 	 
H 	 -38.4797 	 28.7691 	 78.5147 	 
C 	 -36.7341 	 29.7242 	 79.1707 	 
H 	 -36.3203 	 30.1343 	 78.2139 	 
H 	 -37.3364 	 30.5551 	 79.5691 	 
H 	 -35.8754 	 29.528 	 79.768 	 
S 	 -39.6282 	 21.7843 	 77.9199 	 
C 	 -39.6683 	 21.2559 	 76.3005 	 
C 	 -39.5033 	 22.2763 	 75.4518 	 
C 	 -39.3639 	 23.5325 	 76.118 	 
C 	 -39.4357 	 23.4661 	 77.5259 	 
H 	 -39.3729 	 22.0449 	 74.3958 	 
C 	 -39.142 	 24.8622 	 75.3406 	 
H 	 -38.2343 	 24.5963 	 74.8004 	 
H 	 -38.8496 	 25.673 	 76.0136 	 
C 	 -40.2613 	 25.2719 	 74.3857 	 
H 	 -40.3919 	 24.5139 	 73.5829 	 
H 	 -39.9095 	 26.0962 	 73.7815 	 
C 	 -41.6707 	 25.5488 	 75.0299 	 
H 	 -42.528 	 25.8518 	 74.4411 	 
H 	 -41.7009 	 26.254 	 75.8331 	 
H 	 -42.052 	 24.6715 	 75.4985 	 
H 	 -39.9712 	 26.4259 	 81.6334 	 
H 	 -39.7994 	 20.2672 	 75.9695 	 
*
