! wB97X-D3 SP def2-SVP
%pal
nprocs 16
end

* xyz 0 1
S 	 -36.824 	 64.6215 	 141.48 	 
C 	 -36.8907 	 64.5629 	 139.774 	 
C 	 -36.0802 	 65.5503 	 139.207 	 
C 	 -35.3532 	 66.3018 	 140.212 	 
C 	 -35.6733 	 65.944 	 141.478 	 
H 	 -34.7393 	 67.0845 	 140.01 	 
C 	 -36.067 	 65.815 	 137.753 	 
H 	 -35.6684 	 66.8196 	 137.505 	 
H 	 -37.122 	 65.7386 	 137.477 	 
C 	 -35.5332 	 64.6887 	 136.848 	 
H 	 -36.0915 	 63.8348 	 137.125 	 
H 	 -35.7851 	 64.943 	 135.804 	 
C 	 -34.0185 	 64.4356 	 137.067 	 
H 	 -33.8767 	 64.1946 	 138.121 	 
H 	 -33.5856 	 63.7152 	 136.437 	 
H 	 -33.3231 	 65.2419 	 136.852 	 
S 	 -36.3533 	 66.8739 	 143.915 	 
C 	 -35.2375 	 67.7144 	 144.878 	 
C 	 -33.9608 	 67.8585 	 144.347 	 
C 	 -33.8913 	 67.2173 	 143.046 	 
C 	 -35.1377 	 66.5678 	 142.708 	 
H 	 -33.2926 	 68.3827 	 144.955 	 
C 	 -32.6606 	 67.3118 	 142.191 	 
H 	 -32.8905 	 66.7726 	 141.253 	 
H 	 -31.8378 	 66.7305 	 142.539 	 
C 	 -32.004 	 68.6647 	 141.995 	 
H 	 -31.1393 	 68.6166 	 141.369 	 
H 	 -31.5724 	 69.025 	 142.96 	 
C 	 -32.9412 	 69.7052 	 141.32 	 
H 	 -33.7353 	 70.0732 	 141.991 	 
H 	 -33.4473 	 69.2689 	 140.508 	 
H 	 -32.3636 	 70.6425 	 141.017 	 
H 	 -37.515 	 63.9106 	 139.244 	 
H 	 -35.4141 	 67.9939 	 145.933 	 
*
