! wB97X-D3 SP def2-SVP
%pal
nprocs 16
end

* xyz 0 1
S 	 50.9327 	 21.4268 	 91.185 	 
C 	 49.9391 	 20.8527 	 92.5065 	 
C 	 50.1681 	 19.4938 	 92.686 	 
C 	 50.9836 	 18.9343 	 91.6936 	 
C 	 51.5927 	 19.8051 	 90.8718 	 
H 	 51.2312 	 17.8912 	 91.5438 	 
C 	 49.6507 	 18.6898 	 93.812 	 
H 	 48.8816 	 17.971 	 93.466 	 
H 	 49.2744 	 19.4346 	 94.4873 	 
C 	 50.7039 	 17.8586 	 94.6613 	 
H 	 50.1702 	 17.3605 	 95.4613 	 
H 	 51.2897 	 17.0957 	 94.1253 	 
C 	 51.7656 	 18.8125 	 95.3191 	 
H 	 52.6494 	 18.255 	 95.5783 	 
H 	 52.1419 	 19.5036 	 94.5871 	 
H 	 51.5051 	 19.3464 	 96.1816 	 
S 	 52.2131 	 19.8837 	 88.222 	 
C 	 53.7081 	 19.1659 	 87.587 	 
C 	 54.314 	 18.4974 	 88.6625 	 
C 	 53.706 	 18.618 	 89.9299 	 
C 	 52.6121 	 19.4678 	 89.8606 	 
H 	 55.1938 	 17.793 	 88.5738 	 
C 	 54.1885 	 17.8517 	 91.1906 	 
H 	 54.9897 	 17.2208 	 91.0808 	 
H 	 53.4978 	 17.126 	 91.4632 	 
C 	 54.5234 	 18.7309 	 92.4751 	 
H 	 54.2969 	 18.0861 	 93.2816 	 
H 	 53.8369 	 19.6092 	 92.5492 	 
C 	 56.0303 	 19.2203 	 92.6594 	 
H 	 56.0996 	 20.0129 	 93.4356 	 
H 	 56.2924 	 19.558 	 91.7219 	 
H 	 56.62 	 18.4092 	 93.0035 	 
H 	 49.4251 	 21.4623 	 93.2829 	 
H 	 54.193 	 19.1241 	 86.544 	 
*
