! wB97X-D3 SP def2-SVP
%pal
nprocs 16
end

* xyz 0 1
S 	 25.0475 	 12.1817 	 70.5501 	 
C 	 25.5135 	 13.3174 	 69.2345 	 
C 	 24.3947 	 13.9776 	 68.7025 	 
C 	 23.1933 	 13.5795 	 69.3412 	 
C 	 23.3085 	 12.6139 	 70.3331 	 
H 	 22.1569 	 14.0025 	 69.2404 	 
C 	 24.3597 	 14.9473 	 67.5618 	 
H 	 23.8669 	 14.3801 	 66.728 	 
H 	 25.3793 	 15.2662 	 67.27 	 
C 	 23.6451 	 16.3061 	 67.7926 	 
H 	 22.6866 	 16.052 	 68.2012 	 
H 	 24.1224 	 16.772 	 68.6285 	 
C 	 23.5589 	 17.2579 	 66.6052 	 
H 	 24.5766 	 17.4308 	 66.197 	 
H 	 23.0668 	 16.8246 	 65.7313 	 
H 	 23.3169 	 18.2264 	 66.9963 	 
S 	 22.0053 	 10.2179 	 70.918 	 
C 	 20.5981 	 10.2755 	 72.0485 	 
C 	 20.3525 	 11.5802 	 72.4125 	 
C 	 21.3483 	 12.4854 	 72.0018 	 
C 	 22.2852 	 11.925 	 71.131 	 
H 	 19.4764 	 11.7501 	 73.022 	 
C 	 21.3561 	 13.9174 	 72.4837 	 
H 	 20.529 	 14.4277 	 71.942 	 
H 	 22.2169 	 14.5194 	 72.0733 	 
C 	 21.3844 	 14.0609 	 74.0113 	 
H 	 22.4314 	 13.8002 	 74.3444 	 
H 	 20.6163 	 13.4186 	 74.4071 	 
C 	 20.9311 	 15.4864 	 74.4367 	 
H 	 21.5798 	 16.264 	 74.0587 	 
H 	 21.0147 	 15.7029 	 75.4715 	 
H 	 19.9103 	 15.8104 	 74.0761 	 
H 	 26.5858 	 13.4856 	 68.9862 	 
H 	 19.8281 	 9.45254 	 72.2795 	 
*
