! wB97X-D3 SP def2-SVP
%pal
nprocs 16
end

* xyz 0 1
S 	 6.96604 	 24.2328 	 65.7792 	 
C 	 5.54189 	 25.025 	 65.0939 	 
C 	 5.85192 	 26.3483 	 64.7633 	 
C 	 7.10172 	 26.7042 	 65.3315 	 
C 	 7.72954 	 25.7359 	 66.0035 	 
H 	 7.73766 	 27.6246 	 65.3082 	 
C 	 5.00638 	 27.2753 	 63.9818 	 
H 	 5.50308 	 27.1782 	 63.0033 	 
H 	 5.21614 	 28.3804 	 64.1925 	 
C 	 3.44138 	 27.1251 	 63.8978 	 
H 	 3.07106 	 27.8242 	 63.1213 	 
H 	 3.11371 	 26.1493 	 63.4284 	 
C 	 2.68832 	 27.3653 	 65.2031 	 
H 	 1.63759 	 27.4803 	 65.0206 	 
H 	 3.05627 	 26.6982 	 66.0604 	 
H 	 2.85065 	 28.3113 	 65.6713 	 
S 	 10.2383 	 24.6905 	 66.0536 	 
C 	 11.3919 	 25.1986 	 67.2438 	 
C 	 10.8926 	 26.3245 	 67.9073 	 
C 	 9.54085 	 26.6727 	 67.6086 	 
C 	 9.02005 	 25.8305 	 66.672 	 
H 	 11.3605 	 26.799 	 68.7647 	 
C 	 8.77917 	 27.6722 	 68.4977 	 
H 	 8.52735 	 27.167 	 69.41 	 
H 	 7.81519 	 27.7374 	 68.0761 	 
C 	 9.37495 	 29.0379 	 68.7791 	 
H 	 9.45581 	 29.7151 	 67.989 	 
H 	 10.3554 	 28.9386 	 69.2561 	 
C 	 8.50315 	 29.6745 	 69.8107 	 
H 	 8.40475 	 29.0047 	 70.6431 	 
H 	 7.39019 	 29.8766 	 69.4909 	 
H 	 9.04265 	 30.6353 	 70.1233 	 
H 	 4.65097 	 24.4565 	 64.9475 	 
H 	 12.4054 	 24.8955 	 67.3128 	 
*
