! wB97X-D3 SP def2-SVP
%pal
nprocs 16
end

* xyz 0 1
S 	 52.1888 	 2.86672 	 93.8745 	 
C 	 53.2457 	 4.2004 	 94.0727 	 
C 	 52.5992 	 5.39828 	 93.7102 	 
C 	 51.3323 	 5.18714 	 93.1619 	 
C 	 50.9394 	 3.91487 	 93.2725 	 
H 	 50.6671 	 5.97085 	 92.7668 	 
C 	 53.2694 	 6.79473 	 93.8531 	 
H 	 52.65 	 7.53455 	 93.302 	 
H 	 54.2056 	 6.61155 	 93.308 	 
C 	 53.3284 	 7.23675 	 95.3442 	 
H 	 53.7389 	 8.26264 	 95.4653 	 
H 	 52.3145 	 7.3192 	 95.9087 	 
C 	 54.287 	 6.41861 	 96.3081 	 
H 	 55.2676 	 6.44693 	 95.8098 	 
H 	 54.3481 	 6.8913 	 97.2518 	 
H 	 53.9092 	 5.42276 	 96.4768 	 
S 	 49.5983 	 2.87663 	 91.1371 	 
C 	 47.903 	 2.545 	 91.2962 	 
C 	 47.3782 	 2.80797 	 92.4999 	 
C 	 48.4069 	 3.34479 	 93.3559 	 
C 	 49.6705 	 3.34864 	 92.8365 	 
H 	 46.3135 	 2.67682 	 92.615 	 
C 	 48.0866 	 3.69773 	 94.8298 	 
H 	 47.1946 	 4.32388 	 94.8478 	 
H 	 48.8334 	 4.37162 	 95.1736 	 
C 	 47.8698 	 2.52374 	 95.7471 	 
H 	 47.0082 	 1.90857 	 95.4592 	 
H 	 47.6127 	 2.86523 	 96.7602 	 
C 	 49.0823 	 1.5734 	 95.9636 	 
H 	 49.4429 	 1.22356 	 95.0343 	 
H 	 48.8225 	 0.692424 	 96.6014 	 
H 	 49.8652 	 2.05869 	 96.5173 	 
H 	 54.2123 	 4.30823 	 94.5344 	 
H 	 47.2748 	 2.05658 	 90.559 	 
*
