! wB97X-D3 SP def2-SVP
%pal
nprocs 16
end

* xyz 0 1
S 	 43.6174 	 11.9461 	 49.6952 	 
C 	 43.6148 	 13.0822 	 48.3374 	 
C 	 42.9884 	 14.2628 	 48.7332 	 
C 	 42.6756 	 14.2805 	 50.1182 	 
C 	 42.9964 	 13.1809 	 50.7738 	 
H 	 42.3959 	 15.1702 	 50.6364 	 
C 	 42.8471 	 15.4976 	 47.8642 	 
H 	 43.1475 	 15.2247 	 46.8341 	 
H 	 43.5429 	 16.1651 	 48.3045 	 
C 	 41.4618 	 16.2184 	 47.9695 	 
H 	 40.7401 	 15.4518 	 47.717 	 
H 	 41.1623 	 16.6604 	 48.9745 	 
C 	 41.219 	 17.3011 	 46.9353 	 
H 	 42.0796 	 18.0591 	 46.9387 	 
H 	 41.0594 	 16.9052 	 45.9315 	 
H 	 40.238 	 17.7426 	 47.263 	 
S 	 44.6461 	 12.4185 	 52.9038 	 
C 	 43.9289 	 12.4475 	 54.4671 	 
C 	 42.5998 	 12.8068 	 54.4252 	 
C 	 42.1186 	 13.238 	 53.1884 	 
C 	 43.0907 	 12.9524 	 52.2314 	 
H 	 41.9944 	 12.7515 	 55.3056 	 
C 	 40.7321 	 13.6276 	 52.937 	 
H 	 40.1495 	 12.8753 	 53.4447 	 
H 	 40.5557 	 13.5084 	 51.9085 	 
C 	 40.3462 	 15.0472 	 53.3827 	 
H 	 40.9656 	 15.7957 	 52.8891 	 
H 	 40.6646 	 15.17 	 54.4019 	 
C 	 38.7629 	 15.3171 	 53.3531 	 
H 	 38.3844 	 14.5139 	 53.8987 	 
H 	 38.5615 	 15.2066 	 52.3482 	 
H 	 38.5543 	 16.3235 	 53.7866 	 
H 	 44.1404 	 12.9263 	 47.443 	 
H 	 44.4551 	 12.0489 	 55.2905 	 
*
