! wB97X-D3 SP def2-SVP
%pal
nprocs 16
end

* xyz 0 1
S 	 48.8616 	 19.685 	 84.5517 	 
C 	 47.9492 	 20.8117 	 83.5932 	 
C 	 47.646 	 20.3568 	 82.3318 	 
C 	 48.244 	 19.0453 	 82.0966 	 
C 	 48.8902 	 18.5697 	 83.1706 	 
H 	 48.318 	 18.3432 	 81.3197 	 
C 	 46.9509 	 21.1 	 81.2485 	 
H 	 46.4413 	 21.8973 	 81.7615 	 
H 	 46.117 	 20.4845 	 80.8065 	 
C 	 47.9025 	 21.7009 	 80.2733 	 
H 	 48.7089 	 21.0601 	 79.9739 	 
H 	 47.3193 	 21.8995 	 79.3945 	 
C 	 48.5414 	 23.0467 	 80.7155 	 
H 	 47.9027 	 23.902 	 80.6358 	 
H 	 49.0168 	 22.9547 	 81.6899 	 
H 	 49.4021 	 23.1639 	 80.0318 	 
S 	 48.5375 	 15.885 	 83.7613 	 
C 	 49.9158 	 14.7976 	 83.6326 	 
C 	 51.0243 	 15.4972 	 83.1575 	 
C 	 50.8311 	 16.8538 	 82.928 	 
C 	 49.5389 	 17.2455 	 83.2424 	 
H 	 52.0346 	 14.9558 	 83.0341 	 
C 	 51.8889 	 17.7065 	 82.3713 	 
H 	 51.569 	 18.7874 	 82.3186 	 
H 	 52.0931 	 17.443 	 81.3411 	 
C 	 53.2266 	 17.6755 	 83.0691 	 
H 	 54.016 	 18.2162 	 82.5136 	 
H 	 53.5238 	 16.6206 	 83.0888 	 
C 	 53.1333 	 18.2942 	 84.5122 	 
H 	 53.9185 	 18.0116 	 85.2392 	 
H 	 52.2498 	 17.9007 	 84.9877 	 
H 	 52.9333 	 19.4254 	 84.3842 	 
H 	 47.6575 	 21.7419 	 84.0059 	 
H 	 49.9138 	 13.763 	 83.9284 	 
*
