! wB97X-D3 SP def2-SVP
%pal
nprocs 16
end

* xyz 0 1
S 	 -42.5303 	 51.729 	 103.384 	 
C 	 -42.3678 	 52.5223 	 101.81 	 
C 	 -41.4745 	 53.594 	 101.779 	 
C 	 -41.0699 	 53.8916 	 103.115 	 
C 	 -41.3377 	 52.8668 	 104.002 	 
H 	 -40.4122 	 54.619 	 103.449 	 
C 	 -41.0388 	 54.3832 	 100.539 	 
H 	 -41.3797 	 54.0268 	 99.5806 	 
H 	 -40.0289 	 54.1094 	 100.417 	 
C 	 -41.3819 	 55.9277 	 100.664 	 
H 	 -42.321 	 56.2092 	 100.972 	 
H 	 -40.7464 	 56.336 	 101.476 	 
C 	 -41.2097 	 56.6176 	 99.2762 	 
H 	 -41.3197 	 57.735 	 99.3649 	 
H 	 -40.2064 	 56.4941 	 98.7902 	 
H 	 -41.9198 	 56.3699 	 98.531 	 
S 	 -41.7133 	 53.1258 	 106.744 	 
C 	 -40.3921 	 52.5574 	 107.851 	 
C 	 -39.2089 	 52.3984 	 107.225 	 
C 	 -39.422 	 52.4764 	 105.764 	 
C 	 -40.7354 	 52.7126 	 105.333 	 
H 	 -38.3467 	 52.1474 	 107.845 	 
C 	 -38.1916 	 52.4986 	 104.972 	 
H 	 -38.3886 	 51.8546 	 104.103 	 
H 	 -37.3711 	 52.0898 	 105.565 	 
C 	 -37.7683 	 53.8851 	 104.559 	 
H 	 -37.9437 	 54.5072 	 105.482 	 
H 	 -38.3052 	 54.1736 	 103.685 	 
C 	 -36.1987 	 53.9073 	 104.262 	 
H 	 -35.5707 	 53.6891 	 105.16 	 
H 	 -35.9721 	 54.891 	 103.779 	 
H 	 -35.9483 	 53.1783 	 103.546 	 
H 	 -42.7486 	 52.0787 	 100.892 	 
H 	 -40.5311 	 52.5061 	 108.925 	 
*
