! wB97X-D3 SP def2-SVP
%pal
nprocs 16
end

* xyz 0 1
S 	 56.0291 	 6.35702 	 80.0793 	 
C 	 56.0806 	 4.87698 	 79.0491 	 
C 	 55.269 	 3.91855 	 79.6825 	 
C 	 54.4958 	 4.34764 	 80.7518 	 
C 	 54.6608 	 5.70293 	 80.9848 	 
H 	 53.7244 	 3.87221 	 81.3295 	 
C 	 55.3004 	 2.45812 	 79.2525 	 
H 	 56.0119 	 2.26393 	 78.4722 	 
H 	 54.3903 	 2.25147 	 78.7602 	 
C 	 55.4228 	 1.46813 	 80.4223 	 
H 	 56.0451 	 0.702115 	 79.987 	 
H 	 56.1296 	 1.8734 	 81.0735 	 
C 	 54.1679 	 0.906303 	 81.0427 	 
H 	 53.6946 	 0.205354 	 80.346 	 
H 	 54.4457 	 0.318618 	 81.9031 	 
H 	 53.3383 	 1.65264 	 81.1988 	 
S 	 55.0465 	 7.50535 	 82.7861 	 
C 	 53.6923 	 8.15983 	 83.7954 	 
C 	 52.4817 	 7.68707 	 83.3649 	 
C 	 52.6931 	 6.63238 	 82.3832 	 
C 	 53.9651 	 6.51796 	 81.9404 	 
H 	 51.6163 	 8.14329 	 83.7207 	 
C 	 51.5275 	 6.12734 	 81.5363 	 
H 	 51.8434 	 5.76598 	 80.5668 	 
H 	 51.0537 	 7.10876 	 81.4419 	 
C 	 50.7395 	 5.00821 	 82.3177 	 
H 	 50.3947 	 5.28609 	 83.3543 	 
H 	 51.3531 	 4.11412 	 82.4532 	 
C 	 49.5051 	 4.54877 	 81.5144 	 
H 	 49.6421 	 3.8282 	 80.7023 	 
H 	 48.7226 	 5.28605 	 81.336 	 
H 	 48.9994 	 3.98351 	 82.2252 	 
H 	 56.7998 	 4.70786 	 78.2799 	 
H 	 53.7399 	 9.13279 	 84.1833 	 
*
