! wB97X-D3 SP def2-SVP
%pal
nprocs 16
end

* xyz 0 1
S 	 8.19252 	 -17.905 	 85.6938 	 
C 	 7.03623 	 -19.1285 	 86.2316 	 
C 	 6.15595 	 -18.6029 	 87.1955 	 
C 	 6.37763 	 -17.2034 	 87.4121 	 
C 	 7.39995 	 -16.6545 	 86.6235 	 
H 	 5.74131 	 -16.5879 	 87.9519 	 
C 	 5.05228 	 -19.4497 	 87.8229 	 
H 	 5.47696 	 -20.23 	 88.3745 	 
H 	 4.61819 	 -19.9298 	 86.9352 	 
C 	 4.0722 	 -18.8298 	 88.7417 	 
H 	 3.41173 	 -19.6096 	 89.1379 	 
H 	 4.52936 	 -18.375 	 89.6781 	 
C 	 3.0893 	 -17.8372 	 88.1517 	 
H 	 3.52001 	 -17.2949 	 87.3443 	 
H 	 2.15371 	 -18.3241 	 87.8306 	 
H 	 2.84265 	 -17.1238 	 88.9095 	 
S 	 7.66831 	 -14.6429 	 84.856 	 
C 	 7.82053 	 -12.9665 	 85.4355 	 
C 	 7.87159 	 -12.872 	 86.8153 	 
C 	 7.80215 	 -14.1634 	 87.4105 	 
C 	 7.63817 	 -15.2355 	 86.4839 	 
H 	 7.87528 	 -11.9208 	 87.3631 	 
C 	 7.84792 	 -14.3399 	 88.8857 	 
H 	 7.38462 	 -15.2748 	 89.233 	 
H 	 7.25484 	 -13.5393 	 89.325 	 
C 	 9.29704 	 -14.248 	 89.3867 	 
H 	 9.18597 	 -14.2677 	 90.4198 	 
H 	 9.79955 	 -13.3032 	 89.1396 	 
C 	 10.1078 	 -15.4658 	 88.8615 	 
H 	 11.0456 	 -15.671 	 89.4239 	 
H 	 10.3183 	 -15.3874 	 87.8243 	 
H 	 9.41769 	 -16.2751 	 89.0281 	 
H 	 6.94958 	 -20.1411 	 85.902 	 
H 	 7.84092 	 -12.1427 	 84.7643 	 
*
