! wB97X-D3 SP def2-SVP
%pal
nprocs 16
end

* xyz 0 1
S 	 -20.7131 	 0.743938 	 77.6001 	 
C 	 -20.3371 	 -0.800485 	 76.9188 	 
C 	 -21.1826 	 -1.11526 	 75.9182 	 
C 	 -22.201 	 -0.110006 	 75.7482 	 
C 	 -22.0943 	 0.966739 	 76.6001 	 
H 	 -23.0153 	 -0.0629446 	 75.0317 	 
C 	 -21.1247 	 -2.21575 	 74.9061 	 
H 	 -22.0054 	 -2.27129 	 74.2293 	 
H 	 -21.0382 	 -3.16373 	 75.4063 	 
C 	 -19.8401 	 -2.18913 	 74.1468 	 
H 	 -19 	 -2.19557 	 74.7845 	 
H 	 -19.6827 	 -3.1553 	 73.6707 	 
C 	 -19.6249 	 -0.948396 	 73.1969 	 
H 	 -18.5517 	 -1.01108 	 72.8687 	 
H 	 -20.1669 	 -1.03156 	 72.2586 	 
H 	 -19.7818 	 -0.0421893 	 73.7939 	 
S 	 -22.0924 	 3.59443 	 75.8032 	 
C 	 -23.6188 	 4.40211 	 75.681 	 
C 	 -24.6458 	 3.67266 	 76.1828 	 
C 	 -24.2242 	 2.35656 	 76.5715 	 
C 	 -22.8522 	 2.1779 	 76.4729 	 
H 	 -25.636 	 4.03447 	 76.314 	 
C 	 -25.2266 	 1.33488 	 77.1796 	 
H 	 -24.9542 	 0.436775 	 76.675 	 
H 	 -26.2192 	 1.62895 	 76.8624 	 
C 	 -25.2898 	 1.12295 	 78.7393 	 
H 	 -25.5103 	 2.08123 	 79.1508 	 
H 	 -24.2588 	 0.983499 	 79.143 	 
C 	 -26.165 	 -0.0261176 	 79.2164 	 
H 	 -26.0244 	 -0.215665 	 80.2976 	 
H 	 -25.8904 	 -0.915209 	 78.6923 	 
H 	 -27.2573 	 0.19569 	 79.1132 	 
H 	 -19.5023 	 -1.46089 	 77.098 	 
H 	 -23.7442 	 5.39369 	 75.2595 	 
*
