! wB97X-D3 SP def2-SVP
%pal
nprocs 16
end

* xyz 0 1
S 	 45.1063 	 6.42057 	 85.9617 	 
C 	 45.4066 	 7.58149 	 87.2046 	 
C 	 46.3725 	 7.15631 	 88.0554 	 
C 	 46.7938 	 5.78442 	 87.7916 	 
C 	 46.2396 	 5.28147 	 86.6744 	 
H 	 47.4583 	 5.14387 	 88.4037 	 
C 	 46.8713 	 7.9388 	 89.2783 	 
H 	 46.3884 	 7.57051 	 90.2043 	 
H 	 46.6425 	 8.97422 	 89.1208 	 
C 	 48.388 	 7.82085 	 89.6054 	 
H 	 48.7149 	 8.50389 	 90.3921 	 
H 	 48.6111 	 6.82194 	 90.0044 	 
C 	 49.3807 	 8.11233 	 88.4408 	 
H 	 49.2258 	 9.1274 	 88.0638 	 
H 	 50.383 	 8.07678 	 88.7637 	 
H 	 49.2232 	 7.2584 	 87.745 	 
S 	 45.1627 	 3.30369 	 85.2256 	 
C 	 46.216 	 2.00719 	 84.5979 	 
C 	 47.4513 	 2.08691 	 85.1373 	 
C 	 47.6389 	 3.13761 	 86.0204 	 
C 	 46.4719 	 3.922 	 86.1056 	 
H 	 48.1453 	 1.39781 	 84.7129 	 
C 	 49.0381 	 3.48246 	 86.5341 	 
H 	 49.7605 	 2.59488 	 86.3584 	 
H 	 48.9091 	 3.57764 	 87.5486 	 
C 	 49.7212 	 4.75549 	 85.8921 	 
H 	 49.1174 	 5.63571 	 86.0518 	 
H 	 49.8215 	 4.53232 	 84.7968 	 
C 	 51.1516 	 5.02062 	 86.5279 	 
H 	 51.9846 	 4.39453 	 86.1413 	 
H 	 51.1319 	 4.82274 	 87.5807 	 
H 	 51.354 	 6.0379 	 86.3513 	 
H 	 44.9656 	 8.58303 	 87.1694 	 
H 	 46.0295 	 1.39891 	 83.7695 	 
*
