! wB97X-D3 SP def2-SVP
%pal
nprocs 16
end

* xyz 0 1
S 	 -2.18313 	 8.46298 	 82.5725 	 
C 	 -3.0294 	 7.11071 	 81.8699 	 
C 	 -3.89668 	 7.5752 	 80.9535 	 
C 	 -3.84541 	 8.97744 	 80.7582 	 
C 	 -2.99941 	 9.68582 	 81.612 	 
H 	 -4.44264 	 9.58023 	 80.0523 	 
C 	 -4.71286 	 6.7503 	 79.8704 	 
H 	 -4.53569 	 5.6386 	 80.0159 	 
H 	 -4.46192 	 7.0666 	 78.8475 	 
C 	 -6.23996 	 6.85049 	 79.9811 	 
H 	 -6.62167 	 5.96577 	 79.5928 	 
H 	 -6.50115 	 6.67178 	 81.0254 	 
C 	 -7.03651 	 7.99641 	 79.3229 	 
H 	 -8.1071 	 7.86091 	 79.5934 	 
H 	 -6.78475 	 8.96917 	 79.6662 	 
H 	 -7.03807 	 8.04226 	 78.2092 	 
S 	 -0.981097 	 11.4602 	 81.5308 	 
C 	 -1.3319 	 13.1882 	 81.4936 	 
C 	 -2.67534 	 13.4074 	 81.4399 	 
C 	 -3.48675 	 12.2478 	 81.454 	 
C 	 -2.69347 	 11.1018 	 81.6681 	 
H 	 -3.03569 	 14.3997 	 81.3851 	 
C 	 -5.02454 	 12.3019 	 81.3357 	 
H 	 -5.37185 	 11.5874 	 82.1134 	 
H 	 -5.3946 	 11.8592 	 80.3871 	 
C 	 -5.71237 	 13.6638 	 81.7299 	 
H 	 -5.45875 	 14.4052 	 81.0534 	 
H 	 -5.16112 	 13.9916 	 82.6346 	 
C 	 -7.24431 	 13.6311 	 81.8715 	 
H 	 -7.71218 	 13.3425 	 80.8749 	 
H 	 -7.6674 	 14.5818 	 82.1296 	 
H 	 -7.61955 	 13.0335 	 82.7411 	 
H 	 -2.83316 	 6.07338 	 82.0181 	 
H 	 -0.63091 	 14.0151 	 81.349 	 
*
