! wB97X-D3 SP def2-SVP
%pal
nprocs 16
end

* xyz 0 1
S 	 -52.8124 	 38.3713 	 87.088 	 
C 	 -53.8507 	 37.8535 	 85.724 	 
C 	 -55.1192 	 37.5401 	 86.2048 	 
C 	 -55.2781 	 37.8432 	 87.5976 	 
C 	 -54.1198 	 38.3218 	 88.2363 	 
H 	 -56.1526 	 37.547 	 88.1538 	 
C 	 -56.199 	 36.8587 	 85.3439 	 
H 	 -57.07 	 36.6507 	 85.9523 	 
H 	 -55.9139 	 35.9339 	 84.9004 	 
C 	 -56.6995 	 37.6709 	 84.2042 	 
H 	 -55.845 	 37.973 	 83.5623 	 
H 	 -57.3354 	 37.0833 	 83.4535 	 
C 	 -57.5454 	 38.9734 	 84.4576 	 
H 	 -56.9502 	 39.7602 	 84.8911 	 
H 	 -58.0056 	 39.2822 	 83.5065 	 
H 	 -58.4053 	 38.8074 	 85.1316 	 
S 	 -52.3255 	 39.1343 	 90.0815 	 
C 	 -52.5156 	 38.9265 	 91.7568 	 
C 	 -53.8289 	 38.6503 	 91.9415 	 
C 	 -54.5441 	 38.2497 	 90.8055 	 
C 	 -53.8422 	 38.4803 	 89.6526 	 
H 	 -54.1289 	 38.7478 	 92.9851 	 
C 	 -55.9917 	 37.7557 	 90.9642 	 
H 	 -56.5685 	 37.9518 	 90.0538 	 
H 	 -56.5084 	 38.4797 	 91.6651 	 
C 	 -56.1333 	 36.2597 	 91.387 	 
H 	 -55.881 	 36.1498 	 92.463 	 
H 	 -55.4683 	 35.5488 	 90.839 	 
C 	 -57.5747 	 35.7752 	 91.4151 	 
H 	 -58.2638 	 36.5029 	 91.8079 	 
H 	 -57.7214 	 34.9245 	 92.0927 	 
H 	 -58.0826 	 35.5005 	 90.4782 	 
H 	 -53.4908 	 37.7099 	 84.7125 	 
H 	 -51.8248 	 39.3142 	 92.4168 	 
*
