! wB97X-D3 SP def2-SVP
%pal
nprocs 16
end

* xyz 0 1
S 	 -15.7705 	 31.9805 	 38.3797 	 
C 	 -17.0592 	 30.8267 	 38.2245 	 
C 	 -17.8136 	 31.1592 	 37.1499 	 
C 	 -17.5024 	 32.4542 	 36.6262 	 
C 	 -16.4718 	 33.1522 	 37.2334 	 
H 	 -18.0434 	 32.9565 	 35.8389 	 
C 	 -18.9667 	 30.3038 	 36.6581 	 
H 	 -19.5715 	 30.073 	 37.5123 	 
H 	 -18.4269 	 29.374 	 36.2111 	 
C 	 -19.9096 	 30.966 	 35.6466 	 
H 	 -19.4427 	 31.4134 	 34.7511 	 
H 	 -20.4652 	 30.2274 	 35.2954 	 
C 	 -20.9435 	 31.9923 	 36.2339 	 
H 	 -20.4218 	 32.8274 	 36.6405 	 
H 	 -21.7735 	 32.2718 	 35.614 	 
H 	 -21.4639 	 31.516 	 37.1044 	 
S 	 -14.7491 	 34.1859 	 35.4405 	 
C 	 -14.329 	 35.8983 	 35.5087 	 
C 	 -15.1302 	 36.5082 	 36.4222 	 
C 	 -15.9783 	 35.6776 	 37.2068 	 
C 	 -15.8136 	 34.3525 	 36.8193 	 
H 	 -15.0488 	 37.565 	 36.5626 	 
C 	 -17.0151 	 36.2405 	 38.2401 	 
H 	 -16.6337 	 37.2376 	 38.4293 	 
H 	 -16.8513 	 35.7307 	 39.1563 	 
C 	 -18.5238 	 36.1699 	 37.8416 	 
H 	 -19.2046 	 36.2805 	 38.6553 	 
H 	 -18.7474 	 35.2991 	 37.2464 	 
C 	 -18.7637 	 37.3628 	 36.8728 	 
H 	 -18.23 	 37.1925 	 35.9021 	 
H 	 -18.4922 	 38.2841 	 37.4162 	 
H 	 -19.8377 	 37.5337 	 36.6689 	 
H 	 -17.0006 	 29.8398 	 38.5834 	 
H 	 -13.5513 	 36.4425 	 34.9473 	 
*
