! wB97X-D3 SP def2-SVP
%pal
nprocs 16
end

* xyz 0 1
S 	 -14.5985 	 -5.67634 	 87.9726 	 
C 	 -14.7676 	 -4.60506 	 86.6039 	 
C 	 -15.9642 	 -3.81305 	 86.7782 	 
C 	 -16.621 	 -4.12722 	 88.0184 	 
C 	 -16.0374 	 -5.10126 	 88.742 	 
H 	 -17.4495 	 -3.59233 	 88.5035 	 
C 	 -16.4242 	 -2.86835 	 85.7276 	 
H 	 -17.2715 	 -2.3196 	 86.0361 	 
H 	 -16.6316 	 -3.56607 	 84.8624 	 
C 	 -15.3966 	 -1.7748 	 85.3821 	 
H 	 -14.5464 	 -2.32298 	 84.9416 	 
H 	 -15.8382 	 -1.1357 	 84.6006 	 
C 	 -14.9789 	 -0.787403 	 86.5156 	 
H 	 -14.371 	 0.025133 	 86.0783 	 
H 	 -15.8058 	 -0.394151 	 87.1046 	 
H 	 -14.3949 	 -1.35494 	 87.3119 	 
S 	 -14.9585 	 -5.87467 	 91.0733 	 
C 	 -15.9358 	 -6.20063 	 92.5002 	 
C 	 -17.3033 	 -6.0087 	 92.1884 	 
C 	 -17.5709 	 -5.56319 	 90.8771 	 
C 	 -16.375 	 -5.56892 	 90.0895 	 
H 	 -18.0283 	 -6.12038 	 93.0024 	 
C 	 -18.8764 	 -5.02363 	 90.407 	 
H 	 -19.7059 	 -5.6427 	 90.871 	 
H 	 -18.9245 	 -5.26152 	 89.3238 	 
C 	 -19.1394 	 -3.50991 	 90.6847 	 
H 	 -18.1741 	 -2.9544 	 90.5346 	 
H 	 -19.4101 	 -3.39141 	 91.7349 	 
C 	 -20.1178 	 -2.92444 	 89.6752 	 
H 	 -20.2385 	 -1.83973 	 89.7935 	 
H 	 -21.1482 	 -3.0417 	 89.8621 	 
H 	 -19.936 	 -3.06564 	 88.6072 	 
H 	 -14.1618 	 -4.55648 	 85.7174 	 
H 	 -15.5696 	 -6.59854 	 93.4732 	 
*
