! wB97X-D3 SP def2-SVP
%pal
nprocs 16
end

* xyz 0 1
S 	 40.1656 	 8.94604 	 88.1704 	 
C 	 39.7427 	 7.46778 	 88.9622 	 
C 	 38.856 	 6.68198 	 88.3347 	 
C 	 38.4765 	 7.32836 	 87.0695 	 
C 	 39.0983 	 8.50251 	 86.8407 	 
H 	 37.7463 	 7.03808 	 86.4219 	 
C 	 38.2657 	 5.44189 	 88.8336 	 
H 	 39.0385 	 4.75047 	 88.9783 	 
H 	 37.5866 	 5.13975 	 88.0266 	 
C 	 37.398 	 5.4752 	 90.1214 	 
H 	 36.9899 	 4.45726 	 90.2717 	 
H 	 38.0331 	 5.59971 	 91.0488 	 
C 	 36.2669 	 6.55272 	 90.1053 	 
H 	 35.6468 	 6.32236 	 89.2357 	 
H 	 35.6458 	 6.55231 	 90.9503 	 
H 	 36.5716 	 7.57227 	 89.9689 	 
S 	 38.1987 	 11.068 	 86.2329 	 
C 	 37.7689 	 11.4878 	 84.574 	 
C 	 38.2162 	 10.4784 	 83.7031 	 
C 	 38.8186 	 9.38438 	 84.3808 	 
C 	 38.7208 	 9.42189 	 85.7504 	 
H 	 38.2369 	 10.5837 	 82.6094 	 
C 	 39.4482 	 8.2578 	 83.5561 	 
H 	 38.8503 	 8.0795 	 82.7202 	 
H 	 39.3219 	 7.31987 	 84.0686 	 
C 	 40.9106 	 8.46648 	 83.0737 	 
H 	 40.9117 	 9.30782 	 82.3904 	 
H 	 41.2373 	 7.57485 	 82.5251 	 
C 	 41.8586 	 8.75322 	 84.1739 	 
H 	 41.7579 	 7.81354 	 84.7529 	 
H 	 41.602 	 9.63297 	 84.785 	 
H 	 42.8515 	 8.92406 	 83.7044 	 
H 	 40.101 	 7.34205 	 89.9475 	 
H 	 37.2171 	 12.4243 	 84.2335 	 
*
