! wB97X-D3 SP def2-SVP
%pal
nprocs 16
end

* xyz 0 1
S 	 58.5089 	 6.92046 	 75.5495 	 
C 	 58.3662 	 8.56091 	 76.1932 	 
C 	 57.415 	 9.29743 	 75.4741 	 
C 	 56.8221 	 8.55219 	 74.3808 	 
C 	 57.2673 	 7.24269 	 74.2409 	 
H 	 56.0063 	 8.82648 	 73.6815 	 
C 	 57.1835 	 10.7758 	 75.5596 	 
H 	 57.426 	 11.2818 	 76.5023 	 
H 	 56.0694 	 11.0034 	 75.7041 	 
C 	 57.8567 	 11.4738 	 74.3273 	 
H 	 58.9485 	 11.3554 	 74.3883 	 
H 	 57.5877 	 11.0344 	 73.3465 	 
C 	 57.6054 	 13.0547 	 74.3476 	 
H 	 56.543 	 13.2422 	 74.3603 	 
H 	 57.869 	 13.5436 	 75.2496 	 
H 	 58.0455 	 13.4946 	 73.4768 	 
S 	 55.3002 	 5.47771 	 73.2787 	 
C 	 55.9123 	 4.27364 	 72.1222 	 
C 	 57.1227 	 4.58278 	 71.5856 	 
C 	 57.7684 	 5.58783 	 72.35 	 
C 	 56.8954 	 6.21828 	 73.2887 	 
H 	 57.4572 	 4.02823 	 70.739 	 
C 	 59.1199 	 6.14862 	 71.987 	 
H 	 59.6575 	 5.35267 	 71.4197 	 
H 	 59.581 	 6.53634 	 72.9144 	 
C 	 59.0667 	 7.54005 	 71.2309 	 
H 	 60.0903 	 7.89234 	 70.9704 	 
H 	 58.5881 	 8.30393 	 71.7698 	 
C 	 58.246 	 7.48828 	 69.8992 	 
H 	 57.7761 	 8.48771 	 69.5873 	 
H 	 57.4425 	 6.72643 	 70.0483 	 
H 	 58.8969 	 7.12182 	 69.111 	 
H 	 58.8678 	 8.89787 	 77.1107 	 
H 	 55.3181 	 3.5926 	 71.61 	 
*
