! wB97X-D3 SP def2-SVP
%pal
nprocs 16
end

* xyz 0 1
S 	 33.5593 	 -1.83835 	 69.6378 	 
C 	 32.8854 	 -0.299935 	 69.2265 	 
C 	 33.7246 	 0.704286 	 69.6038 	 
C 	 34.9876 	 0.165136 	 70.0284 	 
C 	 35.1044 	 -1.19882 	 69.9037 	 
H 	 35.9045 	 0.734949 	 70.3437 	 
C 	 33.4803 	 2.20066 	 69.5635 	 
H 	 32.5158 	 2.36258 	 69.0902 	 
H 	 34.1666 	 2.70222 	 68.9016 	 
C 	 33.2163 	 2.73016 	 70.9654 	 
H 	 32.5586 	 1.99235 	 71.4873 	 
H 	 34.1823 	 2.76354 	 71.4686 	 
C 	 32.6413 	 4.1301 	 70.9673 	 
H 	 31.6007 	 4.32104 	 70.734 	 
H 	 32.8969 	 4.59989 	 71.8928 	 
H 	 33.0728 	 4.61701 	 70.154 	 
S 	 36.2804 	 -2.89205 	 71.8428 	 
C 	 38.0275 	 -3.16053 	 71.6219 	 
C 	 38.6465 	 -2.27041 	 70.7525 	 
C 	 37.6442 	 -1.64995 	 69.9944 	 
C 	 36.318 	 -1.84352 	 70.4316 	 
H 	 39.6807 	 -2.26806 	 70.654 	 
C 	 38.0386 	 -0.730166 	 68.8678 	 
H 	 37.8286 	 0.312686 	 69.2898 	 
H 	 37.2996 	 -0.809286 	 68.0844 	 
C 	 39.4746 	 -0.857957 	 68.4117 	 
H 	 39.5702 	 -1.7602 	 67.9422 	 
H 	 40.2586 	 -0.680925 	 69.1153 	 
C 	 39.7311 	 0.224418 	 67.363 	 
H 	 40.735 	 0.235839 	 67.0254 	 
H 	 39.5848 	 1.2246 	 67.7888 	 
H 	 39.0819 	 0.0605235 	 66.5321 	 
H 	 31.9073 	 0.0821127 	 68.8743 	 
H 	 38.5814 	 -3.906 	 72.1492 	 
*
