! wB97X-D3 SP def2-SVP
%pal
nprocs 16
end

* xyz 0 1
S 	 -44.6038 	 54.4052 	 103.155 	 
C 	 -46.3582 	 54.1634 	 103.576 	 
C 	 -46.9756 	 53.2489 	 102.746 	 
C 	 -46.0926 	 52.8153 	 101.701 	 
C 	 -44.8297 	 53.2416 	 101.867 	 
H 	 -46.3056 	 52.2302 	 100.791 	 
C 	 -48.4764 	 53.0584 	 102.712 	 
H 	 -48.7709 	 53.2946 	 101.727 	 
H 	 -49.0912 	 53.7304 	 103.247 	 
C 	 -48.9418 	 51.6411 	 103.129 	 
H 	 -48.8069 	 50.9797 	 102.354 	 
H 	 -48.3632 	 51.275 	 103.923 	 
C 	 -50.4665 	 51.6147 	 103.463 	 
H 	 -50.7602 	 50.6385 	 103.909 	 
H 	 -50.7558 	 52.5033 	 104.053 	 
H 	 -50.9765 	 51.7556 	 102.536 	 
S 	 -42.7855 	 54.0525 	 100.133 	 
C 	 -41.9499 	 52.8404 	 99.1255 	 
C 	 -42.2504 	 51.5526 	 99.533 	 
C 	 -43.2269 	 51.5138 	 100.548 	 
C 	 -43.6851 	 52.8284 	 100.99 	 
H 	 -41.7629 	 50.6416 	 99.0983 	 
C 	 -43.797 	 50.232 	 100.948 	 
H 	 -43.8418 	 49.6183 	 100.09 	 
H 	 -44.878 	 50.4506 	 101.19 	 
C 	 -43.1309 	 49.5661 	 102.19 	 
H 	 -42.0607 	 49.5645 	 102.003 	 
H 	 -43.4511 	 48.5301 	 102.055 	 
C 	 -43.5292 	 50.1145 	 103.531 	 
H 	 -43.2621 	 51.155 	 103.741 	 
H 	 -43.1766 	 49.4921 	 104.351 	 
H 	 -44.575 	 50.0367 	 103.584 	 
H 	 -46.7978 	 54.7857 	 104.432 	 
H 	 -41.194 	 52.9333 	 98.4204 	 
*
