! wB97X-D3 SP def2-SVP
%pal
nprocs 16
end

* xyz 0 1
S 	 -56.5309 	 38.606 	 92.9838 	 
C 	 -58.2623 	 38.5925 	 93.3029 	 
C 	 -58.8969 	 38.8631 	 92.0981 	 
C 	 -58.0733 	 38.9436 	 90.9746 	 
C 	 -56.7453 	 38.8783 	 91.2413 	 
H 	 -58.4176 	 39.0421 	 89.9588 	 
C 	 -60.4176 	 39.0523 	 92.0541 	 
H 	 -60.5208 	 39.4205 	 91.0923 	 
H 	 -60.6826 	 39.9124 	 92.7415 	 
C 	 -61.3216 	 37.8735 	 92.3988 	 
H 	 -61.0728 	 37.5587 	 93.4154 	 
H 	 -62.3908 	 38.1481 	 92.4057 	 
C 	 -61.0486 	 36.7572 	 91.3997 	 
H 	 -61.167 	 37.0612 	 90.3619 	 
H 	 -60.0295 	 36.3991 	 91.4613 	 
H 	 -61.7485 	 35.9307 	 91.5754 	 
S 	 -54.3853 	 40.0246 	 90.7165 	 
C 	 -53.2961 	 39.4448 	 89.5494 	 
C 	 -53.8753 	 38.4919 	 88.7389 	 
C 	 -55.1733 	 38.128 	 89.2367 	 
C 	 -55.6167 	 38.8901 	 90.34 	 
H 	 -53.279 	 37.9981 	 87.9222 	 
C 	 -55.8855 	 36.9035 	 88.601 	 
H 	 -55.5278 	 36.8277 	 87.6311 	 
H 	 -56.8443 	 37.1946 	 88.6045 	 
C 	 -55.7771 	 35.4895 	 89.2959 	 
H 	 -56.2704 	 34.6513 	 88.7703 	 
H 	 -56.1976 	 35.6832 	 90.2619 	 
C 	 -54.327 	 35.0635 	 89.4893 	 
H 	 -53.8403 	 35.1506 	 88.5082 	 
H 	 -54.2253 	 34.0295 	 89.7321 	 
H 	 -53.8794 	 35.5491 	 90.3011 	 
H 	 -58.708 	 38.3603 	 94.2574 	 
H 	 -52.3074 	 39.7115 	 89.4169 	 
*
