! wB97X-D3 SP def2-SVP
%pal
nprocs 16
end

* xyz 0 1
S 	 -5.10491 	 75.0215 	 58.9207 	 
C 	 -5.3458 	 73.4378 	 59.4345 	 
C 	 -5.78183 	 72.7518 	 58.3405 	 
C 	 -5.97253 	 73.4746 	 57.1042 	 
C 	 -5.75069 	 74.8457 	 57.3088 	 
H 	 -6.17799 	 72.955 	 56.2475 	 
C 	 -5.85808 	 71.2154 	 58.3374 	 
H 	 -4.86945 	 70.8048 	 58.526 	 
H 	 -6.04915 	 71.0177 	 57.2466 	 
C 	 -7.02206 	 70.6536 	 59.0932 	 
H 	 -7.2207 	 71.1956 	 60.0054 	 
H 	 -7.85369 	 70.7809 	 58.4872 	 
C 	 -6.85411 	 69.1563 	 59.4183 	 
H 	 -7.51466 	 68.7653 	 60.1961 	 
H 	 -6.9442 	 68.5477 	 58.5059 	 
H 	 -5.89249 	 69.145 	 59.8535 	 
S 	 -7.09636 	 77.1165 	 56.4304 	 
C 	 -6.52433 	 78.0067 	 55.0863 	 
C 	 -5.3995 	 77.3997 	 54.5739 	 
C 	 -4.88323 	 76.2613 	 55.3249 	 
C 	 -5.72435 	 75.938 	 56.3392 	 
H 	 -4.87796 	 77.8394 	 53.6942 	 
C 	 -3.68845 	 75.4228 	 54.9766 	 
H 	 -3.26356 	 75.0025 	 55.9144 	 
H 	 -2.86581 	 75.9873 	 54.4999 	 
C 	 -3.95682 	 74.3767 	 53.8927 	 
H 	 -4.71335 	 73.6673 	 54.2387 	 
H 	 -2.99499 	 73.8878 	 53.6699 	 
C 	 -4.36088 	 75.1024 	 52.5787 	 
H 	 -3.43894 	 75.5783 	 52.129 	 
H 	 -5.15648 	 75.796 	 52.6452 	 
H 	 -4.67053 	 74.3069 	 51.9397 	 
H 	 -5.05342 	 72.9324 	 60.3858 	 
H 	 -6.88649 	 79.058 	 54.8944 	 
*
