! wB97X-D3 SP def2-SVP
%pal
nprocs 16
end

* xyz 0 1
S 	 58.834 	 6.89794 	 75.6115 	 
C 	 58.7329 	 8.47409 	 76.3268 	 
C 	 58.22 	 9.44052 	 75.4351 	 
C 	 57.9366 	 8.86072 	 74.0987 	 
C 	 58.1672 	 7.47271 	 74.0675 	 
H 	 57.53 	 9.42871 	 73.2199 	 
C 	 58.1963 	 10.9252 	 75.6812 	 
H 	 57.3712 	 11.1828 	 76.3984 	 
H 	 57.8709 	 11.4508 	 74.8013 	 
C 	 59.5101 	 11.5369 	 76.0661 	 
H 	 59.7499 	 11.2283 	 77.0831 	 
H 	 60.3367 	 10.9862 	 75.4618 	 
C 	 59.6767 	 13.0131 	 75.8652 	 
H 	 59.1556 	 13.5993 	 76.6435 	 
H 	 60.754 	 13.3333 	 75.921 	 
H 	 59.2865 	 13.402 	 74.954 	 
S 	 56.6099 	 5.27717 	 73.6197 	 
C 	 56.4657 	 4.67239 	 71.9841 	 
C 	 57.3718 	 5.15728 	 71.1277 	 
C 	 58.0058 	 6.33738 	 71.7006 	 
C 	 57.7946 	 6.45811 	 73.069 	 
H 	 57.2803 	 4.73818 	 70.1322 	 
C 	 58.9004 	 7.28735 	 70.8686 	 
H 	 59.4815 	 6.80651 	 70.0101 	 
H 	 59.6021 	 7.68529 	 71.514 	 
C 	 58.1247 	 8.4084 	 70.1989 	 
H 	 58.8029 	 9.12236 	 69.771 	 
H 	 57.7748 	 9.00743 	 70.9727 	 
C 	 56.9611 	 7.97527 	 69.2294 	 
H 	 56.5401 	 8.91799 	 68.7724 	 
H 	 56.011 	 7.49782 	 69.6103 	 
H 	 57.2889 	 7.45713 	 68.381 	 
H 	 59.0667 	 8.72323 	 77.3158 	 
H 	 55.716 	 3.98695 	 71.6498 	 
*
