! wB97X-D3 SP def2-SVP
%pal
nprocs 16
end

* xyz 0 1
S 	 -51.5703 	 65.7111 	 129.452 	 
C 	 -52.3504 	 64.5736 	 128.329 	 
C 	 -51.6006 	 63.4368 	 128.172 	 
C 	 -50.422 	 63.4188 	 128.959 	 
C 	 -50.3008 	 64.5034 	 129.816 	 
H 	 -49.5798 	 62.7675 	 128.962 	 
C 	 -51.6745 	 62.3975 	 127.071 	 
H 	 -50.9712 	 62.7581 	 126.349 	 
H 	 -52.678 	 62.4638 	 126.7 	 
C 	 -51.1527 	 60.9721 	 127.387 	 
H 	 -50.1087 	 61.1634 	 127.692 	 
H 	 -51.6391 	 60.4896 	 128.253 	 
C 	 -51.2102 	 60.0148 	 126.249 	 
H 	 -50.745 	 59.0772 	 126.672 	 
H 	 -52.2143 	 60.0493 	 125.743 	 
H 	 -50.5676 	 60.4153 	 125.455 	 
S 	 -48.2522 	 66.1395 	 130.594 	 
C 	 -47.1443 	 65.6082 	 131.872 	 
C 	 -47.6082 	 64.4395 	 132.434 	 
C 	 -48.6986 	 63.8489 	 131.761 	 
C 	 -49.2081 	 64.6857 	 130.766 	 
H 	 -47.1257 	 64.0126 	 133.28 	 
C 	 -49.3227 	 62.6825 	 132.456 	 
H 	 -48.5945 	 61.9064 	 132.608 	 
H 	 -50.018 	 62.1726 	 131.766 	 
C 	 -50.1762 	 62.9006 	 133.724 	 
H 	 -49.5477 	 63.435 	 134.548 	 
H 	 -50.5768 	 61.8936 	 134.079 	 
C 	 -51.4125 	 63.8374 	 133.517 	 
H 	 -51.0425 	 64.6778 	 133.039 	 
H 	 -51.8987 	 64.1618 	 134.382 	 
H 	 -52.2261 	 63.4587 	 132.844 	 
H 	 -53.2622 	 64.6881 	 127.77 	 
H 	 -46.3778 	 66.2558 	 132.311 	 
*
