! wB97X-D3 SP def2-SVP
%pal
nprocs 16
end

* xyz 0 1
S 	 -36.0909 	 69.5162 	 145.282 	 
C 	 -34.8918 	 70.7795 	 145.261 	 
C 	 -33.614 	 70.2936 	 145.284 	 
C 	 -33.6457 	 68.8746 	 145.483 	 
C 	 -34.8946 	 68.3087 	 145.589 	 
H 	 -32.7526 	 68.182 	 145.504 	 
C 	 -32.2938 	 71.0729 	 145.005 	 
H 	 -32.5884 	 72.1201 	 144.916 	 
H 	 -31.8831 	 70.8395 	 144.094 	 
C 	 -31.0739 	 70.726 	 145.897 	 
H 	 -30.8877 	 69.6546 	 145.847 	 
H 	 -30.0851 	 71.135 	 145.593 	 
C 	 -31.1958 	 71.1883 	 147.384 	 
H 	 -30.4934 	 70.6839 	 148.026 	 
H 	 -31.1595 	 72.2405 	 147.54 	 
H 	 -32.2076 	 70.9612 	 147.73 	 
S 	 -36.3029 	 66.2427 	 144.568 	 
C 	 -36.2069 	 64.5868 	 145.328 	 
C 	 -35.2532 	 64.5795 	 146.336 	 
C 	 -34.7619 	 65.9373 	 146.628 	 
C 	 -35.236 	 66.899 	 145.717 	 
H 	 -34.9023 	 63.6434 	 146.791 	 
C 	 -33.7814 	 66.1688 	 147.753 	 
H 	 -33.1258 	 67.0091 	 147.552 	 
H 	 -33.1717 	 65.3249 	 147.901 	 
C 	 -34.4463 	 66.3594 	 149.121 	 
H 	 -35.295 	 65.5988 	 149.353 	 
H 	 -34.9741 	 67.3478 	 148.961 	 
C 	 -33.5349 	 66.399 	 150.253 	 
H 	 -34.1677 	 66.5959 	 151.174 	 
H 	 -32.805 	 67.2189 	 150.164 	 
H 	 -33.1142 	 65.4537 	 150.47 	 
H 	 -35.0655 	 71.8408 	 144.921 	 
H 	 -36.6768 	 63.7456 	 144.922 	 
*
