! wB97X-D3 SP def2-SVP
%pal
nprocs 16
end

* xyz 0 1
S 	 -37.5169 	 24.0555 	 78.5287 	 
C 	 -36.4258 	 25.0002 	 79.5625 	 
C 	 -36.4658 	 26.334 	 79.2396 	 
C 	 -37.3946 	 26.6431 	 78.2082 	 
C 	 -38.0322 	 25.509 	 77.7114 	 
H 	 -37.6025 	 27.658 	 77.9527 	 
C 	 -35.7026 	 27.4807 	 80.0464 	 
H 	 -36.1243 	 28.48 	 79.844 	 
H 	 -34.6638 	 27.5891 	 79.6134 	 
C 	 -35.8029 	 27.3952 	 81.609 	 
H 	 -36.6961 	 27.855 	 81.9335 	 
H 	 -35.6903 	 26.3359 	 81.8209 	 
C 	 -34.6112 	 28.0259 	 82.2756 	 
H 	 -34.5067 	 29.0294 	 81.8342 	 
H 	 -34.8222 	 28.1867 	 83.3005 	 
H 	 -33.7234 	 27.441 	 82.1384 	 
S 	 -40.6599 	 25.9051 	 76.7931 	 
C 	 -41.0585 	 25.4587 	 75.2205 	 
C 	 -39.939 	 25.1218 	 74.4655 	 
C 	 -38.7307 	 25.1052 	 75.2888 	 
C 	 -38.9364 	 25.4685 	 76.6088 	 
H 	 -40.0025 	 24.7914 	 73.4888 	 
C 	 -37.3691 	 24.6825 	 74.7223 	 
H 	 -37.4843 	 23.9659 	 73.9455 	 
H 	 -36.7827 	 24.2203 	 75.5032 	 
C 	 -36.5505 	 25.8161 	 74.1614 	 
H 	 -37.168 	 26.2901 	 73.4359 	 
H 	 -35.673 	 25.3773 	 73.6693 	 
C 	 -36.0713 	 26.8884 	 75.205 	 
H 	 -36.9015 	 27.4743 	 75.7582 	 
H 	 -35.4699 	 27.6484 	 74.8367 	 
H 	 -35.4242 	 26.5105 	 75.9879 	 
H 	 -35.7605 	 24.6911 	 80.3152 	 
H 	 -42.0717 	 25.3432 	 74.847 	 
*
