! wB97X-D3 SP def2-SVP
%pal
nprocs 16
end

* xyz 0 1
S 	 -100.095 	 39.4595 	 121.212 	 
C 	 -99.6177 	 38.1626 	 122.335 	 
C 	 -99.4838 	 38.6579 	 123.586 	 
C 	 -99.7796 	 40.0417 	 123.692 	 
C 	 -100.229 	 40.6409 	 122.521 	 
H 	 -99.7276 	 40.6148 	 124.602 	 
C 	 -98.9685 	 37.9246 	 124.818 	 
H 	 -99.4292 	 36.9147 	 124.83 	 
H 	 -99.2985 	 38.3503 	 125.756 	 
C 	 -97.4321 	 37.9128 	 124.809 	 
H 	 -97.1346 	 37.596 	 123.788 	 
H 	 -97.064 	 38.9395 	 124.892 	 
C 	 -96.8016 	 37.0638 	 125.909 	 
H 	 -97.1771 	 36.0161 	 125.779 	 
H 	 -95.7438 	 37.0193 	 125.883 	 
H 	 -97.0613 	 37.3726 	 126.927 	 
S 	 -99.5449 	 43.3044 	 122.889 	 
C 	 -100.585 	 44.4906 	 122.156 	 
C 	 -101.761 	 43.9544 	 121.685 	 
C 	 -101.79 	 42.5209 	 121.799 	 
C 	 -100.627 	 42.0292 	 122.412 	 
H 	 -102.591 	 44.636 	 121.288 	 
C 	 -103.006 	 41.7251 	 121.49 	 
H 	 -103.676 	 42.0017 	 122.377 	 
H 	 -102.887 	 40.6328 	 121.688 	 
C 	 -103.784 	 41.8784 	 120.251 	 
H 	 -103.145 	 41.8623 	 119.436 	 
H 	 -104.362 	 42.7967 	 120.227 	 
C 	 -104.899 	 40.8839 	 120.095 	 
H 	 -104.592 	 39.8536 	 120.07 	 
H 	 -105.333 	 41.0422 	 119.156 	 
H 	 -105.736 	 41.2333 	 120.72 	 
H 	 -99.4943 	 37.1209 	 122.084 	 
H 	 -100.373 	 45.5568 	 122.16 	 
*
