! wB97X-D3 SP def2-SVP
%pal
nprocs 16
end

* xyz 0 1
S 	 27.8534 	 30.977 	 57.0744 	 
C 	 29.3475 	 30.1417 	 56.9238 	 
C 	 30.4056 	 30.935 	 57.1834 	 
C 	 29.9946 	 32.2522 	 57.5666 	 
C 	 28.6524 	 32.4196 	 57.5735 	 
H 	 30.4871 	 33.1366 	 57.8764 	 
C 	 31.8124 	 30.4005 	 57.1959 	 
H 	 31.7829 	 29.5181 	 56.4934 	 
H 	 32.1127 	 30.0362 	 58.132 	 
C 	 32.9186 	 31.3778 	 56.7626 	 
H 	 32.7448 	 31.6227 	 55.6584 	 
H 	 32.8114 	 32.3381 	 57.2609 	 
C 	 34.3594 	 30.8762 	 56.7942 	 
H 	 34.4175 	 30.022 	 56.1641 	 
H 	 35.0455 	 31.6048 	 56.4587 	 
H 	 34.537 	 30.565 	 57.7889 	 
S 	 26.9638 	 34.2811 	 56.3652 	 
C 	 26.1885 	 35.4599 	 57.3768 	 
C 	 26.6002 	 35.4139 	 58.6878 	 
C 	 27.6264 	 34.4207 	 58.9016 	 
C 	 27.8559 	 33.6485 	 57.7525 	 
H 	 26.2295 	 36.1073 	 59.3321 	 
C 	 28.1185 	 34.0737 	 60.3396 	 
H 	 28.658 	 33.1353 	 60.2271 	 
H 	 27.2245 	 34.0267 	 61.0366 	 
C 	 29.1178 	 35.1958 	 60.8462 	 
H 	 29.5584 	 34.9325 	 61.8422 	 
H 	 28.5703 	 36.0988 	 60.9713 	 
C 	 30.2342 	 35.451 	 59.8375 	 
H 	 29.9046 	 35.7148 	 58.7908 	 
H 	 30.8429 	 34.586 	 59.5899 	 
H 	 30.8556 	 36.2419 	 60.3076 	 
H 	 29.4746 	 29.1363 	 56.6501 	 
H 	 25.5371 	 36.3387 	 57.148 	 
*
