! wB97X-D3 SP def2-SVP
%pal
nprocs 16
end

* xyz 0 1
S 	 -44.6209 	 28.2775 	 85.6531 	 
C 	 -44.7428 	 28.8796 	 83.9956 	 
C 	 -44.1628 	 28.0067 	 83.1195 	 
C 	 -43.573 	 26.9241 	 83.8297 	 
C 	 -43.484 	 27.1113 	 85.2052 	 
H 	 -43.1128 	 26.1756 	 83.3057 	 
C 	 -44.1608 	 28.1311 	 81.6227 	 
H 	 -43.2333 	 27.6407 	 81.2378 	 
H 	 -43.9725 	 29.1283 	 81.3717 	 
C 	 -45.4619 	 27.5822 	 80.8906 	 
H 	 -45.521 	 27.9032 	 79.8346 	 
H 	 -45.5512 	 26.4839 	 80.9811 	 
C 	 -46.6956 	 28.1271 	 81.5755 	 
H 	 -47.6097 	 27.9608 	 80.9356 	 
H 	 -47.1349 	 27.6626 	 82.4257 	 
H 	 -46.6516 	 29.1711 	 81.8116 	 
S 	 -42.6141 	 24.6326 	 86.0396 	 
C 	 -41.5291 	 24.4675 	 87.4114 	 
C 	 -41.1201 	 25.7563 	 87.7783 	 
C 	 -41.7474 	 26.8106 	 87.0551 	 
C 	 -42.6144 	 26.4104 	 86.0788 	 
H 	 -40.5478 	 25.9801 	 88.6498 	 
C 	 -41.5874 	 28.3199 	 87.4252 	 
H 	 -42.3543 	 28.5005 	 88.2687 	 
H 	 -41.9621 	 28.8706 	 86.5746 	 
C 	 -40.2508 	 28.9047 	 87.833 	 
H 	 -39.8851 	 28.5508 	 88.8713 	 
H 	 -40.5125 	 29.9823 	 87.908 	 
C 	 -39.0897 	 28.6921 	 86.8523 	 
H 	 -38.2035 	 29.2687 	 87.1949 	 
H 	 -39.4512 	 28.9943 	 85.8401 	 
H 	 -38.8143 	 27.6511 	 86.7426 	 
H 	 -45.3365 	 29.7649 	 83.7379 	 
H 	 -41.2621 	 23.4804 	 87.8652 	 
*
