! wB97X-D3 SP def2-SVP
%pal
nprocs 16
end

* xyz 0 1
S 	 -10.9219 	 -5.3776 	 84.5709 	 
C 	 -10.2299 	 -5.55309 	 86.1509 	 
C 	 -11.0678 	 -6.22578 	 87.0037 	 
C 	 -12.3313 	 -6.50418 	 86.4128 	 
C 	 -12.3935 	 -6.23786 	 85.0602 	 
H 	 -13.1483 	 -6.98137 	 86.8554 	 
C 	 -10.7869 	 -6.46343 	 88.4428 	 
H 	 -9.6615 	 -6.31489 	 88.5126 	 
H 	 -11.1178 	 -7.51204 	 88.6015 	 
C 	 -11.3183 	 -5.45561 	 89.4618 	 
H 	 -10.8558 	 -4.47165 	 89.3798 	 
H 	 -12.4478 	 -5.28234 	 89.5107 	 
C 	 -10.8824 	 -5.99566 	 90.8787 	 
H 	 -9.80696 	 -5.87675 	 91.1232 	 
H 	 -11.4937 	 -5.4587 	 91.6038 	 
H 	 -11.0735 	 -7.04696 	 91.0173 	 
S 	 -14.0022 	 -5.09754 	 83.1059 	 
C 	 -15.4217 	 -6.01477 	 82.6611 	 
C 	 -15.4547 	 -7.27293 	 83.1429 	 
C 	 -14.3714 	 -7.51473 	 84.062 	 
C 	 -13.5434 	 -6.42842 	 84.2189 	 
H 	 -16.2619 	 -7.92008 	 82.7986 	 
C 	 -14.1733 	 -8.86396 	 84.7179 	 
H 	 -13.9161 	 -8.68241 	 85.7864 	 
H 	 -13.289 	 -9.38373 	 84.32 	 
C 	 -15.2313 	 -9.95305 	 84.5341 	 
H 	 -15.43 	 -10.1814 	 83.5476 	 
H 	 -16.2411 	 -9.74696 	 84.8985 	 
C 	 -14.8011 	 -11.3612 	 85.1031 	 
H 	 -15.537 	 -12.138 	 85.0747 	 
H 	 -14.674 	 -11.3765 	 86.1932 	 
H 	 -13.8407 	 -11.6268 	 84.5727 	 
H 	 -9.27362 	 -5.08653 	 86.4197 	 
H 	 -16.1968 	 -5.66685 	 81.9866 	 
*
