! wB97X-D3 SP def2-SVP
%pal
nprocs 16
end

* xyz 0 1
S 	 -46.2864 	 61.5535 	 135.635 	 
C 	 -45.4837 	 60.08 	 136.148 	 
C 	 -46.276 	 59.5333 	 137.134 	 
C 	 -47.4081 	 60.2888 	 137.52 	 
C 	 -47.6542 	 61.3205 	 136.677 	 
H 	 -48.1365 	 60.0688 	 138.267 	 
C 	 -45.8327 	 58.2915 	 137.916 	 
H 	 -45.9342 	 58.6694 	 138.915 	 
H 	 -44.7441 	 58.1667 	 137.747 	 
C 	 -46.719 	 57.0196 	 137.669 	 
H 	 -47.6492 	 57.307 	 138.18 	 
H 	 -46.8687 	 56.8632 	 136.581 	 
C 	 -46.184 	 55.8162 	 138.458 	 
H 	 -45.1275 	 55.6415 	 138.379 	 
H 	 -46.4618 	 55.9229 	 139.49 	 
H 	 -46.7041 	 54.9401 	 138.062 	 
S 	 -48.5038 	 63.2131 	 138.315 	 
C 	 -49.568 	 64.4073 	 137.818 	 
C 	 -50.2637 	 64.0359 	 136.735 	 
C 	 -49.6026 	 62.9677 	 136.038 	 
C 	 -48.5974 	 62.4418 	 136.818 	 
H 	 -51.1705 	 64.5435 	 136.361 	 
C 	 -50.0227 	 62.5004 	 134.679 	 
H 	 -49.38 	 61.7537 	 134.264 	 
H 	 -49.9984 	 63.372 	 134.019 	 
C 	 -51.4651 	 61.9443 	 134.709 	 
H 	 -52.1235 	 62.5821 	 135.245 	 
H 	 -51.4678 	 61.065 	 135.387 	 
C 	 -52.0584 	 61.6349 	 133.302 	 
H 	 -51.2734 	 61.3319 	 132.613 	 
H 	 -52.7008 	 62.4301 	 132.935 	 
H 	 -52.6547 	 60.6771 	 133.375 	 
H 	 -44.5993 	 59.6292 	 135.784 	 
H 	 -49.9577 	 65.156 	 138.479 	 
*
