! wB97X-D3 SP def2-SVP
%pal
nprocs 16
end

* xyz 0 1
S 	 -8.04697 	 50.4388 	 43.616 	 
C 	 -9.42954 	 50.1884 	 44.6954 	 
C 	 -9.93479 	 48.9876 	 44.3685 	 
C 	 -9.34811 	 48.2564 	 43.2915 	 
C 	 -8.2944 	 48.9421 	 42.7185 	 
H 	 -9.66681 	 47.3799 	 42.9107 	 
C 	 -11.1494 	 48.3782 	 45.0439 	 
H 	 -12.1186 	 48.653 	 44.5685 	 
H 	 -11.3228 	 48.8345 	 46.0072 	 
C 	 -11.2403 	 46.8417 	 45.2113 	 
H 	 -12.2581 	 46.4741 	 45.3453 	 
H 	 -11.0328 	 46.4661 	 44.2044 	 
C 	 -10.1692 	 46.2787 	 46.222 	 
H 	 -10.4467 	 45.2834 	 46.4917 	 
H 	 -9.11889 	 46.2664 	 45.7844 	 
H 	 -10.1604 	 46.7601 	 47.2012 	 
S 	 -7.57183 	 49.2453 	 40.062 	 
C 	 -6.87006 	 47.9367 	 39.2085 	 
C 	 -6.38713 	 47.0797 	 40.0945 	 
C 	 -6.66059 	 47.3098 	 41.4822 	 
C 	 -7.47311 	 48.4382 	 41.604 	 
H 	 -5.83374 	 46.2623 	 39.757 	 
C 	 -6.12689 	 46.4337 	 42.5478 	 
H 	 -6.53551 	 46.7087 	 43.5303 	 
H 	 -5.12487 	 46.6569 	 42.6907 	 
C 	 -6.2679 	 44.9537 	 42.3157 	 
H 	 -5.85858 	 44.7069 	 41.3523 	 
H 	 -7.32069 	 44.5341 	 42.3312 	 
C 	 -5.43583 	 44.0178 	 43.3063 	 
H 	 -5.54503 	 44.2831 	 44.3546 	 
H 	 -4.36046 	 44.0299 	 43.0382 	 
H 	 -5.75832 	 42.9434 	 43.2346 	 
H 	 -9.84915 	 50.8132 	 45.4833 	 
H 	 -6.92676 	 47.7774 	 38.1144 	 
*
