! wB97X-D3 SP def2-SVP
%pal
nprocs 16
end

* xyz 0 1
S 	 10.3319 	 -13.5287 	 79.434 	 
C 	 11.0542 	 -14.9163 	 80.3584 	 
C 	 11.6156 	 -15.8708 	 79.4978 	 
C 	 11.4463 	 -15.4551 	 78.1133 	 
C 	 10.7796 	 -14.2484 	 77.9196 	 
H 	 11.8393 	 -15.9248 	 77.2429 	 
C 	 12.1877 	 -17.2434 	 79.8494 	 
H 	 12.3764 	 -17.2297 	 80.941 	 
H 	 13.1825 	 -17.3093 	 79.3513 	 
C 	 11.471 	 -18.5202 	 79.394 	 
H 	 10.4374 	 -18.4807 	 79.6255 	 
H 	 11.3944 	 -18.3998 	 78.3472 	 
C 	 12.1161 	 -19.859 	 79.5747 	 
H 	 12.2305 	 -20.0399 	 80.6046 	 
H 	 11.5551 	 -20.7722 	 79.2376 	 
H 	 13.0977 	 -19.943 	 79.1517 	 
S 	 12.0115 	 -12.829 	 75.9319 	 
C 	 11.1331 	 -12.4305 	 74.5136 	 
C 	 9.80558 	 -12.8333 	 74.5819 	 
C 	 9.50031 	 -13.5367 	 75.7753 	 
C 	 10.6076 	 -13.6445 	 76.6223 	 
H 	 9.11845 	 -12.5532 	 73.7616 	 
C 	 8.16166 	 -14.1002 	 76.0363 	 
H 	 7.46044 	 -13.2103 	 76.0137 	 
H 	 8.1132 	 -14.4886 	 77.0551 	 
C 	 7.66253 	 -15.2439 	 75.0249 	 
H 	 8.42274 	 -16.0647 	 75.0347 	 
H 	 7.56158 	 -14.9488 	 74.0152 	 
C 	 6.34547 	 -15.9014 	 75.5912 	 
H 	 6.25333 	 -16.7985 	 74.9802 	 
H 	 5.43057 	 -15.2466 	 75.5875 	 
H 	 6.48003 	 -16.2238 	 76.5971 	 
H 	 10.9417 	 -14.8942 	 81.3611 	 
H 	 11.5382 	 -11.9973 	 73.577 	 
*
