! wB97X-D3 SP def2-SVP
%pal
nprocs 16
end

* xyz 0 1
S 	 -49.6143 	 59.5975 	 130.507 	 
C 	 -48.6395 	 59.56 	 129.046 	 
C 	 -48.3174 	 60.7995 	 128.559 	 
C 	 -48.6269 	 61.7724 	 129.497 	 
C 	 -49.2861 	 61.3785 	 130.655 	 
H 	 -48.4598 	 62.8127 	 129.285 	 
C 	 -47.9044 	 61.0196 	 127.128 	 
H 	 -48.7587 	 61.6592 	 126.745 	 
H 	 -48.0486 	 60.0941 	 126.605 	 
C 	 -46.5275 	 61.681 	 126.99 	 
H 	 -46.5143 	 62.6907 	 127.476 	 
H 	 -45.7639 	 61.0203 	 127.54 	 
C 	 -46.1641 	 61.6948 	 125.541 	 
H 	 -45.1936 	 62.0638 	 125.318 	 
H 	 -46.2687 	 60.6846 	 125.162 	 
H 	 -46.9564 	 62.1964 	 124.971 	 
S 	 -51.7719 	 61.9178 	 131.716 	 
C 	 -52.0438 	 63.4323 	 132.599 	 
C 	 -50.8472 	 64.1195 	 132.657 	 
C 	 -49.7554 	 63.4501 	 132.102 	 
C 	 -50.0564 	 62.24 	 131.534 	 
H 	 -50.7701 	 65.1155 	 132.931 	 
C 	 -48.5137 	 64.2039 	 131.943 	 
H 	 -48.8484 	 65.1989 	 132.088 	 
H 	 -47.9417 	 64.1102 	 130.95 	 
C 	 -47.4301 	 63.9471 	 132.994 	 
H 	 -47.9568 	 63.6609 	 133.935 	 
H 	 -46.8844 	 64.8737 	 132.957 	 
C 	 -46.4088 	 62.8607 	 132.589 	 
H 	 -46.6832 	 61.8151 	 132.494 	 
H 	 -45.6599 	 62.8816 	 133.385 	 
H 	 -45.8453 	 63.1327 	 131.655 	 
H 	 -48.5249 	 58.6374 	 128.403 	 
H 	 -52.9765 	 63.8755 	 132.982 	 
*
