! wB97X-D3 SP def2-SVP
%pal
nprocs 16
end

* xyz 0 1
S 	 36.5947 	 7.33469 	 90.8308 	 
C 	 38.0453 	 7.03563 	 89.9079 	 
C 	 37.8361 	 7.35933 	 88.5152 	 
C 	 36.5775 	 7.98118 	 88.3267 	 
C 	 35.7325 	 7.9621 	 89.4544 	 
H 	 36.2335 	 8.37633 	 87.4015 	 
C 	 38.8427 	 7.19846 	 87.3414 	 
H 	 38.3699 	 7.00612 	 86.3541 	 
H 	 39.4107 	 6.23303 	 87.4119 	 
C 	 39.8998 	 8.3281 	 87.1056 	 
H 	 40.4805 	 8.45558 	 88.0551 	 
H 	 40.6372 	 7.98792 	 86.3979 	 
C 	 39.1922 	 9.68061 	 86.7705 	 
H 	 39.0502 	 10.2743 	 87.7641 	 
H 	 39.9459 	 10.3338 	 86.3349 	 
H 	 38.2016 	 9.78087 	 86.3297 	 
S 	 33.4834 	 7.68604 	 90.8336 	 
C 	 32.1169 	 8.67724 	 90.4545 	 
C 	 32.25 	 9.53091 	 89.3677 	 
C 	 33.5538 	 9.31172 	 88.7274 	 
C 	 34.3321 	 8.36542 	 89.4976 	 
H 	 31.4837 	 10.1863 	 88.9729 	 
C 	 33.9723 	 10.2541 	 87.633 	 
H 	 35.0596 	 10.2217 	 87.6741 	 
H 	 33.8106 	 11.4364 	 87.8293 	 
C 	 33.6744 	 9.79234 	 86.1509 	 
H 	 33.8719 	 8.72684 	 86.1763 	 
H 	 34.5135 	 10.1664 	 85.6 	 
C 	 32.2957 	 10.1561 	 85.6772 	 
H 	 32.3047 	 10.2039 	 84.5982 	 
H 	 32.0209 	 11.0794 	 86.1123 	 
H 	 31.6333 	 9.39116 	 86.0859 	 
H 	 38.8588 	 6.38742 	 90.2437 	 
H 	 31.2394 	 8.63775 	 90.99 	 
*
