! wB97X-D3 SP def2-SVP
%pal
nprocs 16
end

* xyz 0 1
S 	 -43.5423 	 63.2241 	 140.669 	 
C 	 -42.497 	 62.4426 	 141.815 	 
C 	 -41.8213 	 61.3397 	 141.252 	 
C 	 -42.2878 	 61.0223 	 139.963 	 
C 	 -43.0109 	 62.0239 	 139.413 	 
H 	 -41.9719 	 60.2149 	 139.358 	 
C 	 -40.934 	 60.3951 	 141.976 	 
H 	 -40.0447 	 60.986 	 142.384 	 
H 	 -40.553 	 59.6838 	 141.239 	 
C 	 -41.6073 	 59.6255 	 143.082 	 
H 	 -42.0115 	 60.2405 	 143.901 	 
H 	 -42.5287 	 59.2295 	 142.752 	 
C 	 -40.7048 	 58.5583 	 143.76 	 
H 	 -41.1458 	 58.11 	 144.707 	 
H 	 -40.3465 	 57.7621 	 143.119 	 
H 	 -39.8747 	 59.1471 	 144.125 	 
S 	 -45.1366 	 62.5007 	 137.895 	 
C 	 -44.9613 	 62.566 	 136.149 	 
C 	 -43.7479 	 61.9901 	 135.812 	 
C 	 -42.8753 	 61.6871 	 136.85 	 
C 	 -43.4552 	 61.9751 	 138.042 	 
H 	 -43.4769 	 61.9872 	 134.715 	 
C 	 -41.5295 	 61.2324 	 136.581 	 
H 	 -40.8365 	 61.6902 	 137.357 	 
H 	 -41.2104 	 61.475 	 135.581 	 
C 	 -41.394 	 59.7105 	 136.729 	 
H 	 -41.7939 	 59.1724 	 135.892 	 
H 	 -41.947 	 59.4744 	 137.623 	 
C 	 -39.8941 	 59.2489 	 136.877 	 
H 	 -39.8333 	 58.145 	 136.883 	 
H 	 -39.6007 	 59.4886 	 137.881 	 
H 	 -39.2365 	 59.7625 	 136.023 	 
H 	 -42.2751 	 62.6126 	 142.824 	 
H 	 -45.7485 	 62.83 	 135.454 	 
*
