! wB97X-D3 SP def2-SVP
%pal
nprocs 16
end

* xyz 0 1
S 	 15.1533 	 -8.72264 	 82.6267 	 
C 	 14.4425 	 -10.3362 	 82.4528 	 
C 	 15.3815 	 -11.2616 	 82.8402 	 
C 	 16.68 	 -10.7073 	 83.0606 	 
C 	 16.7291 	 -9.32486 	 83.0281 	 
H 	 17.5541 	 -11.2554 	 83.3579 	 
C 	 15.0885 	 -12.74 	 83.0819 	 
H 	 14.07 	 -12.8232 	 83.5637 	 
H 	 15.8343 	 -13.139 	 83.826 	 
C 	 15.2254 	 -13.5656 	 81.8153 	 
H 	 14.3888 	 -13.4847 	 81.1557 	 
H 	 16.145 	 -13.2732 	 81.3025 	 
C 	 15.373 	 -15.0374 	 82.0555 	 
H 	 16.129 	 -15.1702 	 82.7935 	 
H 	 14.3778 	 -15.4795 	 82.3166 	 
H 	 15.8788 	 -15.4888 	 81.1267 	 
S 	 17.5829 	 -7.20638 	 84.6517 	 
C 	 19.111 	 -6.47189 	 84.3033 	 
C 	 19.83 	 -7.1194 	 83.3239 	 
C 	 19.0594 	 -8.2302 	 82.718 	 
C 	 17.817 	 -8.39581 	 83.298 	 
H 	 20.7888 	 -6.73271 	 83.1069 	 
C 	 19.568 	 -8.94117 	 81.5534 	 
H 	 19.8582 	 -8.17097 	 80.885 	 
H 	 18.7479 	 -9.49703 	 81.1335 	 
C 	 20.6866 	 -9.97236 	 81.707 	 
H 	 20.339 	 -10.6762 	 82.4003 	 
H 	 21.6372 	 -9.43869 	 81.9987 	 
C 	 21.1657 	 -10.6263 	 80.39 	 
H 	 22.1651 	 -11.0242 	 80.5791 	 
H 	 21.335 	 -9.8809 	 79.5317 	 
H 	 20.5394 	 -11.319 	 79.9997 	 
H 	 13.4185 	 -10.5103 	 82.3245 	 
H 	 19.6291 	 -5.68926 	 84.8972 	 
*
