! wB97X-D3 SP def2-SVP
%pal
nprocs 16
end

* xyz 0 1
S 	 -46.8288 	 55.646 	 98.3102 	 
C 	 -47.7062 	 54.9737 	 99.7108 	 
C 	 -46.9467 	 54.1474 	 100.505 	 
C 	 -45.6405 	 54.0227 	 99.889 	 
C 	 -45.3525 	 54.8388 	 98.7689 	 
H 	 -44.8749 	 53.4651 	 100.266 	 
C 	 -47.2937 	 53.5418 	 101.763 	 
H 	 -46.9332 	 52.5501 	 101.705 	 
H 	 -48.3539 	 53.4072 	 101.891 	 
C 	 -46.5677 	 54.2176 	 102.895 	 
H 	 -45.4879 	 54.1789 	 102.808 	 
H 	 -46.8742 	 55.2574 	 102.907 	 
C 	 -46.9162 	 53.552 	 104.212 	 
H 	 -48.05 	 53.5546 	 104.535 	 
H 	 -46.6886 	 52.5262 	 104.339 	 
H 	 -46.5597 	 54.1247 	 105.124 	 
S 	 -44.2542 	 54.5848 	 96.2667 	 
C 	 -42.4868 	 54.5394 	 96.1458 	 
C 	 -41.8338 	 54.6783 	 97.3535 	 
C 	 -42.778 	 54.8322 	 98.4006 	 
C 	 -44.1061 	 54.85 	 98.0065 	 
H 	 -40.764 	 54.7196 	 97.2722 	 
C 	 -42.3033 	 55.1823 	 99.7476 	 
H 	 -41.285 	 54.8291 	 99.7774 	 
H 	 -42.8898 	 54.7077 	 100.573 	 
C 	 -42.1455 	 56.6813 	 100.025 	 
H 	 -41.6262 	 57.1617 	 99.2038 	 
H 	 -41.4578 	 56.9919 	 100.814 	 
C 	 -43.5465 	 57.3706 	 100.094 	 
H 	 -43.5107 	 58.3813 	 100.419 	 
H 	 -44.1141 	 56.8266 	 100.798 	 
H 	 -44.0364 	 57.4896 	 99.0921 	 
H 	 -48.7356 	 55.1457 	 99.9677 	 
H 	 -41.9246 	 54.2748 	 95.2586 	 
*
