! wB97X-D3 SP def2-SVP
%pal
nprocs 16
end

* xyz 0 1
S 	 -99.1183 	 38.5601 	 126.47 	 
C 	 -97.8283 	 38.428 	 127.603 	 
C 	 -96.8935 	 39.3922 	 127.491 	 
C 	 -97.1569 	 40.2183 	 126.362 	 
C 	 -98.2855 	 39.8431 	 125.607 	 
H 	 -96.5755 	 41.0133 	 126.062 	 
C 	 -95.7134 	 39.6574 	 128.423 	 
H 	 -95.3799 	 38.7508 	 128.972 	 
H 	 -96.1129 	 40.2992 	 129.118 	 
C 	 -94.4647 	 40.1717 	 127.666 	 
H 	 -94.306 	 39.5185 	 126.775 	 
H 	 -94.6019 	 41.2949 	 127.544 	 
C 	 -93.1997 	 39.9709 	 128.493 	 
H 	 -92.9819 	 38.979 	 128.767 	 
H 	 -92.2493 	 40.2792 	 128.088 	 
H 	 -93.3708 	 40.3777 	 129.42 	 
S 	 -98.2919 	 38.7502 	 123.098 	 
C 	 -98.4768 	 39.7326 	 121.682 	 
C 	 -98.4879 	 41.0699 	 122.088 	 
C 	 -98.482 	 41.3165 	 123.526 	 
C 	 -98.449 	 40.1073 	 124.164 	 
H 	 -98.6005 	 41.8248 	 121.365 	 
C 	 -98.4368 	 42.6853 	 124.168 	 
H 	 -97.971 	 43.3736 	 123.479 	 
H 	 -97.8766 	 42.5679 	 125.115 	 
C 	 -99.8497 	 43.3273 	 124.335 	 
H 	 -100.173 	 43.2838 	 123.341 	 
H 	 -99.8195 	 44.356 	 124.635 	 
C 	 -100.839 	 42.508 	 125.247 	 
H 	 -101.117 	 41.5053 	 124.825 	 
H 	 -101.654 	 43.1182 	 125.645 	 
H 	 -100.305 	 42.2705 	 126.175 	 
H 	 -97.8576 	 37.8802 	 128.528 	 
H 	 -98.6341 	 39.2347 	 120.807 	 
*
