! wB97X-D3 SP def2-SVP
%pal
nprocs 16
end

* xyz 0 1
S 	 25.892 	 6.41888 	 74.4455 	 
C 	 25.9889 	 4.73294 	 73.9464 	 
C 	 25.3757 	 3.8948 	 74.8021 	 
C 	 24.9249 	 4.65874 	 75.934 	 
C 	 25.1337 	 6.03695 	 75.9343 	 
H 	 24.4516 	 4.2049 	 76.8149 	 
C 	 25.2308 	 2.41578 	 74.7457 	 
H 	 25.774 	 1.96252 	 75.5992 	 
H 	 25.7212 	 1.9675 	 73.8529 	 
C 	 23.7813 	 1.8909 	 74.679 	 
H 	 23.8766 	 0.786252 	 74.5031 	 
H 	 23.3133 	 1.96456 	 75.6554 	 
C 	 22.9097 	 2.66397 	 73.663 	 
H 	 23.3726 	 2.67901 	 72.6976 	 
H 	 21.9357 	 2.25588 	 73.7386 	 
H 	 22.8205 	 3.64059 	 74.0552 	 
S 	 22.9767 	 7.17682 	 77.0918 	 
C 	 23.1553 	 8.62895 	 78.078 	 
C 	 24.519 	 8.92366 	 78.1579 	 
C 	 25.4045 	 8.00007 	 77.5016 	 
C 	 24.6856 	 7.00666 	 76.866 	 
H 	 24.6945 	 9.9239 	 78.7005 	 
C 	 26.944 	 8.31994 	 77.4496 	 
H 	 26.9088 	 9.345 	 77.0635 	 
H 	 27.4211 	 7.79524 	 76.5523 	 
C 	 27.7569 	 7.92246 	 78.7269 	 
H 	 27.2092 	 8.28522 	 79.5218 	 
H 	 28.8215 	 8.26482 	 78.6402 	 
C 	 27.7678 	 6.39933 	 79.0755 	 
H 	 28.2843 	 6.26552 	 80.054 	 
H 	 28.3616 	 5.89746 	 78.2607 	 
H 	 26.7894 	 6.00802 	 78.9819 	 
H 	 26.5105 	 4.47016 	 73.0747 	 
H 	 22.3531 	 9.27777 	 78.3906 	 
*
