! wB97X-D3 SP def2-SVP
%pal
nprocs 16
end

* xyz 0 1
S 	 2.59856 	 -11.0907 	 90.0512 	 
C 	 2.09668 	 -10.9908 	 91.68 	 
C 	 1.28343 	 -12.0403 	 92.0068 	 
C 	 1.25165 	 -13.0398 	 90.9766 	 
C 	 2.00187 	 -12.7411 	 89.8713 	 
H 	 0.658876 	 -13.9908 	 91.1002 	 
C 	 0.552174 	 -12.3277 	 93.3195 	 
H 	 0.974105 	 -11.6811 	 94.105 	 
H 	 0.803801 	 -13.396 	 93.5867 	 
C 	 -1.00597 	 -12.127 	 93.2879 	 
H 	 -1.05575 	 -11.116 	 92.9776 	 
H 	 -1.35108 	 -12.8474 	 92.59 	 
C 	 -1.5994 	 -12.3245 	 94.6409 	 
H 	 -1.33767 	 -13.3612 	 95.0672 	 
H 	 -1.21509 	 -11.5882 	 95.3412 	 
H 	 -2.68857 	 -12.1444 	 94.61 	 
S 	 2.51195 	 -12.886 	 87.1626 	 
C 	 2.65113 	 -14.434 	 86.3301 	 
C 	 2.35803 	 -15.51 	 87.1604 	 
C 	 2.05044 	 -15.1068 	 88.4479 	 
C 	 2.14063 	 -13.6841 	 88.6996 	 
H 	 2.39948 	 -16.5221 	 86.7445 	 
C 	 1.75667 	 -16.2325 	 89.4511 	 
H 	 1.69442 	 -15.7921 	 90.4278 	 
H 	 2.66496 	 -16.8552 	 89.6499 	 
C 	 0.548323 	 -17.1451 	 89.1457 	 
H 	 0.776647 	 -17.9155 	 88.3715 	 
H 	 -0.118768 	 -16.4746 	 88.6598 	 
C 	 -0.136144 	 -17.7982 	 90.401 	 
H 	 -1.06908 	 -18.2944 	 90.2264 	 
H 	 -0.299296 	 -17.1091 	 91.2248 	 
H 	 0.552104 	 -18.4963 	 90.8895 	 
H 	 2.26238 	 -10.1325 	 92.3558 	 
H 	 2.95616 	 -14.5774 	 85.2953 	 
*
