! wB97X-D3 SP def2-SVP
%pal
nprocs 16
end

* xyz 0 1
S 	 -69.2655 	 39.8031 	 125.025 	 
C 	 -69.1836 	 41.1494 	 126.113 	 
C 	 -67.9378 	 41.7623 	 126.046 	 
C 	 -67.0442 	 41.1712 	 125.134 	 
C 	 -67.5665 	 39.9926 	 124.544 	 
H 	 -66.0721 	 41.5999 	 124.925 	 
C 	 -67.5542 	 42.9744 	 126.861 	 
H 	 -66.5023 	 43.0769 	 126.827 	 
H 	 -67.6172 	 42.757 	 127.901 	 
C 	 -68.2523 	 44.3697 	 126.509 	 
H 	 -69.2925 	 44.2625 	 126.325 	 
H 	 -68.1421 	 44.969 	 127.433 	 
C 	 -67.6911 	 45.1267 	 125.283 	 
H 	 -68.198 	 46.0952 	 125.177 	 
H 	 -66.6448 	 45.236 	 125.362 	 
H 	 -67.8757 	 44.434 	 124.497 	 
S 	 -67.9975 	 38.3709 	 122.262 	 
C 	 -66.7259 	 37.2152 	 121.949 	 
C 	 -65.5441 	 37.5134 	 122.608 	 
C 	 -65.6556 	 38.6504 	 123.467 	 
C 	 -66.9562 	 39.1223 	 123.533 	 
H 	 -64.6691 	 36.8655 	 122.388 	 
C 	 -64.4332 	 39.1157 	 124.248 	 
H 	 -64.1639 	 38.1633 	 124.786 	 
H 	 -64.6816 	 39.9094 	 124.925 	 
C 	 -63.3083 	 39.5538 	 123.322 	 
H 	 -63.0997 	 38.6767 	 122.661 	 
H 	 -62.4095 	 39.6448 	 123.937 	 
C 	 -63.6484 	 40.7659 	 122.497 	 
H 	 -62.867 	 40.9324 	 121.685 	 
H 	 -63.5368 	 41.6801 	 123.036 	 
H 	 -64.632 	 40.8204 	 121.94 	 
H 	 -69.9097 	 41.4756 	 126.825 	 
H 	 -67.0136 	 36.2677 	 121.418 	 
*
