! wB97X-D3 SP def2-SVP
%pal
nprocs 16
end

* xyz 0 1
S 	 -11.9204 	 66.679 	 51.8718 	 
C 	 -12.404 	 65.1634 	 51.1905 	 
C 	 -11.3302 	 64.4546 	 50.7263 	 
C 	 -10.0701 	 65.032 	 51.0293 	 
C 	 -10.1615 	 66.2751 	 51.5918 	 
H 	 -9.14014 	 64.5589 	 50.9372 	 
C 	 -11.5177 	 63.0899 	 50.1465 	 
H 	 -12.108 	 63.0951 	 49.2168 	 
H 	 -12.1894 	 62.567 	 50.8089 	 
C 	 -10.2104 	 62.2414 	 50.0511 	 
H 	 -9.60724 	 62.6978 	 49.274 	 
H 	 -9.45573 	 62.3536 	 50.9044 	 
C 	 -10.6108 	 60.7667 	 50.0088 	 
H 	 -9.67484 	 60.3399 	 50.2327 	 
H 	 -11.4205 	 60.5213 	 50.8268 	 
H 	 -10.8529 	 60.529 	 48.9798 	 
S 	 -9.52848 	 67.9658 	 53.7614 	 
C 	 -7.88595 	 68.5445 	 53.8447 	 
C 	 -7.19654 	 68.3685 	 52.641 	 
C 	 -7.87736 	 67.5324 	 51.6834 	 
C 	 -9.16735 	 67.1912 	 52.1944 	 
H 	 -6.22102 	 68.713 	 52.5013 	 
C 	 -7.25047 	 67.025 	 50.4401 	 
H 	 -7.50637 	 65.9863 	 50.2232 	 
H 	 -6.17256 	 66.9834 	 50.5977 	 
C 	 -7.6213 	 67.8868 	 49.3013 	 
H 	 -6.9511 	 68.7672 	 49.3177 	 
H 	 -8.64506 	 68.2225 	 49.4801 	 
C 	 -7.6275 	 67.188 	 47.8774 	 
H 	 -8.24926 	 66.3238 	 47.9279 	 
H 	 -6.65584 	 66.7743 	 47.544 	 
H 	 -7.96282 	 67.9077 	 47.12 	 
H 	 -13.4204 	 64.757 	 51.2463 	 
H 	 -7.46385 	 68.9744 	 54.724 	 
*
