! wB97X-D3 SP def2-SVP
%pal
nprocs 16
end

* xyz 0 1
S 	 -51.3262 	 61.5392 	 140.471 	 
C 	 -50.1844 	 60.2457 	 140.645 	 
C 	 -49.8077 	 60.0443 	 141.978 	 
C 	 -50.5707 	 60.877 	 142.881 	 
C 	 -51.4653 	 61.722 	 142.227 	 
H 	 -50.4654 	 60.9839 	 143.974 	 
C 	 -48.7541 	 59.0242 	 142.371 	 
H 	 -48.7088 	 58.283 	 141.619 	 
H 	 -49.0891 	 58.4856 	 143.271 	 
C 	 -47.3343 	 59.7089 	 142.581 	 
H 	 -46.7931 	 59.9134 	 141.646 	 
H 	 -47.6268 	 60.7114 	 142.866 	 
C 	 -46.4436 	 58.9368 	 143.596 	 
H 	 -46.8352 	 59.1461 	 144.605 	 
H 	 -46.4987 	 57.9661 	 143.268 	 
H 	 -45.3889 	 59.2864 	 143.672 	 
S 	 -51.9653 	 63.9759 	 143.704 	 
C 	 -53.5694 	 64.4719 	 143.972 	 
C 	 -54.4988 	 63.7943 	 143.305 	 
C 	 -53.8817 	 62.7916 	 142.434 	 
C 	 -52.5311 	 62.5657 	 142.767 	 
H 	 -55.4935 	 64.0927 	 143.35 	 
C 	 -54.696 	 61.8712 	 141.519 	 
H 	 -55.5983 	 61.5434 	 142.108 	 
H 	 -54.159 	 60.9593 	 141.311 	 
C 	 -55.0228 	 62.5062 	 140.134 	 
H 	 -54.1119 	 62.8997 	 139.759 	 
H 	 -55.5176 	 63.4009 	 140.313 	 
C 	 -55.6792 	 61.7052 	 139.007 	 
H 	 -55.1466 	 60.7752 	 138.916 	 
H 	 -55.6499 	 62.1607 	 138.068 	 
H 	 -56.6212 	 61.5532 	 139.321 	 
H 	 -49.7526 	 59.7712 	 139.756 	 
H 	 -53.7472 	 65.3654 	 144.539 	 
*
