! wB97X-D3 SP def2-SVP
%pal
nprocs 16
end

* xyz 0 1
S 	 -65.2507 	 53.5056 	 135.187 	 
C 	 -66.1757 	 54.9075 	 135.482 	 
C 	 -67.5533 	 54.7137 	 135.317 	 
C 	 -67.7998 	 53.3972 	 134.877 	 
C 	 -66.6985 	 52.6217 	 134.599 	 
H 	 -68.882 	 53.0647 	 134.771 	 
C 	 -68.6564 	 55.7322 	 135.743 	 
H 	 -68.3609 	 56.7107 	 135.509 	 
H 	 -68.8084 	 55.6787 	 136.839 	 
C 	 -70.0645 	 55.5063 	 135.195 	 
H 	 -70.1104 	 55.2823 	 134.102 	 
H 	 -70.4452 	 54.5786 	 135.661 	 
C 	 -70.9866 	 56.7007 	 135.534 	 
H 	 -71.1887 	 56.6559 	 136.614 	 
H 	 -70.5586 	 57.6609 	 135.378 	 
H 	 -71.9313 	 56.7351 	 134.964 	 
S 	 -65.2836 	 50.2437 	 134.662 	 
C 	 -65.8242 	 48.8604 	 133.631 	 
C 	 -67.064 	 49.1375 	 133.034 	 
C 	 -67.5437 	 50.4158 	 133.358 	 
C 	 -66.6683 	 51.2206 	 134.163 	 
H 	 -67.6168 	 48.4072 	 132.468 	 
C 	 -68.916 	 50.9132 	 132.909 	 
H 	 -69.1409 	 50.7213 	 131.87 	 
H 	 -68.8598 	 52.0389 	 132.973 	 
C 	 -69.9729 	 50.2564 	 133.753 	 
H 	 -69.9824 	 50.6423 	 134.814 	 
H 	 -69.8114 	 49.1891 	 134.017 	 
C 	 -71.3824 	 50.3453 	 133.12 	 
H 	 -71.3098 	 49.8205 	 132.194 	 
H 	 -71.7793 	 51.3651 	 132.979 	 
H 	 -72.2041 	 49.8001 	 133.593 	 
H 	 -65.8303 	 55.8775 	 135.924 	 
H 	 -65.2046 	 47.9577 	 133.533 	 
*
