! wB97X-D3 SP def2-SVP
%pal
nprocs 16
end

* xyz 0 1
S 	 62.0545 	 -7.26866 	 89.9409 	 
C 	 61.6861 	 -5.88098 	 90.936 	 
C 	 61.407 	 -4.74471 	 90.1996 	 
C 	 61.3933 	 -5.0033 	 88.8094 	 
C 	 61.7142 	 -6.3594 	 88.461 	 
H 	 61.1414 	 -4.32585 	 88.0136 	 
C 	 61.2548 	 -3.34749 	 90.7414 	 
H 	 61.993 	 -2.67361 	 90.2547 	 
H 	 61.3957 	 -3.34397 	 91.8178 	 
C 	 59.8732 	 -2.75694 	 90.5242 	 
H 	 60.0531 	 -1.72304 	 90.5158 	 
H 	 59.4952 	 -3.11519 	 89.5453 	 
C 	 58.9259 	 -3.088 	 91.6434 	 
H 	 58.9961 	 -2.42285 	 92.5299 	 
H 	 57.9916 	 -2.74509 	 91.2204 	 
H 	 58.9583 	 -4.20056 	 91.8989 	 
S 	 61.6479 	 -8.69768 	 86.9308 	 
C 	 61.6343 	 -8.59728 	 85.2517 	 
C 	 61.7963 	 -7.26938 	 84.8068 	 
C 	 61.78 	 -6.27766 	 85.8189 	 
C 	 61.6915 	 -6.89274 	 87.081 	 
H 	 61.8804 	 -7.21783 	 83.7159 	 
C 	 61.808 	 -4.82809 	 85.4832 	 
H 	 62.5013 	 -4.43156 	 86.2446 	 
H 	 60.7796 	 -4.44006 	 85.6988 	 
C 	 62.3326 	 -4.40093 	 83.9894 	 
H 	 62.102 	 -3.29637 	 83.9669 	 
H 	 61.7858 	 -4.8181 	 83.1668 	 
C 	 63.8647 	 -4.58532 	 83.7595 	 
H 	 64.1193 	 -3.89498 	 83.0131 	 
H 	 64.2546 	 -5.57996 	 83.525 	 
H 	 64.3745 	 -4.14459 	 84.6214 	 
H 	 62.0001 	 -5.82573 	 91.9683 	 
H 	 61.6547 	 -9.4662 	 84.534 	 
*
