! wB97X-D3 SP def2-SVP
%pal
nprocs 16
end

* xyz 0 1
S 	 -0.957988 	 -18.8428 	 67.4773 	 
C 	 -0.513358 	 -19.9774 	 66.151 	 
C 	 -1.36695 	 -19.8356 	 65.0945 	 
C 	 -2.33547 	 -18.8064 	 65.237 	 
C 	 -2.14112 	 -18.1557 	 66.4693 	 
H 	 -3.08474 	 -18.484 	 64.5012 	 
C 	 -1.29493 	 -20.7077 	 63.8903 	 
H 	 -0.175917 	 -20.9373 	 63.7552 	 
H 	 -1.42665 	 -20.1207 	 62.9583 	 
C 	 -1.99082 	 -22.0634 	 63.9425 	 
H 	 -1.58002 	 -22.7874 	 63.2891 	 
H 	 -1.77415 	 -22.5048 	 64.9069 	 
C 	 -3.49697 	 -21.9196 	 63.7512 	 
H 	 -4.01228 	 -21.2279 	 64.4127 	 
H 	 -3.76841 	 -21.8889 	 62.7368 	 
H 	 -4.02613 	 -22.8222 	 63.9569 	 
S 	 -4.55831 	 -17.1021 	 67.3168 	 
C 	 -4.62258 	 -15.4708 	 67.8474 	 
C 	 -3.39769 	 -14.8396 	 67.938 	 
C 	 -2.36667 	 -15.7046 	 67.4127 	 
C 	 -2.86497 	 -16.9422 	 66.8691 	 
H 	 -3.35798 	 -13.8682 	 68.4369 	 
C 	 -0.920053 	 -15.2887 	 67.5169 	 
H 	 -0.851503 	 -14.2832 	 67.0167 	 
H 	 -0.270224 	 -15.9702 	 66.9117 	 
C 	 -0.505699 	 -15.015 	 68.9313 	 
H 	 -0.902737 	 -15.7902 	 69.6042 	 
H 	 -0.902475 	 -14.0681 	 69.2608 	 
C 	 1.02575 	 -14.824 	 68.9809 	 
H 	 1.64716 	 -15.4609 	 68.2965 	 
H 	 1.47615 	 -14.8746 	 69.9894 	 
H 	 1.20697 	 -13.7535 	 68.725 	 
H 	 0.205022 	 -20.7716 	 66.2064 	 
H 	 -5.56483 	 -14.9228 	 68.0647 	 
*
