! wB97X-D3 SP def2-SVP
%pal
nprocs 16
end

* xyz 0 1
S 	 48.7859 	 10.4714 	 76.7585 	 
C 	 48.8211 	 9.71839 	 78.3473 	 
C 	 49.3285 	 10.6714 	 79.2933 	 
C 	 49.6455 	 11.9342 	 78.7552 	 
C 	 49.2726 	 12.0522 	 77.4511 	 
H 	 50.0114 	 12.7592 	 79.322 	 
C 	 49.5552 	 10.4228 	 80.7854 	 
H 	 50.6487 	 10.6259 	 80.9799 	 
H 	 49.4785 	 9.34706 	 81.0221 	 
C 	 48.6029 	 11.2463 	 81.7264 	 
H 	 48.7262 	 12.3196 	 81.5534 	 
H 	 47.5832 	 10.9774 	 81.5702 	 
C 	 48.7238 	 10.9041 	 83.2354 	 
H 	 48.5268 	 9.88113 	 83.5 	 
H 	 49.7342 	 11.1415 	 83.5134 	 
H 	 47.9658 	 11.5075 	 83.7989 	 
S 	 50.2796 	 13.2162 	 75.0109 	 
C 	 50.0031 	 14.8979 	 74.6847 	 
C 	 49.4184 	 15.4882 	 75.7796 	 
C 	 49.0293 	 14.6417 	 76.8763 	 
C 	 49.3877 	 13.2867 	 76.6132 	 
H 	 49.2423 	 16.5149 	 75.5853 	 
C 	 48.4043 	 15.1309 	 78.1744 	 
H 	 48.3346 	 14.3233 	 78.829 	 
H 	 47.3269 	 15.2644 	 77.9612 	 
C 	 49.0794 	 16.3222 	 78.9434 	 
H 	 48.5892 	 16.4148 	 79.9056 	 
H 	 48.9282 	 17.1866 	 78.2826 	 
C 	 50.5667 	 16.1865 	 79.1781 	 
H 	 51.1607 	 15.9584 	 78.2146 	 
H 	 50.6062 	 15.215 	 79.6612 	 
H 	 51.0049 	 17.0821 	 79.6843 	 
H 	 48.5555 	 8.77839 	 78.5997 	 
H 	 50.5033 	 15.5431 	 73.9524 	 
*
