! wB97X-D3 SP def2-SVP
%pal
nprocs 16
end

* xyz 0 1
S 	 -46.3555 	 50.4379 	 97.7446 	 
C 	 -45.509 	 50.5161 	 99.2136 	 
C 	 -46.1418 	 51.3927 	 100.039 	 
C 	 -47.3228 	 51.9809 	 99.4363 	 
C 	 -47.5233 	 51.568 	 98.1607 	 
H 	 -47.9266 	 52.7802 	 99.8546 	 
C 	 -45.5837 	 51.7946 	 101.421 	 
H 	 -44.5845 	 52.2797 	 101.475 	 
H 	 -45.5044 	 50.8269 	 101.907 	 
C 	 -46.503 	 52.7263 	 102.155 	 
H 	 -45.8957 	 53.1613 	 102.944 	 
H 	 -46.7104 	 53.5403 	 101.534 	 
C 	 -47.6103 	 52.0361 	 102.969 	 
H 	 -47.1753 	 51.4727 	 103.852 	 
H 	 -48.2185 	 52.7331 	 103.404 	 
H 	 -48.2571 	 51.387 	 102.298 	 
S 	 -50.2533 	 51.5881 	 97.5397 	 
C 	 -50.7651 	 52.5961 	 96.2723 	 
C 	 -49.7433 	 53.333 	 95.6881 	 
C 	 -48.4781 	 52.9806 	 96.2867 	 
C 	 -48.5881 	 52.1289 	 97.3394 	 
H 	 -49.9597 	 53.9089 	 94.8722 	 
C 	 -47.3069 	 53.7954 	 95.8138 	 
H 	 -47.4352 	 54.0035 	 94.755 	 
H 	 -46.4377 	 53.1637 	 95.881 	 
C 	 -47.0131 	 55.1408 	 96.4951 	 
H 	 -47.1252 	 55.2157 	 97.5769 	 
H 	 -47.8684 	 55.8495 	 96.2005 	 
C 	 -45.5874 	 55.7234 	 96.2721 	 
H 	 -45.4544 	 55.8784 	 95.2531 	 
H 	 -44.7548 	 55.1202 	 96.6659 	 
H 	 -45.4114 	 56.72 	 96.729 	 
H 	 -44.6087 	 49.912 	 99.3803 	 
H 	 -51.7877 	 52.6207 	 96.0648 	 
*
