! wB97X-D3 SP def2-SVP
%pal
nprocs 16
end

* xyz 0 1
S 	 44.741 	 13.088 	 49.6034 	 
C 	 43.3661 	 12.9082 	 48.4983 	 
C 	 42.532 	 14.0394 	 48.4312 	 
C 	 43.1198 	 15.1023 	 49.2125 	 
C 	 44.32 	 14.7282 	 49.8051 	 
H 	 42.8371 	 16.0342 	 49.4468 	 
C 	 41.3291 	 14.2523 	 47.5566 	 
H 	 41.6063 	 13.8591 	 46.5202 	 
H 	 41.2016 	 15.3731 	 47.512 	 
C 	 39.9391 	 13.5997 	 48.0106 	 
H 	 39.5561 	 14.1639 	 48.8806 	 
H 	 39.1402 	 13.7286 	 47.193 	 
C 	 40.0713 	 12.0659 	 48.1826 	 
H 	 38.997 	 11.7274 	 48.3743 	 
H 	 40.3713 	 11.5618 	 47.2449 	 
H 	 40.7771 	 11.7198 	 48.9578 	 
S 	 46.9492 	 15.5413 	 50.3507 	 
C 	 47.2769 	 16.7126 	 51.5459 	 
C 	 46.0537 	 17.2053 	 52.0671 	 
C 	 44.9323 	 16.5941 	 51.523 	 
C 	 45.2093 	 15.5651 	 50.6248 	 
H 	 46.102 	 18.0411 	 52.7054 	 
C 	 43.5705 	 17.0827 	 52.0081 	 
H 	 43.5293 	 16.6531 	 52.9984 	 
H 	 42.7798 	 16.5933 	 51.5352 	 
C 	 43.34 	 18.6108 	 52.0034 	 
H 	 44.0488 	 19.1605 	 52.7587 	 
H 	 42.3254 	 18.7793 	 52.4576 	 
C 	 43.3967 	 19.2132 	 50.5671 	 
H 	 42.6073 	 18.7278 	 49.9106 	 
H 	 44.3749 	 19.1594 	 50.1603 	 
H 	 43.0688 	 20.2764 	 50.4275 	 
H 	 43.1359 	 12.0859 	 47.9293 	 
H 	 48.3009 	 17.1246 	 51.7307 	 
*
