! wB97X-D3 SP def2-SVP
%pal
nprocs 16
end

* xyz 0 1
S 	 -34.1505 	 45.998 	 99.6411 	 
C 	 -34.7595 	 44.3142 	 99.5755 	 
C 	 -34.8115 	 43.871 	 98.2617 	 
C 	 -34.1489 	 44.7288 	 97.3632 	 
C 	 -33.5027 	 45.7862 	 97.9982 	 
H 	 -34.0757 	 44.6285 	 96.3031 	 
C 	 -35.4573 	 42.6313 	 97.7481 	 
H 	 -34.7373 	 41.7525 	 97.8936 	 
H 	 -35.5403 	 42.7924 	 96.6756 	 
C 	 -36.958 	 42.4472 	 98.1361 	 
H 	 -37.0959 	 42.4609 	 99.2732 	 
H 	 -37.4396 	 43.4155 	 97.7546 	 
C 	 -37.598 	 41.0749 	 97.6998 	 
H 	 -38.598 	 40.9449 	 98.1729 	 
H 	 -37.6538 	 41.0585 	 96.5906 	 
H 	 -36.8915 	 40.353 	 98.073 	 
S 	 -33.6668 	 48.3962 	 97.3126 	 
C 	 -32.3677 	 49.1587 	 96.4341 	 
C 	 -31.3758 	 48.2933 	 96.0764 	 
C 	 -31.5374 	 46.9888 	 96.7592 	 
C 	 -32.785 	 46.9173 	 97.3682 	 
H 	 -30.5726 	 48.6901 	 95.5038 	 
C 	 -30.5243 	 45.8504 	 96.5289 	 
H 	 -29.7849 	 46.153 	 95.802 	 
H 	 -31.042 	 45.0752 	 96.004 	 
C 	 -29.8647 	 45.3287 	 97.793 	 
H 	 -29.1492 	 44.5933 	 97.6432 	 
H 	 -30.6865 	 44.8502 	 98.3835 	 
C 	 -29.2324 	 46.4538 	 98.5709 	 
H 	 -28.7379 	 45.9719 	 99.4448 	 
H 	 -29.8177 	 47.2827 	 98.9022 	 
H 	 -28.3482 	 46.8458 	 98.0245 	 
H 	 -35.068 	 43.7517 	 100.38 	 
H 	 -32.1963 	 50.1638 	 96.2735 	 
*
