! wB97X-D3 SP def2-SVP
%pal
nprocs 16
end

* xyz 0 1
S 	 -21.8986 	 -2.75223 	 83.5714 	 
C 	 -22.2927 	 -3.35984 	 81.9303 	 
C 	 -21.4271 	 -4.39974 	 81.635 	 
C 	 -20.4159 	 -4.55794 	 82.6566 	 
C 	 -20.4677 	 -3.71867 	 83.7586 	 
H 	 -19.5738 	 -5.18226 	 82.6338 	 
C 	 -21.2098 	 -5.11644 	 80.3028 	 
H 	 -20.2091 	 -4.93615 	 79.9337 	 
H 	 -21.9444 	 -4.7322 	 79.6761 	 
C 	 -21.5597 	 -6.67367 	 80.39 	 
H 	 -22.5904 	 -6.76904 	 80.8316 	 
H 	 -21.6743 	 -7.01693 	 79.3371 	 
C 	 -20.5415 	 -7.57086 	 81.0189 	 
H 	 -20.7652 	 -7.72332 	 82.1044 	 
H 	 -20.3653 	 -8.45996 	 80.4935 	 
H 	 -19.599 	 -7.04796 	 81.0208 	 
S 	 -20.8056 	 -3.99158 	 86.4733 	 
C 	 -19.4783 	 -4.40482 	 87.3473 	 
C 	 -18.2999 	 -4.01835 	 86.7969 	 
C 	 -18.4457 	 -3.94673 	 85.33 	 
C 	 -19.7751 	 -3.89159 	 84.9725 	 
H 	 -17.4004 	 -4.04395 	 87.3882 	 
C 	 -17.2971 	 -3.70379 	 84.3333 	 
H 	 -17.8202 	 -4.03244 	 83.4525 	 
H 	 -16.478 	 -4.33803 	 84.4299 	 
C 	 -16.9243 	 -2.21587 	 84.2887 	 
H 	 -16.8647 	 -1.99875 	 85.3453 	 
H 	 -17.6457 	 -1.53528 	 83.8724 	 
C 	 -15.6047 	 -1.86793 	 83.6621 	 
H 	 -15.3569 	 -0.826209 	 83.8772 	 
H 	 -15.7108 	 -2.02173 	 82.5687 	 
H 	 -14.9173 	 -2.6077 	 83.9564 	 
H 	 -22.9969 	 -2.92324 	 81.2445 	 
H 	 -19.6025 	 -4.62323 	 88.3976 	 
*
