! wB97X-D3 SP def2-SVP
%pal
nprocs 16
end

* xyz 0 1
S 	 -6.19834 	 -8.63156 	 86.1008 	 
C 	 -5.1304 	 -8.87486 	 84.7118 	 
C 	 -3.86276 	 -9.06799 	 85.1784 	 
C 	 -3.74263 	 -9.02039 	 86.623 	 
C 	 -4.92883 	 -8.81589 	 87.2968 	 
H 	 -2.87132 	 -9.27039 	 87.2446 	 
C 	 -2.70103 	 -9.45346 	 84.3212 	 
H 	 -3.07485 	 -9.95906 	 83.4003 	 
H 	 -2.16786 	 -10.2702 	 84.8808 	 
C 	 -1.81062 	 -8.24062 	 83.9445 	 
H 	 -2.5123 	 -7.51813 	 83.4588 	 
H 	 -1.50062 	 -7.67877 	 84.8572 	 
C 	 -0.629395 	 -8.45617 	 83.0053 	 
H 	 -0.124277 	 -9.27967 	 83.5197 	 
H 	 -0.936519 	 -8.81578 	 81.9879 	 
H 	 0.0631617 	 -7.54599 	 82.8678 	 
S 	 -6.3532 	 -10.4131 	 88.993 	 
C 	 -6.17988 	 -10.2039 	 90.7729 	 
C 	 -5.12601 	 -9.35352 	 91.0833 	 
C 	 -4.62633 	 -8.69093 	 89.8912 	 
C 	 -5.27716 	 -9.06297 	 88.6985 	 
H 	 -4.78434 	 -9.20069 	 92.0505 	 
C 	 -3.47386 	 -7.69778 	 89.8658 	 
H 	 -3.61944 	 -7.11052 	 88.9851 	 
H 	 -2.57767 	 -8.20584 	 89.5672 	 
C 	 -3.21954 	 -6.84563 	 91.1264 	 
H 	 -3.08687 	 -7.53804 	 91.8884 	 
H 	 -4.18485 	 -6.35743 	 91.304 	 
C 	 -2.03918 	 -5.90013 	 91.0394 	 
H 	 -1.96643 	 -5.47543 	 90.0622 	 
H 	 -1.0991 	 -6.44354 	 91.2326 	 
H 	 -2.02306 	 -5.16724 	 91.8697 	 
H 	 -5.46913 	 -8.94382 	 83.6489 	 
H 	 -6.67606 	 -10.6929 	 91.5747 	 
*
