! wB97X-D3 SP def2-SVP
%pal
nprocs 16
end

* xyz 0 1
S 	 -55.7779 	 40.4379 	 114.796 	 
C 	 -54.3009 	 40.4836 	 113.806 	 
C 	 -54.6408 	 40.5162 	 112.44 	 
C 	 -56.0412 	 40.3687 	 112.217 	 
C 	 -56.8041 	 40.2102 	 113.4 	 
H 	 -56.6299 	 40.2248 	 111.243 	 
C 	 -53.5877 	 40.5547 	 111.33 	 
H 	 -53.1679 	 39.5814 	 111.377 	 
H 	 -52.8665 	 41.1876 	 111.849 	 
C 	 -53.9846 	 40.9853 	 109.899 	 
H 	 -53.1764 	 40.8363 	 109.167 	 
H 	 -54.89 	 40.4349 	 109.575 	 
C 	 -54.2923 	 42.5011 	 109.84 	 
H 	 -54.9336 	 42.8824 	 110.689 	 
H 	 -53.3409 	 42.9671 	 110.118 	 
H 	 -54.577 	 42.9635 	 108.87 	 
S 	 -58.9482 	 38.5461 	 113.119 	 
C 	 -60.5644 	 39.224 	 113.291 	 
C 	 -60.477 	 40.5589 	 113.633 	 
C 	 -59.1256 	 41.0858 	 113.855 	 
C 	 -58.1947 	 40.0585 	 113.535 	 
H 	 -61.4392 	 41.0811 	 113.895 	 
C 	 -58.7567 	 42.6548 	 114.106 	 
H 	 -57.8369 	 42.7481 	 114.695 	 
H 	 -59.5957 	 43.0847 	 114.629 	 
C 	 -58.4954 	 43.5202 	 112.893 	 
H 	 -59.3473 	 43.5978 	 112.29 	 
H 	 -57.7566 	 43.0662 	 112.283 	 
C 	 -58.0104 	 44.8819 	 113.332 	 
H 	 -57.7336 	 45.4352 	 112.478 	 
H 	 -57.2119 	 44.7673 	 113.981 	 
H 	 -58.9755 	 45.3216 	 113.742 	 
H 	 -53.305 	 40.5428 	 114.127 	 
H 	 -61.5 	 38.6848 	 113.142 	 
*
