! wB97X-D3 SP def2-SVP
%pal
nprocs 16
end

* xyz 0 1
S 	 -41.5268 	 35.3272 	 82.6772 	 
C 	 -42.4447 	 35.3807 	 81.1731 	 
C 	 -42.5625 	 34.0635 	 80.684 	 
C 	 -41.9919 	 33.0665 	 81.5984 	 
C 	 -41.5136 	 33.5965 	 82.7147 	 
H 	 -41.9887 	 31.9799 	 81.5366 	 
C 	 -43.043 	 33.7225 	 79.2708 	 
H 	 -42.317 	 34.0399 	 78.6436 	 
H 	 -43.8697 	 34.3941 	 78.995 	 
C 	 -43.5037 	 32.3447 	 78.9522 	 
H 	 -43.744 	 32.3973 	 77.8552 	 
H 	 -42.743 	 31.6096 	 78.8678 	 
C 	 -44.729 	 31.8215 	 79.7515 	 
H 	 -45.1816 	 30.9513 	 79.3489 	 
H 	 -44.3186 	 31.5198 	 80.7851 	 
H 	 -45.5492 	 32.5877 	 79.914 	 
S 	 -39.3409 	 33.2975 	 84.4246 	 
C 	 -39.374 	 32.0109 	 85.725 	 
C 	 -40.5854 	 31.3295 	 85.5874 	 
C 	 -41.5219 	 31.8679 	 84.6391 	 
C 	 -41.0069 	 32.9255 	 83.8832 	 
H 	 -40.7978 	 30.4263 	 86.1573 	 
C 	 -42.8028 	 31.0442 	 84.4366 	 
H 	 -42.5239 	 30.0671 	 84.0803 	 
H 	 -43.181 	 31.5001 	 83.5378 	 
C 	 -43.8415 	 31.0728 	 85.6239 	 
H 	 -44.3589 	 31.9827 	 85.7199 	 
H 	 -43.2942 	 31.0004 	 86.5728 	 
C 	 -44.9742 	 30.0246 	 85.5297 	 
H 	 -44.5833 	 29.0356 	 85.5684 	 
H 	 -45.468 	 30.2575 	 84.5876 	 
H 	 -45.6411 	 30.1796 	 86.3115 	 
H 	 -42.681 	 36.2194 	 80.5902 	 
H 	 -38.4812 	 31.7326 	 86.3308 	 
*
