! wB97X-D3 SP def2-SVP
%pal
nprocs 16
end

* xyz 0 1
S 	 4.85908 	 -17.0306 	 85.2128 	 
C 	 4.05422 	 -18.6348 	 85.371 	 
C 	 4.92504 	 -19.645 	 85.0812 	 
C 	 6.25641 	 -19.1984 	 84.7871 	 
C 	 6.39326 	 -17.7659 	 84.7596 	 
H 	 7.08737 	 -19.8642 	 84.5463 	 
C 	 4.6008 	 -21.0882 	 85.2105 	 
H 	 5.2692 	 -21.6322 	 84.4489 	 
H 	 3.58464 	 -21.0458 	 84.8187 	 
C 	 4.74711 	 -21.7173 	 86.6222 	 
H 	 5.78542 	 -21.8484 	 87.002 	 
H 	 4.1164 	 -21.1802 	 87.312 	 
C 	 4.19108 	 -23.1331 	 86.8396 	 
H 	 3.23642 	 -23.2247 	 86.2571 	 
H 	 4.80489 	 -23.9245 	 86.4702 	 
H 	 4.08659 	 -23.2982 	 87.9232 	 
S 	 7.36763 	 -15.2326 	 84.3308 	 
C 	 8.92425 	 -14.9677 	 83.6062 	 
C 	 9.64029 	 -16.1633 	 83.5353 	 
C 	 8.87708 	 -17.2772 	 84.0899 	 
C 	 7.58737 	 -17.0043 	 84.3623 	 
H 	 10.6878 	 -16.2203 	 83.2517 	 
C 	 9.49224 	 -18.6442 	 84.24 	 
H 	 9.0956 	 -19.0214 	 85.272 	 
H 	 10.5634 	 -18.5159 	 84.3891 	 
C 	 9.3934 	 -19.5521 	 83.0181 	 
H 	 9.91634 	 -19.2435 	 82.1083 	 
H 	 8.33873 	 -19.6088 	 82.7373 	 
C 	 10.0017 	 -20.9606 	 83.2481 	 
H 	 11.0201 	 -20.8532 	 83.6191 	 
H 	 9.87515 	 -21.7349 	 82.4479 	 
H 	 9.45231 	 -21.4991 	 84.0381 	 
H 	 3.0631 	 -18.7928 	 85.7002 	 
H 	 9.34856 	 -13.9602 	 83.4714 	 
*
