! wB97X-D3 SP def2-SVP
%pal
nprocs 16
end

* xyz 0 1
S 	 -50.4997 	 64.3606 	 134.478 	 
C 	 -51.5257 	 63.022 	 133.956 	 
C 	 -51.0922 	 62.4168 	 132.8 	 
C 	 -49.9602 	 63.1448 	 132.221 	 
C 	 -49.5713 	 64.2706 	 132.981 	 
H 	 -49.4704 	 62.9654 	 131.286 	 
C 	 -51.7535 	 61.2408 	 132.161 	 
H 	 -51.5303 	 61.3229 	 131.135 	 
H 	 -52.847 	 61.2644 	 132.2 	 
C 	 -51.2036 	 59.8227 	 132.634 	 
H 	 -51.4934 	 58.9704 	 132.025 	 
H 	 -50.1109 	 59.8235 	 132.592 	 
C 	 -51.8093 	 59.4956 	 134.009 	 
H 	 -51.627 	 60.4197 	 134.648 	 
H 	 -52.8901 	 59.4674 	 133.949 	 
H 	 -51.4447 	 58.5604 	 134.496 	 
S 	 -48.178 	 65.4218 	 130.92 	 
C 	 -47.0331 	 66.6178 	 131.312 	 
C 	 -46.7006 	 66.7528 	 132.65 	 
C 	 -47.5508 	 65.8979 	 133.45 	 
C 	 -48.4381 	 65.1027 	 132.623 	 
H 	 -45.9328 	 67.4097 	 133.022 	 
C 	 -47.4876 	 65.8114 	 134.974 	 
H 	 -48.4875 	 66.0441 	 135.417 	 
H 	 -46.7816 	 66.5647 	 135.41 	 
C 	 -46.9945 	 64.4828 	 135.575 	 
H 	 -46.232 	 64.0689 	 134.985 	 
H 	 -47.8178 	 63.8003 	 135.67 	 
C 	 -46.451 	 64.5402 	 136.993 	 
H 	 -46.1736 	 63.5323 	 137.339 	 
H 	 -47.2483 	 65.0317 	 137.539 	 
H 	 -45.5809 	 65.1457 	 136.986 	 
H 	 -52.4218 	 62.6293 	 134.434 	 
H 	 -46.4602 	 67.2304 	 130.566 	 
*
