! wB97X-D3 SP def2-SVP
%pal
nprocs 16
end

* xyz 0 1
S 	 4.63743 	 -21.5924 	 63.2947 	 
C 	 5.47562 	 -20.0939 	 62.9141 	 
C 	 4.53952 	 -19.1153 	 62.456 	 
C 	 3.19163 	 -19.6242 	 62.5428 	 
C 	 3.08892 	 -20.9517 	 62.9586 	 
H 	 2.2727 	 -18.9777 	 62.3255 	 
C 	 4.92027 	 -17.6894 	 62.0401 	 
H 	 4.71944 	 -17.4236 	 61.0121 	 
H 	 5.97351 	 -17.6421 	 62.184 	 
C 	 4.134 	 -16.642 	 62.8228 	 
H 	 4.02333 	 -15.7626 	 62.1495 	 
H 	 3.12187 	 -16.9397 	 62.8489 	 
C 	 4.68948 	 -16.2687 	 64.1658 	 
H 	 5.72261 	 -15.9966 	 64.2091 	 
H 	 4.03883 	 -15.4572 	 64.6263 	 
H 	 4.61255 	 -17.0665 	 64.8424 	 
S 	 1.76895 	 -23.3489 	 62.2995 	 
C 	 0.0625148 	 -23.2239 	 62.4968 	 
C 	 -0.301156 	 -22.2784 	 63.4416 	 
C 	 0.745871 	 -21.3659 	 63.7919 	 
C 	 1.90277 	 -21.7386 	 63.1413 	 
H 	 -1.39723 	 -22.1929 	 63.709 	 
C 	 0.634984 	 -20.1617 	 64.6689 	 
H 	 -0.318169 	 -19.6819 	 64.4295 	 
H 	 1.50555 	 -19.4678 	 64.4417 	 
C 	 0.671178 	 -20.5085 	 66.181 	 
H 	 -0.0251306 	 -21.2454 	 66.4622 	 
H 	 0.333161 	 -19.6125 	 66.7641 	 
C 	 2.08304 	 -20.9632 	 66.7238 	 
H 	 2.80549 	 -20.1536 	 66.6836 	 
H 	 2.46767 	 -21.8892 	 66.2149 	 
H 	 2.01688 	 -21.2622 	 67.7955 	 
H 	 6.57483 	 -19.9123 	 62.9534 	 
H 	 -0.748116 	 -23.8312 	 61.9821 	 
*
