! wB97X-D3 SP def2-SVP
%pal
nprocs 16
end

* xyz 0 1
S 	 2.29836 	 76.1476 	 50.0861 	 
C 	 2.29875 	 77.5151 	 51.1757 	 
C 	 1.94402 	 77.1408 	 52.4378 	 
C 	 1.81684 	 75.7583 	 52.516 	 
C 	 1.75308 	 75.1066 	 51.3239 	 
H 	 1.75972 	 75.1212 	 53.4344 	 
C 	 1.86962 	 77.9632 	 53.7412 	 
H 	 2.49194 	 78.8208 	 53.5374 	 
H 	 2.38683 	 77.4508 	 54.5357 	 
C 	 0.365054 	 78.4518 	 54.048 	 
H 	 0.449517 	 79.4634 	 54.1345 	 
H 	 -0.30738 	 78.2659 	 53.1951 	 
C 	 -0.211629 	 77.7309 	 55.3595 	 
H 	 -1.27469 	 77.922 	 55.432 	 
H 	 -0.117692 	 76.6652 	 55.2133 	 
H 	 0.403168 	 78.0244 	 56.2165 	 
S 	 3.03661 	 72.8538 	 50.6308 	 
C 	 2.22838 	 71.3189 	 50.8985 	 
C 	 0.871164 	 71.5094 	 51.1566 	 
C 	 0.519725 	 72.8549 	 51.3312 	 
C 	 1.62054 	 73.6976 	 51.1379 	 
H 	 0.105853 	 70.7466 	 51.1639 	 
C 	 -0.874711 	 73.2805 	 51.7719 	 
H 	 -1.55087 	 72.7778 	 51.0786 	 
H 	 -1.02586 	 74.3509 	 51.6137 	 
C 	 -1.24377 	 72.7635 	 53.1378 	 
H 	 -1.41045 	 71.6933 	 53.1346 	 
H 	 -2.273 	 73.0658 	 53.5242 	 
C 	 -0.18008 	 73.0972 	 54.203 	 
H 	 -0.609061 	 72.8752 	 55.2218 	 
H 	 0.0771921 	 74.1321 	 54.1438 	 
H 	 0.724224 	 72.5036 	 54.0434 	 
H 	 2.48482 	 78.5391 	 50.8381 	 
H 	 2.66917 	 70.2884 	 50.8799 	 
*
