! wB97X-D3 SP def2-SVP
%pal
nprocs 16
end

* xyz 0 1
S 	 7.71498 	 22.4899 	 55.2594 	 
C 	 8.51632 	 24.0167 	 55.0123 	 
C 	 8.60366 	 24.6441 	 56.1973 	 
C 	 8.02179 	 23.9185 	 57.2574 	 
C 	 7.4653 	 22.7276 	 56.9375 	 
H 	 8.03203 	 24.1166 	 58.2491 	 
C 	 9.41601 	 25.8707 	 56.3639 	 
H 	 10.2738 	 25.6727 	 55.7814 	 
H 	 9.71406 	 25.7832 	 57.4489 	 
C 	 8.72182 	 27.2429 	 56.1023 	 
H 	 9.45042 	 28.0329 	 56.0909 	 
H 	 8.22522 	 27.2309 	 55.1248 	 
C 	 7.72163 	 27.6799 	 57.2412 	 
H 	 7.14228 	 28.5795 	 56.9205 	 
H 	 6.91515 	 26.9814 	 57.3981 	 
H 	 8.1737 	 27.9833 	 58.156 	 
S 	 5.018 	 21.4171 	 57.5352 	 
C 	 4.94214 	 20.7506 	 59.1163 	 
C 	 6.18154 	 20.5625 	 59.6928 	 
C 	 7.15671 	 21.3166 	 59.0252 	 
C 	 6.73958 	 21.8049 	 57.7857 	 
H 	 6.36113 	 20.0916 	 60.6753 	 
C 	 8.57002 	 21.3514 	 59.5845 	 
H 	 8.33989 	 21.561 	 60.5738 	 
H 	 9.28586 	 22.159 	 59.2179 	 
C 	 9.35442 	 19.9845 	 59.5737 	 
H 	 9.70021 	 19.8526 	 58.5589 	 
H 	 8.70135 	 19.1535 	 59.8021 	 
C 	 10.6154 	 19.8355 	 60.5788 	 
H 	 11.2688 	 18.9191 	 60.4512 	 
H 	 10.3601 	 19.8059 	 61.6858 	 
H 	 11.2104 	 20.7209 	 60.1848 	 
H 	 8.82122 	 24.4712 	 54.0653 	 
H 	 3.96918 	 20.4388 	 59.6292 	 
*
