! wB97X-D3 SP def2-SVP
%pal
nprocs 16
end

* xyz 0 1
S 	 45.9901 	 17.6023 	 104.237 	 
C 	 46.2804 	 18.5153 	 102.772 	 
C 	 45.3835 	 18.1718 	 101.8 	 
C 	 44.4719 	 17.1303 	 102.153 	 
C 	 44.7533 	 16.6571 	 103.455 	 
H 	 43.6965 	 16.7871 	 101.52 	 
C 	 45.3237 	 18.7751 	 100.444 	 
H 	 45.6059 	 19.8173 	 100.699 	 
H 	 44.2383 	 18.8629 	 100.131 	 
C 	 46.3054 	 18.2679 	 99.3765 	 
H 	 46.12 	 17.2654 	 99.2903 	 
H 	 46.0986 	 18.7843 	 98.4643 	 
C 	 47.7699 	 18.491 	 99.8447 	 
H 	 48.1169 	 17.7845 	 100.613 	 
H 	 48.4227 	 18.2664 	 98.9563 	 
H 	 47.9863 	 19.5145 	 100.138 	 
S 	 43.0872 	 15.8976 	 105.412 	 
C 	 42.9598 	 14.2132 	 105.869 	 
C 	 43.6199 	 13.3514 	 104.954 	 
C 	 44.3412 	 14.1065 	 103.962 	 
C 	 44.2351 	 15.5188 	 104.193 	 
H 	 43.6728 	 12.2587 	 105.091 	 
C 	 45.1491 	 13.2981 	 102.943 	 
H 	 46.1076 	 13.2469 	 103.514 	 
H 	 45.3636 	 13.8752 	 102.124 	 
C 	 44.8203 	 11.8209 	 102.663 	 
H 	 44.8608 	 11.2074 	 103.613 	 
H 	 45.6516 	 11.4773 	 102.059 	 
C 	 43.485 	 11.5388 	 101.888 	 
H 	 43.5056 	 10.5021 	 101.598 	 
H 	 43.3529 	 12.1671 	 101.002 	 
H 	 42.6166 	 11.7818 	 102.534 	 
H 	 46.9793 	 19.3271 	 102.837 	 
H 	 42.6776 	 13.8185 	 106.817 	 
*
