! wB97X-D3 SP def2-SVP
%pal
nprocs 16
end

* xyz 0 1
S 	 -114.478 	 54.7648 	 110.361 	 
C 	 -113.684 	 53.5161 	 109.383 	 
C 	 -112.619 	 52.9951 	 109.974 	 
C 	 -112.376 	 53.5242 	 111.315 	 
C 	 -113.325 	 54.4682 	 111.708 	 
H 	 -111.635 	 53.0927 	 111.978 	 
C 	 -111.793 	 51.8119 	 109.391 	 
H 	 -112.56 	 51.0899 	 109.032 	 
H 	 -111.214 	 51.3747 	 110.267 	 
C 	 -110.874 	 52.0464 	 108.185 	 
H 	 -110.562 	 51.0814 	 108.009 	 
H 	 -111.317 	 52.415 	 107.26 	 
C 	 -109.68 	 52.969 	 108.555 	 
H 	 -109.053 	 52.4284 	 109.317 	 
H 	 -109.024 	 53.289 	 107.681 	 
H 	 -110.108 	 53.8905 	 109.09 	 
S 	 -113.014 	 56.9223 	 112.894 	 
C 	 -113.38 	 57.0586 	 114.584 	 
C 	 -113.497 	 55.8329 	 115.217 	 
C 	 -113.522 	 54.8028 	 114.233 	 
C 	 -113.433 	 55.2593 	 112.944 	 
H 	 -113.713 	 55.6971 	 116.27 	 
C 	 -113.862 	 53.3555 	 114.641 	 
H 	 -113.343 	 53.0393 	 115.612 	 
H 	 -113.435 	 52.7089 	 113.907 	 
C 	 -115.336 	 53.1364 	 114.887 	 
H 	 -115.817 	 53.7245 	 114.117 	 
H 	 -115.613 	 53.5573 	 115.833 	 
C 	 -115.8 	 51.6635 	 114.763 	 
H 	 -115.326 	 51.0143 	 115.437 	 
H 	 -115.625 	 51.1596 	 113.825 	 
H 	 -116.964 	 51.6523 	 114.812 	 
H 	 -113.959 	 53.1128 	 108.407 	 
H 	 -113.258 	 57.9515 	 115.24 	 
*
