! wB97X-D3 SP def2-SVP
%pal
nprocs 16
end

* xyz 0 1
S 	 -40.7429 	 18.51 	 77.2168 	 
C 	 -40.8407 	 16.7556 	 77.3269 	 
C 	 -41.2572 	 16.2815 	 76.1189 	 
C 	 -41.6916 	 17.2384 	 75.1536 	 
C 	 -41.459 	 18.5089 	 75.6407 	 
H 	 -42.0721 	 17.0822 	 74.1991 	 
C 	 -41.5385 	 14.7705 	 75.8688 	 
H 	 -42.2247 	 14.4796 	 75.0459 	 
H 	 -42.1444 	 14.5378 	 76.7755 	 
C 	 -40.3088 	 13.8678 	 76.0917 	 
H 	 -39.8575 	 14.0718 	 77.003 	 
H 	 -40.7254 	 12.8536 	 76.1208 	 
C 	 -39.3335 	 14.0727 	 75.0185 	 
H 	 -39.1942 	 15.1901 	 74.9348 	 
H 	 -38.3805 	 13.5503 	 75.11 	 
H 	 -39.7324 	 13.8598 	 74.0614 	 
S 	 -40.0975 	 20.2336 	 73.9735 	 
C 	 -40.9114 	 21.5972 	 73.4107 	 
C 	 -42.2714 	 21.6881 	 73.8013 	 
C 	 -42.6468 	 20.5787 	 74.634 	 
C 	 -41.6032 	 19.6925 	 74.8211 	 
H 	 -42.8732 	 22.5291 	 73.4036 	 
C 	 -44.0424 	 20.4168 	 75.1721 	 
H 	 -44.3601 	 19.4876 	 74.7724 	 
H 	 -44.6508 	 21.2439 	 74.6885 	 
C 	 -43.9705 	 20.5369 	 76.6862 	 
H 	 -43.3148 	 19.8721 	 77.196 	 
H 	 -44.9599 	 20.2683 	 77.1726 	 
C 	 -43.5907 	 21.9661 	 77.1391 	 
H 	 -42.9886 	 22.513 	 76.4169 	 
H 	 -43.044 	 21.8766 	 78.1274 	 
H 	 -44.4415 	 22.5832 	 77.3099 	 
H 	 -40.4604 	 16.0662 	 78.0888 	 
H 	 -40.6078 	 22.191 	 72.6554 	 
*
