! wB97X-D3 SP def2-SVP
%pal
nprocs 16
end

* xyz 0 1
S 	 46.7142 	 12.3369 	 49.5569 	 
C 	 45.2276 	 11.4046 	 49.1628 	 
C 	 44.1089 	 11.98 	 49.6921 	 
C 	 44.476 	 13.2676 	 50.3538 	 
C 	 45.8497 	 13.451 	 50.5215 	 
H 	 43.8035 	 13.9768 	 50.8236 	 
C 	 42.719 	 11.5077 	 49.5826 	 
H 	 42.2506 	 11.4381 	 50.5486 	 
H 	 42.7745 	 10.469 	 49.2358 	 
C 	 41.9005 	 12.3597 	 48.6556 	 
H 	 41.9898 	 13.3728 	 48.9442 	 
H 	 42.2344 	 12.2758 	 47.6608 	 
C 	 40.3841 	 11.9807 	 48.6697 	 
H 	 39.7688 	 12.7918 	 48.3113 	 
H 	 40.0856 	 11.1023 	 48.1302 	 
H 	 40.0661 	 11.8336 	 49.694 	 
S 	 47.7025 	 15.5288 	 50.2294 	 
C 	 47.6717 	 16.8261 	 51.3427 	 
C 	 46.8434 	 16.5485 	 52.4137 	 
C 	 46.1626 	 15.2826 	 52.2707 	 
C 	 46.4727 	 14.5931 	 51.1222 	 
H 	 46.7175 	 17.2026 	 53.1984 	 
C 	 45.1554 	 14.7387 	 53.3571 	 
H 	 44.4745 	 14.0766 	 52.9047 	 
H 	 44.6809 	 15.5658 	 53.8304 	 
C 	 45.7959 	 13.8611 	 54.4572 	 
H 	 46.6643 	 14.3393 	 54.7531 	 
H 	 46.0028 	 12.9332 	 53.9714 	 
C 	 44.7323 	 13.5589 	 55.5052 	 
H 	 43.7437 	 13.4816 	 55.0398 	 
H 	 44.7163 	 14.4065 	 56.2126 	 
H 	 45.0355 	 12.6253 	 55.9501 	 
H 	 45.2863 	 10.5889 	 48.4593 	 
H 	 48.3553 	 17.6484 	 51.3757 	 
*
