! wB97X-D3 SP def2-SVP
%pal
nprocs 16
end

* xyz 0 1
S 	 47.4032 	 16.533 	 85.9289 	 
C 	 46.9079 	 18.223 	 85.6229 	 
C 	 47.4893 	 18.6918 	 84.4791 	 
C 	 48.3837 	 17.7587 	 83.8862 	 
C 	 48.373 	 16.4973 	 84.4906 	 
H 	 48.9669 	 17.8999 	 83.0159 	 
C 	 47.0182 	 19.9411 	 83.7808 	 
H 	 47.7143 	 20.7275 	 83.8762 	 
H 	 46.1845 	 20.2731 	 84.4452 	 
C 	 46.5881 	 19.8169 	 82.2224 	 
H 	 46.1081 	 18.8305 	 82.0156 	 
H 	 45.8902 	 20.6652 	 82.0842 	 
C 	 47.76 	 20.0954 	 81.2494 	 
H 	 48.2248 	 19.1785 	 81.034 	 
H 	 47.3812 	 20.3708 	 80.2814 	 
H 	 48.4351 	 20.8754 	 81.492 	 
S 	 48.7507 	 13.8152 	 84.3772 	 
C 	 50.2787 	 13.2861 	 83.6571 	 
C 	 51.1859 	 14.2841 	 83.5477 	 
C 	 50.6876 	 15.5579 	 83.9622 	 
C 	 49.3633 	 15.4683 	 84.3301 	 
H 	 52.175 	 14.122 	 83.1662 	 
C 	 51.5324 	 16.8289 	 83.7626 	 
H 	 51.0323 	 17.6031 	 84.2747 	 
H 	 51.3307 	 17.0968 	 82.7466 	 
C 	 53.0666 	 16.7792 	 83.9341 	 
H 	 53.529 	 17.7566 	 83.5982 	 
H 	 53.5317 	 15.9965 	 83.3984 	 
C 	 53.537 	 16.7747 	 85.433 	 
H 	 54.5997 	 16.7261 	 85.4769 	 
H 	 53.1649 	 15.9195 	 86.0563 	 
H 	 53.177 	 17.5732 	 86.0161 	 
H 	 46.1761 	 18.7848 	 86.1548 	 
H 	 50.5147 	 12.2868 	 83.439 	 
*
