! wB97X-D3 SP def2-SVP
%pal
nprocs 16
end

* xyz 0 1
S 	 2.30935 	 -11.3865 	 77.3306 	 
C 	 3.8538 	 -10.8134 	 77.8846 	 
C 	 3.75252 	 -10.4939 	 79.2161 	 
C 	 2.43175 	 -10.5577 	 79.7077 	 
C 	 1.49846 	 -11.0311 	 78.8331 	 
H 	 2.14184 	 -10.3963 	 80.6874 	 
C 	 4.8545 	 -10.0157 	 80.1337 	 
H 	 5.88095 	 -10.3732 	 79.8676 	 
H 	 4.626 	 -10.3992 	 81.15 	 
C 	 4.96848 	 -8.52714 	 80.1429 	 
H 	 4.93606 	 -8.2 	 79.1038 	 
H 	 4.08201 	 -7.95471 	 80.4091 	 
C 	 6.24404 	 -8.00188 	 80.8535 	 
H 	 7.18212 	 -8.35723 	 80.3591 	 
H 	 6.22439 	 -6.91717 	 80.9482 	 
H 	 6.3671 	 -8.38399 	 81.8408 	 
S 	 -1.13587 	 -10.8274 	 78.1207 	 
C 	 -2.30046 	 -11.7592 	 79.0198 	 
C 	 -1.73975 	 -12.4953 	 79.9991 	 
C 	 -0.311442 	 -12.455 	 79.9806 	 
C 	 0.179411 	 -11.5046 	 79.0739 	 
H 	 -2.38659 	 -13.0883 	 80.6072 	 
C 	 0.348359 	 -13.0843 	 81.1507 	 
H 	 1.39907 	 -13.2247 	 80.8592 	 
H 	 -0.161897 	 -14.0471 	 81.3687 	 
C 	 0.294585 	 -12.2169 	 82.4485 	 
H 	 -0.784564 	 -12.2713 	 82.779 	 
H 	 0.335801 	 -11.1659 	 82.239 	 
C 	 1.11349 	 -12.7741 	 83.6557 	 
H 	 0.714789 	 -12.3465 	 84.5694 	 
H 	 2.16229 	 -12.5396 	 83.4356 	 
H 	 1.10135 	 -13.9051 	 83.6666 	 
H 	 4.7847 	 -10.8734 	 77.379 	 
H 	 -3.40739 	 -11.8531 	 78.8037 	 
*
