! wB97X-D3 SP def2-SVP
%pal
nprocs 16
end

* xyz 0 1
S 	 35.4852 	 29.2621 	 91.2945 	 
C 	 34.4548 	 29.0169 	 89.8492 	 
C 	 34.8431 	 27.8754 	 89.1178 	 
C 	 35.8529 	 27.1731 	 89.8234 	 
C 	 36.3541 	 27.7999 	 90.9578 	 
H 	 36.1002 	 26.1091 	 89.5805 	 
C 	 34.0671 	 27.2034 	 88.0597 	 
H 	 33.0197 	 27.3172 	 88.3959 	 
H 	 34.2364 	 26.1527 	 88.1048 	 
C 	 34.4059 	 27.7584 	 86.6017 	 
H 	 35.5379 	 27.7205 	 86.5339 	 
H 	 33.9314 	 27.1506 	 85.77 	 
C 	 34.0062 	 29.3023 	 86.644 	 
H 	 33.1265 	 29.5246 	 87.2309 	 
H 	 34.6302 	 29.9234 	 87.3041 	 
H 	 33.9143 	 29.6825 	 85.6737 	 
S 	 37.513 	 28.1846 	 93.4196 	 
C 	 38.254 	 26.8011 	 94.22 	 
C 	 38.6133 	 25.7981 	 93.2877 	 
C 	 38.1303 	 26.074 	 91.9508 	 
C 	 37.3364 	 27.2343 	 91.9035 	 
H 	 39.1291 	 24.8477 	 93.5731 	 
C 	 38.285 	 24.993 	 90.8683 	 
H 	 39.3029 	 24.6166 	 90.9743 	 
H 	 38.1209 	 25.4778 	 89.881 	 
C 	 37.3405 	 23.8491 	 90.9295 	 
H 	 36.3245 	 24.1959 	 90.8404 	 
H 	 37.3945 	 23.4571 	 91.9284 	 
C 	 37.5649 	 22.7963 	 89.7803 	 
H 	 36.6368 	 22.1928 	 89.8128 	 
H 	 38.4643 	 22.215 	 90.0933 	 
H 	 37.5217 	 23.2111 	 88.7683 	 
H 	 33.6415 	 29.6425 	 89.6182 	 
H 	 38.68 	 26.6899 	 95.2293 	 
*
