! wB97X-D3 SP def2-SVP
%pal
nprocs 16
end

* xyz 0 1
S 	 -38.3534 	 34.2526 	 75.8142 	 
C 	 -39.2711 	 34.5184 	 77.338 	 
C 	 -38.564 	 34.0694 	 78.4343 	 
C 	 -37.3004 	 33.5102 	 78.0624 	 
C 	 -37.0493 	 33.5225 	 76.6801 	 
H 	 -36.5052 	 33.1417 	 78.6812 	 
C 	 -39.0605 	 34.1721 	 79.8739 	 
H 	 -39.6232 	 35.1141 	 80.0804 	 
H 	 -38.1686 	 34.2603 	 80.4432 	 
C 	 -39.6537 	 33.0072 	 80.5592 	 
H 	 -39.0604 	 32.1464 	 80.5241 	 
H 	 -39.7649 	 33.2092 	 81.6471 	 
C 	 -41.07 	 32.6367 	 80.0079 	 
H 	 -41.8049 	 33.3223 	 80.2327 	 
H 	 -41.0539 	 32.4962 	 78.8971 	 
H 	 -41.4046 	 31.6453 	 80.3723 	 
S 	 -35.097 	 34.434 	 74.9826 	 
C 	 -33.7124 	 33.4336 	 74.6539 	 
C 	 -33.7916 	 32.2925 	 75.4118 	 
C 	 -34.9405 	 32.0637 	 76.142 	 
C 	 -35.7715 	 33.2057 	 76.0138 	 
H 	 -32.9677 	 31.5964 	 75.344 	 
C 	 -35.1621 	 30.8466 	 77.0203 	 
H 	 -35.7275 	 31.1337 	 77.9331 	 
H 	 -34.2642 	 30.6216 	 77.6142 	 
C 	 -35.9294 	 29.601 	 76.4016 	 
H 	 -36.7461 	 29.9115 	 75.826 	 
H 	 -36.18 	 28.9871 	 77.2966 	 
C 	 -35.0825 	 28.836 	 75.486 	 
H 	 -34.6216 	 29.5085 	 74.7401 	 
H 	 -35.6823 	 28.2025 	 74.8849 	 
H 	 -34.3709 	 28.1853 	 75.9768 	 
H 	 -40.2365 	 35.0496 	 77.4069 	 
H 	 -32.7326 	 33.7635 	 74.3896 	 
*
