! wB97X-D3 SP def2-SVP
%pal
nprocs 16
end

* xyz 0 1
S 	 -10.4626 	 -12.8712 	 85.5325 	 
C 	 -11.9664 	 -12.7636 	 84.772 	 
C 	 -12.9763 	 -12.6001 	 85.7285 	 
C 	 -12.4921 	 -12.5328 	 87.06 	 
C 	 -11.1444 	 -12.6798 	 87.1424 	 
H 	 -13.0912 	 -12.5033 	 87.9503 	 
C 	 -14.4541 	 -12.4739 	 85.4239 	 
H 	 -14.9533 	 -13.3218 	 85.9229 	 
H 	 -14.6975 	 -12.6327 	 84.3736 	 
C 	 -15.0414 	 -11.1574 	 85.9419 	 
H 	 -15.0482 	 -11.2418 	 86.9676 	 
H 	 -14.4049 	 -10.2565 	 85.855 	 
C 	 -16.4838 	 -10.8612 	 85.4396 	 
H 	 -16.7375 	 -9.8744 	 85.8098 	 
H 	 -16.3225 	 -10.8401 	 84.34 	 
H 	 -17.1402 	 -11.6093 	 85.78 	 
S 	 -9.10548 	 -11.269 	 88.3424 	 
C 	 -8.93394 	 -11.4116 	 90.0281 	 
C 	 -9.74402 	 -12.3882 	 90.6107 	 
C 	 -10.503 	 -13.0942 	 89.6055 	 
C 	 -10.3835 	 -12.4954 	 88.3716 	 
H 	 -9.70552 	 -12.6571 	 91.677 	 
C 	 -11.4873 	 -14.19 	 89.9411 	 
H 	 -12.5309 	 -13.8358 	 89.7068 	 
H 	 -11.48 	 -14.3779 	 90.9733 	 
C 	 -11.3531 	 -15.5427 	 89.2937 	 
H 	 -11.7396 	 -15.4588 	 88.2426 	 
H 	 -12.0812 	 -16.2258 	 89.8061 	 
C 	 -10.0298 	 -16.301 	 89.5064 	 
H 	 -9.99595 	 -17.2927 	 89.0309 	 
H 	 -9.85807 	 -16.5491 	 90.5099 	 
H 	 -9.20007 	 -15.6352 	 89.1152 	 
H 	 -12.1341 	 -12.8099 	 83.7225 	 
H 	 -8.17716 	 -10.8473 	 90.6294 	 
*
