! wB97X-D3 SP def2-SVP
%pal
nprocs 16
end

* xyz 0 1
S 	 -90.0667 	 46.7887 	 129.728 	 
C 	 -90.9568 	 48.2958 	 129.636 	 
C 	 -90.1299 	 49.3756 	 129.504 	 
C 	 -88.7438 	 49.0331 	 129.466 	 
C 	 -88.5529 	 47.6918 	 129.631 	 
H 	 -87.9635 	 49.6766 	 129.226 	 
C 	 -90.5195 	 50.8812 	 129.366 	 
H 	 -91.5293 	 50.8991 	 128.825 	 
H 	 -89.7579 	 51.2395 	 128.7 	 
C 	 -90.3856 	 51.813 	 130.602 	 
H 	 -90.9009 	 51.377 	 131.402 	 
H 	 -89.3862 	 51.684 	 131.055 	 
C 	 -90.7972 	 53.2867 	 130.437 	 
H 	 -91.834 	 53.383 	 130.149 	 
H 	 -90.7291 	 53.8995 	 131.32 	 
H 	 -90.2195 	 53.8378 	 129.749 	 
S 	 -87.4757 	 45.2717 	 129.087 	 
C 	 -85.8034 	 45.1068 	 129.062 	 
C 	 -85.1058 	 46.1956 	 129.494 	 
C 	 -86.0208 	 47.2661 	 129.859 	 
C 	 -87.3144 	 46.9562 	 129.581 	 
H 	 -84.0317 	 46.1077 	 129.568 	 
C 	 -85.4185 	 48.548 	 130.395 	 
H 	 -85.8524 	 49.4336 	 129.993 	 
H 	 -84.4006 	 48.6198 	 130.1 	 
C 	 -85.3729 	 48.6162 	 131.908 	 
H 	 -85.1213 	 49.6283 	 132.204 	 
H 	 -84.5677 	 47.9225 	 132.195 	 
C 	 -86.7048 	 48.3699 	 132.589 	 
H 	 -87.3999 	 49.1317 	 132.242 	 
H 	 -86.6441 	 48.3976 	 133.678 	 
H 	 -86.9786 	 47.3324 	 132.323 	 
H 	 -92.0914 	 48.3848 	 129.608 	 
H 	 -85.2699 	 44.1393 	 128.834 	 
*
