! wB97X-D3 SP def2-SVP
%pal
nprocs 16
end

* xyz 0 1
S 	 -80.869 	 44.8302 	 124.129 	 
C 	 -82.1234 	 44.8665 	 122.844 	 
C 	 -81.7916 	 44.1165 	 121.777 	 
C 	 -80.5643 	 43.4094 	 121.951 	 
C 	 -79.9159 	 43.6826 	 123.17 	 
H 	 -79.9874 	 42.9063 	 121.181 	 
C 	 -82.5584 	 44.0573 	 120.469 	 
H 	 -82.019 	 44.7161 	 119.884 	 
H 	 -83.4942 	 44.5321 	 120.756 	 
C 	 -82.9641 	 42.7004 	 119.757 	 
H 	 -83.7801 	 42.8725 	 119.023 	 
H 	 -82.0042 	 42.2962 	 119.305 	 
C 	 -83.5427 	 41.7208 	 120.809 	 
H 	 -82.8723 	 41.6691 	 121.655 	 
H 	 -84.3914 	 42.0869 	 121.331 	 
H 	 -83.8714 	 40.7554 	 120.469 	 
S 	 -77.5056 	 44.634 	 123.993 	 
C 	 -76.0999 	 43.5594 	 124.227 	 
C 	 -76.481 	 42.2743 	 123.846 	 
C 	 -77.8515 	 42.1279 	 123.325 	 
C 	 -78.5531 	 43.3505 	 123.478 	 
H 	 -75.8674 	 41.4138 	 124.134 	 
C 	 -78.349 	 40.809 	 122.944 	 
H 	 -79.4128 	 40.9531 	 123.017 	 
H 	 -78.127 	 40.0978 	 123.765 	 
C 	 -78.0679 	 40.2714 	 121.547 	 
H 	 -77.0011 	 40.3248 	 121.4 	 
H 	 -78.3972 	 40.9015 	 120.802 	 
C 	 -78.5447 	 38.9114 	 121.246 	 
H 	 -79.6558 	 38.8169 	 121.25 	 
H 	 -78.3221 	 38.2772 	 122.107 	 
H 	 -78.0608 	 38.4652 	 120.373 	 
H 	 -83.0647 	 45.3766 	 122.973 	 
H 	 -75.2373 	 43.6881 	 124.833 	 
*
