! wB97X-D3 SP def2-SVP
%pal
nprocs 16
end

* xyz 0 1
S 	 -45.0625 	 54.9505 	 102.292 	 
C 	 -46.6945 	 54.7209 	 102.922 	 
C 	 -47.4821 	 54.0547 	 102.023 	 
C 	 -46.8126 	 53.8792 	 100.738 	 
C 	 -45.4428 	 54.1661 	 100.803 	 
H 	 -47.2943 	 53.431 	 99.8521 	 
C 	 -48.952 	 53.7154 	 102.263 	 
H 	 -49.5165 	 54.5321 	 101.757 	 
H 	 -49.151 	 53.7739 	 103.365 	 
C 	 -49.4502 	 52.3311 	 101.77 	 
H 	 -49.1131 	 52.1554 	 100.749 	 
H 	 -49.0032 	 51.6125 	 102.483 	 
C 	 -51.0078 	 52.2196 	 101.74 	 
H 	 -51.4368 	 53.0397 	 101.203 	 
H 	 -51.3047 	 51.402 	 101.172 	 
H 	 -51.4486 	 52.1484 	 102.698 	 
S 	 -43.1716 	 55.0974 	 99.4689 	 
C 	 -42.5922 	 54.2363 	 98.048 	 
C 	 -43.3502 	 53.078 	 97.8434 	 
C 	 -44.3338 	 52.8677 	 98.8777 	 
C 	 -44.4059 	 53.9257 	 99.7594 	 
H 	 -43.0946 	 52.4963 	 96.9802 	 
C 	 -45.1562 	 51.6333 	 98.8891 	 
H 	 -45.1635 	 51.2697 	 97.8629 	 
H 	 -46.2398 	 51.8739 	 99.0226 	 
C 	 -44.8629 	 50.612 	 99.9984 	 
H 	 -45.7458 	 49.9595 	 100.008 	 
H 	 -44.8702 	 51.03 	 101.004 	 
C 	 -43.5888 	 49.8042 	 99.8499 	 
H 	 -43.6287 	 49.0975 	 99.1001 	 
H 	 -43.3137 	 49.305 	 100.781 	 
H 	 -42.6922 	 50.4138 	 99.6718 	 
H 	 -47.0983 	 55.0052 	 103.866 	 
H 	 -41.7627 	 54.5589 	 97.3361 	 
*
