! wB97X-D3 SP def2-SVP
%pal
nprocs 16
end

* xyz 0 1
S 	 -83.6921 	 32.1679 	 136.732 	 
C 	 -82.1758 	 31.3898 	 136.83 	 
C 	 -81.2798 	 31.8872 	 135.823 	 
C 	 -81.8542 	 32.9172 	 135.075 	 
C 	 -83.1684 	 33.0383 	 135.285 	 
H 	 -81.4246 	 33.4411 	 134.208 	 
C 	 -79.8599 	 31.3844 	 135.742 	 
H 	 -79.6181 	 31.4808 	 134.685 	 
H 	 -79.7688 	 30.2702 	 135.912 	 
C 	 -78.7544 	 31.9145 	 136.608 	 
H 	 -79.015 	 31.918 	 137.689 	 
H 	 -77.9452 	 31.2498 	 136.557 	 
C 	 -78.3741 	 33.3388 	 136.139 	 
H 	 -78.4181 	 33.4208 	 135.037 	 
H 	 -79.1507 	 34.0744 	 136.452 	 
H 	 -77.394 	 33.7436 	 136.396 	 
S 	 -85.5601 	 33.0556 	 133.931 	 
C 	 -86.0532 	 34.4136 	 133.045 	 
C 	 -85.0844 	 35.4312 	 133.062 	 
C 	 -83.9457 	 35.0818 	 133.821 	 
C 	 -84.104 	 33.8344 	 134.469 	 
H 	 -85.1818 	 36.287 	 132.413 	 
C 	 -82.8039 	 35.9996 	 133.942 	 
H 	 -82.9566 	 36.8877 	 133.371 	 
H 	 -82.0028 	 35.535 	 133.393 	 
C 	 -82.2691 	 36.3233 	 135.344 	 
H 	 -81.2708 	 36.769 	 135.217 	 
H 	 -82.0063 	 35.4283 	 135.81 	 
C 	 -83.2083 	 37.1269 	 136.158 	 
H 	 -83.9881 	 36.4354 	 136.453 	 
H 	 -83.5864 	 37.9725 	 135.632 	 
H 	 -82.7773 	 37.4883 	 137.038 	 
H 	 -81.8426 	 30.6226 	 137.56 	 
H 	 -86.8547 	 34.4782 	 132.321 	 
*
