! wB97X-D3 SP def2-SVP
%pal
nprocs 16
end

* xyz 0 1
S 	 36.4386 	 13.9918 	 82.6362 	 
C 	 36.2602 	 15.7254 	 82.4393 	 
C 	 36.6231 	 16.5153 	 83.5511 	 
C 	 37.0971 	 15.638 	 84.5782 	 
C 	 37.1411 	 14.2813 	 84.2368 	 
H 	 37.2752 	 15.9489 	 85.5691 	 
C 	 36.4464 	 17.9532 	 83.8667 	 
H 	 37.4391 	 18.3516 	 84.1494 	 
H 	 35.9112 	 17.8939 	 84.7586 	 
C 	 35.7714 	 18.8578 	 82.7822 	 
H 	 34.9849 	 18.3023 	 82.2985 	 
H 	 35.3166 	 19.7553 	 83.2577 	 
C 	 36.7587 	 19.4448 	 81.7853 	 
H 	 36.4274 	 20.3403 	 81.2469 	 
H 	 37.6618 	 19.7278 	 82.2449 	 
H 	 37.0986 	 18.7149 	 81.0646 	 
S 	 36.3692 	 11.7656 	 85.0642 	 
C 	 37.0967 	 11.0011 	 86.4564 	 
C 	 38.1898 	 11.7456 	 86.8031 	 
C 	 38.3647 	 13.0028 	 86.1069 	 
C 	 37.4214 	 13.1592 	 85.1254 	 
H 	 38.8808 	 11.4582 	 87.5836 	 
C 	 39.4483 	 14.0221 	 86.3433 	 
H 	 39.4156 	 14.7285 	 85.4417 	 
H 	 40.3452 	 13.4112 	 86.1923 	 
C 	 39.2111 	 14.8902 	 87.5646 	 
H 	 38.1407 	 15.0091 	 87.6373 	 
H 	 39.6357 	 15.9422 	 87.6386 	 
C 	 39.6819 	 14.1977 	 88.9519 	 
H 	 40.7577 	 14.2733 	 89.0985 	 
H 	 39.347 	 13.1292 	 89.0679 	 
H 	 39.2831 	 14.7872 	 89.8197 	 
H 	 35.6744 	 16.0621 	 81.6042 	 
H 	 36.9175 	 10.0595 	 86.9476 	 
*
