! wB97X-D3 SP def2-SVP
%pal
nprocs 16
end

* xyz 0 1
S 	 -3.45163 	 -13.7269 	 55.9321 	 
C 	 -2.05955 	 -13.7097 	 54.8461 	 
C 	 -2.4187 	 -14.2495 	 53.5807 	 
C 	 -3.80804 	 -14.675 	 53.6426 	 
C 	 -4.48018 	 -14.577 	 54.8174 	 
H 	 -4.29824 	 -15.2584 	 52.9238 	 
C 	 -1.5817 	 -14.3284 	 52.3849 	 
H 	 -1.00597 	 -13.4551 	 52.3603 	 
H 	 -2.11187 	 -14.0518 	 51.4531 	 
C 	 -0.681601 	 -15.5546 	 52.1222 	 
H 	 0.0527035 	 -15.2655 	 51.3296 	 
H 	 -0.114567 	 -15.8754 	 52.9524 	 
C 	 -1.50347 	 -16.7718 	 51.7557 	 
H 	 -2.28938 	 -16.8933 	 52.457 	 
H 	 -1.93437 	 -16.7034 	 50.7842 	 
H 	 -1.1098 	 -17.7858 	 51.8168 	 
S 	 -6.1816 	 -16.8109 	 54.6556 	 
C 	 -7.85737 	 -16.593 	 55.1487 	 
C 	 -7.94097 	 -15.4966 	 55.9695 	 
C 	 -6.76007 	 -14.6522 	 55.9539 	 
C 	 -5.77124 	 -15.0848 	 55.1237 	 
H 	 -8.8819 	 -15.305 	 56.5291 	 
C 	 -6.68789 	 -13.4493 	 56.8707 	 
H 	 -5.86654 	 -13.5437 	 57.5231 	 
H 	 -7.63432 	 -13.4378 	 57.3928 	 
C 	 -6.47682 	 -12.1443 	 56.1609 	 
H 	 -6.61048 	 -12.2269 	 55.0782 	 
H 	 -5.44507 	 -11.8835 	 56.2504 	 
C 	 -7.23608 	 -10.9345 	 56.7272 	 
H 	 -7.03201 	 -10.0011 	 56.2245 	 
H 	 -6.7987 	 -10.8639 	 57.7075 	 
H 	 -8.34979 	 -11.0289 	 56.87 	 
H 	 -1.07517 	 -13.2436 	 55.0576 	 
H 	 -8.67858 	 -17.3215 	 55.0162 	 
*
