! wB97X-D3 SP def2-SVP
%pal
nprocs 16
end

* xyz 0 1
S 	 43.918 	 21.8836 	 101.297 	 
C 	 44.2022 	 22.6761 	 99.7396 	 
C 	 44.7905 	 21.7542 	 98.7901 	 
C 	 44.9314 	 20.4584 	 99.3563 	 
C 	 44.5988 	 20.3831 	 100.703 	 
H 	 45.1945 	 19.5364 	 98.8914 	 
C 	 45.2124 	 22.0548 	 97.3399 	 
H 	 46.3233 	 22.0845 	 97.2587 	 
H 	 45.0254 	 23.0495 	 97.1209 	 
C 	 44.534 	 21.1902 	 96.2867 	 
H 	 44.993 	 20.1912 	 96.3028 	 
H 	 43.4788 	 21.0721 	 96.5826 	 
C 	 44.5505 	 21.823 	 94.8343 	 
H 	 43.9746 	 21.2074 	 94.0987 	 
H 	 44.2014 	 22.7971 	 94.8794 	 
H 	 45.559 	 21.8448 	 94.4652 	 
S 	 43.2779 	 18.9119 	 102.609 	 
C 	 44.0157 	 17.35 	 103.085 	 
C 	 45.3108 	 17.1957 	 102.616 	 
C 	 45.6459 	 18.1945 	 101.611 	 
C 	 44.7022 	 19.2127 	 101.559 	 
H 	 45.8773 	 16.2989 	 102.935 	 
C 	 46.8847 	 18.1159 	 100.783 	 
H 	 47.6696 	 17.8556 	 101.504 	 
H 	 47.1391 	 19.1616 	 100.524 	 
C 	 46.9415 	 17.2671 	 99.5716 	 
H 	 47.7661 	 17.7035 	 98.9862 	 
H 	 45.9902 	 17.4072 	 98.9457 	 
C 	 47.1616 	 15.7771 	 99.8408 	 
H 	 48.0728 	 15.6518 	 100.334 	 
H 	 47.3233 	 15.3863 	 98.9048 	 
H 	 46.384 	 15.2198 	 100.364 	 
H 	 43.9926 	 23.6903 	 99.4709 	 
H 	 43.4743 	 16.6306 	 103.665 	 
*
