! wB97X-D3 SP def2-SVP
%pal
nprocs 16
end

* xyz 0 1
S 	 13.4641 	 24.44 	 65.3827 	 
C 	 13.5517 	 25.6904 	 64.1874 	 
C 	 13.6342 	 26.9075 	 64.8002 	 
C 	 13.7753 	 26.861 	 66.2375 	 
C 	 13.8203 	 25.5531 	 66.728 	 
H 	 13.9038 	 27.6593 	 66.9439 	 
C 	 13.788 	 28.285 	 64.1333 	 
H 	 13.1693 	 29.0494 	 64.7163 	 
H 	 13.3356 	 28.2065 	 63.125 	 
C 	 15.1946 	 28.8394 	 64.0125 	 
H 	 15.1353 	 29.614 	 63.3299 	 
H 	 15.4979 	 29.2631 	 64.9547 	 
C 	 16.3252 	 27.8752 	 63.5198 	 
H 	 16.2446 	 27.5171 	 62.5409 	 
H 	 17.3458 	 28.3131 	 63.4529 	 
H 	 16.3775 	 26.9713 	 64.1505 	 
S 	 12.6912 	 24.4059 	 69.0458 	 
C 	 13.6052 	 24.3895 	 70.5088 	 
C 	 14.7665 	 25.0555 	 70.2915 	 
C 	 14.9626 	 25.5247 	 68.9634 	 
C 	 13.9375 	 25.1829 	 68.1216 	 
H 	 15.4073 	 25.2436 	 71.1596 	 
C 	 16.2455 	 26.266 	 68.6034 	 
H 	 16.2891 	 26.6304 	 67.5941 	 
H 	 17.0533 	 25.5131 	 68.6548 	 
C 	 16.6034 	 27.4455 	 69.5888 	 
H 	 17.6812 	 27.5422 	 69.8236 	 
H 	 15.9757 	 27.2838 	 70.5135 	 
C 	 16.2511 	 28.8255 	 68.9859 	 
H 	 15.2217 	 29.11 	 69.093 	 
H 	 16.6308 	 29.0396 	 67.964 	 
H 	 16.7647 	 29.6291 	 69.4845 	 
H 	 13.2546 	 25.5271 	 63.0892 	 
H 	 13.2101 	 24.0125 	 71.398 	 
*
