! wB97X-D3 SP def2-SVP
%pal
nprocs 16
end

* xyz 0 1
S 	 -60.0432 	 18.4271 	 87.4644 	 
C 	 -59.2022 	 16.9505 	 88.0157 	 
C 	 -57.8262 	 17.2157 	 88.2228 	 
C 	 -57.4883 	 18.5069 	 87.8269 	 
C 	 -58.5354 	 19.3013 	 87.3678 	 
H 	 -56.5141 	 19.0182 	 87.9512 	 
C 	 -56.7753 	 16.3506 	 88.9213 	 
H 	 -56.1557 	 15.7568 	 88.2137 	 
H 	 -57.4828 	 15.6259 	 89.4507 	 
C 	 -56.0167 	 16.8109 	 90.1447 	 
H 	 -55.2622 	 16.0332 	 90.2044 	 
H 	 -55.4801 	 17.7543 	 90.0025 	 
C 	 -56.8799 	 17.1395 	 91.383 	 
H 	 -57.7072 	 16.442 	 91.4207 	 
H 	 -56.2885 	 17.1212 	 92.3216 	 
H 	 -57.3539 	 18.1543 	 91.2539 	 
S 	 -58.0448 	 21.0759 	 85.2928 	 
C 	 -58.2317 	 22.8212 	 85.5384 	 
C 	 -58.6438 	 23.0969 	 86.8117 	 
C 	 -58.7281 	 21.9136 	 87.6267 	 
C 	 -58.4705 	 20.7157 	 86.9462 	 
H 	 -58.8046 	 24.1668 	 87.0939 	 
C 	 -59.3847 	 22.0276 	 88.9829 	 
H 	 -58.6971 	 22.5818 	 89.5658 	 
H 	 -59.4503 	 21.0103 	 89.4442 	 
C 	 -60.738 	 22.7358 	 88.9484 	 
H 	 -61.3532 	 22.3222 	 88.138 	 
H 	 -60.653 	 23.8069 	 88.7595 	 
C 	 -61.5636 	 22.809 	 90.2156 	 
H 	 -61.2066 	 23.5824 	 90.8983 	 
H 	 -61.5501 	 21.7824 	 90.7759 	 
H 	 -62.5344 	 23.0672 	 89.9063 	 
H 	 -59.748 	 16.1004 	 88.4583 	 
H 	 -57.8896 	 23.5638 	 84.8628 	 
*
