! wB97X-D3 SP def2-SVP
%pal
nprocs 16
end

* xyz 0 1
S 	 -1.18432 	 -18.476 	 84.8635 	 
C 	 -2.77666 	 -18.5536 	 84.2481 	 
C 	 -3.54456 	 -17.4412 	 84.6265 	 
C 	 -2.7584 	 -16.5172 	 85.3679 	 
C 	 -1.40897 	 -16.8783 	 85.5266 	 
H 	 -3.10872 	 -15.5974 	 85.7478 	 
C 	 -5.00216 	 -17.196 	 84.406 	 
H 	 -5.63077 	 -17.1336 	 85.2974 	 
H 	 -5.27783 	 -18.1974 	 84.0896 	 
C 	 -5.4123 	 -16.1979 	 83.2309 	 
H 	 -6.45787 	 -16.3068 	 83.024 	 
H 	 -5.17082 	 -15.1617 	 83.6115 	 
C 	 -4.63243 	 -16.4299 	 81.9282 	 
H 	 -3.64483 	 -15.9552 	 82.022 	 
H 	 -4.51375 	 -17.5265 	 81.7045 	 
H 	 -5.13049 	 -15.9396 	 81.1016 	 
S 	 1.19476 	 -16.0767 	 85.665 	 
C 	 1.79076 	 -15.2554 	 87.1175 	 
C 	 0.84481 	 -15.1013 	 88.0864 	 
C 	 -0.383807 	 -15.6994 	 87.599 	 
C 	 -0.393611 	 -16.2008 	 86.3182 	 
H 	 1.14051 	 -14.6304 	 88.9679 	 
C 	 -1.66191 	 -15.7149 	 88.3861 	 
H 	 -1.36325 	 -15.9967 	 89.371 	 
H 	 -2.32657 	 -16.5656 	 88.0954 	 
C 	 -2.39633 	 -14.3252 	 88.4825 	 
H 	 -2.88658 	 -14.2128 	 87.4844 	 
H 	 -1.61461 	 -13.5318 	 88.6152 	 
C 	 -3.52471 	 -14.2866 	 89.5102 	 
H 	 -4.24932 	 -15.1758 	 89.4318 	 
H 	 -4.15401 	 -13.4204 	 89.322 	 
H 	 -3.08196 	 -14.1523 	 90.5137 	 
H 	 -3.22501 	 -19.3375 	 83.6363 	 
H 	 2.81727 	 -14.8628 	 87.2705 	 
*
