! wB97X-D3 SP def2-SVP
%pal
nprocs 16
end

* xyz 0 1
S 	 -1.24595 	 -18.1975 	 86.5062 	 
C 	 -2.97018 	 -18.2882 	 86.016 	 
C 	 -3.49743 	 -16.9947 	 85.9487 	 
C 	 -2.51485 	 -15.9326 	 86.0534 	 
C 	 -1.21974 	 -16.4215 	 86.332 	 
H 	 -2.56571 	 -14.8428 	 86.0234 	 
C 	 -4.84855 	 -16.6219 	 85.4682 	 
H 	 -5.18661 	 -15.7625 	 86.0112 	 
H 	 -5.57168 	 -17.4569 	 85.6509 	 
C 	 -4.88898 	 -16.4772 	 83.919 	 
H 	 -5.82384 	 -15.9983 	 83.6713 	 
H 	 -4.07868 	 -15.8301 	 83.5264 	 
C 	 -4.75736 	 -17.7611 	 83.0524 	 
H 	 -3.70671 	 -18.065 	 83.0898 	 
H 	 -5.52101 	 -18.4821 	 83.4031 	 
H 	 -4.94103 	 -17.4995 	 81.9806 	 
S 	 1.12475 	 -16.0366 	 85.1423 	 
C 	 2.16674 	 -14.7336 	 85.7027 	 
C 	 1.7671 	 -14.1371 	 86.8524 	 
C 	 0.468225 	 -14.6398 	 87.2348 	 
C 	 0.0333754 	 -15.7123 	 86.4332 	 
H 	 2.27293 	 -13.3323 	 87.3766 	 
C 	 -0.435594 	 -13.8131 	 88.1583 	 
H 	 -0.00112597 	 -13.9876 	 89.1857 	 
H 	 -1.33813 	 -14.2793 	 88.2481 	 
C 	 -0.614119 	 -12.3415 	 87.9284 	 
H 	 -1.14051 	 -12.1229 	 86.9247 	 
H 	 0.351708 	 -11.8213 	 87.8581 	 
C 	 -1.48141 	 -11.6279 	 89.035 	 
H 	 -2.50693 	 -12.0296 	 89.1179 	 
H 	 -1.57917 	 -10.5297 	 88.9406 	 
H 	 -1.07679 	 -11.7558 	 90.0558 	 
H 	 -3.52865 	 -19.236 	 85.8874 	 
H 	 3.14147 	 -14.4171 	 85.2997 	 
*
