! wB97X-D3 SP def2-SVP
%pal
nprocs 16
end

* xyz 0 1
S 	 2.82204 	 77.8344 	 47.9721 	 
C 	 2.24731 	 76.81 	 49.3423 	 
C 	 3.10471 	 76.7731 	 50.4079 	 
C 	 4.1869 	 77.7051 	 50.1195 	 
C 	 4.201 	 78.3382 	 48.878 	 
H 	 5.06419 	 77.912 	 50.7697 	 
C 	 2.9592 	 75.9291 	 51.6907 	 
H 	 3.36996 	 74.8743 	 51.4326 	 
H 	 1.87799 	 75.7415 	 51.9573 	 
C 	 3.71123 	 76.4049 	 52.9834 	 
H 	 3.59681 	 75.6342 	 53.773 	 
H 	 4.75897 	 76.6216 	 52.8473 	 
C 	 2.88757 	 77.5863 	 53.5557 	 
H 	 2.87934 	 77.6202 	 54.5996 	 
H 	 3.31698 	 78.5804 	 53.2517 	 
H 	 1.88917 	 77.6021 	 53.2075 	 
S 	 6.64014 	 79.0237 	 47.8341 	 
C 	 7.0322 	 80.6557 	 47.4688 	 
C 	 6.03872 	 81.5165 	 47.771 	 
C 	 4.87808 	 80.8047 	 48.268 	 
C 	 5.07912 	 79.431 	 48.4057 	 
H 	 6.0474 	 82.5889 	 47.6783 	 
C 	 3.54481 	 81.3889 	 48.7066 	 
H 	 2.68876 	 80.6733 	 48.7812 	 
H 	 3.3113 	 82.103 	 47.8969 	 
C 	 3.60947 	 82.2664 	 50.0278 	 
H 	 2.62069 	 82.7691 	 50.162 	 
H 	 4.38805 	 82.9834 	 49.937 	 
C 	 3.86927 	 81.3307 	 51.2198 	 
H 	 4.78664 	 80.7284 	 51.1204 	 
H 	 3.0413 	 80.844 	 51.7056 	 
H 	 4.05619 	 82.0053 	 52.035 	 
H 	 1.38269 	 76.1194 	 49.3763 	 
H 	 8.01237 	 80.9981 	 47.1413 	 
*
