! wB97X-D3 SP def2-SVP
%pal
nprocs 16
end

* xyz 0 1
S 	 -107.441 	 39.1139 	 126.944 	 
C 	 -106.178 	 39.0388 	 128.097 	 
C 	 -106.471 	 39.8361 	 129.181 	 
C 	 -107.716 	 40.5355 	 129.078 	 
C 	 -108.451 	 40.1861 	 127.944 	 
H 	 -108.129 	 41.0914 	 129.864 	 
C 	 -105.425 	 40.1144 	 130.308 	 
H 	 -104.77 	 40.7844 	 129.748 	 
H 	 -104.914 	 39.1456 	 130.455 	 
C 	 -105.925 	 40.6083 	 131.663 	 
H 	 -105.132 	 40.895 	 132.312 	 
H 	 -106.486 	 41.5615 	 131.512 	 
C 	 -106.837 	 39.5212 	 132.277 	 
H 	 -106.257 	 38.6375 	 132.552 	 
H 	 -107.176 	 39.7328 	 133.309 	 
H 	 -107.735 	 39.2167 	 131.741 	 
S 	 -109.582 	 41.7935 	 126.174 	 
C 	 -111.301 	 42.0474 	 126.148 	 
C 	 -111.943 	 41.366 	 127.252 	 
C 	 -111.015 	 40.6567 	 128.054 	 
C 	 -109.747 	 40.7108 	 127.5 	 
H 	 -113.016 	 41.5152 	 127.435 	 
C 	 -111.308 	 40.0109 	 129.346 	 
H 	 -110.377 	 39.6878 	 129.714 	 
H 	 -111.945 	 39.1297 	 129.301 	 
C 	 -111.762 	 40.9771 	 130.493 	 
H 	 -112.664 	 41.5505 	 130.137 	 
H 	 -111.097 	 41.7981 	 130.664 	 
C 	 -112.131 	 40.3418 	 131.813 	 
H 	 -112.344 	 39.249 	 131.745 	 
H 	 -112.862 	 40.9106 	 132.283 	 
H 	 -111.233 	 40.5121 	 132.566 	 
H 	 -105.26 	 38.485 	 127.804 	 
H 	 -111.785 	 42.6931 	 125.452 	 
*
