! wB97X-D3 SP def2-SVP
%pal
nprocs 16
end

* xyz 0 1
S 	 -117.603 	 47.1414 	 133.517 	 
C 	 -117.384 	 47.1633 	 135.26 	 
C 	 -116.064 	 46.823 	 135.598 	 
C 	 -115.374 	 46.3633 	 134.425 	 
C 	 -116.025 	 46.5556 	 133.253 	 
H 	 -114.442 	 45.8729 	 134.332 	 
C 	 -115.439 	 46.7569 	 136.946 	 
H 	 -114.851 	 45.8443 	 137.038 	 
H 	 -116.222 	 46.6825 	 137.722 	 
C 	 -114.628 	 47.9508 	 137.439 	 
H 	 -114.458 	 47.9361 	 138.554 	 
H 	 -113.667 	 47.8813 	 137.038 	 
C 	 -115.289 	 49.3292 	 137.213 	 
H 	 -114.53 	 50.0319 	 137.414 	 
H 	 -115.726 	 49.4978 	 136.185 	 
H 	 -116.14 	 49.3765 	 137.851 	 
S 	 -116.659 	 45.3773 	 130.915 	 
C 	 -115.459 	 45.2928 	 129.651 	 
C 	 -114.273 	 45.8531 	 129.997 	 
C 	 -114.352 	 46.5361 	 131.255 	 
C 	 -115.514 	 46.167 	 131.932 	 
H 	 -113.404 	 45.8501 	 129.347 	 
C 	 -113.201 	 47.2957 	 131.876 	 
H 	 -112.306 	 47.0763 	 131.317 	 
H 	 -113.096 	 47.0542 	 132.951 	 
C 	 -113.335 	 48.7915 	 131.778 	 
H 	 -113.757 	 49.2262 	 130.842 	 
H 	 -112.334 	 49.2486 	 131.77 	 
C 	 -114.213 	 49.4323 	 132.85 	 
H 	 -115.296 	 49.2665 	 132.654 	 
H 	 -114.098 	 50.4751 	 132.664 	 
H 	 -113.867 	 49.0115 	 133.85 	 
H 	 -118.09 	 47.5587 	 135.977 	 
H 	 -115.622 	 44.8554 	 128.661 	 
*
