! wB97X-D3 SP def2-SVP
%pal
nprocs 16
end

* xyz 0 1
S 	 -66.4248 	 47.0406 	 125.092 	 
C 	 -67.0175 	 45.737 	 126.085 	 
C 	 -68.2241 	 46.0676 	 126.639 	 
C 	 -68.6227 	 47.3535 	 126.368 	 
C 	 -67.7111 	 48.127 	 125.609 	 
H 	 -69.5098 	 47.7796 	 126.802 	 
C 	 -69.0879 	 45.0356 	 127.397 	 
H 	 -68.5033 	 44.1129 	 127.474 	 
H 	 -70.0069 	 44.9475 	 126.838 	 
C 	 -69.4345 	 45.4396 	 128.84 	 
H 	 -68.5547 	 45.8237 	 129.348 	 
H 	 -70.0466 	 46.2984 	 128.867 	 
C 	 -70.1955 	 44.4325 	 129.745 	 
H 	 -71.1062 	 44.231 	 129.254 	 
H 	 -69.6048 	 43.5158 	 129.911 	 
H 	 -70.4796 	 44.9093 	 130.71 	 
S 	 -69.231 	 50.0289 	 124.297 	 
C 	 -68.911 	 51.6972 	 124.498 	 
C 	 -67.6236 	 51.8398 	 125.089 	 
C 	 -67.043 	 50.5915 	 125.558 	 
C 	 -67.8975 	 49.5216 	 125.265 	 
H 	 -67.2603 	 52.8537 	 125.191 	 
C 	 -65.7346 	 50.453 	 126.379 	 
H 	 -65.0448 	 51.1442 	 125.89 	 
H 	 -65.3111 	 49.4464 	 126.248 	 
C 	 -65.7467 	 50.8913 	 127.879 	 
H 	 -66.5994 	 50.357 	 128.335 	 
H 	 -65.9475 	 51.9693 	 127.883 	 
C 	 -64.4008 	 50.5523 	 128.604 	 
H 	 -64.7036 	 50.3617 	 129.622 	 
H 	 -63.5753 	 51.2812 	 128.527 	 
H 	 -64.0054 	 49.5891 	 128.319 	 
H 	 -66.5996 	 44.7857 	 126.197 	 
H 	 -69.5364 	 52.5152 	 124.154 	 
*
