! wB97X-D3 SP def2-SVP
%pal
nprocs 16
end

* xyz 0 1
S 	 -5.60962 	 -12.5701 	 85.3457 	 
C 	 -4.82307 	 -13.8222 	 86.2955 	 
C 	 -3.4324 	 -13.8897 	 86.0918 	 
C 	 -3.07129 	 -13.0626 	 85.0042 	 
C 	 -4.0833 	 -12.2108 	 84.5856 	 
H 	 -2.13047 	 -12.9654 	 84.4901 	 
C 	 -2.48975 	 -14.9256 	 86.7872 	 
H 	 -2.78087 	 -15.2056 	 87.7634 	 
H 	 -1.51619 	 -14.403 	 86.9403 	 
C 	 -2.26761 	 -16.2374 	 85.9757 	 
H 	 -3.26671 	 -16.5028 	 85.585 	 
H 	 -1.60279 	 -15.9482 	 85.1613 	 
C 	 -1.81441 	 -17.3051 	 86.914 	 
H 	 -1.87369 	 -18.2423 	 86.4008 	 
H 	 -0.93213 	 -17.0246 	 87.3969 	 
H 	 -2.50291 	 -17.4085 	 87.7726 	 
S 	 -3.03198 	 -9.86987 	 83.9551 	 
C 	 -3.47751 	 -8.99875 	 82.4449 	 
C 	 -4.31923 	 -9.77582 	 81.6793 	 
C 	 -4.65018 	 -11.0054 	 82.384 	 
C 	 -3.97993 	 -11.177 	 83.5704 	 
H 	 -4.66101 	 -9.46742 	 80.7357 	 
C 	 -5.5582 	 -12.048 	 81.7398 	 
H 	 -5.72848 	 -12.8405 	 82.4771 	 
H 	 -5.07207 	 -12.3758 	 80.8461 	 
C 	 -6.99494 	 -11.5778 	 81.3668 	 
H 	 -7.06079 	 -10.7154 	 80.6353 	 
H 	 -7.55662 	 -11.1135 	 82.1366 	 
C 	 -7.77931 	 -12.6185 	 80.5445 	 
H 	 -7.37837 	 -12.6893 	 79.5591 	 
H 	 -8.84345 	 -12.3665 	 80.5218 	 
H 	 -7.69783 	 -13.6495 	 80.9931 	 
H 	 -5.44525 	 -14.4331 	 86.9139 	 
H 	 -3.39169 	 -7.94348 	 82.2099 	 
*
