! wB97X-D3 SP def2-SVP
%pal
nprocs 16
end

* xyz 0 1
S 	 -4.40406 	 66.1589 	 52.5943 	 
C 	 -4.90471 	 64.4913 	 52.2391 	 
C 	 -6.16298 	 64.5268 	 51.6327 	 
C 	 -6.78542 	 65.7992 	 51.6436 	 
C 	 -6.0246 	 66.7749 	 52.3533 	 
H 	 -7.76107 	 66.1305 	 51.3369 	 
C 	 -6.85366 	 63.4409 	 50.9033 	 
H 	 -7.86446 	 63.4524 	 51.1827 	 
H 	 -6.45076 	 62.4907 	 51.377 	 
C 	 -6.68753 	 63.2611 	 49.4145 	 
H 	 -5.57744 	 63.2621 	 49.3074 	 
H 	 -7.07896 	 62.3642 	 48.9781 	 
C 	 -7.28922 	 64.4423 	 48.5425 	 
H 	 -6.76866 	 64.4708 	 47.5981 	 
H 	 -8.31431 	 64.2713 	 48.3021 	 
H 	 -7.15735 	 65.4272 	 49.0619 	 
S 	 -5.16717 	 69.4009 	 52.0797 	 
C 	 -6.14242 	 70.6519 	 52.7568 	 
C 	 -7.38959 	 70.1759 	 53.2098 	 
C 	 -7.47423 	 68.7699 	 53.1431 	 
C 	 -6.34132 	 68.1408 	 52.6048 	 
H 	 -8.07702 	 70.8994 	 53.5634 	 
C 	 -8.68166 	 67.9882 	 53.7827 	 
H 	 -8.41284 	 67.3188 	 54.5884 	 
H 	 -8.93395 	 67.2147 	 52.9926 	 
C 	 -9.95946 	 68.8435 	 54.1165 	 
H 	 -10.3774 	 69.3883 	 53.2475 	 
H 	 -9.90011 	 69.5552 	 54.9658 	 
C 	 -11.1586 	 67.8778 	 54.3775 	 
H 	 -12.033 	 68.4843 	 54.4893 	 
H 	 -11.0306 	 67.2681 	 55.3001 	 
H 	 -11.3315 	 67.2589 	 53.4572 	 
H 	 -4.33549 	 63.5946 	 52.2723 	 
H 	 -5.91862 	 71.6916 	 52.7282 	 
*
