! wB97X-D3 SP def2-SVP
%pal
nprocs 16
end

* xyz 0 1
S 	 -84.698 	 53.0584 	 134.848 	 
C 	 -85.0329 	 54.2476 	 136.096 	 
C 	 -83.9196 	 54.4616 	 136.905 	 
C 	 -82.7941 	 53.7637 	 136.405 	 
C 	 -83.0478 	 52.8527 	 135.386 	 
H 	 -81.7917 	 53.8357 	 136.814 	 
C 	 -83.8269 	 55.4998 	 138.005 	 
H 	 -83.1802 	 56.2537 	 137.787 	 
H 	 -83.4541 	 54.9267 	 138.832 	 
C 	 -85.1586 	 56.1495 	 138.54 	 
H 	 -85.7064 	 56.5387 	 137.685 	 
H 	 -85.8447 	 55.2957 	 138.878 	 
C 	 -84.9574 	 57.2481 	 139.55 	 
H 	 -84.6523 	 58.2161 	 139.061 	 
H 	 -85.8475 	 57.4112 	 140.095 	 
H 	 -84.1266 	 57.0329 	 140.283 	 
S 	 -82.0933 	 52.1165 	 132.813 	 
C 	 -80.4395 	 51.5065 	 132.831 	 
C 	 -80.058 	 50.9896 	 134.028 	 
C 	 -80.9785 	 51.3836 	 135.048 	 
C 	 -82.039 	 52.1387 	 134.577 	 
H 	 -79.177 	 50.3259 	 134.075 	 
C 	 -80.693 	 51.0098 	 136.535 	 
H 	 -80.9026 	 49.9257 	 136.578 	 
H 	 -81.4248 	 51.4477 	 137.154 	 
C 	 -79.1911 	 51.1749 	 136.954 	 
H 	 -78.685 	 50.6085 	 136.263 	 
H 	 -79.2147 	 50.7042 	 137.948 	 
C 	 -78.6062 	 52.6023 	 136.977 	 
H 	 -77.882 	 52.5703 	 137.729 	 
H 	 -79.3794 	 53.3826 	 137.242 	 
H 	 -78.2838 	 52.6924 	 135.962 	 
H 	 -85.9459 	 54.7873 	 136.285 	 
H 	 -79.9762 	 51.1634 	 131.94 	 
*
