! wB97X-D3 SP def2-SVP
%pal
nprocs 16
end

* xyz 0 1
S 	 -68.5551 	 37.397 	 141.027 	 
C 	 -69.3854 	 36.0805 	 141.781 	 
C 	 -68.4805 	 35.3194 	 142.525 	 
C 	 -67.1353 	 35.7309 	 142.301 	 
C 	 -67.0132 	 36.8437 	 141.498 	 
H 	 -66.2873 	 35.3028 	 142.758 	 
C 	 -68.7786 	 34.0413 	 143.257 	 
H 	 -69.4727 	 33.4566 	 142.695 	 
H 	 -69.3317 	 34.3664 	 144.114 	 
C 	 -67.6595 	 33.1942 	 143.728 	 
H 	 -67.0164 	 33.7559 	 144.508 	 
H 	 -68.1453 	 32.441 	 144.376 	 
C 	 -66.9324 	 32.3072 	 142.713 	 
H 	 -65.952 	 32.0381 	 143.07 	 
H 	 -67.6175 	 31.421 	 142.416 	 
H 	 -66.6849 	 32.8437 	 141.825 	 
S 	 -65.7811 	 39.3068 	 141.749 	 
C 	 -64.2152 	 39.5414 	 141.015 	 
C 	 -63.623 	 38.4002 	 140.676 	 
C 	 -64.5192 	 37.2648 	 140.859 	 
C 	 -65.7558 	 37.6106 	 141.269 	 
H 	 -62.5862 	 38.4195 	 140.312 	 
C 	 -64.0019 	 35.8503 	 140.55 	 
H 	 -64.3398 	 35.3704 	 141.504 	 
H 	 -62.9304 	 35.8332 	 140.798 	 
C 	 -64.3351 	 35.2267 	 139.238 	 
H 	 -63.8872 	 34.2565 	 139.078 	 
H 	 -64.0049 	 35.8531 	 138.478 	 
C 	 -65.871 	 35.0521 	 138.994 	 
H 	 -66.0054 	 34.4811 	 138.057 	 
H 	 -66.4991 	 35.949 	 138.738 	 
H 	 -66.3495 	 34.5368 	 139.791 	 
H 	 -70.3806 	 35.8765 	 141.874 	 
H 	 -63.7221 	 40.484 	 140.976 	 
*
