! wB97X-D3 SP def2-SVP
%pal
nprocs 16
end

* xyz 0 1
S 	 -35.587 	 66.6036 	 143.011 	 
C 	 -34.0342 	 66.2014 	 142.261 	 
C 	 -33.128 	 65.6393 	 143.167 	 
C 	 -33.6537 	 65.5073 	 144.48 	 
C 	 -35.0115 	 65.8279 	 144.493 	 
H 	 -33.2342 	 65.3152 	 145.464 	 
C 	 -31.7751 	 65.0938 	 142.821 	 
H 	 -31.6698 	 64.9343 	 141.76 	 
H 	 -31.8707 	 64.0934 	 143.317 	 
C 	 -30.6109 	 65.9265 	 143.332 	 
H 	 -30.8695 	 65.9655 	 144.379 	 
H 	 -29.6886 	 65.408 	 143.155 	 
C 	 -30.4008 	 67.2682 	 142.681 	 
H 	 -31.4178 	 67.6723 	 142.669 	 
H 	 -29.8837 	 67.9541 	 143.372 	 
H 	 -30.1017 	 67.2068 	 141.649 	 
S 	 -36.2237 	 64.3757 	 146.362 	 
C 	 -37.2921 	 65.2042 	 147.555 	 
C 	 -37.2906 	 66.5653 	 147.432 	 
C 	 -36.4472 	 67.0178 	 146.366 	 
C 	 -35.8785 	 65.9359 	 145.67 	 
H 	 -37.9226 	 67.1812 	 148.141 	 
C 	 -36.2075 	 68.471 	 146.045 	 
H 	 -36.9227 	 69.1074 	 146.585 	 
H 	 -36.6433 	 68.5254 	 145.053 	 
C 	 -34.7796 	 68.9904 	 146.269 	 
H 	 -33.9634 	 68.3459 	 145.705 	 
H 	 -34.5929 	 68.9795 	 147.402 	 
C 	 -34.8754 	 70.4892 	 145.856 	 
H 	 -33.9405 	 71.0113 	 146.054 	 
H 	 -35.6496 	 70.9054 	 146.572 	 
H 	 -35.2165 	 70.6408 	 144.815 	 
H 	 -33.7274 	 66.3795 	 141.228 	 
H 	 -37.9078 	 64.7007 	 148.333 	 
*
