! wB97X-D3 SP def2-SVP
%pal
nprocs 16
end

* xyz 0 1
S 	 -36.0005 	 74.6772 	 152.487 	 
C 	 -35.3872 	 76.0614 	 151.633 	 
C 	 -34.5309 	 75.8038 	 150.542 	 
C 	 -34.2773 	 74.393 	 150.468 	 
C 	 -35.0838 	 73.673 	 151.335 	 
H 	 -33.5814 	 73.9075 	 149.763 	 
C 	 -33.8299 	 76.9208 	 149.753 	 
H 	 -33.0183 	 77.2446 	 150.339 	 
H 	 -34.6418 	 77.6755 	 149.755 	 
C 	 -33.5747 	 76.7215 	 148.211 	 
H 	 -32.6855 	 76.0621 	 148.074 	 
H 	 -34.2924 	 76.1143 	 147.753 	 
C 	 -33.3652 	 78.0293 	 147.409 	 
H 	 -32.3717 	 78.4559 	 147.46 	 
H 	 -33.5686 	 77.7724 	 146.372 	 
H 	 -34.0075 	 78.8764 	 147.822 	 
S 	 -35.3441 	 71.2674 	 150.058 	 
C 	 -35.1779 	 69.8497 	 151.02 	 
C 	 -34.8997 	 70.1031 	 152.376 	 
C 	 -34.8507 	 71.4981 	 152.642 	 
C 	 -35.0515 	 72.2333 	 151.474 	 
H 	 -34.8089 	 69.2233 	 152.998 	 
C 	 -34.6539 	 71.9369 	 154.056 	 
H 	 -35.6086 	 71.9877 	 154.562 	 
H 	 -34.1969 	 72.8939 	 154.081 	 
C 	 -33.7496 	 71.0675 	 154.982 	 
H 	 -32.7554 	 70.9964 	 154.564 	 
H 	 -34.2308 	 70.1186 	 155.186 	 
C 	 -33.6462 	 71.8071 	 156.323 	 
H 	 -33.231 	 71.2925 	 157.191 	 
H 	 -34.6501 	 71.9999 	 156.674 	 
H 	 -33.0484 	 72.716 	 156.104 	 
H 	 -35.6097 	 77.1125 	 151.811 	 
H 	 -35.2104 	 68.9259 	 150.594 	 
*
