! wB97X-D3 SP def2-SVP
%pal
nprocs 16
end

* xyz 0 1
S 	 13.9345 	 1.89535 	 84.1804 	 
C 	 14.4983 	 2.66956 	 82.7366 	 
C 	 14.8041 	 4.01161 	 82.9671 	 
C 	 14.6456 	 4.30816 	 84.376 	 
C 	 14.259 	 3.22445 	 85.1594 	 
H 	 14.6928 	 5.24811 	 84.9296 	 
C 	 15.0306 	 5.03636 	 81.9265 	 
H 	 14.9551 	 4.51259 	 80.9213 	 
H 	 16.0678 	 5.41594 	 82.0319 	 
C 	 14.1121 	 6.2858 	 81.8939 	 
H 	 14.1106 	 6.7808 	 82.8309 	 
H 	 14.4411 	 6.99408 	 81.1103 	 
C 	 12.6232 	 6.02883 	 81.5992 	 
H 	 12.3362 	 5.20818 	 80.9315 	 
H 	 12.197 	 5.66515 	 82.559 	 
H 	 12.0889 	 6.91555 	 81.2721 	 
S 	 15.3771 	 3.62627 	 87.6005 	 
C 	 14.547 	 2.87237 	 88.8815 	 
C 	 13.1918 	 2.69095 	 88.6065 	 
C 	 12.8501 	 2.9151 	 87.2802 	 
C 	 13.9861 	 3.25157 	 86.5725 	 
H 	 12.5563 	 2.2294 	 89.3052 	 
C 	 11.5237 	 2.58274 	 86.7521 	 
H 	 11.1747 	 1.54206 	 87.0467 	 
H 	 11.5831 	 2.7133 	 85.6961 	 
C 	 10.5492 	 3.75337 	 87.2324 	 
H 	 10.9447 	 4.65826 	 86.9359 	 
H 	 10.4056 	 3.85909 	 88.2876 	 
C 	 9.2161 	 3.67575 	 86.4287 	 
H 	 8.86105 	 2.58614 	 86.4727 	 
H 	 9.58544 	 3.87469 	 85.387 	 
H 	 8.3906 	 4.33586 	 86.6833 	 
H 	 14.4117 	 2.17376 	 81.7828 	 
H 	 14.8646 	 2.70226 	 89.8734 	 
*
