! wB97X-D3 SP def2-SVP
%pal
nprocs 16
end

* xyz 0 1
S 	 -0.942224 	 46.2685 	 34.2488 	 
C 	 -1.20875 	 45.5489 	 35.8417 	 
C 	 -0.031959 	 45.451 	 36.5722 	 
C 	 1.06627 	 46.09 	 35.8756 	 
C 	 0.718 	 46.6167 	 34.6555 	 
H 	 2.10413 	 46.2151 	 36.2933 	 
C 	 0.111904 	 44.7943 	 37.8893 	 
H 	 0.291653 	 45.6565 	 38.527 	 
H 	 1.03673 	 44.2163 	 37.7004 	 
C 	 -0.893314 	 43.7582 	 38.2895 	 
H 	 -1.91856 	 44.2414 	 38.4021 	 
H 	 -0.864353 	 42.9092 	 37.5874 	 
C 	 -0.498377 	 43.2447 	 39.6675 	 
H 	 0.466806 	 42.6695 	 39.6878 	 
H 	 -0.305998 	 43.9697 	 40.3979 	 
H 	 -1.26413 	 42.564 	 40.0931 	 
S 	 1.41555 	 46.7227 	 31.9422 	 
C 	 2.61314 	 47.9331 	 31.4963 	 
C 	 3.10059 	 48.5992 	 32.5566 	 
C 	 2.64508 	 48.0769 	 33.8417 	 
C 	 1.64359 	 47.1299 	 33.6769 	 
H 	 3.79728 	 49.3919 	 32.4201 	 
C 	 3.01774 	 48.7592 	 35.1625 	 
H 	 3.84276 	 49.4207 	 35.0619 	 
H 	 3.46756 	 48.0368 	 35.8153 	 
C 	 1.96495 	 49.6049 	 35.8055 	 
H 	 2.35649 	 50.128 	 36.6556 	 
H 	 1.24681 	 48.8777 	 36.2011 	 
C 	 1.49954 	 50.709 	 34.8415 	 
H 	 0.890939 	 51.3952 	 35.3304 	 
H 	 0.934257 	 50.3023 	 33.9969 	 
H 	 2.32774 	 51.2261 	 34.2801 	 
H 	 -2.19899 	 45.1104 	 36.0821 	 
H 	 2.79119 	 48.2041 	 30.474 	 
*
