! wB97X-D3 SP def2-SVP
%pal
nprocs 16
end

* xyz 0 1
S 	 -69.2303 	 53.8327 	 124.858 	 
C 	 -69.6067 	 54.8154 	 126.243 	 
C 	 -70.4335 	 55.8793 	 125.873 	 
C 	 -70.7538 	 55.7979 	 124.447 	 
C 	 -70.3018 	 54.6974 	 123.797 	 
H 	 -71.4345 	 56.4619 	 124.03 	 
C 	 -70.9544 	 56.9541 	 126.794 	 
H 	 -71.1456 	 57.8762 	 126.245 	 
H 	 -70.1319 	 57.1102 	 127.484 	 
C 	 -72.2571 	 56.4782 	 127.497 	 
H 	 -72.9767 	 56.4 	 126.672 	 
H 	 -72.1407 	 55.5131 	 128.067 	 
C 	 -72.7386 	 57.5857 	 128.533 	 
H 	 -71.945 	 58.006 	 129.127 	 
H 	 -73.325 	 58.322 	 128.079 	 
H 	 -73.3534 	 57.1472 	 129.297 	 
S 	 -69.1696 	 53.97 	 121.344 	 
C 	 -70.2954 	 53.5518 	 120.049 	 
C 	 -71.5737 	 53.6393 	 120.529 	 
C 	 -71.7266 	 54.2948 	 121.767 	 
C 	 -70.5555 	 54.2892 	 122.445 	 
H 	 -72.3339 	 53.4256 	 119.781 	 
C 	 -73.1548 	 54.6346 	 122.158 	 
H 	 -73.8857 	 54.625 	 121.375 	 
H 	 -73.0884 	 55.6665 	 122.398 	 
C 	 -73.8671 	 53.9672 	 123.427 	 
H 	 -73.2741 	 53.9386 	 124.304 	 
H 	 -74.011 	 52.9328 	 123.13 	 
C 	 -75.3363 	 54.3625 	 123.657 	 
H 	 -75.9549 	 54.0285 	 122.813 	 
H 	 -75.3693 	 55.4192 	 123.759 	 
H 	 -75.7044 	 54.0983 	 124.661 	 
H 	 -69.271 	 54.7106 	 127.24 	 
H 	 -70.0672 	 53.219 	 119.089 	 
*
