! wB97X-D3 SP def2-SVP
%pal
nprocs 16
end

* xyz 0 1
S 	 -9.70556 	 60.5781 	 61.1931 	 
C 	 -9.77439 	 58.8943 	 61.598 	 
C 	 -11.1024 	 58.4074 	 61.562 	 
C 	 -11.991 	 59.4369 	 61.2444 	 
C 	 -11.3947 	 60.6478 	 61.16 	 
H 	 -13.0295 	 59.2459 	 61.0738 	 
C 	 -11.5491 	 57.003 	 61.766 	 
H 	 -10.8742 	 56.4085 	 61.123 	 
H 	 -12.5827 	 56.7718 	 61.3679 	 
C 	 -11.5571 	 56.4758 	 63.2142 	 
H 	 -12.1557 	 55.568 	 63.181 	 
H 	 -10.5544 	 56.316 	 63.5571 	 
C 	 -12.3812 	 57.2692 	 64.1965 	 
H 	 -11.8504 	 58.1779 	 64.4002 	 
H 	 -13.3375 	 57.6484 	 63.8527 	 
H 	 -12.6096 	 56.8006 	 65.0946 	 
S 	 -12.986 	 62.4042 	 62.5065 	 
C 	 -13.9823 	 63.5184 	 61.5323 	 
C 	 -13.6565 	 63.523 	 60.2248 	 
C 	 -12.6132 	 62.5568 	 59.8899 	 
C 	 -12.1449 	 61.868 	 61.0191 	 
H 	 -14.158 	 64.1551 	 59.5013 	 
C 	 -12.2115 	 62.2622 	 58.4559 	 
H 	 -13.0949 	 62.2398 	 57.794 	 
H 	 -11.9022 	 61.2265 	 58.6433 	 
C 	 -11.0303 	 63.0835 	 57.8531 	 
H 	 -11.4656 	 64.1088 	 57.7492 	 
H 	 -10.9363 	 62.5823 	 56.8944 	 
C 	 -9.68602 	 63.0721 	 58.6572 	 
H 	 -9.74092 	 63.5296 	 59.6944 	 
H 	 -8.93352 	 63.4694 	 58.0183 	 
H 	 -9.38018 	 62.0134 	 58.8169 	 
H 	 -9.02697 	 58.1661 	 61.6256 	 
H 	 -14.6428 	 64.306 	 61.8206 	 
*
