! wB97X-D3 SP def2-SVP
%pal
nprocs 16
end

* xyz 0 1
S 	 -37.2346 	 40.6743 	 96.3362 	 
C 	 -36.1047 	 40.4928 	 94.9345 	 
C 	 -35.034 	 39.7274 	 95.2917 	 
C 	 -35.175 	 39.218 	 96.6402 	 
C 	 -36.3182 	 39.5961 	 97.283 	 
H 	 -34.4941 	 38.5999 	 97.1204 	 
C 	 -33.9125 	 39.4147 	 94.3517 	 
H 	 -34.0645 	 39.7257 	 93.3676 	 
H 	 -33.6557 	 38.2942 	 94.3846 	 
C 	 -32.5417 	 39.9942 	 94.6991 	 
H 	 -32.6451 	 41.0105 	 94.6485 	 
H 	 -32.3038 	 39.6056 	 95.6981 	 
C 	 -31.2868 	 39.6182 	 93.8019 	 
H 	 -31.2338 	 40.0694 	 92.8427 	 
H 	 -30.3416 	 39.8855 	 94.3095 	 
H 	 -31.2497 	 38.587 	 93.5486 	 
S 	 -37.2854 	 40.6603 	 99.6632 	 
C 	 -37.3158 	 39.6406 	 101.094 	 
C 	 -36.9302 	 38.3766 	 100.859 	 
C 	 -36.5309 	 38.2373 	 99.4861 	 
C 	 -36.722 	 39.3477 	 98.6904 	 
H 	 -36.9367 	 37.6724 	 101.658 	 
C 	 -36.0723 	 36.8635 	 98.997 	 
H 	 -35.938 	 36.1845 	 99.8795 	 
H 	 -35.1218 	 36.9693 	 98.5184 	 
C 	 -37.0367 	 36.1864 	 97.9966 	 
H 	 -37.4012 	 36.8725 	 97.2308 	 
H 	 -37.9756 	 35.9464 	 98.4816 	 
C 	 -36.3808 	 34.9614 	 97.3599 	 
H 	 -35.9615 	 34.3717 	 98.2275 	 
H 	 -35.4333 	 35.1609 	 96.8699 	 
H 	 -37.0274 	 34.3401 	 96.8582 	 
H 	 -36.2428 	 41.0869 	 94.0602 	 
H 	 -37.5752 	 39.9761 	 102.078 	 
*
