! wB97X-D3 SP def2-SVP
%pal
nprocs 16
end

* xyz 0 1
S 	 31.665 	 -4.36142 	 75.5061 	 
C 	 33.1773 	 -3.61625 	 76.1598 	 
C 	 32.9499 	 -2.90313 	 77.3332 	 
C 	 31.6136 	 -3.1793 	 77.8109 	 
C 	 30.8798 	 -4.07364 	 77.0554 	 
H 	 31.084 	 -2.81023 	 78.6604 	 
C 	 33.9469 	 -1.97694 	 78.1885 	 
H 	 33.7633 	 -0.933804 	 77.9704 	 
H 	 34.9816 	 -2.1494 	 77.7568 	 
C 	 34.211 	 -2.27261 	 79.6966 	 
H 	 34.1491 	 -3.36355 	 79.8877 	 
H 	 35.2914 	 -2.07301 	 79.7868 	 
C 	 33.3874 	 -1.40866 	 80.6683 	 
H 	 33.4948 	 -1.88856 	 81.6727 	 
H 	 33.8289 	 -0.420379 	 80.5241 	 
H 	 32.336 	 -1.38366 	 80.2644 	 
S 	 28.2863 	 -4.22288 	 76.2405 	 
C 	 27.0098 	 -5.0024 	 77.1848 	 
C 	 27.6084 	 -5.451 	 78.3799 	 
C 	 29.0443 	 -5.23406 	 78.454 	 
C 	 29.5243 	 -4.50793 	 77.3876 	 
H 	 26.9945 	 -5.96926 	 79.1863 	 
C 	 29.8916 	 -5.73881 	 79.6459 	 
H 	 29.2045 	 -6.21971 	 80.3785 	 
H 	 30.2868 	 -4.78964 	 80.2205 	 
C 	 30.9851 	 -6.79749 	 79.3724 	 
H 	 31.413 	 -7.08865 	 80.3583 	 
H 	 31.8246 	 -6.24689 	 78.8011 	 
C 	 30.444 	 -8.10988 	 78.8042 	 
H 	 29.64 	 -7.83283 	 78.1072 	 
H 	 30.0857 	 -8.78623 	 79.5802 	 
H 	 31.2106 	 -8.54676 	 78.2024 	 
H 	 34.1805 	 -3.54118 	 75.6873 	 
H 	 25.9439 	 -5.06667 	 77.0322 	 
*
