! wB97X-D3 SP def2-SVP
%pal
nprocs 16
end

* xyz 0 1
S 	 6.08541 	 23.4351 	 63.6992 	 
C 	 7.60441 	 23.1073 	 64.5097 	 
C 	 7.95519 	 24.1501 	 65.3397 	 
C 	 7.10953 	 25.2973 	 65.2596 	 
C 	 6.10702 	 25.1132 	 64.3668 	 
H 	 7.17522 	 26.1113 	 65.9821 	 
C 	 9.04964 	 24.0662 	 66.3615 	 
H 	 9.56115 	 25.0122 	 66.391 	 
H 	 9.75979 	 23.3049 	 65.9464 	 
C 	 8.63191 	 23.4785 	 67.7658 	 
H 	 9.5383 	 23.5866 	 68.387 	 
H 	 7.83562 	 24.1619 	 68.1209 	 
C 	 8.2673 	 22.0629 	 67.6305 	 
H 	 8.16102 	 21.5447 	 68.5723 	 
H 	 7.37403 	 21.9866 	 67.1305 	 
H 	 8.90726 	 21.4913 	 66.9053 	 
S 	 4.02637 	 26.6118 	 65.3988 	 
C 	 2.8577 	 27.4621 	 64.4464 	 
C 	 3.03607 	 27.0731 	 63.1499 	 
C 	 4.27022 	 26.3382 	 62.9066 	 
C 	 5.00467 	 26.0555 	 64.0527 	 
H 	 2.31376 	 27.4392 	 62.4353 	 
C 	 4.75853 	 26.009 	 61.5282 	 
H 	 5.83331 	 25.7391 	 61.5487 	 
H 	 4.89075 	 27.0798 	 61.1445 	 
C 	 3.87427 	 24.9709 	 60.7623 	 
H 	 2.83613 	 25.36 	 60.791 	 
H 	 3.81473 	 24.0556 	 61.4641 	 
C 	 4.43344 	 24.5949 	 59.3746 	 
H 	 3.68131 	 24.1138 	 58.732 	 
H 	 5.24869 	 23.935 	 59.4101 	 
H 	 4.72256 	 25.5242 	 58.9164 	 
H 	 8.05742 	 22.1326 	 64.6284 	 
H 	 1.86234 	 27.8857 	 64.7058 	 
*
