! wB97X-D3 SP def2-SVP
%pal
nprocs 16
end

* xyz 0 1
S 	 -64.0738 	 34.1626 	 116.278 	 
C 	 -64.3068 	 33.8139 	 118.015 	 
C 	 -64.6589 	 34.9495 	 118.707 	 
C 	 -64.6241 	 36.1391 	 117.884 	 
C 	 -64.2806 	 35.861 	 116.557 	 
H 	 -64.8017 	 37.0685 	 118.199 	 
C 	 -64.9828 	 35.0398 	 120.138 	 
H 	 -64.0563 	 35.0063 	 120.727 	 
H 	 -65.4462 	 34.1476 	 120.495 	 
C 	 -65.8678 	 36.2372 	 120.595 	 
H 	 -66.0496 	 36.1203 	 121.728 	 
H 	 -65.4214 	 37.1478 	 120.46 	 
C 	 -67.3203 	 36.2763 	 120.025 	 
H 	 -67.5028 	 37.2761 	 119.69 	 
H 	 -67.3662 	 35.5998 	 119.145 	 
H 	 -68.0524 	 35.8194 	 120.667 	 
S 	 -62.6884 	 37.527 	 115.016 	 
C 	 -63.3549 	 38.7765 	 114.083 	 
C 	 -64.6948 	 38.8395 	 114.344 	 
C 	 -65.2051 	 37.7194 	 115.063 	 
C 	 -64.2535 	 36.863 	 115.506 	 
H 	 -65.2126 	 39.5756 	 113.859 	 
C 	 -66.6541 	 37.749 	 115.524 	 
H 	 -66.8142 	 36.9164 	 116.284 	 
H 	 -67.341 	 37.5315 	 114.712 	 
C 	 -67.1062 	 39.1191 	 116.181 	 
H 	 -68.1499 	 39.0439 	 116.631 	 
H 	 -67.0731 	 39.8376 	 115.363 	 
C 	 -66.2251 	 39.5401 	 117.326 	 
H 	 -65.1553 	 39.498 	 117.15 	 
H 	 -66.2556 	 39.0004 	 118.307 	 
H 	 -66.5849 	 40.538 	 117.538 	 
H 	 -64.4991 	 32.866 	 118.456 	 
H 	 -62.8451 	 39.6803 	 113.588 	 
*
