! wB97X-D3 SP def2-SVP
%pal
nprocs 16
end

* xyz 0 1
S 	 -25.2002 	 48.7692 	 68.6659 	 
C 	 -24.5444 	 49.2678 	 67.117 	 
C 	 -23.2266 	 49.7118 	 67.2662 	 
C 	 -22.7697 	 49.6331 	 68.6265 	 
C 	 -23.6205 	 48.8596 	 69.4085 	 
H 	 -21.9042 	 50.0886 	 69.1214 	 
C 	 -22.4745 	 50.6717 	 66.2655 	 
H 	 -22.5456 	 51.6826 	 66.6254 	 
H 	 -22.9085 	 50.6153 	 65.3011 	 
C 	 -20.9531 	 50.6509 	 66.2531 	 
H 	 -20.6111 	 51.4783 	 65.5777 	 
H 	 -20.491 	 50.9471 	 67.2333 	 
C 	 -20.4142 	 49.2084 	 65.841 	 
H 	 -20.7736 	 48.9861 	 64.8197 	 
H 	 -19.2845 	 49.16 	 65.8129 	 
H 	 -20.8367 	 48.4145 	 66.4179 	 
S 	 -24.0986 	 49.3174 	 72.0356 	 
C 	 -22.8922 	 48.8432 	 73.1691 	 
C 	 -21.9458 	 48.082 	 72.5392 	 
C 	 -22.2068 	 47.7012 	 71.1615 	 
C 	 -23.3415 	 48.4137 	 70.7423 	 
H 	 -21.0239 	 47.8627 	 73.0887 	 
C 	 -21.2685 	 46.8542 	 70.2874 	 
H 	 -21.1209 	 47.3276 	 69.3383 	 
H 	 -21.7758 	 45.9004 	 70.1204 	 
C 	 -19.8606 	 46.5195 	 70.9403 	 
H 	 -19.9424 	 46.0765 	 71.8713 	 
H 	 -19.2928 	 47.4006 	 71.0667 	 
C 	 -19.0605 	 45.5583 	 70.1741 	 
H 	 -18.7479 	 45.834 	 69.1574 	 
H 	 -19.655 	 44.6274 	 70.3017 	 
H 	 -18.1201 	 45.3466 	 70.6864 	 
H 	 -25.0001 	 49.571 	 66.1503 	 
H 	 -22.8423 	 49.2906 	 74.1805 	 
*
