! wB97X-D3 SP def2-SVP
%pal
nprocs 16
end

* xyz 0 1
S 	 29.976 	 -9.37783 	 81.9648 	 
C 	 31.2193 	 -8.22592 	 81.6136 	 
C 	 30.7109 	 -6.9481 	 81.4506 	 
C 	 29.2748 	 -6.96 	 81.5237 	 
C 	 28.6954 	 -8.13751 	 81.8831 	 
H 	 28.7187 	 -6.03578 	 81.3153 	 
C 	 31.5638 	 -5.8121 	 80.8851 	 
H 	 31.2036 	 -5.4884 	 79.8538 	 
H 	 32.6091 	 -6.18647 	 80.6892 	 
C 	 31.8614 	 -4.57205 	 81.7811 	 
H 	 32.2045 	 -4.76956 	 82.7526 	 
H 	 32.6731 	 -3.87574 	 81.3952 	 
C 	 30.5836 	 -3.69365 	 81.9904 	 
H 	 29.7696 	 -4.04523 	 82.6102 	 
H 	 30.8955 	 -2.83699 	 82.5688 	 
H 	 30.1124 	 -3.36115 	 81.1119 	 
S 	 26.7756 	 -10.2103 	 82.0869 	 
C 	 25.1311 	 -9.81169 	 82.1135 	 
C 	 24.9677 	 -8.47252 	 82.3739 	 
C 	 26.1226 	 -7.74204 	 82.4845 	 
C 	 27.2535 	 -8.49596 	 82.1375 	 
H 	 23.9874 	 -8.08959 	 82.5386 	 
C 	 26.0623 	 -6.22724 	 82.7661 	 
H 	 25.0375 	 -5.90849 	 82.9746 	 
H 	 26.3651 	 -5.64478 	 81.9109 	 
C 	 26.7767 	 -5.6601 	 84.0178 	 
H 	 26.5169 	 -4.63493 	 84.2686 	 
H 	 27.8487 	 -5.86209 	 83.8358 	 
C 	 26.5023 	 -6.43034 	 85.3155 	 
H 	 26.9893 	 -7.41036 	 85.1761 	 
H 	 25.527 	 -6.69283 	 85.5541 	 
H 	 27.0613 	 -6.01533 	 86.2008 	 
H 	 32.2154 	 -8.42712 	 81.6694 	 
H 	 24.3127 	 -10.4659 	 81.938 	 
*
