! wB97X-D3 SP def2-SVP
%pal
nprocs 16
end

* xyz 0 1
S 	 36.9544 	 28.8262 	 92.09 	 
C 	 35.8658 	 30.142 	 92.437 	 
C 	 34.8721 	 29.7576 	 93.3245 	 
C 	 34.9936 	 28.3837 	 93.6604 	 
C 	 35.9082 	 27.681 	 92.9142 	 
H 	 34.4961 	 27.7646 	 94.3957 	 
C 	 33.7083 	 30.6897 	 93.7802 	 
H 	 34.1141 	 31.6643 	 93.816 	 
H 	 33.5191 	 30.4953 	 94.8353 	 
C 	 32.3959 	 30.7252 	 93.0287 	 
H 	 31.9873 	 29.7369 	 93.1301 	 
H 	 31.7136 	 31.3515 	 93.5191 	 
C 	 32.4014 	 31.1031 	 91.5655 	 
H 	 32.8795 	 30.425 	 90.8717 	 
H 	 31.3608 	 31.2711 	 91.2174 	 
H 	 32.8829 	 32.0446 	 91.3936 	 
S 	 36.7079 	 25.6645 	 94.5372 	 
C 	 36.8529 	 23.9892 	 93.8738 	 
C 	 36.575 	 23.99 	 92.5222 	 
C 	 36.2157 	 25.2466 	 91.9838 	 
C 	 36.1411 	 26.2411 	 92.9686 	 
H 	 36.7673 	 23.0136 	 91.9829 	 
C 	 35.8336 	 25.5017 	 90.5078 	 
H 	 36.705 	 26.2369 	 90.2377 	 
H 	 34.901 	 26.1162 	 90.4093 	 
C 	 35.7721 	 24.2809 	 89.529 	 
H 	 34.828 	 23.8594 	 89.7925 	 
H 	 36.5919 	 23.5915 	 89.7668 	 
C 	 35.8603 	 24.6849 	 88.0753 	 
H 	 36.8893 	 24.6133 	 87.8356 	 
H 	 35.4834 	 25.6468 	 87.6972 	 
H 	 35.3373 	 23.893 	 87.5326 	 
H 	 35.8969 	 31.0933 	 91.91 	 
H 	 37.2081 	 23.056 	 94.3929 	 
*
