! wB97X-D3 SP def2-SVP
%pal
nprocs 16
end

* xyz 0 1
S 	 -16.019 	 50.1608 	 44.4479 	 
C 	 -16.9616 	 50.3742 	 42.9754 	 
C 	 -16.4319 	 49.687 	 41.9185 	 
C 	 -15.2946 	 48.8604 	 42.3368 	 
C 	 -14.9141 	 49.0651 	 43.6385 	 
H 	 -14.7705 	 48.0875 	 41.7433 	 
C 	 -16.7946 	 49.7549 	 40.4468 	 
H 	 -15.9318 	 50.2721 	 39.9845 	 
H 	 -17.7395 	 50.2623 	 40.3925 	 
C 	 -16.8346 	 48.4029 	 39.7472 	 
H 	 -15.8004 	 48.0013 	 39.5858 	 
H 	 -17.3919 	 47.5996 	 40.237 	 
C 	 -17.2503 	 48.4844 	 38.3419 	 
H 	 -18.3527 	 48.7626 	 38.45 	 
H 	 -16.6705 	 49.2307 	 37.7613 	 
H 	 -16.9468 	 47.5312 	 37.9873 	 
S 	 -14.4324 	 46.8956 	 45.2113 	 
C 	 -12.8395 	 46.2782 	 45.3195 	 
C 	 -11.9728 	 47.2193 	 44.83 	 
C 	 -12.5194 	 48.4089 	 44.3681 	 
C 	 -13.8873 	 48.321 	 44.3442 	 
H 	 -10.9436 	 47.0427 	 45.0313 	 
C 	 -11.6343 	 49.5758 	 43.9085 	 
H 	 -10.6407 	 49.3749 	 44.1559 	 
H 	 -11.8469 	 50.5245 	 44.4578 	 
C 	 -11.7687 	 49.9324 	 42.4354 	 
H 	 -11.2667 	 50.8328 	 42.2589 	 
H 	 -12.7762 	 50.1823 	 42.2299 	 
C 	 -11.1803 	 48.8876 	 41.5034 	 
H 	 -10.117 	 48.7892 	 41.6273 	 
H 	 -11.4402 	 49.0489 	 40.4625 	 
H 	 -11.6496 	 47.9512 	 41.7085 	 
H 	 -17.8562 	 50.9659 	 42.9705 	 
H 	 -12.5844 	 45.3462 	 45.8099 	 
*
