! wB97X-D3 SP def2-SVP
%pal
nprocs 16
end

* xyz 0 1
S 	 63.7483 	 18.8846 	 71.397 	 
C 	 63.5695 	 17.4864 	 70.3643 	 
C 	 63.1744 	 16.335 	 71.0386 	 
C 	 62.9283 	 16.6132 	 72.4339 	 
C 	 63.126 	 17.9431 	 72.7541 	 
H 	 62.6073 	 15.907 	 73.2107 	 
C 	 62.9335 	 14.9317 	 70.4231 	 
H 	 62.979 	 15.037 	 69.4074 	 
H 	 61.9313 	 14.542 	 70.6935 	 
C 	 63.9956 	 13.9603 	 70.8682 	 
H 	 63.8471 	 13.9898 	 71.9161 	 
H 	 63.81 	 12.9287 	 70.5284 	 
C 	 65.4846 	 14.2928 	 70.4672 	 
H 	 65.5936 	 14.2636 	 69.3904 	 
H 	 65.714 	 15.2599 	 70.7518 	 
H 	 66.1766 	 13.5841 	 70.9755 	 
S 	 61.7291 	 19.5975 	 74.3496 	 
C 	 62.2196 	 19.8585 	 76.0329 	 
C 	 63.395 	 19.1291 	 76.3222 	 
C 	 63.7915 	 18.24 	 75.2477 	 
C 	 63.0081 	 18.4585 	 74.1148 	 
H 	 63.9424 	 19.1629 	 77.2901 	 
C 	 64.9918 	 17.276 	 75.3165 	 
H 	 65.8784 	 17.9024 	 75.3404 	 
H 	 65.1727 	 16.6586 	 74.4163 	 
C 	 65.0121 	 16.3902 	 76.5336 	 
H 	 64.2104 	 15.678 	 76.5776 	 
H 	 64.9438 	 16.9074 	 77.4489 	 
C 	 66.3942 	 15.6465 	 76.5635 	 
H 	 67.1585 	 16.4309 	 76.4837 	 
H 	 66.4953 	 14.8923 	 75.77 	 
H 	 66.6443 	 15.1277 	 77.4853 	 
H 	 63.7761 	 17.5113 	 69.3486 	 
H 	 61.7438 	 20.3946 	 76.8173 	 
*
