! wB97X-D3 SP def2-SVP
%pal
nprocs 16
end

* xyz 0 1
S 	 -5.68075 	 59.635 	 56.8753 	 
C 	 -5.33743 	 60.5011 	 58.4753 	 
C 	 -6.53131 	 60.9872 	 59.0355 	 
C 	 -7.63898 	 60.8767 	 58.1324 	 
C 	 -7.34523 	 60.2517 	 56.9598 	 
H 	 -8.64788 	 61.0552 	 58.3881 	 
C 	 -6.5736 	 61.4816 	 60.4643 	 
H 	 -7.58108 	 61.3685 	 60.9364 	 
H 	 -6.46064 	 62.6155 	 60.2808 	 
C 	 -5.43609 	 60.9978 	 61.4711 	 
H 	 -5.36832 	 59.885 	 61.455 	 
H 	 -4.44771 	 61.3575 	 61.3123 	 
C 	 -5.8113 	 61.5063 	 62.8706 	 
H 	 -5.45485 	 60.7725 	 63.6168 	 
H 	 -5.39414 	 62.5116 	 63.0416 	 
H 	 -6.94359 	 61.4944 	 62.9988 	 
S 	 -8.53555 	 58.4754 	 55.162 	 
C 	 -9.62675 	 59.1388 	 54.0061 	 
C 	 -9.85272 	 60.4494 	 54.1619 	 
C 	 -8.99819 	 61.005 	 55.1602 	 
C 	 -8.26207 	 60.0578 	 55.8407 	 
H 	 -10.6129 	 60.9242 	 53.4606 	 
C 	 -8.96381 	 62.5128 	 55.449 	 
H 	 -9.34684 	 62.7792 	 56.4087 	 
H 	 -9.6747 	 62.8802 	 54.6898 	 
C 	 -7.56973 	 63.1641 	 55.2588 	 
H 	 -7.20863 	 62.8675 	 54.2834 	 
H 	 -6.906 	 62.8339 	 56.0806 	 
C 	 -7.67484 	 64.6551 	 55.1454 	 
H 	 -8.30849 	 64.9757 	 54.3444 	 
H 	 -6.62941 	 64.9938 	 54.7993 	 
H 	 -8.01737 	 65.0988 	 56.0497 	 
H 	 -4.41201 	 60.4517 	 58.8998 	 
H 	 -9.96884 	 58.6243 	 53.1057 	 
*
