! wB97X-D3 SP def2-SVP
%pal
nprocs 16
end

* xyz 0 1
S 	 -4.89507 	 72.1408 	 45.6524 	 
C 	 -4.72774 	 73.7935 	 46.1626 	 
C 	 -5.82696 	 74.1507 	 46.9522 	 
C 	 -6.89847 	 73.2921 	 46.7282 	 
C 	 -6.55337 	 72.1478 	 45.9765 	 
H 	 -7.89895 	 73.4262 	 47.1885 	 
C 	 -5.88763 	 75.44 	 47.8235 	 
H 	 -5.78807 	 76.3029 	 47.1856 	 
H 	 -4.98548 	 75.5051 	 48.494 	 
C 	 -7.2281 	 75.641 	 48.7307 	 
H 	 -8.09086 	 75.9836 	 48.1088 	 
H 	 -7.41914 	 74.7609 	 49.3069 	 
C 	 -7.02309 	 76.8213 	 49.7249 	 
H 	 -6.25149 	 76.6359 	 50.4787 	 
H 	 -6.6754 	 77.7153 	 49.2755 	 
H 	 -8.00159 	 77.1181 	 50.2636 	 
S 	 -6.90108 	 69.3369 	 46.2234 	 
C 	 -8.3448 	 68.5604 	 45.6596 	 
C 	 -9.23667 	 69.5792 	 45.2176 	 
C 	 -8.74901 	 70.9178 	 45.3113 	 
C 	 -7.42987 	 70.9194 	 45.7343 	 
H 	 -10.2394 	 69.3775 	 44.9489 	 
C 	 -9.58079 	 72.1231 	 44.8922 	 
H 	 -10.1829 	 71.8289 	 43.9927 	 
H 	 -8.9376 	 72.95 	 44.5334 	 
C 	 -10.5452 	 72.5619 	 45.958 	 
H 	 -9.95407 	 72.9507 	 46.7726 	 
H 	 -11.116 	 71.6514 	 46.3448 	 
C 	 -11.5682 	 73.6047 	 45.5366 	 
H 	 -10.9998 	 74.4278 	 45.1016 	 
H 	 -12.1866 	 73.9658 	 46.3518 	 
H 	 -12.2985 	 73.0747 	 44.7971 	 
H 	 -3.81721 	 74.3107 	 46.2911 	 
H 	 -8.47612 	 67.5175 	 45.7007 	 
*
