! wB97X-D3 SP def2-SVP
%pal
nprocs 16
end

* xyz 0 1
S 	 -3.38856 	 -11.1541 	 53.3823 	 
C 	 -4.56766 	 -10.7548 	 52.101 	 
C 	 -4.61048 	 -11.7118 	 51.1284 	 
C 	 -3.64892 	 -12.7045 	 51.3156 	 
C 	 -2.9092 	 -12.5734 	 52.4518 	 
H 	 -3.3685 	 -13.498 	 50.6968 	 
C 	 -5.53343 	 -11.7604 	 49.8601 	 
H 	 -5.31637 	 -10.8654 	 49.286 	 
H 	 -6.52755 	 -11.455 	 50.1844 	 
C 	 -5.54472 	 -13.0568 	 49.0219 	 
H 	 -5.92439 	 -12.8541 	 47.9663 	 
H 	 -4.54532 	 -13.3641 	 48.6556 	 
C 	 -6.17028 	 -14.2996 	 49.7967 	 
H 	 -5.71527 	 -14.2747 	 50.7867 	 
H 	 -7.24973 	 -14.1824 	 49.8721 	 
H 	 -5.88261 	 -15.3093 	 49.3875 	 
S 	 -0.223725 	 -12.9514 	 52.7443 	 
C 	 0.299217 	 -14.4198 	 53.469 	 
C 	 -0.68399 	 -15.2578 	 53.883 	 
C 	 -2.00587 	 -14.7184 	 53.5654 	 
C 	 -1.90031 	 -13.4701 	 52.9715 	 
H 	 -0.494573 	 -16.1933 	 54.3044 	 
C 	 -3.28974 	 -15.5116 	 53.7793 	 
H 	 -3.40664 	 -15.8624 	 52.8352 	 
H 	 -4.23995 	 -14.9429 	 53.9537 	 
C 	 -3.15776 	 -16.7405 	 54.7202 	 
H 	 -3.10277 	 -16.3913 	 55.8258 	 
H 	 -2.27324 	 -17.3282 	 54.6518 	 
C 	 -4.26514 	 -17.7735 	 54.5626 	 
H 	 -5.23295 	 -17.3778 	 54.6165 	 
H 	 -4.13806 	 -18.4261 	 55.3551 	 
H 	 -4.10596 	 -18.2586 	 53.6681 	 
H 	 -5.27333 	 -9.83239 	 52.0017 	 
H 	 1.27569 	 -14.7318 	 53.4354 	 
*
