! wB97X-D3 SP def2-SVP
%pal
nprocs 16
end

* xyz 0 1
S 	 -48.053 	 56.2394 	 96.5586 	 
C 	 -49.4098 	 55.3669 	 97.2568 	 
C 	 -49.0143 	 54.169 	 97.7547 	 
C 	 -47.5994 	 54.1084 	 97.9046 	 
C 	 -46.9618 	 55.1284 	 97.2352 	 
H 	 -47.0583 	 53.3692 	 98.4236 	 
C 	 -49.9337 	 53.0865 	 98.3809 	 
H 	 -50.9014 	 53.5488 	 98.5819 	 
H 	 -49.5715 	 52.9105 	 99.4154 	 
C 	 -49.9104 	 51.8416 	 97.4707 	 
H 	 -50.2733 	 52.0431 	 96.4543 	 
H 	 -48.8314 	 51.4661 	 97.3486 	 
C 	 -50.5951 	 50.6255 	 98.0111 	 
H 	 -51.6226 	 50.9744 	 98.0502 	 
H 	 -50.5149 	 49.7756 	 97.3374 	 
H 	 -50.2023 	 50.283 	 98.9991 	 
S 	 -44.9898 	 55.9962 	 95.6055 	 
C 	 -43.3388 	 56.1109 	 96.0741 	 
C 	 -43.158 	 55.3899 	 97.2281 	 
C 	 -44.4108 	 55.0055 	 97.9249 	 
C 	 -45.5245 	 55.2877 	 97.1423 	 
H 	 -42.155 	 55.239 	 97.5333 	 
C 	 -44.5618 	 54.5133 	 99.369 	 
H 	 -44.2402 	 53.4886 	 99.3693 	 
H 	 -45.6114 	 54.5114 	 99.6189 	 
C 	 -43.6114 	 55.0838 	 100.342 	 
H 	 -42.5297 	 55.09 	 100.122 	 
H 	 -43.7482 	 54.4249 	 101.311 	 
C 	 -44.0583 	 56.4514 	 100.874 	 
H 	 -43.471 	 56.7054 	 101.753 	 
H 	 -45.0713 	 56.3395 	 101.281 	 
H 	 -44.0109 	 57.1773 	 100.095 	 
H 	 -50.4255 	 55.7169 	 97.3131 	 
H 	 -42.4941 	 56.438 	 95.4622 	 
*
