! wB97X-D3 SP def2-SVP
%pal
nprocs 16
end

* xyz 0 1
S 	 -40.1194 	 2.68519 	 98.3492 	 
C 	 -38.4164 	 3.11876 	 98.3209 	 
C 	 -37.8301 	 2.79368 	 97.0916 	 
C 	 -38.7548 	 1.94074 	 96.34 	 
C 	 -40.0253 	 1.73813 	 96.8918 	 
H 	 -38.4999 	 1.53055 	 95.3583 	 
C 	 -36.421 	 3.138 	 96.6631 	 
H 	 -36.3048 	 3.09402 	 95.5402 	 
H 	 -35.7952 	 2.23229 	 96.9052 	 
C 	 -35.8001 	 4.53602 	 97.1314 	 
H 	 -35.7717 	 4.50772 	 98.2394 	 
H 	 -34.7261 	 4.70593 	 96.716 	 
C 	 -36.7224 	 5.69261 	 96.8255 	 
H 	 -37.759 	 5.54603 	 97.1341 	 
H 	 -36.3879 	 6.64328 	 97.2811 	 
H 	 -36.8278 	 5.86743 	 95.6977 	 
S 	 -42.3679 	 2.53893 	 95.59 	 
C 	 -43.3299 	 1.3141 	 94.7498 	 
C 	 -42.8541 	 0.0945591 	 95.0202 	 
C 	 -41.7159 	 0.0816861 	 95.8615 	 
C 	 -41.2586 	 1.29981 	 96.1851 	 
H 	 -43.3496 	 -0.69721 	 94.4243 	 
C 	 -41.1656 	 -1.26405 	 96.3461 	 
H 	 -40.225 	 -1.08323 	 96.9001 	 
H 	 -40.8996 	 -1.88056 	 95.4437 	 
C 	 -42.2076 	 -2.08715 	 97.1437 	 
H 	 -43.2322 	 -2.03028 	 96.8727 	 
H 	 -42.1768 	 -1.68279 	 98.1578 	 
C 	 -41.8281 	 -3.58473 	 97.3021 	 
H 	 -41.9977 	 -4.26383 	 96.4931 	 
H 	 -42.3985 	 -4.04038 	 98.1237 	 
H 	 -40.7987 	 -3.66765 	 97.6842 	 
H 	 -37.9097 	 3.77664 	 99.0769 	 
H 	 -44.1386 	 1.53615 	 94.0387 	 
*
