! wB97X-D3 SP def2-SVP
%pal
nprocs 16
end

* xyz 0 1
S 	 -67.6673 	 49.4201 	 135.909 	 
C 	 -67.7335 	 50.1899 	 137.484 	 
C 	 -69.047 	 50.5902 	 137.788 	 
C 	 -69.9919 	 50.1358 	 136.816 	 
C 	 -69.4199 	 49.3502 	 135.833 	 
H 	 -71.0136 	 50.2666 	 137.014 	 
C 	 -69.3525 	 51.3715 	 139.114 	 
H 	 -69.5523 	 52.3832 	 138.911 	 
H 	 -68.4872 	 51.2193 	 139.769 	 
C 	 -70.5536 	 50.787 	 139.877 	 
H 	 -71.4687 	 51.071 	 139.297 	 
H 	 -70.515 	 49.7053 	 139.919 	 
C 	 -70.6169 	 51.2428 	 141.312 	 
H 	 -71.5816 	 51.103 	 141.688 	 
H 	 -69.8418 	 50.83 	 141.975 	 
H 	 -70.3893 	 52.3648 	 141.307 	 
S 	 -69.5917 	 46.9425 	 134.544 	 
C 	 -71.029 	 46.535 	 133.607 	 
C 	 -71.806 	 47.6422 	 133.52 	 
C 	 -71.3179 	 48.8258 	 134.189 	 
C 	 -70.1082 	 48.5494 	 134.8 	 
H 	 -72.7031 	 47.6193 	 132.909 	 
C 	 -71.9156 	 50.229 	 134.099 	 
H 	 -71.2492 	 50.8557 	 133.462 	 
H 	 -71.9217 	 50.6531 	 135.074 	 
C 	 -73.3377 	 50.3787 	 133.573 	 
H 	 -73.9672 	 50.0039 	 134.326 	 
H 	 -73.5978 	 49.7633 	 132.692 	 
C 	 -73.7261 	 51.8239 	 133.282 	 
H 	 -74.8084 	 51.8474 	 133.084 	 
H 	 -73.4024 	 52.2601 	 132.354 	 
H 	 -73.6495 	 52.4161 	 134.186 	 
H 	 -66.8725 	 50.3858 	 138.115 	 
H 	 -71.2709 	 45.5918 	 133.137 	 
*
