! wB97X-D3 SP def2-SVP
%pal
nprocs 16
end

* xyz 0 1
S 	 -2.57229 	 -17.2861 	 83.3911 	 
C 	 -3.89385 	 -17.9542 	 84.1376 	 
C 	 -5.03901 	 -17.2158 	 83.8756 	 
C 	 -4.78122 	 -16.0719 	 83.0342 	 
C 	 -3.46326 	 -16.0436 	 82.5781 	 
H 	 -5.59749 	 -15.3919 	 82.6079 	 
C 	 -6.4737 	 -17.5345 	 84.5012 	 
H 	 -7.18732 	 -16.7756 	 84.2701 	 
H 	 -6.35438 	 -17.4904 	 85.5991 	 
C 	 -7.13925 	 -18.8663 	 84.0972 	 
H 	 -6.59234 	 -19.7439 	 84.3983 	 
H 	 -8.02128 	 -18.9343 	 84.6202 	 
C 	 -7.2187 	 -19.1756 	 82.6076 	 
H 	 -7.76369 	 -20.0624 	 82.3202 	 
H 	 -7.73789 	 -18.3854 	 81.984 	 
H 	 -6.19929 	 -19.2298 	 82.2745 	 
S 	 -3.44347 	 -13.5137 	 81.682 	 
C 	 -2.48776 	 -13.0255 	 80.3015 	 
C 	 -1.78843 	 -14.1041 	 79.7863 	 
C 	 -1.93091 	 -15.2705 	 80.5686 	 
C 	 -2.81875 	 -15.1222 	 81.6681 	 
H 	 -1.06472 	 -13.9499 	 79.0295 	 
C 	 -1.27208 	 -16.5722 	 80.108 	 
H 	 -2.0714 	 -17.2815 	 80.2691 	 
H 	 -0.437481 	 -16.7655 	 80.8403 	 
C 	 -0.764854 	 -16.6661 	 78.6424 	 
H 	 -0.00986841 	 -15.9463 	 78.3154 	 
H 	 -1.71687 	 -16.4749 	 78.1541 	 
C 	 -0.304181 	 -18.0413 	 78.2509 	 
H 	 -0.0645368 	 -18.0721 	 77.1643 	 
H 	 -1.09979 	 -18.8536 	 78.3759 	 
H 	 0.676386 	 -18.4086 	 78.7463 	 
H 	 -3.80674 	 -18.8124 	 84.8214 	 
H 	 -2.30679 	 -11.9755 	 79.9771 	 
*
