! wB97X-D3 SP def2-SVP
%pal
nprocs 16
end

* xyz 0 1
S 	 -93.4242 	 50.0554 	 124.67 	 
C 	 -95.0106 	 49.4389 	 124.741 	 
C 	 -95.4501 	 49.0579 	 123.484 	 
C 	 -94.3845 	 49.005 	 122.574 	 
C 	 -93.1605 	 49.3886 	 123.124 	 
H 	 -94.4217 	 48.6134 	 121.483 	 
C 	 -96.7774 	 48.5365 	 123.113 	 
H 	 -97.4599 	 49.4226 	 123.015 	 
H 	 -97.2591 	 47.935 	 123.882 	 
C 	 -96.9275 	 47.5928 	 121.898 	 
H 	 -97.9149 	 47.6133 	 121.46 	 
H 	 -96.4167 	 47.9995 	 121.077 	 
C 	 -96.3702 	 46.1534 	 122.148 	 
H 	 -95.2672 	 46.1676 	 122.435 	 
H 	 -96.9727 	 45.7643 	 122.968 	 
H 	 -96.4478 	 45.7046 	 121.132 	 
S 	 -90.8528 	 50.8469 	 122.611 	 
C 	 -89.6351 	 50.1787 	 121.576 	 
C 	 -90.0239 	 48.969 	 121.052 	 
C 	 -91.3078 	 48.4482 	 121.522 	 
C 	 -91.8793 	 49.3938 	 122.323 	 
H 	 -89.4667 	 48.5038 	 120.239 	 
C 	 -91.9341 	 47.1053 	 121.155 	 
H 	 -92.8643 	 47.0085 	 121.663 	 
H 	 -91.2496 	 46.316 	 121.471 	 
C 	 -92.1845 	 47.0403 	 119.632 	 
H 	 -91.1695 	 47.0402 	 119.23 	 
H 	 -92.6933 	 47.9649 	 119.302 	 
C 	 -93.0452 	 45.8014 	 119.172 	 
H 	 -94.0317 	 45.6461 	 119.655 	 
H 	 -92.4269 	 44.8789 	 119.422 	 
H 	 -93.1588 	 46.0271 	 118.053 	 
H 	 -95.71 	 49.5348 	 125.601 	 
H 	 -88.6783 	 50.6168 	 121.223 	 
*
