! wB97X-D3 SP def2-SVP
%pal
nprocs 16
end

* xyz 0 1
S 	 -10.6882 	 62.8168 	 52.7367 	 
C 	 -11.0194 	 62.2231 	 54.2881 	 
C 	 -10.3237 	 62.8988 	 55.2344 	 
C 	 -9.52939 	 63.9627 	 54.6986 	 
C 	 -9.45695 	 63.9235 	 53.2964 	 
H 	 -8.87714 	 64.6356 	 55.2581 	 
C 	 -10.6062 	 62.665 	 56.6974 	 
H 	 -10.4055 	 61.6903 	 56.9779 	 
H 	 -11.6979 	 62.8212 	 56.7699 	 
C 	 -9.93029 	 63.5962 	 57.7669 	 
H 	 -10.0222 	 64.7011 	 57.6029 	 
H 	 -10.4903 	 63.2858 	 58.6838 	 
C 	 -8.40197 	 63.2576 	 58.016 	 
H 	 -7.80972 	 63.2651 	 57.0836 	 
H 	 -8.02222 	 63.9167 	 58.7453 	 
H 	 -8.40237 	 62.2886 	 58.4487 	 
S 	 -9.32341 	 65.2668 	 50.95 	 
C 	 -8.03885 	 66.4552 	 50.7309 	 
C 	 -7.03008 	 66.2383 	 51.5971 	 
C 	 -7.42501 	 65.376 	 52.6885 	 
C 	 -8.62487 	 64.762 	 52.4513 	 
H 	 -6.12676 	 66.7792 	 51.4117 	 
C 	 -6.40227 	 65.016 	 53.7393 	 
H 	 -6.43596 	 63.9466 	 53.6735 	 
H 	 -6.86035 	 65.4606 	 54.6277 	 
C 	 -4.93658 	 65.4703 	 53.7043 	 
H 	 -4.52382 	 65.2155 	 54.7066 	 
H 	 -4.90397 	 66.5364 	 53.404 	 
C 	 -4.07064 	 64.8262 	 52.6594 	 
H 	 -3.88797 	 63.7742 	 53.0027 	 
H 	 -3.10207 	 65.2627 	 52.7114 	 
H 	 -4.51785 	 64.9292 	 51.7145 	 
H 	 -11.7073 	 61.385 	 54.4522 	 
H 	 -7.78119 	 66.83 	 49.8207 	 
*
