! wB97X-D3 SP def2-SVP
%pal
nprocs 16
end

* xyz 0 1
S 	 -41.6919 	 55.8646 	 107.379 	 
C 	 -42.9499 	 56.503 	 108.453 	 
C 	 -42.6736 	 57.7281 	 108.985 	 
C 	 -41.3881 	 58.2038 	 108.64 	 
C 	 -40.7661 	 57.3903 	 107.713 	 
H 	 -41.0276 	 59.1228 	 108.945 	 
C 	 -43.6303 	 58.532 	 109.877 	 
H 	 -44.5426 	 58.6286 	 109.299 	 
H 	 -43.2714 	 59.5495 	 110.05 	 
C 	 -43.9088 	 57.8714 	 111.253 	 
H 	 -44.6595 	 57.1134 	 111.114 	 
H 	 -43.069 	 57.3472 	 111.714 	 
C 	 -44.4755 	 58.9531 	 112.286 	 
H 	 -45.4605 	 59.2454 	 112.094 	 
H 	 -44.5095 	 58.5912 	 113.355 	 
H 	 -43.8417 	 59.866 	 112.244 	 
S 	 -38.2034 	 57.1584 	 108.562 	 
C 	 -36.9047 	 57.8049 	 107.602 	 
C 	 -37.3618 	 58.4435 	 106.457 	 
C 	 -38.745 	 58.1345 	 106.18 	 
C 	 -39.3539 	 57.5805 	 107.309 	 
H 	 -36.5216 	 58.8911 	 105.878 	 
C 	 -39.5294 	 58.63 	 104.975 	 
H 	 -40.0023 	 59.602 	 105.192 	 
H 	 -40.3215 	 57.8331 	 104.897 	 
C 	 -38.6895 	 58.7183 	 103.733 	 
H 	 -38.319 	 57.7451 	 103.312 	 
H 	 -37.7788 	 59.3353 	 103.969 	 
C 	 -39.3971 	 59.3495 	 102.55 	 
H 	 -39.954 	 60.2243 	 102.876 	 
H 	 -40.1733 	 58.6599 	 102.142 	 
H 	 -38.8057 	 59.6804 	 101.695 	 
H 	 -43.859 	 55.8937 	 108.652 	 
H 	 -35.8391 	 57.7615 	 107.976 	 
*
