! wB97X-D3 SP def2-SVP
%pal
nprocs 16
end

* xyz 0 1
S 	 -20.2086 	 52.0436 	 66.6899 	 
C 	 -20.3651 	 50.3894 	 67.2167 	 
C 	 -21.5483 	 49.9043 	 66.6842 	 
C 	 -22.2618 	 50.8179 	 65.8595 	 
C 	 -21.7048 	 52.0508 	 65.8089 	 
H 	 -23.0601 	 50.5156 	 65.3057 	 
C 	 -21.9462 	 48.4486 	 66.7042 	 
H 	 -23.0546 	 48.4518 	 66.675 	 
H 	 -21.6602 	 48.0447 	 67.6703 	 
C 	 -21.2878 	 47.6659 	 65.5715 	 
H 	 -20.2106 	 47.7027 	 65.7925 	 
H 	 -21.6595 	 46.6629 	 65.6827 	 
C 	 -21.6777 	 48.1885 	 64.1426 	 
H 	 -21.1495 	 47.5525 	 63.4538 	 
H 	 -22.7147 	 48.1099 	 63.9357 	 
H 	 -21.2222 	 49.1979 	 63.9643 	 
S 	 -21.4068 	 53.5021 	 63.5983 	 
C 	 -22.3089 	 54.985 	 63.4026 	 
C 	 -23.0477 	 55.2728 	 64.5078 	 
C 	 -22.964 	 54.2737 	 65.492 	 
C 	 -22.0517 	 53.2534 	 65.1691 	 
H 	 -23.8412 	 56.0532 	 64.5243 	 
C 	 -23.7392 	 54.3224 	 66.7542 	 
H 	 -23.7565 	 53.3458 	 67.1259 	 
H 	 -24.7816 	 54.5379 	 66.5769 	 
C 	 -23.1048 	 55.2917 	 67.8273 	 
H 	 -22.9972 	 56.364 	 67.4228 	 
H 	 -22.1203 	 55.0154 	 68.017 	 
C 	 -23.6422 	 55.3074 	 69.1873 	 
H 	 -23.5799 	 54.3021 	 69.6422 	 
H 	 -24.7181 	 55.5324 	 69.2465 	 
H 	 -23.1012 	 55.9604 	 69.8664 	 
H 	 -19.5535 	 49.7908 	 67.6723 	 
H 	 -22.3089 	 55.565 	 62.4646 	 
*
