! wB97X-D3 SP def2-SVP
%pal
nprocs 16
end

* xyz 0 1
S 	 -51.4576 	 64.9504 	 128.204 	 
C 	 -50.4978 	 63.9764 	 126.994 	 
C 	 -49.9516 	 62.8238 	 127.554 	 
C 	 -50.2172 	 62.7749 	 128.921 	 
C 	 -50.8523 	 63.8658 	 129.464 	 
H 	 -49.8629 	 62.0505 	 129.624 	 
C 	 -49.1601 	 61.7161 	 126.823 	 
H 	 -48.1083 	 61.8589 	 127.089 	 
H 	 -49.1756 	 61.9198 	 125.72 	 
C 	 -49.5325 	 60.2416 	 127.08 	 
H 	 -49.3276 	 59.8491 	 128.05 	 
H 	 -50.5195 	 60.1604 	 126.755 	 
C 	 -48.6194 	 59.3264 	 126.187 	 
H 	 -49.0529 	 58.2771 	 126.293 	 
H 	 -48.6048 	 59.601 	 125.083 	 
H 	 -47.5033 	 59.3433 	 126.511 	 
S 	 -49.6089 	 64.5578 	 131.794 	 
C 	 -50.6127 	 64.9647 	 133.217 	 
C 	 -51.8951 	 64.5783 	 133.007 	 
C 	 -52.1825 	 64.1978 	 131.653 	 
C 	 -51.0699 	 64.0656 	 130.878 	 
H 	 -52.5538 	 64.6443 	 133.822 	 
C 	 -53.5681 	 63.9332 	 131.137 	 
H 	 -53.8306 	 63.1382 	 131.787 	 
H 	 -53.5044 	 63.5595 	 130.142 	 
C 	 -54.584 	 65.0527 	 131.24 	 
H 	 -54.4928 	 65.5624 	 132.17 	 
H 	 -55.5969 	 64.5606 	 131.17 	 
C 	 -54.3948 	 66.1824 	 130.284 	 
H 	 -53.5285 	 66.774 	 130.439 	 
H 	 -55.2575 	 66.843 	 130.244 	 
H 	 -54.2578 	 65.7769 	 129.246 	 
H 	 -50.2128 	 64.3557 	 126.021 	 
H 	 -50.178 	 65.3227 	 134.108 	 
*
