! wB97X-D3 SP def2-SVP
%pal
nprocs 16
end

* xyz 0 1
S 	 -42.0093 	 25.534 	 84.6082 	 
C 	 -41.9692 	 23.7988 	 84.1731 	 
C 	 -43.1946 	 23.3595 	 83.6605 	 
C 	 -44.1716 	 24.4544 	 83.6051 	 
C 	 -43.6738 	 25.6618 	 84.0475 	 
H 	 -45.2136 	 24.3089 	 83.2975 	 
C 	 -43.6073 	 21.9937 	 83.1445 	 
H 	 -44.6648 	 21.9826 	 83.2084 	 
H 	 -43.3798 	 21.2162 	 83.8607 	 
C 	 -43.3659 	 21.7498 	 81.6631 	 
H 	 -43.8885 	 20.7954 	 81.4468 	 
H 	 -43.8114 	 22.5845 	 81.0892 	 
C 	 -41.943 	 21.5696 	 81.2133 	 
H 	 -41.4155 	 22.547 	 81.2565 	 
H 	 -41.355 	 20.811 	 81.7211 	 
H 	 -41.961 	 21.2567 	 80.1545 	 
S 	 -45.6983 	 27.4563 	 84.9872 	 
C 	 -45.9957 	 28.8757 	 84.0416 	 
C 	 -45.1427 	 28.9244 	 82.9816 	 
C 	 -44.1698 	 27.8788 	 82.9123 	 
C 	 -44.3211 	 26.969 	 83.9667 	 
H 	 -45.27 	 29.6545 	 82.1688 	 
C 	 -43.1516 	 27.801 	 81.8019 	 
H 	 -42.1956 	 27.6004 	 82.2459 	 
H 	 -43.0936 	 28.756 	 81.3091 	 
C 	 -43.4172 	 26.704 	 80.699 	 
H 	 -43.1248 	 25.8207 	 81.2603 	 
H 	 -42.6495 	 26.7484 	 79.8765 	 
C 	 -44.8619 	 26.6522 	 80.2158 	 
H 	 -45.5532 	 26.8573 	 80.9702 	 
H 	 -45.1779 	 25.6945 	 79.7719 	 
H 	 -45.018 	 27.4854 	 79.488 	 
H 	 -41.1216 	 23.1428 	 84.2244 	 
H 	 -46.8659 	 29.5051 	 84.0838 	 
*
