! wB97X-D3 SP def2-SVP
%pal
nprocs 16
end

* xyz 0 1
S 	 50.7566 	 4.19774 	 85.2536 	 
C 	 51.8726 	 5.27183 	 84.3967 	 
C 	 51.3732 	 5.62254 	 83.1355 	 
C 	 50.0437 	 5.09978 	 82.9133 	 
C 	 49.5771 	 4.33111 	 83.9437 	 
H 	 49.4314 	 5.39192 	 82.0084 	 
C 	 52.1498 	 6.45708 	 82.0907 	 
H 	 51.7276 	 7.45102 	 81.9969 	 
H 	 51.9877 	 5.9201 	 81.2149 	 
C 	 53.6887 	 6.59499 	 82.3125 	 
H 	 53.8778 	 7.08063 	 83.328 	 
H 	 54.0724 	 5.57399 	 82.4636 	 
C 	 54.2936 	 7.43174 	 81.2116 	 
H 	 53.8673 	 7.07866 	 80.2657 	 
H 	 53.9857 	 8.46292 	 81.4004 	 
H 	 55.3807 	 7.23729 	 81.1398 	 
S 	 46.9599 	 4.49942 	 84.8192 	 
C 	 45.7221 	 3.39849 	 84.1668 	 
C 	 46.297 	 2.47231 	 83.3625 	 
C 	 47.716 	 2.64978 	 83.1841 	 
C 	 48.2605 	 3.75161 	 83.9114 	 
H 	 45.6705 	 1.71391 	 82.9352 	 
C 	 48.5954 	 1.77667 	 82.2709 	 
H 	 49.0506 	 2.46066 	 81.5249 	 
H 	 47.9012 	 1.248 	 81.566 	 
C 	 49.6826 	 0.879334 	 82.9147 	 
H 	 49.1658 	 0.196958 	 83.5839 	 
H 	 50.3373 	 1.44597 	 83.6119 	 
C 	 50.4935 	 0.235885 	 81.7622 	 
H 	 50.8939 	 -0.743951 	 82.1042 	 
H 	 51.3335 	 0.803828 	 81.4813 	 
H 	 49.8538 	 0.125639 	 80.8773 	 
H 	 52.8342 	 5.58678 	 84.8378 	 
H 	 44.7459 	 3.42269 	 84.5411 	 
*
