! wB97X-D3 SP def2-SVP
%pal
nprocs 16
end

* xyz 0 1
S 	 0.282113 	 -8.51815 	 88.8093 	 
C 	 1.17335 	 -8.39798 	 90.2741 	 
C 	 0.451258 	 -8.62886 	 91.3959 	 
C 	 -0.929331 	 -8.88696 	 91.1266 	 
C 	 -1.14214 	 -8.9423 	 89.7487 	 
H 	 -1.72692 	 -9.03425 	 91.8584 	 
C 	 0.984701 	 -8.58485 	 92.8634 	 
H 	 0.0595421 	 -8.24985 	 93.4848 	 
H 	 1.7842 	 -7.79866 	 92.8047 	 
C 	 1.664 	 -9.85987 	 93.4371 	 
H 	 1.70656 	 -9.93638 	 94.5894 	 
H 	 0.870439 	 -10.6349 	 93.1347 	 
C 	 3.11889 	 -10.1235 	 92.9403 	 
H 	 3.88176 	 -9.54992 	 93.3721 	 
H 	 3.45069 	 -11.1644 	 93.0604 	 
H 	 3.19965 	 -9.98478 	 91.8873 	 
S 	 -2.59628 	 -10.7691 	 88.239 	 
C 	 -4.17884 	 -10.3551 	 87.6262 	 
C 	 -4.62484 	 -9.29301 	 88.3344 	 
C 	 -3.65597 	 -8.61331 	 89.1385 	 
C 	 -2.40522 	 -9.2095 	 89.0807 	 
H 	 -5.64029 	 -8.84839 	 88.1755 	 
C 	 -4.01132 	 -7.30956 	 89.8798 	 
H 	 -4.58242 	 -6.57296 	 89.297 	 
H 	 -3.06097 	 -6.80539 	 90.0827 	 
C 	 -4.76248 	 -7.59719 	 91.1753 	 
H 	 -4.05511 	 -8.28567 	 91.6765 	 
H 	 -5.7423 	 -8.03004 	 90.8775 	 
C 	 -5.16724 	 -6.39331 	 91.9677 	 
H 	 -4.39238 	 -5.67708 	 92.078 	 
H 	 -5.54589 	 -6.52698 	 92.9629 	 
H 	 -5.81697 	 -5.74061 	 91.4381 	 
H 	 2.18441 	 -8.051 	 90.247 	 
H 	 -4.80468 	 -10.9174 	 87.0204 	 
*
