! wB97X-D3 SP def2-SVP
%pal
nprocs 16
end

* xyz 0 1
S 	 -13.4693 	 50.5048 	 32.8869 	 
C 	 -12.4963 	 50.9103 	 31.5467 	 
C 	 -11.261 	 50.2707 	 31.6017 	 
C 	 -11.1161 	 49.4531 	 32.7874 	 
C 	 -12.2265 	 49.532 	 33.5605 	 
H 	 -10.3031 	 48.8426 	 33.1582 	 
C 	 -10.0769 	 50.4095 	 30.6305 	 
H 	 -9.49232 	 49.5328 	 30.7783 	 
H 	 -9.38827 	 51.1488 	 30.9947 	 
C 	 -10.2872 	 50.6527 	 29.1376 	 
H 	 -11.1292 	 50.0159 	 28.883 	 
H 	 -10.5902 	 51.7378 	 29.013 	 
C 	 -9.05224 	 50.3591 	 28.2439 	 
H 	 -8.26963 	 51.0403 	 28.6724 	 
H 	 -8.68789 	 49.3642 	 28.3208 	 
H 	 -9.3381 	 50.5586 	 27.1606 	 
S 	 -12.5132 	 49.8721 	 36.272 	 
C 	 -12.6011 	 48.5426 	 37.3878 	 
C 	 -12.2921 	 47.4046 	 36.695 	 
C 	 -12.2307 	 47.5291 	 35.2647 	 
C 	 -12.3124 	 48.8396 	 34.8565 	 
H 	 -12.0843 	 46.5742 	 37.2342 	 
C 	 -11.9237 	 46.3428 	 34.39 	 
H 	 -11.3677 	 45.6064 	 34.9613 	 
H 	 -11.2783 	 46.6464 	 33.5896 	 
C 	 -13.2536 	 45.6406 	 33.8977 	 
H 	 -13.7693 	 46.3808 	 33.3023 	 
H 	 -13.8724 	 45.3489 	 34.6959 	 
C 	 -12.9558 	 44.4875 	 32.8377 	 
H 	 -12.4682 	 43.616 	 33.3512 	 
H 	 -12.2853 	 44.7798 	 31.9871 	 
H 	 -13.9061 	 44.0888 	 32.4459 	 
H 	 -12.8215 	 51.4723 	 30.7112 	 
H 	 -12.4666 	 48.6258 	 38.4148 	 
*
