! wB97X-D3 SP def2-SVP
%pal
nprocs 16
end

* xyz 0 1
S 	 6.9359 	 22.3255 	 65.0518 	 
C 	 6.0032 	 21.9786 	 63.6545 	 
C 	 5.08046 	 22.94 	 63.3262 	 
C 	 5.07216 	 23.9963 	 64.3171 	 
C 	 6.07118 	 23.9009 	 65.2472 	 
H 	 4.53692 	 24.9475 	 64.301 	 
C 	 4.17849 	 22.8882 	 62.1019 	 
H 	 3.17249 	 23.1362 	 62.3146 	 
H 	 4.36382 	 21.8749 	 61.8054 	 
C 	 4.61345 	 23.807 	 60.8605 	 
H 	 4.03122 	 23.5506 	 59.9354 	 
H 	 4.35766 	 24.8439 	 61.0616 	 
C 	 6.10382 	 23.7467 	 60.4267 	 
H 	 6.41127 	 22.6903 	 60.1792 	 
H 	 6.29164 	 24.2407 	 59.4747 	 
H 	 6.74312 	 24.1148 	 61.1579 	 
S 	 8.25746 	 25.334 	 65.7401 	 
C 	 8.23822 	 26.6949 	 66.9008 	 
C 	 6.95885 	 26.7814 	 67.4499 	 
C 	 6.03632 	 25.8112 	 67.0332 	 
C 	 6.5577 	 24.9778 	 66.0944 	 
H 	 6.87343 	 27.5577 	 68.2133 	 
C 	 4.5511 	 25.7992 	 67.4095 	 
H 	 4.37725 	 25.6762 	 68.4793 	 
H 	 4.05376 	 24.9839 	 66.8321 	 
C 	 3.87688 	 27.1538 	 67.0452 	 
H 	 4.34512 	 27.4925 	 66.1299 	 
H 	 4.11755 	 27.9106 	 67.778 	 
C 	 2.33977 	 26.9974 	 66.9183 	 
H 	 1.78357 	 27.922 	 66.5588 	 
H 	 1.88383 	 26.8376 	 67.8895 	 
H 	 2.10553 	 26.1417 	 66.2534 	 
H 	 6.21324 	 21.0699 	 63.1416 	 
H 	 9.10605 	 27.2688 	 67.0506 	 
*
