! wB97X-D3 SP def2-SVP
%pal
nprocs 16
end

* xyz 0 1
S 	 -39.3037 	 -8.71365 	 100.101 	 
C 	 -40.8289 	 -9.53306 	 100.018 	 
C 	 -41.8373 	 -8.63035 	 100.377 	 
C 	 -41.3541 	 -7.43804 	 101.018 	 
C 	 -40.0146 	 -7.35815 	 101.017 	 
H 	 -41.9593 	 -6.59824 	 101.488 	 
C 	 -43.3501 	 -8.86844 	 100.245 	 
H 	 -43.7802 	 -8.61493 	 101.233 	 
H 	 -43.6282 	 -9.87216 	 100.092 	 
C 	 -44.1076 	 -8.03591 	 99.2279 	 
H 	 -45.1874 	 -8.22942 	 99.305 	 
H 	 -43.9718 	 -6.95205 	 99.3485 	 
C 	 -43.644 	 -8.47004 	 97.8244 	 
H 	 -42.6091 	 -8.39922 	 97.8529 	 
H 	 -43.9329 	 -9.56876 	 97.5984 	 
H 	 -44.0741 	 -7.83829 	 97.1337 	 
S 	 -37.6827 	 -5.90155 	 100.879 	 
C 	 -37.4483 	 -4.46693 	 101.814 	 
C 	 -38.5654 	 -4.24113 	 102.606 	 
C 	 -39.6515 	 -5.18155 	 102.365 	 
C 	 -39.296 	 -6.1568 	 101.446 	 
H 	 -38.5532 	 -3.48446 	 103.358 	 
C 	 -40.812 	 -5.16648 	 103.318 	 
H 	 -41.747 	 -5.11591 	 102.782 	 
H 	 -40.7558 	 -4.16656 	 103.762 	 
C 	 -40.8089 	 -6.28836 	 104.405 	 
H 	 -39.8383 	 -6.37046 	 104.945 	 
H 	 -40.9058 	 -7.24217 	 103.822 	 
C 	 -42.0382 	 -6.20876 	 105.341 	 
H 	 -42.9163 	 -5.93839 	 104.777 	 
H 	 -41.9516 	 -5.36546 	 106.005 	 
H 	 -42.3688 	 -7.06741 	 105.884 	 
H 	 -41.0988 	 -10.3479 	 99.3596 	 
H 	 -36.5509 	 -3.91985 	 101.936 	 
*
