! wB97X-D3 SP def2-SVP
%pal
nprocs 16
end

* xyz 0 1
S 	 -18.6631 	 -2.02697 	 79.2034 	 
C 	 -17.4999 	 -2.84958 	 78.2407 	 
C 	 -17.8383 	 -3.14382 	 76.9381 	 
C 	 -19.175 	 -2.72194 	 76.7218 	 
C 	 -19.8329 	 -2.08875 	 77.8279 	 
H 	 -19.7022 	 -2.93314 	 75.8266 	 
C 	 -17.0823 	 -3.97439 	 75.9751 	 
H 	 -16.0215 	 -3.90177 	 76.4195 	 
H 	 -17.0249 	 -3.40262 	 75.0747 	 
C 	 -17.5799 	 -5.33717 	 75.7005 	 
H 	 -18.4651 	 -5.19931 	 75.1572 	 
H 	 -16.8657 	 -5.82522 	 75.0739 	 
C 	 -17.7793 	 -6.06407 	 76.9794 	 
H 	 -16.944 	 -5.90619 	 77.5782 	 
H 	 -18.7172 	 -5.77506 	 77.4195 	 
H 	 -17.82 	 -7.16215 	 76.8178 	 
S 	 -21.4551 	 0.112549 	 78.4031 	 
C 	 -23.1154 	 -0.169779 	 78.6486 	 
C 	 -23.4737 	 -1.40078 	 78.2356 	 
C 	 -22.3908 	 -2.30996 	 77.8753 	 
C 	 -21.2008 	 -1.59676 	 77.9354 	 
H 	 -24.4809 	 -1.68633 	 78.1989 	 
C 	 -22.5959 	 -3.75538 	 77.484 	 
H 	 -21.6188 	 -4.21134 	 77.2426 	 
H 	 -23.2999 	 -3.73524 	 76.638 	 
C 	 -23.2291 	 -4.47008 	 78.6579 	 
H 	 -24.2891 	 -4.20001 	 78.8808 	 
H 	 -22.688 	 -4.24256 	 79.543 	 
C 	 -23.1959 	 -5.97622 	 78.4239 	 
H 	 -22.1367 	 -6.30144 	 78.6137 	 
H 	 -23.5046 	 -6.3774 	 77.5418 	 
H 	 -23.5695 	 -6.51316 	 79.2472 	 
H 	 -16.5603 	 -3.2751 	 78.6685 	 
H 	 -23.823 	 0.486746 	 79.0267 	 
*
