! wB97X-D3 SP def2-SVP
%pal
nprocs 16
end

* xyz 0 1
S 	 48.3112 	 13.6423 	 102.957 	 
C 	 48.5059 	 15.3856 	 102.619 	 
C 	 47.6804 	 15.7281 	 101.564 	 
C 	 46.7907 	 14.6453 	 101.184 	 
C 	 47.0118 	 13.4088 	 101.736 	 
H 	 46.0032 	 14.7521 	 100.521 	 
C 	 47.5384 	 17.1082 	 101.042 	 
H 	 46.687 	 17.0051 	 100.368 	 
H 	 48.4082 	 17.441 	 100.488 	 
C 	 47.224 	 18.1522 	 102.088 	 
H 	 47.9801 	 18.3446 	 102.814 	 
H 	 47.0329 	 19.1038 	 101.548 	 
C 	 45.8393 	 17.8485 	 102.709 	 
H 	 45.0057 	 17.9066 	 102.06 	 
H 	 45.8516 	 16.9404 	 103.123 	 
H 	 45.6089 	 18.51 	 103.475 	 
S 	 44.9333 	 12.1689 	 103.07 	 
C 	 44.0784 	 10.8442 	 102.31 	 
C 	 44.6527 	 10.5146 	 101.121 	 
C 	 45.7017 	 11.4113 	 100.783 	 
C 	 46.122 	 12.2821 	 101.816 	 
H 	 44.2342 	 9.69549 	 100.549 	 
C 	 46.2851 	 11.3404 	 99.4336 	 
H 	 46.9081 	 10.4416 	 99.4628 	 
H 	 46.958 	 12.2459 	 99.441 	 
C 	 45.2864 	 11.5168 	 98.1964 	 
H 	 44.7065 	 10.5794 	 98.091 	 
H 	 45.8613 	 11.6008 	 97.2628 	 
C 	 44.4139 	 12.7812 	 98.3374 	 
H 	 43.8601 	 12.8852 	 97.3529 	 
H 	 45.119 	 13.6332 	 98.381 	 
H 	 43.7124 	 12.6996 	 99.1802 	 
H 	 49.1695 	 16.1695 	 103.003 	 
H 	 43.2365 	 10.2675 	 102.738 	 
*
