! wB97X-D3 SP def2-SVP
%pal
nprocs 16
end

* xyz 0 1
S 	 61.9413 	 -2.84797 	 87.3938 	 
C 	 61.3022 	 -2.50096 	 88.9361 	 
C 	 62.177 	 -1.84291 	 89.819 	 
C 	 63.3855 	 -1.62305 	 89.142 	 
C 	 63.3694 	 -1.97469 	 87.7932 	 
H 	 64.2605 	 -1.20633 	 89.523 	 
C 	 61.9638 	 -1.64228 	 91.2849 	 
H 	 61.2933 	 -0.802764 	 91.439 	 
H 	 62.8496 	 -1.4341 	 91.8792 	 
C 	 61.5456 	 -3.07229 	 91.8254 	 
H 	 61.3861 	 -2.87836 	 92.936 	 
H 	 60.5758 	 -3.32566 	 91.4313 	 
C 	 62.5487 	 -4.17474 	 91.5424 	 
H 	 63.5714 	 -3.8457 	 91.6968 	 
H 	 62.3383 	 -5.16264 	 92.0284 	 
H 	 62.4652 	 -4.38671 	 90.4743 	 
S 	 65.1322 	 -3.54739 	 86.422 	 
C 	 66.5493 	 -2.8569 	 85.6786 	 
C 	 66.5788 	 -1.55818 	 85.9777 	 
C 	 65.4429 	 -0.951895 	 86.5356 	 
C 	 64.508 	 -1.92775 	 86.8864 	 
H 	 67.4696 	 -0.971487 	 85.9001 	 
C 	 65.291 	 0.476837 	 86.8663 	 
H 	 65.6558 	 0.55114 	 87.9777 	 
H 	 64.2683 	 0.703168 	 86.6438 	 
C 	 66.1632 	 1.56858 	 86.1334 	 
H 	 65.7526 	 1.52427 	 85.0913 	 
H 	 67.189 	 1.11189 	 86.2372 	 
C 	 65.867 	 3.01365 	 86.5364 	 
H 	 64.954 	 3.21044 	 85.9764 	 
H 	 66.5733 	 3.70738 	 86.1444 	 
H 	 65.7433 	 3.08703 	 87.6168 	 
H 	 60.349 	 -2.79287 	 89.1974 	 
H 	 67.4168 	 -3.43232 	 85.4208 	 
*
