! wB97X-D3 SP def2-SVP
%pal
nprocs 16
end

* xyz 0 1
S 	 -34.0293 	 68.2162 	 146.733 	 
C 	 -34.8347 	 69.3956 	 145.722 	 
C 	 -34.9248 	 68.9704 	 144.363 	 
C 	 -34.3577 	 67.7044 	 144.258 	 
C 	 -33.8183 	 67.1299 	 145.384 	 
H 	 -34.2476 	 67.1425 	 143.308 	 
C 	 -35.6485 	 69.6946 	 143.212 	 
H 	 -35.7394 	 68.9074 	 142.485 	 
H 	 -34.9174 	 70.4459 	 142.842 	 
C 	 -37.0705 	 70.1635 	 143.567 	 
H 	 -36.9848 	 70.9752 	 144.289 	 
H 	 -37.5744 	 70.6049 	 142.67 	 
C 	 -37.9752 	 69.0007 	 144.097 	 
H 	 -37.736 	 68.5261 	 145.074 	 
H 	 -39.0281 	 69.2606 	 144.027 	 
H 	 -38.0469 	 68.2142 	 143.336 	 
S 	 -31.3488 	 65.9539 	 144.78 	 
C 	 -31.1583 	 64.2784 	 145.079 	 
C 	 -32.2428 	 63.7928 	 145.788 	 
C 	 -33.3292 	 64.7297 	 145.98 	 
C 	 -32.9702 	 65.9518 	 145.415 	 
H 	 -32.3702 	 62.7835 	 146.231 	 
C 	 -34.5975 	 64.41 	 146.774 	 
H 	 -35.05 	 65.3424 	 146.865 	 
H 	 -34.3797 	 64.156 	 147.804 	 
C 	 -35.4657 	 63.2502 	 146.206 	 
H 	 -36.2833 	 63.1647 	 146.887 	 
H 	 -34.8941 	 62.2952 	 146.141 	 
C 	 -36.2093 	 63.6635 	 144.92 	 
H 	 -35.5272 	 63.9248 	 144.049 	 
H 	 -36.6988 	 64.6364 	 144.969 	 
H 	 -37.0139 	 62.959 	 144.579 	 
H 	 -35.1925 	 70.2976 	 146.076 	 
H 	 -30.1938 	 63.8087 	 144.854 	 
*
