! wB97X-D3 SP def2-SVP
%pal
nprocs 16
end

* xyz 0 1
S 	 10.8946 	 -7.30747 	 64.1477 	 
C 	 9.34019 	 -6.65498 	 64.6558 	 
C 	 9.39053 	 -6.37222 	 66.0035 	 
C 	 10.5656 	 -6.96112 	 66.7163 	 
C 	 11.4882 	 -7.38932 	 65.7865 	 
H 	 10.7714 	 -7.11403 	 67.7492 	 
C 	 8.22259 	 -5.7842 	 66.8158 	 
H 	 7.99669 	 -6.34569 	 67.7338 	 
H 	 7.19412 	 -5.78183 	 66.3719 	 
C 	 8.66334 	 -4.41102 	 67.3689 	 
H 	 9.66719 	 -4.55165 	 67.9214 	 
H 	 8.8881 	 -3.74735 	 66.5201 	 
C 	 7.68036 	 -3.64201 	 68.2408 	 
H 	 8.15199 	 -2.70909 	 68.6847 	 
H 	 6.95187 	 -3.28874 	 67.4805 	 
H 	 7.21885 	 -4.27513 	 69.0306 	 
S 	 13.7482 	 -7.40395 	 67.36 	 
C 	 14.9212 	 -8.63791 	 67.0633 	 
C 	 14.4664 	 -9.66175 	 66.282 	 
C 	 13.1697 	 -9.34591 	 65.7287 	 
C 	 12.6513 	 -8.13919 	 66.1432 	 
H 	 15.0375 	 -10.6487 	 66.0992 	 
C 	 12.3766 	 -10.4316 	 65.0761 	 
H 	 13.0388 	 -11.3555 	 65.041 	 
H 	 12.0508 	 -10.1368 	 64.0363 	 
C 	 11.2243 	 -10.8006 	 66.0264 	 
H 	 10.5823 	 -9.94442 	 66.2343 	 
H 	 11.682 	 -11.0301 	 66.9706 	 
C 	 10.3003 	 -11.8672 	 65.5019 	 
H 	 10.9229 	 -12.6232 	 65.0011 	 
H 	 9.60386 	 -11.5262 	 64.6619 	 
H 	 9.75451 	 -12.2931 	 66.2793 	 
H 	 8.57948 	 -6.3437 	 63.9005 	 
H 	 15.7526 	 -8.78706 	 67.7312 	 
*
