! wB97X-D3 SP def2-SVP
%pal
nprocs 16
end

* xyz 0 1
S 	 54.7769 	 8.54164 	 75.7109 	 
C 	 53.7121 	 9.87612 	 76.0671 	 
C 	 53.0734 	 10.3239 	 74.878 	 
C 	 53.5285 	 9.65282 	 73.7173 	 
C 	 54.5162 	 8.68623 	 73.9526 	 
H 	 53.297 	 9.87293 	 72.7157 	 
C 	 52.2212 	 11.5794 	 74.7773 	 
H 	 51.6086 	 11.623 	 75.7033 	 
H 	 51.4572 	 11.4314 	 73.9227 	 
C 	 53.0231 	 12.8808 	 74.6923 	 
H 	 53.7999 	 12.8368 	 75.4373 	 
H 	 53.5215 	 12.8105 	 73.774 	 
C 	 52.0626 	 14.125 	 74.9183 	 
H 	 51.5518 	 14.3408 	 73.9519 	 
H 	 51.3726 	 14.0758 	 75.7849 	 
H 	 52.6325 	 15.0686 	 75.0317 	 
S 	 55.7298 	 6.23495 	 73.3569 	 
C 	 56.6632 	 6.0279 	 71.9002 	 
C 	 56.2961 	 6.96048 	 70.9423 	 
C 	 55.4969 	 8.04336 	 71.5427 	 
C 	 55.1317 	 7.78716 	 72.8926 	 
H 	 56.6589 	 6.94522 	 69.9622 	 
C 	 55.2676 	 9.31507 	 70.7406 	 
H 	 54.1684 	 9.45416 	 70.6827 	 
H 	 55.5942 	 9.04249 	 69.7365 	 
C 	 56.0024 	 10.5704 	 71.2247 	 
H 	 56.9746 	 10.2142 	 71.5923 	 
H 	 55.5115 	 11.0342 	 72.1547 	 
C 	 56.1404 	 11.6546 	 70.1088 	 
H 	 55.2033 	 12.2047 	 70.0083 	 
H 	 56.3731 	 11.2236 	 69.1755 	 
H 	 56.9155 	 12.3565 	 70.4312 	 
H 	 53.4694 	 10.3225 	 77.0832 	 
H 	 57.2122 	 5.11037 	 71.7224 	 
*
