! wB97X-D3 SP def2-SVP
%pal
nprocs 16
end

* xyz 0 1
S 	 51.339 	 12.4022 	 87.8355 	 
C 	 51.9984 	 13.35 	 89.1652 	 
C 	 52.4506 	 14.611 	 88.7124 	 
C 	 52.1899 	 14.7736 	 87.2931 	 
C 	 51.6333 	 13.692 	 86.6774 	 
H 	 52.3107 	 15.7063 	 86.8386 	 
C 	 53.0706 	 15.7467 	 89.5347 	 
H 	 53.7063 	 16.2601 	 88.8636 	 
H 	 53.7655 	 15.3258 	 90.3168 	 
C 	 51.9243 	 16.7112 	 90.0786 	 
H 	 52.4373 	 17.6045 	 90.4604 	 
H 	 51.3454 	 17.0351 	 89.2475 	 
C 	 51.0681 	 16.1664 	 91.2105 	 
H 	 51.7259 	 15.8208 	 91.9566 	 
H 	 50.4184 	 16.9048 	 91.57 	 
H 	 50.4655 	 15.2734 	 90.8662 	 
S 	 52.8985 	 13.8204 	 84.1954 	 
C 	 52.0803 	 13.1005 	 82.761 	 
C 	 50.9045 	 12.5199 	 83.1316 	 
C 	 50.5887 	 12.7061 	 84.5053 	 
C 	 51.5739 	 13.354 	 85.2521 	 
H 	 50.3047 	 11.9906 	 82.4593 	 
C 	 49.2838 	 12.148 	 84.9648 	 
H 	 48.9687 	 12.4802 	 86.0027 	 
H 	 49.4019 	 11.0202 	 85.0835 	 
C 	 48.0455 	 12.3125 	 84.0482 	 
H 	 48.0112 	 11.7903 	 83.1158 	 
H 	 47.8529 	 13.3862 	 83.8875 	 
C 	 46.7964 	 11.6562 	 84.732 	 
H 	 46.792 	 10.6215 	 84.5242 	 
H 	 45.8233 	 12.091 	 84.3684 	 
H 	 46.8633 	 11.9092 	 85.8053 	 
H 	 51.9665 	 12.9679 	 90.1845 	 
H 	 52.4439 	 12.9503 	 81.755 	 
*
