! wB97X-D3 SP def2-SVP
%pal
nprocs 16
end

* xyz 0 1
S 	 7.58553 	 28.934 	 69.9196 	 
C 	 6.31904 	 28.5685 	 68.724 	 
C 	 6.89313 	 27.8981 	 67.6725 	 
C 	 8.34753 	 27.9268 	 67.7057 	 
C 	 8.8244 	 28.5432 	 68.8198 	 
H 	 9.03869 	 27.3929 	 67.0236 	 
C 	 6.14427 	 27.3084 	 66.5547 	 
H 	 6.49286 	 27.5999 	 65.6116 	 
H 	 5.14134 	 27.6706 	 66.6551 	 
C 	 6.01454 	 25.8035 	 66.6598 	 
H 	 6.81521 	 25.2984 	 66.3398 	 
H 	 5.99152 	 25.5616 	 67.7035 	 
C 	 4.64303 	 25.4236 	 66.0279 	 
H 	 3.8116 	 25.6225 	 66.7359 	 
H 	 4.37867 	 26.0459 	 65.1309 	 
H 	 4.67305 	 24.3961 	 65.692 	 
S 	 10.7367 	 27.0348 	 70.1418 	 
C 	 12.3518 	 27.659 	 70.4256 	 
C 	 12.6113 	 28.7399 	 69.6425 	 
C 	 11.4373 	 29.1336 	 68.9222 	 
C 	 10.2292 	 28.4591 	 69.2598 	 
H 	 13.5689 	 29.1876 	 69.5476 	 
C 	 11.5307 	 30.3831 	 67.987 	 
H 	 10.9233 	 30.28 	 67.0784 	 
H 	 12.5732 	 30.3236 	 67.7163 	 
C 	 11.2857 	 31.773 	 68.679 	 
H 	 11.6789 	 31.8579 	 69.6803 	 
H 	 10.2275 	 31.883 	 68.8217 	 
C 	 11.5663 	 32.9621 	 67.8023 	 
H 	 12.5556 	 33.2817 	 67.5153 	 
H 	 11.0115 	 33.7891 	 68.191 	 
H 	 11.0357 	 32.7272 	 66.9159 	 
H 	 5.29515 	 28.5268 	 68.8458 	 
H 	 13.0473 	 27.2361 	 71.1199 	 
*
