! wB97X-D3 SP def2-SVP
%pal
nprocs 16
end

* xyz 0 1
S 	 -15.9212 	 31.5223 	 34.9382 	 
C 	 -15.9922 	 30.9699 	 36.5888 	 
C 	 -14.7704 	 31.164 	 37.2355 	 
C 	 -13.727 	 31.6973 	 36.3244 	 
C 	 -14.1998 	 31.9513 	 35.0765 	 
H 	 -12.6527 	 31.8015 	 36.5107 	 
C 	 -14.3975 	 30.7108 	 38.6337 	 
H 	 -13.6293 	 31.4566 	 38.931 	 
H 	 -13.8913 	 29.8051 	 38.5563 	 
C 	 -15.5578 	 30.6136 	 39.7392 	 
H 	 -16.337 	 29.9089 	 39.4157 	 
H 	 -15.0992 	 30.1965 	 40.7332 	 
C 	 -16.2626 	 31.889 	 40.0264 	 
H 	 -15.5402 	 32.6699 	 40.1585 	 
H 	 -16.9677 	 32.1946 	 39.2721 	 
H 	 -16.8046 	 31.8626 	 40.9834 	 
S 	 -13.1289 	 31.2841 	 32.6098 	 
C 	 -11.8125 	 32.2744 	 31.9811 	 
C 	 -11.6473 	 33.4613 	 32.6828 	 
C 	 -12.5022 	 33.4536 	 33.8224 	 
C 	 -13.3396 	 32.3564 	 34.0049 	 
H 	 -10.8547 	 34.1986 	 32.3213 	 
C 	 -12.5336 	 34.6577 	 34.7093 	 
H 	 -11.5969 	 35.2882 	 34.5451 	 
H 	 -12.4472 	 34.2889 	 35.7329 	 
C 	 -13.7745 	 35.4987 	 34.5098 	 
H 	 -14.6111 	 34.8524 	 34.9068 	 
H 	 -13.9437 	 35.6315 	 33.491 	 
C 	 -13.7574 	 36.8286 	 35.2377 	 
H 	 -14.5544 	 37.468 	 34.9436 	 
H 	 -12.7496 	 37.2673 	 34.9869 	 
H 	 -13.9246 	 36.6746 	 36.3002 	 
H 	 -16.7827 	 30.4335 	 37.0684 	 
H 	 -11.404 	 32.0542 	 30.9933 	 
*
