! wB97X-D3 SP def2-SVP
%pal
nprocs 16
end

* xyz 0 1
S 	 16.707 	 5.78018 	 85.9005 	 
C 	 17.3096 	 7.42355 	 85.6455 	 
C 	 16.3775 	 8.4106 	 85.9818 	 
C 	 15.1965 	 7.82857 	 86.5399 	 
C 	 15.2484 	 6.44652 	 86.5987 	 
H 	 14.3675 	 8.35365 	 86.8763 	 
C 	 16.6052 	 9.90254 	 85.8829 	 
H 	 17.2601 	 10.032 	 85.0488 	 
H 	 17.1517 	 10.2677 	 86.7654 	 
C 	 15.3693 	 10.797 	 85.6912 	 
H 	 14.7786 	 10.6428 	 86.5972 	 
H 	 15.6808 	 11.7915 	 85.7264 	 
C 	 14.5746 	 10.3147 	 84.4444 	 
H 	 15.0139 	 10.5625 	 83.5602 	 
H 	 14.3994 	 9.23888 	 84.517 	 
H 	 13.5996 	 10.7907 	 84.3774 	 
S 	 14.6004 	 4.46261 	 88.4118 	 
C 	 12.9342 	 3.81903 	 88.4824 	 
C 	 12.1855 	 4.35467 	 87.461 	 
C 	 12.9339 	 5.3394 	 86.6892 	 
C 	 14.2231 	 5.57114 	 87.1079 	 
H 	 11.2089 	 3.89997 	 87.3167 	 
C 	 12.3194 	 5.77093 	 85.3575 	 
H 	 12.2034 	 4.88178 	 84.8469 	 
H 	 13.0557 	 6.3087 	 84.8265 	 
C 	 10.9772 	 6.60909 	 85.4535 	 
H 	 10.2537 	 5.92359 	 85.8512 	 
H 	 10.6243 	 6.84916 	 84.4604 	 
C 	 11.0093 	 7.79602 	 86.4875 	 
H 	 11.8379 	 8.49769 	 86.3667 	 
H 	 11.2713 	 7.4486 	 87.5497 	 
H 	 10.1076 	 8.39987 	 86.4691 	 
H 	 18.3213 	 7.70932 	 85.2316 	 
H 	 12.6785 	 2.94399 	 89.0378 	 
*
