! wB97X-D3 SP def2-SVP
%pal
nprocs 16
end

* xyz 0 1
S 	 -9.46913 	 60.2305 	 53.8913 	 
C 	 -8.67715 	 58.7595 	 53.9185 	 
C 	 -7.40631 	 58.9549 	 54.4566 	 
C 	 -7.31193 	 60.2221 	 55.1579 	 
C 	 -8.38057 	 61.0252 	 55.0971 	 
H 	 -6.44199 	 60.551 	 55.7736 	 
C 	 -6.28271 	 57.8988 	 54.4695 	 
H 	 -5.45214 	 58.4922 	 54.0453 	 
H 	 -6.43625 	 57.1136 	 53.6944 	 
C 	 -6.0485 	 57.2852 	 55.8806 	 
H 	 -5.58013 	 56.3641 	 55.696 	 
H 	 -5.34769 	 57.8375 	 56.3947 	 
C 	 -7.33473 	 57.1017 	 56.6501 	 
H 	 -7.17867 	 56.491 	 57.6038 	 
H 	 -7.81758 	 58.0159 	 56.9991 	 
H 	 -8.02331 	 56.6226 	 56.0266 	 
S 	 -7.66353 	 62.5824 	 57.2536 	 
C 	 -8.26447 	 64.1942 	 57.3544 	 
C 	 -9.15126 	 64.5266 	 56.2987 	 
C 	 -9.34284 	 63.4635 	 55.4005 	 
C 	 -8.56924 	 62.316 	 55.753 	 
H 	 -9.69924 	 65.4449 	 56.3464 	 
C 	 -10.1646 	 63.5012 	 54.1224 	 
H 	 -11.1833 	 63.0928 	 54.1816 	 
H 	 -9.5947 	 62.8751 	 53.4804 	 
C 	 -10.2524 	 64.8331 	 53.3606 	 
H 	 -10.7875 	 65.5745 	 53.881 	 
H 	 -10.9051 	 64.6226 	 52.5074 	 
C 	 -8.96345 	 65.4177 	 52.9009 	 
H 	 -8.32623 	 64.6522 	 52.5736 	 
H 	 -8.49264 	 65.8892 	 53.8084 	 
H 	 -9.08474 	 66.1772 	 52.0911 	 
H 	 -8.94654 	 57.8245 	 53.4273 	 
H 	 -7.98414 	 64.9074 	 58.1632 	 
*
