! wB97X-D3 SP def2-SVP
%pal
nprocs 16
end

* xyz 0 1
S 	 -24.2074 	 52.1187 	 68.0465 	 
C 	 -22.8319 	 52.4312 	 67.0482 	 
C 	 -22.0383 	 51.2747 	 66.7778 	 
C 	 -22.4821 	 50.1705 	 67.6293 	 
C 	 -23.6623 	 50.4615 	 68.3205 	 
H 	 -22.0025 	 49.1588 	 67.7371 	 
C 	 -20.756 	 51.156 	 65.986 	 
H 	 -20.0374 	 50.4196 	 66.4996 	 
H 	 -20.2708 	 52.1745 	 66.0259 	 
C 	 -21.0123 	 50.6598 	 64.5494 	 
H 	 -20.0146 	 50.49 	 64.094 	 
H 	 -21.5228 	 49.6762 	 64.5251 	 
C 	 -21.8588 	 51.7016 	 63.7228 	 
H 	 -21.9345 	 51.5329 	 62.6109 	 
H 	 -22.935 	 51.7571 	 64.1045 	 
H 	 -21.3666 	 52.7251 	 63.7665 	 
S 	 -24.869 	 49.9911 	 70.7377 	 
C 	 -25.3154 	 48.408 	 71.2921 	 
C 	 -25.0714 	 47.5337 	 70.246 	 
C 	 -24.6306 	 48.139 	 69.0466 	 
C 	 -24.3736 	 49.4865 	 69.1721 	 
H 	 -25.2139 	 46.4976 	 70.5217 	 
C 	 -24.3607 	 47.3231 	 67.8147 	 
H 	 -24.4296 	 47.9285 	 66.9075 	 
H 	 -25.2243 	 46.7046 	 67.6718 	 
C 	 -23.0121 	 46.5503 	 67.8808 	 
H 	 -23.0218 	 45.7384 	 68.6517 	 
H 	 -22.1571 	 47.1942 	 68.1441 	 
C 	 -22.7595 	 45.7932 	 66.5743 	 
H 	 -23.5172 	 44.9434 	 66.5425 	 
H 	 -21.7576 	 45.3657 	 66.5253 	 
H 	 -22.8792 	 46.3665 	 65.7255 	 
H 	 -22.6535 	 53.3664 	 66.5327 	 
H 	 -25.3702 	 48.1347 	 72.2879 	 
*
