! wB97X-D3 SP def2-SVP
%pal
nprocs 16
end

* xyz 0 1
S 	 -0.141607 	 -4.86013 	 89.9241 	 
C 	 1.2812 	 -4.89779 	 90.9524 	 
C 	 1.02686 	 -5.51428 	 92.1427 	 
C 	 -0.324777 	 -5.93676 	 92.2842 	 
C 	 -1.10326 	 -5.62882 	 91.1539 	 
H 	 -0.715151 	 -6.39163 	 93.1683 	 
C 	 2.06609 	 -5.78466 	 93.2231 	 
H 	 1.88068 	 -4.94343 	 93.9179 	 
H 	 3.08059 	 -5.63567 	 92.8452 	 
C 	 2.12509 	 -7.21205 	 93.8917 	 
H 	 2.63457 	 -7.26071 	 94.8706 	 
H 	 1.14844 	 -7.48758 	 94.2018 	 
C 	 2.42144 	 -8.46197 	 92.9926 	 
H 	 3.46987 	 -8.37552 	 92.5505 	 
H 	 2.40592 	 -9.36603 	 93.6448 	 
H 	 1.70578 	 -8.5291 	 92.1518 	 
S 	 -3.80528 	 -4.97264 	 90.3466 	 
C 	 -4.86078 	 -6.38343 	 89.8334 	 
C 	 -4.27289 	 -7.55321 	 90.4088 	 
C 	 -3.02848 	 -7.38972 	 91.0911 	 
C 	 -2.47808 	 -6.10768 	 90.8978 	 
H 	 -4.93358 	 -8.40103 	 90.5003 	 
C 	 -2.36289 	 -8.63882 	 91.6468 	 
H 	 -1.30588 	 -8.49163 	 91.7466 	 
H 	 -2.55035 	 -9.40343 	 90.8566 	 
C 	 -2.89085 	 -9.14708 	 93.0196 	 
H 	 -3.96889 	 -9.05833 	 92.9399 	 
H 	 -2.85755 	 -8.47636 	 93.8329 	 
C 	 -2.46011 	 -10.5824 	 93.3235 	 
H 	 -2.92927 	 -11.1128 	 94.151 	 
H 	 -1.38608 	 -10.5906 	 93.6333 	 
H 	 -2.58901 	 -11.2194 	 92.4525 	 
H 	 2.27899 	 -4.66275 	 90.5492 	 
H 	 -5.85002 	 -6.36806 	 89.4857 	 
*
