! wB97X-D3 SP def2-SVP
%pal
nprocs 16
end

* xyz 0 1
S 	 -38.7708 	 35.0532 	 85.8695 	 
C 	 -37.4482 	 36.192 	 85.8606 	 
C 	 -37.2661 	 36.8857 	 84.7275 	 
C 	 -38.2723 	 36.5271 	 83.7684 	 
C 	 -39.1969 	 35.5922 	 84.1783 	 
H 	 -38.367 	 37.0193 	 82.825 	 
C 	 -36.0375 	 37.7812 	 84.5109 	 
H 	 -35.2318 	 37.1143 	 84.3345 	 
H 	 -35.7411 	 38.3344 	 85.4184 	 
C 	 -36.1586 	 38.8604 	 83.4564 	 
H 	 -36.2517 	 38.4322 	 82.4727 	 
H 	 -37.0772 	 39.4692 	 83.5544 	 
C 	 -34.9675 	 39.7747 	 83.5138 	 
H 	 -34.9849 	 40.5862 	 82.8175 	 
H 	 -34.7587 	 40.2194 	 84.4927 	 
H 	 -34.115 	 39.2069 	 83.2575 	 
S 	 -41.8637 	 34.9809 	 84.4453 	 
C 	 -42.8082 	 34.6916 	 82.989 	 
C 	 -42.0413 	 34.6643 	 81.8493 	 
C 	 -40.6659 	 34.9849 	 82.1052 	 
C 	 -40.3893 	 35.2087 	 83.4583 	 
H 	 -42.4628 	 34.4277 	 80.9262 	 
C 	 -39.5514 	 34.9531 	 81.0213 	 
H 	 -38.6608 	 34.848 	 81.633 	 
H 	 -39.6204 	 35.9337 	 80.5116 	 
C 	 -39.4402 	 33.8328 	 79.9851 	 
H 	 -40.235 	 33.9665 	 79.2297 	 
H 	 -39.6458 	 32.8941 	 80.5478 	 
C 	 -38.2368 	 33.8028 	 79.1472 	 
H 	 -38.3974 	 34.5815 	 78.4503 	 
H 	 -38.0372 	 32.9045 	 78.5092 	 
H 	 -37.3936 	 34.0733 	 79.7478 	 
H 	 -36.7704 	 36.2277 	 86.7855 	 
H 	 -43.7948 	 34.3161 	 83.0143 	 
*
