! wB97X-D3 SP def2-SVP
%pal
nprocs 16
end

* xyz 0 1
S 	 -40.0901 	 52.4019 	 102.004 	 
C 	 -38.7746 	 53.4067 	 101.504 	 
C 	 -37.5815 	 52.7605 	 101.563 	 
C 	 -37.7915 	 51.3819 	 101.98 	 
C 	 -39.0607 	 51.0171 	 102.285 	 
H 	 -37.0355 	 50.6306 	 102.037 	 
C 	 -36.1685 	 53.3756 	 101.295 	 
H 	 -36.2488 	 54.2625 	 100.733 	 
H 	 -35.5492 	 52.6367 	 100.717 	 
C 	 -35.322 	 53.6086 	 102.576 	 
H 	 -35.5851 	 52.772 	 103.214 	 
H 	 -34.2231 	 53.572 	 102.485 	 
C 	 -35.7146 	 54.9093 	 103.294 	 
H 	 -35.4623 	 55.8236 	 102.853 	 
H 	 -36.8367 	 54.9117 	 103.544 	 
H 	 -35.318 	 54.8998 	 104.291 	 
S 	 -39.3412 	 48.3925 	 101.617 	 
C 	 -40.0294 	 47.2713 	 102.735 	 
C 	 -40.3152 	 47.8714 	 103.948 	 
C 	 -39.8963 	 49.272 	 104.004 	 
C 	 -39.4723 	 49.7039 	 102.756 	 
H 	 -40.8855 	 47.3329 	 104.709 	 
C 	 -40.1633 	 50.0402 	 105.287 	 
H 	 -40.316 	 49.3319 	 106.034 	 
H 	 -41.0545 	 50.5906 	 105.315 	 
C 	 -38.9128 	 50.9416 	 105.57 	 
H 	 -38.5723 	 51.4713 	 104.718 	 
H 	 -38.0322 	 50.3061 	 105.849 	 
C 	 -39.1496 	 51.895 	 106.803 	 
H 	 -39.4906 	 51.2941 	 107.642 	 
H 	 -39.9224 	 52.6654 	 106.731 	 
H 	 -38.2495 	 52.4439 	 107.094 	 
H 	 -38.8078 	 54.4555 	 101.23 	 
H 	 -40.2353 	 46.1909 	 102.438 	 
*
