! wB97X-D3 SP def2-SVP
%pal
nprocs 16
end

* xyz 0 1
S 	 37.2399 	 18.3202 	 76.53 	 
C 	 36.0345 	 17.2853 	 77.3022 	 
C 	 36.7112 	 16.3727 	 78.1494 	 
C 	 38.1207 	 16.634 	 78.2178 	 
C 	 38.5356 	 17.6167 	 77.3816 	 
H 	 38.789 	 15.9776 	 78.6978 	 
C 	 36.0857 	 15.2101 	 78.9894 	 
H 	 35.1221 	 15.6415 	 79.2861 	 
H 	 36.6406 	 15.0344 	 79.89 	 
C 	 35.8226 	 14.0405 	 78.1204 	 
H 	 35.2294 	 14.2213 	 77.1827 	 
H 	 36.7738 	 13.5805 	 77.7152 	 
C 	 35.0048 	 13.0906 	 78.9692 	 
H 	 35.5556 	 12.8222 	 79.8806 	 
H 	 34.0082 	 13.5442 	 79.203 	 
H 	 34.8866 	 12.0957 	 78.4079 	 
S 	 40.6023 	 18.0439 	 75.582 	 
C 	 42.1979 	 18.387 	 76.1778 	 
C 	 42.2014 	 18.361 	 77.5661 	 
C 	 40.9187 	 18.1975 	 78.1294 	 
C 	 39.9139 	 18.0131 	 77.1809 	 
H 	 43.1004 	 18.5097 	 78.1578 	 
C 	 40.7194 	 18.2976 	 79.6364 	 
H 	 41.3053 	 17.5035 	 80.1287 	 
H 	 39.6494 	 18.1317 	 79.7912 	 
C 	 40.9002 	 19.6593 	 80.2842 	 
H 	 40.2916 	 20.3606 	 79.7123 	 
H 	 41.9435 	 19.9638 	 80.0556 	 
C 	 40.6766 	 19.6836 	 81.8076 	 
H 	 39.6788 	 19.4491 	 82.1548 	 
H 	 40.8682 	 20.7141 	 82.1865 	 
H 	 41.3733 	 19.0549 	 82.4417 	 
H 	 34.9834 	 17.2819 	 77.1737 	 
H 	 43.1077 	 18.5442 	 75.6495 	 
*
