! wB97X-D3 SP def2-SVP
%pal
nprocs 16
end

* xyz 0 1
S 	 10.4947 	 -15.8561 	 66.4724 	 
C 	 9.78079 	 -14.9257 	 65.2048 	 
C 	 10.4964 	 -13.757 	 64.9471 	 
C 	 11.5582 	 -13.5962 	 65.912 	 
C 	 11.656 	 -14.6243 	 66.8418 	 
H 	 12.277 	 -12.7881 	 65.9268 	 
C 	 10.3943 	 -12.819 	 63.7741 	 
H 	 10.3363 	 -13.4423 	 62.8872 	 
H 	 11.336 	 -12.3626 	 63.6651 	 
C 	 9.30649 	 -11.7312 	 63.8829 	 
H 	 9.32609 	 -11.1587 	 64.7933 	 
H 	 9.54881 	 -10.9201 	 63.2187 	 
C 	 7.90377 	 -12.3699 	 63.593 	 
H 	 7.06202 	 -11.6419 	 63.6521 	 
H 	 7.99997 	 -12.8271 	 62.5949 	 
H 	 7.62408 	 -13.2922 	 64.226 	 
S 	 13.4726 	 -15.9678 	 68.3687 	 
C 	 13.6452 	 -15.5003 	 70.0116 	 
C 	 13.0026 	 -14.3089 	 70.3482 	 
C 	 12.2896 	 -13.7922 	 69.2226 	 
C 	 12.3491 	 -14.6042 	 68.0847 	 
H 	 13.166 	 -13.8959 	 71.3903 	 
C 	 11.4422 	 -12.5833 	 69.409 	 
H 	 11.6673 	 -11.9271 	 68.5885 	 
H 	 11.7741 	 -12.1802 	 70.3795 	 
C 	 9.86974 	 -12.79 	 69.4682 	 
H 	 9.58208 	 -11.8724 	 69.9596 	 
H 	 9.65847 	 -13.6303 	 70.1494 	 
C 	 9.1791 	 -12.9016 	 68.1008 	 
H 	 9.10404 	 -13.9375 	 67.7248 	 
H 	 9.50901 	 -12.1857 	 67.2996 	 
H 	 8.1836 	 -12.4988 	 68.3428 	 
H 	 8.95957 	 -15.1879 	 64.546 	 
H 	 14.3437 	 -15.9517 	 70.7087 	 
*
