! wB97X-D3 SP def2-SVP
%pal
nprocs 16
end

* xyz 0 1
S 	 38.0824 	 25.1292 	 93.3637 	 
C 	 38.8986 	 26.3721 	 92.5022 	 
C 	 40.279 	 26.3155 	 92.585 	 
C 	 40.6074 	 25.0595 	 93.1527 	 
C 	 39.5495 	 24.2028 	 93.4779 	 
H 	 41.5754 	 24.6371 	 93.0643 	 
C 	 41.3578 	 27.2381 	 92.1351 	 
H 	 42.2565 	 26.9367 	 92.7062 	 
H 	 41.1565 	 28.3026 	 92.3979 	 
C 	 41.5497 	 27.265 	 90.6366 	 
H 	 40.6078 	 27.5574 	 90.1759 	 
H 	 42.3106 	 27.9983 	 90.4105 	 
C 	 41.9327 	 25.9586 	 90.0096 	 
H 	 42.2175 	 26.024 	 88.9059 	 
H 	 42.8338 	 25.6154 	 90.4696 	 
H 	 41.1914 	 25.1816 	 90.2131 	 
S 	 39.4731 	 22.2871 	 95.5176 	 
C 	 40.0767 	 20.7017 	 95.1123 	 
C 	 40.3154 	 20.4867 	 93.7892 	 
C 	 39.9485 	 21.6797 	 93.0656 	 
C 	 39.6382 	 22.797 	 93.8584 	 
H 	 40.6098 	 19.5693 	 93.4515 	 
C 	 40.1933 	 21.8526 	 91.5854 	 
H 	 41.1472 	 21.4334 	 91.3957 	 
H 	 40.2072 	 22.8676 	 91.2014 	 
C 	 39.1049 	 21.0166 	 90.7869 	 
H 	 38.1874 	 21.4691 	 91.0938 	 
H 	 39.0955 	 19.9994 	 91.1068 	 
C 	 39.1922 	 21.2791 	 89.264 	 
H 	 38.3168 	 20.876 	 88.7893 	 
H 	 40.0301 	 20.8141 	 88.7775 	 
H 	 39.2128 	 22.3635 	 89.0965 	 
H 	 38.3032 	 27.2422 	 92.14 	 
H 	 40.3977 	 19.93 	 95.8508 	 
*
