! wB97X-D3 SP def2-SVP
%pal
nprocs 16
end

* xyz 0 1
S 	 -44.4407 	 54.6879 	 99.4848 	 
C 	 -45.1606 	 54.1873 	 101.025 	 
C 	 -46.22 	 55.0129 	 101.388 	 
C 	 -46.4728 	 56.0423 	 100.416 	 
C 	 -45.4571 	 56.1116 	 99.4116 	 
H 	 -47.3151 	 56.7749 	 100.425 	 
C 	 -47.127 	 54.8267 	 102.557 	 
H 	 -47.4443 	 55.7967 	 102.965 	 
H 	 -46.5549 	 54.3423 	 103.383 	 
C 	 -48.3503 	 53.9494 	 102.313 	 
H 	 -48.9013 	 54.4631 	 101.626 	 
H 	 -48.0768 	 53.0451 	 101.662 	 
C 	 -49.2527 	 53.6431 	 103.491 	 
H 	 -48.6933 	 53.379 	 104.432 	 
H 	 -49.9978 	 54.3669 	 103.708 	 
H 	 -50.1108 	 53.0371 	 103.219 	 
S 	 -43.8445 	 57.856 	 98.2288 	 
C 	 -44.1969 	 58.8094 	 96.8981 	 
C 	 -45.5175 	 58.488 	 96.5369 	 
C 	 -46.1601 	 57.457 	 97.321 	 
C 	 -45.3562 	 57.0459 	 98.3498 	 
H 	 -45.9889 	 59.0109 	 95.7294 	 
C 	 -47.5204 	 56.8093 	 96.9852 	 
H 	 -48.2223 	 57.4382 	 96.5853 	 
H 	 -47.996 	 56.4196 	 97.8736 	 
C 	 -47.4842 	 55.5857 	 96.0084 	 
H 	 -47.0055 	 55.8457 	 95.0495 	 
H 	 -48.4413 	 55.1859 	 95.8631 	 
C 	 -46.6311 	 54.3935 	 96.6047 	 
H 	 -47.0502 	 53.9233 	 97.5288 	 
H 	 -45.6378 	 54.7803 	 96.7243 	 
H 	 -46.5312 	 53.6002 	 95.8509 	 
H 	 -44.9216 	 53.2937 	 101.658 	 
H 	 -43.5982 	 59.616 	 96.4277 	 
*
