! wB97X-D3 SP def2-SVP
%pal
nprocs 16
end

* xyz 0 1
S 	 54.7934 	 5.80622 	 65.0437 	 
C 	 55.093 	 7.34991 	 65.9096 	 
C 	 54.772 	 8.43878 	 65.1361 	 
C 	 54.3277 	 7.99381 	 63.8556 	 
C 	 54.3046 	 6.60459 	 63.6152 	 
H 	 53.9306 	 8.64783 	 63.0707 	 
C 	 54.9196 	 9.90691 	 65.5268 	 
H 	 55.1569 	 9.8414 	 66.6156 	 
H 	 53.9318 	 10.3452 	 65.4489 	 
C 	 55.9743 	 10.7515 	 64.7374 	 
H 	 57.0656 	 10.4042 	 65.1094 	 
H 	 56.0419 	 10.6347 	 63.6765 	 
C 	 55.8385 	 12.3185 	 64.9958 	 
H 	 54.7136 	 12.6368 	 64.86 	 
H 	 56.0123 	 12.5562 	 66.0205 	 
H 	 56.4612 	 12.9679 	 64.3406 	 
S 	 53.1574 	 4.3607 	 62.7862 	 
C 	 52.8917 	 3.99971 	 61.1871 	 
C 	 53.3171 	 5.02197 	 60.3331 	 
C 	 53.7931 	 6.12448 	 61.1217 	 
C 	 53.8689 	 5.86964 	 62.4476 	 
H 	 53.2469 	 4.87925 	 59.2427 	 
C 	 54.1346 	 7.40821 	 60.4657 	 
H 	 54.7169 	 7.18894 	 59.5273 	 
H 	 54.8355 	 7.90827 	 61.2077 	 
C 	 52.9308 	 8.34151 	 60.1219 	 
H 	 52.5927 	 8.86446 	 61.0447 	 
H 	 52.1109 	 7.73114 	 59.8278 	 
C 	 53.1603 	 9.29867 	 58.9688 	 
H 	 52.2613 	 9.78626 	 58.6526 	 
H 	 53.6028 	 8.71792 	 58.1363 	 
H 	 53.7762 	 10.2047 	 59.2309 	 
H 	 55.4129 	 7.39009 	 66.9342 	 
H 	 52.55 	 3.09862 	 60.729 	 
*
