! wB97X-D3 SP def2-SVP
%pal
nprocs 16
end

* xyz 0 1
S 	 54.6618 	 12.477 	 52.0409 	 
C 	 53.8009 	 13.745 	 51.2245 	 
C 	 52.4294 	 13.4219 	 51.1568 	 
C 	 52.1302 	 12.0483 	 51.5213 	 
C 	 53.1971 	 11.422 	 52.1229 	 
H 	 51.153 	 11.5467 	 51.3735 	 
C 	 51.423 	 14.1691 	 50.4324 	 
H 	 51.5074 	 15.3005 	 50.6504 	 
H 	 50.4522 	 13.7999 	 50.75 	 
C 	 51.4969 	 13.9513 	 48.8858 	 
H 	 51.5551 	 12.9121 	 48.6361 	 
H 	 50.6067 	 14.4193 	 48.4017 	 
C 	 52.6288 	 14.6137 	 48.0777 	 
H 	 53.675 	 14.3589 	 48.4777 	 
H 	 52.608 	 14.3788 	 47.0028 	 
H 	 52.4634 	 15.7113 	 48.1083 	 
S 	 54.856 	 9.39957 	 52.657 	 
C 	 54.3768 	 8.01371 	 53.4659 	 
C 	 53.0172 	 8.00245 	 53.7256 	 
C 	 52.3619 	 9.18843 	 53.2638 	 
C 	 53.2857 	 10.1047 	 52.7417 	 
H 	 52.6042 	 7.19114 	 54.2338 	 
C 	 50.9335 	 9.48421 	 53.6992 	 
H 	 50.8701 	 10.5452 	 53.8061 	 
H 	 50.6564 	 9.07954 	 54.6214 	 
C 	 49.8761 	 8.91272 	 52.6629 	 
H 	 49.8885 	 7.84453 	 52.7673 	 
H 	 50.3426 	 9.07878 	 51.6434 	 
C 	 48.508 	 9.52847 	 52.8883 	 
H 	 48.5842 	 10.5782 	 52.6985 	 
H 	 48.2157 	 9.34757 	 53.9091 	 
H 	 47.7859 	 9.2655 	 52.1062 	 
H 	 54.1636 	 14.6909 	 50.8518 	 
H 	 55.0159 	 7.17585 	 53.6953 	 
*
