! wB97X-D3 SP def2-SVP
%pal
nprocs 16
end

* xyz 0 1
S 	 -43.3536 	 24.4225 	 90.8085 	 
C 	 -43.3038 	 22.7466 	 91.1862 	 
C 	 -42.0167 	 22.1766 	 90.9484 	 
C 	 -41.1119 	 23.178 	 90.5896 	 
C 	 -41.7358 	 24.3436 	 90.2651 	 
H 	 -40.0814 	 22.9996 	 90.3097 	 
C 	 -41.7094 	 20.6927 	 91.1071 	 
H 	 -42.2462 	 20.3714 	 91.9823 	 
H 	 -40.6397 	 20.5676 	 91.3673 	 
C 	 -42.0641 	 19.8008 	 89.9357 	 
H 	 -41.8335 	 18.7178 	 90.1512 	 
H 	 -43.0995 	 19.6768 	 89.8725 	 
C 	 -41.532 	 20.2209 	 88.5864 	 
H 	 -41.7306 	 21.2625 	 88.3579 	 
H 	 -40.4772 	 20.1348 	 88.4944 	 
H 	 -41.9391 	 19.6665 	 87.765 	 
S 	 -41.5736 	 25.9754 	 88.0488 	 
C 	 -40.3882 	 27.2828 	 88.0718 	 
C 	 -39.7128 	 27.3961 	 89.2516 	 
C 	 -40.1493 	 26.3771 	 90.2201 	 
C 	 -41.0551 	 25.5111 	 89.6793 	 
H 	 -38.9828 	 28.1456 	 89.3391 	 
C 	 -39.5126 	 26.279 	 91.5922 	 
H 	 -39.3067 	 25.247 	 91.6973 	 
H 	 -40.266 	 26.548 	 92.2983 	 
C 	 -38.2495 	 27.1234 	 91.9024 	 
H 	 -38.0051 	 27.0103 	 92.9505 	 
H 	 -38.5432 	 28.1567 	 91.8863 	 
C 	 -37.0065 	 26.8946 	 91.0247 	 
H 	 -36.2347 	 27.6573 	 91.2474 	 
H 	 -37.1968 	 26.9962 	 89.986 	 
H 	 -36.4678 	 25.975 	 91.1309 	 
H 	 -44.1021 	 22.2397 	 91.6536 	 
H 	 -40.223 	 28.1003 	 87.3499 	 
*
