! wB97X-D3 SP def2-SVP
%pal
nprocs 16
end

* xyz 0 1
S 	 -33.0411 	 40.794 	 96.7573 	 
C 	 -33.2246 	 39.3673 	 95.8368 	 
C 	 -33.8255 	 38.3485 	 96.5858 	 
C 	 -34.0931 	 38.8032 	 97.921 	 
C 	 -33.8431 	 40.1448 	 98.1611 	 
H 	 -34.5909 	 38.2126 	 98.6208 	 
C 	 -34.2444 	 36.9204 	 96.2489 	 
H 	 -34.8905 	 36.89 	 95.3267 	 
H 	 -34.8217 	 36.5602 	 97.1236 	 
C 	 -33.0805 	 35.9316 	 95.9444 	 
H 	 -32.6247 	 36.2152 	 95.0386 	 
H 	 -32.3137 	 36.0251 	 96.7305 	 
C 	 -33.491 	 34.4269 	 95.7292 	 
H 	 -32.6462 	 33.7957 	 95.4537 	 
H 	 -33.8873 	 33.8839 	 96.5907 	 
H 	 -34.3007 	 34.3494 	 94.9312 	 
S 	 -35.0682 	 42.5043 	 98.9504 	 
C 	 -35.2378 	 42.8439 	 100.661 	 
C 	 -34.611 	 41.9032 	 101.412 	 
C 	 -33.9918 	 40.8599 	 100.707 	 
C 	 -34.1435 	 40.9871 	 99.3039 	 
H 	 -34.6942 	 42.1814 	 102.531 	 
C 	 -33.3454 	 39.7636 	 101.517 	 
H 	 -32.5105 	 40.134 	 102.142 	 
H 	 -33.055 	 38.9697 	 100.904 	 
C 	 -34.5034 	 39.0462 	 102.327 	 
H 	 -35.2602 	 38.6217 	 101.642 	 
H 	 -35.0429 	 39.765 	 103.043 	 
C 	 -34.0735 	 37.802 	 103.164 	 
H 	 -33.09 	 38.0346 	 103.612 	 
H 	 -33.8618 	 36.9758 	 102.531 	 
H 	 -34.855 	 37.5828 	 103.958 	 
H 	 -32.7226 	 39.1655 	 94.8229 	 
H 	 -35.7807 	 43.7284 	 101.116 	 
*
