! wB97X-D3 SP def2-SVP
%pal
nprocs 16
end

* xyz 0 1
S 	 -1.70663 	 24.1962 	 36.0808 	 
C 	 -2.41589 	 24.8028 	 34.6237 	 
C 	 -1.96689 	 24.1406 	 33.4933 	 
C 	 -0.854423 	 23.3529 	 33.8263 	 
C 	 -0.55056 	 23.334 	 35.1674 	 
H 	 -0.172663 	 22.891 	 33.2219 	 
C 	 -2.55813 	 24.2768 	 32.1069 	 
H 	 -1.77518 	 24.8162 	 31.5198 	 
H 	 -3.42225 	 24.9583 	 32.2667 	 
C 	 -2.82001 	 22.9738 	 31.2828 	 
H 	 -1.84558 	 22.395 	 31.1778 	 
H 	 -3.43106 	 22.3571 	 31.9785 	 
C 	 -3.58186 	 23.1901 	 29.8909 	 
H 	 -4.03774 	 22.2931 	 29.5366 	 
H 	 -4.2888 	 24.0085 	 30.0051 	 
H 	 -2.75795 	 23.5229 	 29.1576 	 
S 	 1.77607 	 23.7873 	 36.7213 	 
C 	 2.8537 	 22.5303 	 36.9782 	 
C 	 2.32677 	 21.3458 	 36.4836 	 
C 	 1.01414 	 21.4202 	 35.8748 	 
C 	 0.589851 	 22.7534 	 35.8711 	 
H 	 3.00482 	 20.5556 	 36.3669 	 
C 	 0.241519 	 20.2625 	 35.1819 	 
H 	 0.541273 	 20.1295 	 34.1824 	 
H 	 -0.778336 	 20.5131 	 35.2727 	 
C 	 0.418248 	 18.8971 	 35.8949 	 
H 	 1.49992 	 18.6603 	 35.9 	 
H 	 -0.138351 	 18.03 	 35.4664 	 
C 	 0.0628329 	 18.9062 	 37.3613 	 
H 	 -0.140215 	 17.9023 	 37.7271 	 
H 	 -0.863484 	 19.381 	 37.5176 	 
H 	 0.798713 	 19.2652 	 38.153 	 
H 	 -3.3876 	 25.3241 	 34.6689 	 
H 	 3.86138 	 22.5045 	 37.281 	 
*
