! wB97X-D3 SP def2-SVP
%pal
nprocs 16
end

* xyz 0 1
S 	 -49.0114 	 66.414 	 126.401 	 
C 	 -47.9816 	 64.9851 	 126.409 	 
C 	 -47.5324 	 64.7152 	 127.679 	 
C 	 -48.1316 	 65.5854 	 128.649 	 
C 	 -48.8537 	 66.6383 	 128.097 	 
H 	 -48.0268 	 65.4977 	 129.708 	 
C 	 -46.7151 	 63.5376 	 128.143 	 
H 	 -46.9723 	 63.3376 	 129.228 	 
H 	 -45.6945 	 63.8572 	 128.173 	 
C 	 -46.9015 	 62.3196 	 127.302 	 
H 	 -47.9752 	 62.1227 	 126.968 	 
H 	 -46.2624 	 62.4279 	 126.353 	 
C 	 -46.5087 	 61.1054 	 128.024 	 
H 	 -46.3854 	 60.2969 	 127.305 	 
H 	 -45.5342 	 61.0925 	 128.459 	 
H 	 -47.2854 	 60.9652 	 128.785 	 
S 	 -49.3139 	 69.324 	 128.384 	 
C 	 -50.5854 	 69.8359 	 129.414 	 
C 	 -51.0962 	 68.8077 	 130.171 	 
C 	 -50.5872 	 67.5398 	 129.74 	 
C 	 -49.6465 	 67.6594 	 128.74 	 
H 	 -51.8013 	 68.9553 	 131.016 	 
C 	 -50.9702 	 66.1993 	 130.327 	 
H 	 -51.3402 	 66.3104 	 131.367 	 
H 	 -50.133 	 65.5289 	 130.529 	 
C 	 -52.0153 	 65.3916 	 129.509 	 
H 	 -51.7455 	 65.1766 	 128.48 	 
H 	 -52.7442 	 66.175 	 129.331 	 
C 	 -52.602 	 64.1527 	 130.223 	 
H 	 -53.0994 	 63.5129 	 129.462 	 
H 	 -53.3406 	 64.297 	 131.036 	 
H 	 -51.8356 	 63.474 	 130.655 	 
H 	 -47.6825 	 64.4495 	 125.522 	 
H 	 -50.8389 	 70.872 	 129.54 	 
*
