! wB97X-D3 SP def2-SVP
%pal
nprocs 16
end

* xyz 0 1
S 	 62.4913 	 18.5549 	 79.1879 	 
C 	 62.1252 	 19.9694 	 80.1668 	 
C 	 61.149 	 19.6464 	 81.0987 	 
C 	 60.7516 	 18.2653 	 81.0346 	 
C 	 61.3819 	 17.5584 	 80.0028 	 
H 	 60.1284 	 17.7948 	 81.8097 	 
C 	 60.7176 	 20.6168 	 82.2242 	 
H 	 61.6174 	 21.1697 	 82.5242 	 
H 	 60.3964 	 20.0961 	 83.1205 	 
C 	 59.73 	 21.7349 	 81.7438 	 
H 	 60.3193 	 22.2189 	 80.9437 	 
H 	 58.9036 	 21.0825 	 81.4115 	 
C 	 59.2628 	 22.7875 	 82.7568 	 
H 	 58.6263 	 23.4996 	 82.2812 	 
H 	 58.709 	 22.2355 	 83.5759 	 
H 	 60.0794 	 23.3912 	 83.2337 	 
S 	 62.7538 	 15.1938 	 79.838 	 
C 	 61.9286 	 13.7382 	 79.2378 	 
C 	 60.5407 	 13.9838 	 79.0663 	 
C 	 60.1962 	 15.3062 	 79.4031 	 
C 	 61.3149 	 16.127 	 79.7098 	 
H 	 59.9137 	 13.1937 	 78.6328 	 
C 	 58.7106 	 15.6902 	 79.1282 	 
H 	 58.5539 	 15.5757 	 78.0579 	 
H 	 58.479 	 16.7483 	 79.2604 	 
C 	 57.6223 	 14.947 	 79.9974 	 
H 	 57.7982 	 15.3478 	 80.9694 	 
H 	 57.7519 	 13.8607 	 80.0853 	 
C 	 56.1975 	 15.3282 	 79.6555 	 
H 	 56.1005 	 16.4513 	 79.5855 	 
H 	 55.512 	 14.9871 	 80.3966 	 
H 	 56.0011 	 14.9763 	 78.6355 	 
H 	 62.5678 	 21.0067 	 80.0112 	 
H 	 62.4354 	 12.8293 	 79.0072 	 
*
