! wB97X-D3 SP def2-SVP
%pal
nprocs 16
end

* xyz 0 1
S 	 -38.2499 	 65.2045 	 145.723 	 
C 	 -39.5437 	 65.2615 	 144.492 	 
C 	 -39.8976 	 66.5197 	 144.308 	 
C 	 -39.2336 	 67.4129 	 145.205 	 
C 	 -38.5329 	 66.7987 	 146.212 	 
H 	 -39.3817 	 68.5089 	 145.304 	 
C 	 -40.8977 	 67.0294 	 143.28 	 
H 	 -41.5253 	 67.8829 	 143.636 	 
H 	 -41.5852 	 66.2207 	 143.055 	 
C 	 -40.4057 	 67.5757 	 141.854 	 
H 	 -39.5302 	 66.9563 	 141.501 	 
H 	 -41.3572 	 67.3851 	 141.298 	 
C 	 -39.8683 	 69.0074 	 141.801 	 
H 	 -39.5178 	 69.3278 	 140.836 	 
H 	 -40.6244 	 69.7359 	 141.961 	 
H 	 -39.0876 	 69.2685 	 142.548 	 
S 	 -38.8346 	 68.0907 	 148.552 	 
C 	 -37.4439 	 68.5335 	 149.434 	 
C 	 -36.2878 	 68.007 	 148.844 	 
C 	 -36.4274 	 67.5676 	 147.497 	 
C 	 -37.8026 	 67.4112 	 147.288 	 
H 	 -35.3537 	 68.1712 	 149.362 	 
C 	 -35.2267 	 67.1857 	 146.546 	 
H 	 -35.036 	 67.9816 	 145.779 	 
H 	 -35.554 	 66.2858 	 145.96 	 
C 	 -33.8368 	 67.0231 	 147.196 	 
H 	 -33.9191 	 66.426 	 148.114 	 
H 	 -33.5126 	 68.0328 	 147.53 	 
C 	 -32.8462 	 66.4151 	 146.184 	 
H 	 -32.6895 	 67.0944 	 145.313 	 
H 	 -33.1562 	 65.3617 	 145.811 	 
H 	 -31.952 	 66.1425 	 146.715 	 
H 	 -39.9498 	 64.4568 	 143.857 	 
H 	 -37.3979 	 68.7957 	 150.469 	 
*
