! wB97X-D3 SP def2-SVP
%pal
nprocs 16
end

* xyz 0 1
S 	 -1.11165 	 8.46106 	 82.931 	 
C 	 -0.761042 	 7.93785 	 81.3441 	 
C 	 -1.90357 	 7.95997 	 80.5771 	 
C 	 -3.07347 	 8.17116 	 81.3479 	 
C 	 -2.80835 	 8.3286 	 82.6891 	 
H 	 -4.05119 	 8.14477 	 80.8613 	 
C 	 -1.89186 	 7.47876 	 79.0937 	 
H 	 -2.71523 	 6.68377 	 79.1279 	 
H 	 -0.999078 	 6.87968 	 78.9415 	 
C 	 -2.08813 	 8.5118 	 78.0227 	 
H 	 -2.32156 	 7.94022 	 77.0814 	 
H 	 -2.88457 	 9.17792 	 78.4289 	 
C 	 -0.793433 	 9.39161 	 77.7646 	 
H 	 -0.0890286 	 8.6156 	 77.4767 	 
H 	 -0.8803 	 10.0098 	 76.8923 	 
H 	 -0.503304 	 9.88487 	 78.6688 	 
S 	 -3.4146 	 9.40454 	 85.2226 	 
C 	 -5.07218 	 9.35651 	 85.7522 	 
C 	 -5.87469 	 8.71386 	 84.8669 	 
C 	 -5.17258 	 8.13756 	 83.7449 	 
C 	 -3.82661 	 8.45255 	 83.7355 	 
H 	 -6.96567 	 8.70109 	 85.0289 	 
C 	 -5.90922 	 7.34537 	 82.7557 	 
H 	 -6.54058 	 6.60624 	 83.2355 	 
H 	 -5.27929 	 6.67461 	 82.1779 	 
C 	 -6.94839 	 8.15565 	 81.8894 	 
H 	 -6.34888 	 8.89948 	 81.2747 	 
H 	 -7.549 	 8.67226 	 82.6066 	 
C 	 -7.78366 	 7.38311 	 80.8566 	 
H 	 -7.0953 	 6.81062 	 80.2437 	 
H 	 -8.28766 	 8.16728 	 80.3019 	 
H 	 -8.56835 	 6.7689 	 81.3612 	 
H 	 0.286665 	 7.91131 	 81.066 	 
H 	 -5.39012 	 10.0252 	 86.5693 	 
*
