! wB97X-D3 SP def2-SVP
%pal
nprocs 16
end

* xyz 0 1
S 	 -32.3837 	 59.436 	 112.254 	 
C 	 -32.3011 	 57.7784 	 111.673 	 
C 	 -31.0869 	 57.2068 	 111.887 	 
C 	 -30.1031 	 58.2199 	 112.183 	 
C 	 -30.628 	 59.4379 	 112.48 	 
H 	 -29.0498 	 58.0473 	 112.343 	 
C 	 -30.7017 	 55.7688 	 111.708 	 
H 	 -31.3069 	 55.0907 	 112.195 	 
H 	 -29.6815 	 55.7909 	 112.081 	 
C 	 -30.5663 	 55.2014 	 110.229 	 
H 	 -31.5322 	 55.268 	 109.703 	 
H 	 -29.8161 	 55.7595 	 109.698 	 
C 	 -30.2128 	 53.7195 	 110.233 	 
H 	 -31.0088 	 53.1403 	 110.606 	 
H 	 -30.1171 	 53.3415 	 109.206 	 
H 	 -29.4 	 53.4111 	 110.956 	 
S 	 -30.7459 	 61.8353 	 113.751 	 
C 	 -29.3869 	 62.8399 	 113.826 	 
C 	 -28.3434 	 62.3077 	 113.139 	 
C 	 -28.6522 	 61.1439 	 112.438 	 
C 	 -29.845 	 60.6381 	 112.828 	 
H 	 -27.3654 	 62.7051 	 113.284 	 
C 	 -27.462 	 60.5369 	 111.667 	 
H 	 -27.5219 	 59.3962 	 111.681 	 
H 	 -26.502 	 60.8159 	 112.229 	 
C 	 -27.4421 	 61.0517 	 110.241 	 
H 	 -27.303 	 62.1223 	 110.269 	 
H 	 -28.3872 	 60.8588 	 109.684 	 
C 	 -26.3183 	 60.5779 	 109.36 	 
H 	 -25.9961 	 59.5557 	 109.589 	 
H 	 -25.4695 	 61.248 	 109.529 	 
H 	 -26.6163 	 60.4788 	 108.325 	 
H 	 -33.1593 	 57.1891 	 111.498 	 
H 	 -29.1779 	 63.6441 	 114.528 	 
*
