! wB97X-D3 SP def2-SVP
%pal
nprocs 16
end

* xyz 0 1
S 	 -56.3845 	 40.0848 	 112.474 	 
C 	 -55.168 	 41.3426 	 112.279 	 
C 	 -55.5681 	 42.3155 	 111.358 	 
C 	 -56.994 	 42.0472 	 110.998 	 
C 	 -57.6667 	 41.1109 	 111.66 	 
H 	 -57.5508 	 42.6737 	 110.417 	 
C 	 -54.6983 	 43.3677 	 110.801 	 
H 	 -54.7654 	 43.3477 	 109.673 	 
H 	 -53.6784 	 43.1579 	 111.05 	 
C 	 -54.8246 	 44.6762 	 111.614 	 
H 	 -54.3874 	 45.5313 	 111.073 	 
H 	 -55.8477 	 45.0029 	 111.637 	 
C 	 -54.1964 	 44.6026 	 112.96 	 
H 	 -54.5512 	 43.7473 	 113.586 	 
H 	 -53.0966 	 44.5224 	 112.964 	 
H 	 -54.4295 	 45.5152 	 113.561 	 
S 	 -59.3431 	 39.0102 	 111.507 	 
C 	 -61.0391 	 39.4177 	 111.54 	 
C 	 -61.3415 	 40.7572 	 111.819 	 
C 	 -60.1401 	 41.5622 	 111.823 	 
C 	 -59.0434 	 40.7664 	 111.566 	 
H 	 -62.3147 	 41.1702 	 111.966 	 
C 	 -60.1636 	 43.0015 	 112.087 	 
H 	 -59.1375 	 43.2841 	 112.076 	 
H 	 -60.5553 	 43.0346 	 113.123 	 
C 	 -60.8913 	 44.0089 	 111.148 	 
H 	 -61.9827 	 44.0207 	 111.394 	 
H 	 -60.8036 	 43.6097 	 110.169 	 
C 	 -60.3934 	 45.4263 	 111.251 	 
H 	 -61.0437 	 46.1219 	 110.772 	 
H 	 -59.3705 	 45.5508 	 110.887 	 
H 	 -60.1991 	 45.6193 	 112.304 	 
H 	 -54.177 	 41.209 	 112.706 	 
H 	 -61.8236 	 38.7205 	 111.403 	 
*
