! wB97X-D3 SP def2-SVP
%pal
nprocs 16
end

* xyz 0 1
S 	 -33.0625 	 69.3315 	 146.514 	 
C 	 -31.4133 	 68.6586 	 146.459 	 
C 	 -31.0541 	 68.0797 	 147.675 	 
C 	 -32.1039 	 68.1733 	 148.591 	 
C 	 -33.1524 	 68.9864 	 148.229 	 
H 	 -31.9958 	 67.756 	 149.591 	 
C 	 -29.7418 	 67.5116 	 148.073 	 
H 	 -29.726 	 67.1763 	 149.124 	 
H 	 -29.0794 	 68.3306 	 148.079 	 
C 	 -29.2477 	 66.3799 	 147.196 	 
H 	 -28.9244 	 66.7432 	 146.236 	 
H 	 -28.3742 	 66.0328 	 147.697 	 
C 	 -30.2813 	 65.2028 	 147.08 	 
H 	 -30.5491 	 64.7086 	 148.078 	 
H 	 -31.2167 	 65.5374 	 146.735 	 
H 	 -29.9138 	 64.3536 	 146.458 	 
S 	 -35.8445 	 68.5998 	 148.355 	 
C 	 -36.5665 	 68.7887 	 149.926 	 
C 	 -35.7152 	 69.503 	 150.768 	 
C 	 -34.4539 	 69.777 	 150.259 	 
C 	 -34.3926 	 69.2787 	 148.953 	 
H 	 -36.1225 	 69.7707 	 151.782 	 
C 	 -33.4303 	 70.5594 	 150.994 	 
H 	 -32.4896 	 70.0579 	 150.909 	 
H 	 -33.6797 	 70.548 	 152.022 	 
C 	 -33.1782 	 72.0106 	 150.526 	 
H 	 -32.8318 	 71.9422 	 149.482 	 
H 	 -32.3848 	 72.3581 	 151.049 	 
C 	 -34.3513 	 72.9279 	 150.686 	 
H 	 -34.0788 	 73.9739 	 150.505 	 
H 	 -34.7075 	 72.9305 	 151.712 	 
H 	 -35.2057 	 72.6397 	 150.08 	 
H 	 -30.7102 	 68.8105 	 145.656 	 
H 	 -37.563 	 68.3893 	 150.2 	 
*
