! wB97X-D3 SP def2-SVP
%pal
nprocs 16
end

* xyz 0 1
S 	 5.33249 	 75.9879 	 48.5463 	 
C 	 4.49862 	 74.4839 	 48.1361 	 
C 	 5.40121 	 73.5098 	 47.6571 	 
C 	 6.74564 	 74.0329 	 47.6215 	 
C 	 6.90184 	 75.2818 	 48.2265 	 
H 	 7.58729 	 73.5329 	 47.1296 	 
C 	 5.02648 	 72.1595 	 46.9905 	 
H 	 4.28677 	 72.2458 	 46.2107 	 
H 	 4.52181 	 71.4794 	 47.7473 	 
C 	 6.11566 	 71.2843 	 46.5036 	 
H 	 6.6566 	 71.7176 	 45.686 	 
H 	 6.82727 	 71.201 	 47.2975 	 
C 	 5.71146 	 69.8608 	 46.1496 	 
H 	 4.76274 	 69.7868 	 45.5551 	 
H 	 6.44108 	 69.2542 	 45.6744 	 
H 	 5.46989 	 69.1822 	 47.0301 	 
S 	 8.37163 	 77.444 	 47.3629 	 
C 	 10.033 	 77.6287 	 47.8628 	 
C 	 10.399 	 76.5212 	 48.6072 	 
C 	 9.3843 	 75.5538 	 48.7627 	 
C 	 8.14524 	 76.012 	 48.3646 	 
H 	 11.3691 	 76.4157 	 49.0589 	 
C 	 9.61714 	 74.2727 	 49.5411 	 
H 	 10.6037 	 73.8732 	 49.3206 	 
H 	 8.98361 	 73.5269 	 49.1538 	 
C 	 9.51446 	 74.3357 	 51.1526 	 
H 	 9.49224 	 73.3726 	 51.6415 	 
H 	 8.45984 	 74.6895 	 51.4379 	 
C 	 10.6438 	 75.0261 	 51.8419 	 
H 	 11.603 	 74.5684 	 51.6276 	 
H 	 10.5557 	 75.1105 	 53.0091 	 
H 	 10.6704 	 76.0978 	 51.6393 	 
H 	 3.43078 	 74.3053 	 48.2854 	 
H 	 10.677 	 78.4109 	 47.5163 	 
*
