! wB97X-D3 SP def2-SVP
%pal
nprocs 16
end

* xyz 0 1
S 	 40.9903 	 23.5334 	 96.0878 	 
C 	 41.6673 	 24.996 	 95.4182 	 
C 	 42.2624 	 24.7308 	 94.2117 	 
C 	 42.29 	 23.3368 	 93.9339 	 
C 	 41.6367 	 22.5132 	 94.7898 	 
H 	 42.7312 	 22.8763 	 93.11 	 
C 	 43.0252 	 25.7896 	 93.485 	 
H 	 43.2325 	 26.5996 	 94.166 	 
H 	 42.4025 	 26.3488 	 92.714 	 
C 	 44.4117 	 25.2722 	 92.9109 	 
H 	 44.3162 	 24.4847 	 92.1099 	 
H 	 44.8405 	 26.1539 	 92.38 	 
C 	 45.2843 	 24.9094 	 93.9969 	 
H 	 45.164 	 25.5274 	 94.9051 	 
H 	 45.119 	 23.922 	 94.3286 	 
H 	 46.3632 	 24.896 	 93.6323 	 
S 	 41.0583 	 20.3313 	 96.2894 	 
C 	 40.9645 	 18.7576 	 95.5952 	 
C 	 41.3856 	 18.8272 	 94.3003 	 
C 	 41.6397 	 20.1695 	 93.8135 	 
C 	 41.4845 	 21.0735 	 94.7793 	 
H 	 41.4915 	 17.9302 	 93.6909 	 
C 	 42.1815 	 20.3262 	 92.405 	 
H 	 41.9981 	 21.3376 	 92.0218 	 
H 	 41.4992 	 19.8018 	 91.7877 	 
C 	 43.6472 	 20.0206 	 92.2556 	 
H 	 43.8576 	 18.922 	 92.3936 	 
H 	 44.1766 	 20.6188 	 93.0517 	 
C 	 44.3006 	 20.2884 	 90.8867 	 
H 	 45.3197 	 19.9062 	 90.7095 	 
H 	 44.2409 	 21.3927 	 90.7116 	 
H 	 43.6055 	 19.8731 	 90.1581 	 
H 	 41.583 	 25.9817 	 95.8586 	 
H 	 40.763 	 17.856 	 96.1692 	 
*
