! wB97X-D3 SP def2-SVP
%pal
nprocs 16
end

* xyz 0 1
S 	 -21.1043 	 50.0393 	 64.6671 	 
C 	 -20.4003 	 48.3992 	 64.4921 	 
C 	 -20.3366 	 47.7966 	 65.7319 	 
C 	 -20.8674 	 48.6032 	 66.7412 	 
C 	 -21.2516 	 49.8824 	 66.4106 	 
H 	 -21.0014 	 48.2242 	 67.763 	 
C 	 -19.8276 	 46.4615 	 65.9914 	 
H 	 -19.2133 	 46.5332 	 66.8468 	 
H 	 -19.1583 	 46.242 	 65.0879 	 
C 	 -20.8525 	 45.3274 	 66.2248 	 
H 	 -20.4825 	 44.3866 	 66.717 	 
H 	 -21.5925 	 45.6768 	 66.9726 	 
C 	 -21.688 	 45.0029 	 64.9878 	 
H 	 -22.0247 	 45.9551 	 64.4028 	 
H 	 -21.1146 	 44.4111 	 64.2686 	 
H 	 -22.5963 	 44.4724 	 65.1914 	 
S 	 -22.9616 	 52.0342 	 66.448 	 
C 	 -23.2173 	 52.8806 	 67.9708 	 
C 	 -22.5578 	 52.2663 	 69.0762 	 
C 	 -21.7777 	 51.1233 	 68.6284 	 
C 	 -21.8039 	 50.9506 	 67.2694 	 
H 	 -22.6864 	 52.6164 	 70.0896 	 
C 	 -21.0915 	 50.2842 	 69.6777 	 
H 	 -20.6406 	 50.8766 	 70.4154 	 
H 	 -20.2146 	 49.8515 	 69.188 	 
C 	 -21.9463 	 49.1555 	 70.2955 	 
H 	 -22.2176 	 48.4014 	 69.5402 	 
H 	 -22.8754 	 49.6407 	 70.7603 	 
C 	 -21.2748 	 48.4284 	 71.4398 	 
H 	 -21.9311 	 47.7846 	 72.019 	 
H 	 -20.884 	 49.2231 	 72.0616 	 
H 	 -20.436 	 47.8478 	 71.0082 	 
H 	 -20.0134 	 48.0046 	 63.5631 	 
H 	 -23.6788 	 53.8368 	 68.1359 	 
*
