! wB97X-D3 SP def2-SVP
%pal
nprocs 16
end

* xyz 0 1
S 	 -12.0123 	 -9.13161 	 83.9914 	 
C 	 -12.5294 	 -10.7256 	 83.5252 	 
C 	 -12.2443 	 -11.6863 	 84.5032 	 
C 	 -11.7005 	 -11.0674 	 85.6437 	 
C 	 -11.4517 	 -9.69938 	 85.5883 	 
H 	 -11.6323 	 -11.4012 	 86.6723 	 
C 	 -12.7396 	 -13.0931 	 84.5106 	 
H 	 -12.6336 	 -13.5171 	 85.5138 	 
H 	 -12.1424 	 -13.6788 	 83.8447 	 
C 	 -14.1784 	 -13.2493 	 84.0328 	 
H 	 -14.8362 	 -12.6275 	 84.5877 	 
H 	 -14.1485 	 -12.9393 	 82.941 	 
C 	 -14.6394 	 -14.7536 	 84.2082 	 
H 	 -15.6929 	 -14.8586 	 84.0377 	 
H 	 -14.1248 	 -15.543 	 83.6899 	 
H 	 -14.4786 	 -14.9846 	 85.2418 	 
S 	 -11.9607 	 -7.47215 	 86.9263 	 
C 	 -10.9629 	 -7.07939 	 88.2522 	 
C 	 -9.84911 	 -7.82519 	 88.3739 	 
C 	 -9.84071 	 -8.95113 	 87.4521 	 
C 	 -10.8699 	 -8.83641 	 86.5529 	 
H 	 -9.07247 	 -7.72986 	 89.0769 	 
C 	 -8.89992 	 -10.1737 	 87.5499 	 
H 	 -9.47135 	 -11.0801 	 87.3396 	 
H 	 -8.79877 	 -10.2577 	 88.6014 	 
C 	 -7.56962 	 -10.2275 	 86.8919 	 
H 	 -7.63097 	 -10.0448 	 85.8075 	 
H 	 -7.11107 	 -11.2102 	 87.0767 	 
C 	 -6.66477 	 -9.15284 	 87.5673 	 
H 	 -6.38951 	 -9.34221 	 88.5993 	 
H 	 -7.24152 	 -8.18559 	 87.6031 	 
H 	 -5.74879 	 -8.93994 	 87.1124 	 
H 	 -12.8787 	 -10.941 	 82.5074 	 
H 	 -11.137 	 -6.29473 	 88.9509 	 
*
