! wB97X-D3 SP def2-SVP
%pal
nprocs 16
end

* xyz 0 1
S 	 28.6788 	 -7.43304 	 76.4934 	 
C 	 30.1096 	 -6.65805 	 76.0039 	 
C 	 30.7697 	 -6.06233 	 77.0524 	 
C 	 30.1146 	 -6.32091 	 78.2969 	 
C 	 29.0005 	 -7.10487 	 78.2127 	 
H 	 30.4686 	 -5.94188 	 79.2603 	 
C 	 32.0827 	 -5.46303 	 77.0504 	 
H 	 32.0392 	 -4.49468 	 77.5604 	 
H 	 32.2679 	 -5.27418 	 75.9831 	 
C 	 33.2869 	 -6.23239 	 77.7323 	 
H 	 33.2511 	 -6.28214 	 78.8444 	 
H 	 33.3717 	 -7.24693 	 77.4792 	 
C 	 34.5806 	 -5.53974 	 77.3657 	 
H 	 35.4158 	 -5.94933 	 77.9068 	 
H 	 34.836 	 -5.66081 	 76.2924 	 
H 	 34.5488 	 -4.49388 	 77.6741 	 
S 	 27.8907 	 -9.31187 	 79.4925 	 
C 	 27.0092 	 -8.98307 	 80.9664 	 
C 	 26.8659 	 -7.68759 	 81.3043 	 
C 	 27.5264 	 -6.87182 	 80.3052 	 
C 	 28.116 	 -7.61551 	 79.2459 	 
H 	 26.41 	 -7.40264 	 82.3036 	 
C 	 27.5501 	 -5.33338 	 80.5092 	 
H 	 26.5465 	 -5.00361 	 80.7205 	 
H 	 27.9096 	 -5.02207 	 79.5754 	 
C 	 28.5073 	 -4.74371 	 81.6013 	 
H 	 28.5511 	 -3.64271 	 81.4781 	 
H 	 29.5067 	 -5.10207 	 81.3197 	 
C 	 28.2388 	 -5.03868 	 83.1219 	 
H 	 28.5176 	 -6.05696 	 83.4156 	 
H 	 27.2126 	 -4.74255 	 83.3937 	 
H 	 28.9253 	 -4.40973 	 83.6887 	 
H 	 30.5394 	 -6.73262 	 75.0634 	 
H 	 26.7495 	 -9.80592 	 81.6621 	 
*
