! wB97X-D3 SP def2-SVP
%pal
nprocs 16
end

* xyz 0 1
S 	 11.8657 	 -1.61949 	 63.73 	 
C 	 10.2621 	 -1.93455 	 63.1353 	 
C 	 10.0026 	 -1.28297 	 61.9314 	 
C 	 11.1909 	 -0.58569 	 61.5004 	 
C 	 12.1983 	 -0.505755 	 62.4159 	 
H 	 11.3675 	 -0.201264 	 60.5251 	 
C 	 8.74091 	 -1.28911 	 61.097 	 
H 	 8.64822 	 -0.384623 	 60.4507 	 
H 	 7.98716 	 -1.25937 	 61.8396 	 
C 	 8.61005 	 -2.60438 	 60.2845 	 
H 	 9.46147 	 -2.74257 	 59.6732 	 
H 	 8.55532 	 -3.50636 	 60.9583 	 
C 	 7.2895 	 -2.40966 	 59.4668 	 
H 	 7.41954 	 -1.79768 	 58.5457 	 
H 	 6.95221 	 -3.40605 	 59.1577 	 
H 	 6.50267 	 -1.98992 	 60.0486 	 
S 	 14.9506 	 -0.731917 	 62.5491 	 
C 	 15.8753 	 0.69214 	 62.1234 	 
C 	 15.1124 	 1.78406 	 62.0237 	 
C 	 13.6957 	 1.53179 	 62.0188 	 
C 	 13.4792 	 0.164282 	 62.2826 	 
H 	 15.4907 	 2.785 	 61.778 	 
C 	 12.666 	 2.59523 	 61.9452 	 
H 	 11.8253 	 2.2204 	 61.3438 	 
H 	 13.0067 	 3.42841 	 61.4578 	 
C 	 11.9547 	 3.17923 	 63.2352 	 
H 	 12.5823 	 3.3682 	 63.9837 	 
H 	 11.3595 	 2.40583 	 63.7993 	 
C 	 11.1219 	 4.45665 	 62.9159 	 
H 	 10.3379 	 4.15874 	 62.2388 	 
H 	 11.6873 	 5.40221 	 62.6148 	 
H 	 10.6173 	 4.80767 	 63.776 	 
H 	 9.56757 	 -2.49469 	 63.7122 	 
H 	 16.8937 	 0.758746 	 61.8393 	 
*
