! wB97X-D3 SP def2-SVP
%pal
nprocs 16
end

* xyz 0 1
S 	 -27.0889 	 -3.20343 	 104.313 	 
C 	 -26.9093 	 -3.43603 	 106.075 	 
C 	 -26.6302 	 -2.22438 	 106.684 	 
C 	 -26.3737 	 -1.18307 	 105.756 	 
C 	 -26.7312 	 -1.4651 	 104.459 	 
H 	 -25.9326 	 -0.17883 	 105.967 	 
C 	 -26.3795 	 -1.96443 	 108.154 	 
H 	 -26.6763 	 -2.83722 	 108.733 	 
H 	 -26.9815 	 -1.09085 	 108.485 	 
C 	 -24.847 	 -1.8313 	 108.395 	 
H 	 -24.437 	 -1.16246 	 107.708 	 
H 	 -24.7268 	 -1.33861 	 109.394 	 
C 	 -24.0024 	 -3.12211 	 108.498 	 
H 	 -23.8688 	 -3.65507 	 107.51 	 
H 	 -23.0238 	 -2.89197 	 109.055 	 
H 	 -24.5429 	 -3.75619 	 109.158 	 
S 	 -26.1314 	 -1.26076 	 101.853 	 
C 	 -26.2292 	 0.288932 	 101.051 	 
C 	 -26.8802 	 1.18963 	 101.907 	 
C 	 -27.2257 	 0.706331 	 103.189 	 
C 	 -26.693 	 -0.57973 	 103.299 	 
H 	 -27.0828 	 2.18965 	 101.555 	 
C 	 -27.7806 	 1.64166 	 104.324 	 
H 	 -26.9985 	 1.87759 	 105.052 	 
H 	 -28.4147 	 1.00174 	 104.983 	 
C 	 -28.5621 	 2.88825 	 103.85 	 
H 	 -29.5622 	 2.54739 	 103.502 	 
H 	 -28.1144 	 3.53328 	 103.026 	 
C 	 -28.7314 	 3.93206 	 104.95 	 
H 	 -28.8746 	 3.58056 	 106.002 	 
H 	 -29.5142 	 4.58907 	 104.591 	 
H 	 -27.7923 	 4.51557 	 105.061 	 
H 	 -27.1505 	 -4.28458 	 106.643 	 
H 	 -25.7135 	 0.598616 	 100.13 	 
*
