! wB97X-D3 SP def2-SVP
%pal
nprocs 16
end

* xyz 0 1
S 	 2.24235 	 -4.30048 	 78.037 	 
C 	 1.16645 	 -5.49037 	 77.332 	 
C 	 -0.136367 	 -5.22367 	 77.6306 	 
C 	 -0.333831 	 -3.95893 	 78.2603 	 
C 	 0.885973 	 -3.33312 	 78.5818 	 
H 	 -1.21298 	 -3.55804 	 78.7315 	 
C 	 -1.4155 	 -6.05338 	 77.2876 	 
H 	 -1.00465 	 -6.74145 	 76.5341 	 
H 	 -2.1713 	 -5.48629 	 76.7071 	 
C 	 -1.99066 	 -6.87635 	 78.4474 	 
H 	 -2.63155 	 -7.6954 	 77.9699 	 
H 	 -1.19096 	 -7.35351 	 78.9644 	 
C 	 -2.91141 	 -6.0415 	 79.3114 	 
H 	 -3.27528 	 -6.76826 	 80.0541 	 
H 	 -2.33599 	 -5.20291 	 79.7157 	 
H 	 -3.68892 	 -5.5311 	 78.7544 	 
S 	 2.43462 	 -1.94375 	 80.4262 	 
C 	 1.99682 	 -0.367916 	 81.0266 	 
C 	 0.899481 	 0.0280451 	 80.2673 	 
C 	 0.285907 	 -0.917677 	 79.3901 	 
C 	 1.0712 	 -2.08322 	 79.326 	 
H 	 0.513186 	 1.03259 	 80.5726 	 
C 	 -0.935481 	 -0.470757 	 78.6366 	 
H 	 -1.01861 	 -1.02706 	 77.7596 	 
H 	 -0.871686 	 0.55549 	 78.2383 	 
C 	 -2.18798 	 -0.249867 	 79.5415 	 
H 	 -2.98202 	 0.22321 	 79.0225 	 
H 	 -1.92101 	 0.398836 	 80.4022 	 
C 	 -2.63443 	 -1.54288 	 80.1998 	 
H 	 -3.10288 	 -2.24107 	 79.5349 	 
H 	 -3.35261 	 -1.39432 	 80.9916 	 
H 	 -1.89746 	 -2.01085 	 80.795 	 
H 	 1.46263 	 -6.39662 	 76.8047 	 
H 	 2.70691 	 0.195628 	 81.6724 	 
*
