! wB97X-D3 SP def2-SVP
%pal
nprocs 16
end

* xyz 0 1
S 	 10.2985 	 24.1316 	 46.1004 	 
C 	 10.9318 	 23.1575 	 47.4328 	 
C 	 12.1697 	 22.5266 	 47.1172 	 
C 	 12.4899 	 22.838 	 45.7603 	 
C 	 11.585 	 23.6033 	 45.0664 	 
H 	 13.2822 	 22.3776 	 45.2513 	 
C 	 13.055 	 21.7455 	 48.1588 	 
H 	 13.7705 	 21.2618 	 47.5409 	 
H 	 12.4813 	 20.9678 	 48.6556 	 
C 	 13.9648 	 22.6431 	 49.0621 	 
H 	 13.4051 	 23.307 	 49.6559 	 
H 	 14.4308 	 21.8738 	 49.7288 	 
C 	 15.1081 	 23.4122 	 48.2804 	 
H 	 14.7149 	 24.2806 	 47.6954 	 
H 	 15.8622 	 23.6878 	 48.9944 	 
H 	 15.6565 	 22.7836 	 47.5155 	 
S 	 12.7258 	 24.9735 	 43.0458 	 
C 	 12.1331 	 24.71 	 41.4338 	 
C 	 10.9393 	 24.0111 	 41.3668 	 
C 	 10.6702 	 23.3918 	 42.6482 	 
C 	 11.5179 	 23.8149 	 43.6209 	 
H 	 10.2966 	 23.9387 	 40.4537 	 
C 	 9.50525 	 22.5293 	 42.8767 	 
H 	 9.72453 	 21.7723 	 43.556 	 
H 	 9.47783 	 21.9113 	 42.0209 	 
C 	 8.17618 	 23.2466 	 43.0858 	 
H 	 8.06754 	 24.1234 	 42.4657 	 
H 	 7.98662 	 23.5264 	 44.1171 	 
C 	 7.16833 	 22.2417 	 42.5144 	 
H 	 7.29409 	 21.233 	 42.8485 	 
H 	 7.20824 	 22.1882 	 41.441 	 
H 	 6.16464 	 22.5074 	 42.7121 	 
H 	 10.5682 	 23.1825 	 48.4179 	 
H 	 12.5024 	 25.1956 	 40.5584 	 
*
