! wB97X-D3 SP def2-SVP
%pal
nprocs 16
end

* xyz 0 1
S 	 14.2191 	 27.2776 	 47.9331 	 
C 	 15.4845 	 26.141 	 47.7094 	 
C 	 15.0041 	 24.8661 	 47.9137 	 
C 	 13.5376 	 24.7943 	 47.9413 	 
C 	 12.963 	 26.0496 	 48.0208 	 
H 	 12.9465 	 23.9047 	 48.0691 	 
C 	 15.9467 	 23.6149 	 47.9139 	 
H 	 15.2945 	 22.7174 	 48.0441 	 
H 	 16.629 	 23.7501 	 48.7165 	 
C 	 16.764 	 23.3937 	 46.6222 	 
H 	 16.0962 	 23.3197 	 45.7764 	 
H 	 17.407 	 24.2277 	 46.5111 	 
C 	 17.6093 	 22.0943 	 46.7246 	 
H 	 18.1457 	 22.1764 	 47.6797 	 
H 	 17.1525 	 21.1083 	 46.6737 	 
H 	 18.4156 	 22.2773 	 46.0368 	 
S 	 11.2287 	 27.352 	 46.4859 	 
C 	 9.52036 	 27.1202 	 46.7571 	 
C 	 9.21765 	 26.1647 	 47.6479 	 
C 	 10.4162 	 25.7651 	 48.3299 	 
C 	 11.5843 	 26.372 	 47.8791 	 
H 	 8.22926 	 25.8826 	 47.825 	 
C 	 10.2768 	 24.9327 	 49.5798 	 
H 	 11.2219 	 24.3391 	 49.6739 	 
H 	 9.58824 	 24.1967 	 49.3609 	 
C 	 9.97239 	 25.7189 	 50.8803 	 
H 	 8.98275 	 26.2297 	 50.6645 	 
H 	 10.7448 	 26.5071 	 51.132 	 
C 	 9.82511 	 24.7806 	 52.0792 	 
H 	 10.7169 	 24.6245 	 52.5857 	 
H 	 9.42626 	 23.737 	 51.8652 	 
H 	 9.19835 	 25.3314 	 52.7798 	 
H 	 16.5624 	 26.3836 	 47.6954 	 
H 	 8.72526 	 27.5602 	 46.1979 	 
*
