! wB97X-D3 SP def2-SVP
%pal
nprocs 16
end

* xyz 0 1
S 	 -11.9495 	 -5.42905 	 85.9294 	 
C 	 -12.0708 	 -5.68784 	 87.6609 	 
C 	 -13.2713 	 -6.15946 	 88.0382 	 
C 	 -14.1488 	 -6.45392 	 86.8873 	 
C 	 -13.535 	 -6.25425 	 85.6446 	 
H 	 -15.2461 	 -6.72343 	 86.8829 	 
C 	 -13.6712 	 -6.38299 	 89.4441 	 
H 	 -14.4592 	 -5.71193 	 89.7625 	 
H 	 -12.8373 	 -6.23023 	 90.091 	 
C 	 -14.2707 	 -7.72706 	 89.8142 	 
H 	 -14.9798 	 -7.5133 	 90.6149 	 
H 	 -14.876 	 -8.00539 	 88.987 	 
C 	 -13.1734 	 -8.78972 	 90.051 	 
H 	 -13.5766 	 -9.80202 	 90.3354 	 
H 	 -12.6248 	 -8.94147 	 89.1368 	 
H 	 -12.4824 	 -8.45064 	 90.848 	 
S 	 -13.8844 	 -4.81674 	 83.2218 	 
C 	 -15.1498 	 -5.36794 	 82.2008 	 
C 	 -15.6965 	 -6.59307 	 82.6449 	 
C 	 -15.218 	 -7.00298 	 83.9223 	 
C 	 -14.1933 	 -6.19882 	 84.3347 	 
H 	 -16.427 	 -7.08048 	 82.0682 	 
C 	 -15.5639 	 -8.39363 	 84.5488 	 
H 	 -16.6004 	 -8.45138 	 84.7407 	 
H 	 -15.1434 	 -8.35696 	 85.5484 	 
C 	 -15.0763 	 -9.69604 	 83.9257 	 
H 	 -14.0743 	 -9.48114 	 83.4901 	 
H 	 -15.6091 	 -9.76303 	 83.0307 	 
C 	 -15.1682 	 -10.9056 	 84.8531 	 
H 	 -14.6484 	 -10.5813 	 85.719 	 
H 	 -14.7262 	 -11.7937 	 84.3504 	 
H 	 -16.2094 	 -11.1654 	 85.0211 	 
H 	 -11.3047 	 -5.56964 	 88.4655 	 
H 	 -15.5407 	 -4.92187 	 81.2773 	 
*
