! wB97X-D3 SP def2-SVP
%pal
nprocs 16
end

* xyz 0 1
S 	 -4.51294 	 -5.51886 	 79.0298 	 
C 	 -4.75556 	 -6.41313 	 80.6087 	 
C 	 -5.97408 	 -6.06612 	 81.1463 	 
C 	 -6.63998 	 -5.16915 	 80.2916 	 
C 	 -6.06696 	 -4.81917 	 79.1198 	 
H 	 -7.59084 	 -4.59679 	 80.5937 	 
C 	 -6.46191 	 -6.52404 	 82.4851 	 
H 	 -6.15803 	 -7.5009 	 82.7174 	 
H 	 -7.51049 	 -6.74872 	 82.3803 	 
C 	 -6.12217 	 -5.59658 	 83.6167 	 
H 	 -5.06348 	 -5.67083 	 83.9103 	 
H 	 -6.43377 	 -4.53605 	 83.4541 	 
C 	 -6.82922 	 -6.1047 	 84.8795 	 
H 	 -7.86139 	 -5.71888 	 84.8932 	 
H 	 -6.91999 	 -7.22709 	 84.932 	 
H 	 -6.36279 	 -5.78935 	 85.8557 	 
S 	 -5.45111 	 -2.82651 	 77.3291 	 
C 	 -6.72296 	 -2.28887 	 76.2151 	 
C 	 -7.87026 	 -2.93286 	 76.4406 	 
C 	 -7.84298 	 -3.89129 	 77.4658 	 
C 	 -6.60406 	 -3.9029 	 78.1025 	 
H 	 -8.68369 	 -2.6995 	 75.8417 	 
C 	 -9.06465 	 -4.6423 	 77.8634 	 
H 	 -8.79223 	 -5.66885 	 78.2423 	 
H 	 -9.54642 	 -4.83417 	 76.909 	 
C 	 -10.0533 	 -3.94623 	 78.8081 	 
H 	 -10.5484 	 -3.20177 	 78.1753 	 
H 	 -9.59824 	 -3.55563 	 79.6728 	 
C 	 -11.2012 	 -4.85894 	 79.3212 	 
H 	 -11.7982 	 -5.16146 	 78.4955 	 
H 	 -11.7818 	 -4.40278 	 80.0935 	 
H 	 -10.7419 	 -5.69629 	 79.7969 	 
H 	 -4.16725 	 -7.19344 	 81.019 	 
H 	 -6.63874 	 -1.44351 	 75.4606 	 
*
