! wB97X-D3 SP def2-SVP
%pal
nprocs 16
end

* xyz 0 1
S 	 5.56688 	 -2.77259 	 87.9017 	 
C 	 6.99736 	 -1.8721 	 87.4369 	 
C 	 7.98104 	 -2.73726 	 86.955 	 
C 	 7.46374 	 -4.02948 	 86.6468 	 
C 	 6.14675 	 -4.21268 	 87.0024 	 
H 	 8.02093 	 -4.83485 	 86.1857 	 
C 	 9.43163 	 -2.43627 	 86.758 	 
H 	 10.0844 	 -3.05435 	 87.4483 	 
H 	 9.59029 	 -1.4638 	 87.237 	 
C 	 10.005 	 -2.4906 	 85.2525 	 
H 	 9.9409 	 -3.5688 	 85.0622 	 
H 	 9.31025 	 -1.94135 	 84.6404 	 
C 	 11.4643 	 -2.00004 	 85.1716 	 
H 	 11.9647 	 -2.08957 	 84.2499 	 
H 	 11.5848 	 -0.993598 	 85.4761 	 
H 	 12.0236 	 -2.57055 	 85.9203 	 
S 	 4.88296 	 -6.17549 	 88.4355 	 
C 	 4.16376 	 -7.50157 	 87.6173 	 
C 	 4.49568 	 -7.54597 	 86.2656 	 
C 	 5.23793 	 -6.35893 	 85.848 	 
C 	 5.31806 	 -5.40516 	 86.8855 	 
H 	 4.16445 	 -8.29686 	 85.6205 	 
C 	 5.70618 	 -6.17127 	 84.4183 	 
H 	 6.31377 	 -5.32125 	 84.284 	 
H 	 4.86672 	 -5.97528 	 83.789 	 
C 	 6.53555 	 -7.28333 	 83.9088 	 
H 	 5.9943 	 -8.07644 	 83.4163 	 
H 	 7.05766 	 -7.77809 	 84.6294 	 
C 	 7.48357 	 -6.85139 	 82.7969 	 
H 	 6.97783 	 -6.38364 	 81.9957 	 
H 	 7.84849 	 -7.73661 	 82.2724 	 
H 	 8.33631 	 -6.26128 	 83.1039 	 
H 	 7.12035 	 -0.819972 	 87.6692 	 
H 	 3.57482 	 -8.2849 	 88.1205 	 
*
