! wB97X-D3 SP def2-SVP
%pal
nprocs 16
end

* xyz 0 1
S 	 -38.9846 	 33.4858 	 79.9377 	 
C 	 -37.4227 	 33.1821 	 79.2916 	 
C 	 -36.718 	 32.4265 	 80.131 	 
C 	 -37.2887 	 32.3219 	 81.4617 	 
C 	 -38.4584 	 33.0574 	 81.571 	 
H 	 -36.7783 	 31.7957 	 82.2957 	 
C 	 -35.3743 	 31.7821 	 79.6622 	 
H 	 -35.289 	 32.0023 	 78.5783 	 
H 	 -35.4263 	 30.679 	 79.7303 	 
C 	 -34.1457 	 32.3488 	 80.3564 	 
H 	 -34.0928 	 33.4088 	 80.2978 	 
H 	 -34.0762 	 32.0822 	 81.4082 	 
C 	 -32.9227 	 31.6552 	 79.7269 	 
H 	 -31.9438 	 31.8069 	 80.1953 	 
H 	 -33.1152 	 30.5341 	 79.8766 	 
H 	 -32.9025 	 31.8629 	 78.6496 	 
S 	 -40.955 	 32.4531 	 82.617 	 
C 	 -41.1401 	 32.4693 	 84.3376 	 
C 	 -40.0345 	 32.8041 	 85.0049 	 
C 	 -38.9465 	 33.0917 	 84.0905 	 
C 	 -39.3211 	 32.9772 	 82.7461 	 
H 	 -40.2075 	 32.8949 	 86.0977 	 
C 	 -37.6684 	 33.525 	 84.6573 	 
H 	 -36.947 	 32.6961 	 84.4582 	 
H 	 -37.8251 	 33.6144 	 85.7073 	 
C 	 -37.125 	 34.9383 	 84.2735 	 
H 	 -38.0354 	 35.544 	 84.4038 	 
H 	 -36.8633 	 34.8911 	 83.2184 	 
C 	 -35.9474 	 35.6081 	 85.1214 	 
H 	 -36.0086 	 36.714 	 85.077 	 
H 	 -35.0094 	 35.3111 	 84.829 	 
H 	 -36.069 	 35.2389 	 86.1851 	 
H 	 -37.2435 	 33.3727 	 78.2979 	 
H 	 -42.1087 	 32.2519 	 84.7886 	 
*
