! wB97X-D3 SP def2-SVP
%pal
nprocs 16
end

* xyz 0 1
S 	 -45.5557 	 59.688 	 133.049 	 
C 	 -45.3517 	 58.3173 	 134.168 	 
C 	 -46.5628 	 57.8576 	 134.612 	 
C 	 -47.6602 	 58.598 	 133.914 	 
C 	 -47.2543 	 59.6405 	 133.162 	 
H 	 -48.7338 	 58.3965 	 134.076 	 
C 	 -46.781 	 56.8647 	 135.663 	 
H 	 -47.7719 	 56.4998 	 135.542 	 
H 	 -46.774 	 57.4077 	 136.652 	 
C 	 -45.9857 	 55.5229 	 135.51 	 
H 	 -45.9173 	 55.2368 	 134.459 	 
H 	 -44.9533 	 55.5316 	 135.855 	 
C 	 -46.5614 	 54.2695 	 136.165 	 
H 	 -46.8458 	 54.3339 	 137.286 	 
H 	 -47.4603 	 54.0094 	 135.558 	 
H 	 -45.8374 	 53.5097 	 136.1 	 
S 	 -47.8908 	 60.5434 	 130.628 	 
C 	 -49.334 	 61.3468 	 130.297 	 
C 	 -50.0256 	 61.5863 	 131.464 	 
C 	 -49.3968 	 61.0475 	 132.655 	 
C 	 -48.2179 	 60.3757 	 132.359 	 
H 	 -50.9216 	 62.2262 	 131.4 	 
C 	 -49.9692 	 61.1917 	 134.041 	 
H 	 -49.8217 	 60.1683 	 134.526 	 
H 	 -51.1221 	 61.2922 	 133.927 	 
C 	 -49.4269 	 62.2456 	 134.908 	 
H 	 -49.4222 	 63.2144 	 134.392 	 
H 	 -48.417 	 61.9321 	 135.201 	 
C 	 -50.2924 	 62.3375 	 136.213 	 
H 	 -49.7085 	 62.7727 	 136.996 	 
H 	 -50.5855 	 61.3335 	 136.572 	 
H 	 -51.1541 	 62.9833 	 136.093 	 
H 	 -44.4705 	 57.9856 	 134.582 	 
H 	 -49.6189 	 61.8462 	 129.369 	 
*
