! wB97X-D3 SP def2-SVP
%pal
nprocs 16
end

* xyz 0 1
S 	 -2.39472 	 -12.1168 	 78.9604 	 
C 	 -3.65962 	 -11.5762 	 77.8524 	 
C 	 -4.83323 	 -12.3305 	 77.9519 	 
C 	 -4.73829 	 -13.2926 	 78.9763 	 
C 	 -3.5554 	 -13.2552 	 79.7432 	 
H 	 -5.42564 	 -13.9943 	 79.3369 	 
C 	 -6.09264 	 -12.0716 	 77.1819 	 
H 	 -6.47488 	 -13.0648 	 76.8383 	 
H 	 -5.94214 	 -11.4152 	 76.3444 	 
C 	 -7.35665 	 -11.6031 	 77.971 	 
H 	 -7.67577 	 -12.2926 	 78.7552 	 
H 	 -7.04781 	 -10.6815 	 78.5248 	 
C 	 -8.53669 	 -11.3406 	 77.0485 	 
H 	 -9.31824 	 -10.8488 	 77.5944 	 
H 	 -8.34622 	 -10.8213 	 76.1063 	 
H 	 -8.9941 	 -12.3097 	 76.7728 	 
S 	 -1.92972 	 -15.285 	 80.6258 	 
C 	 -2.0583 	 -15.8352 	 82.2945 	 
C 	 -2.62961 	 -14.8433 	 83.1 	 
C 	 -3.42788 	 -13.9064 	 82.3388 	 
C 	 -3.10452 	 -13.985 	 80.929 	 
H 	 -2.64751 	 -14.792 	 84.194 	 
C 	 -4.04177 	 -12.7222 	 83.0024 	 
H 	 -4.0238 	 -11.9701 	 82.3106 	 
H 	 -3.42329 	 -12.4621 	 83.8935 	 
C 	 -5.50818 	 -13.0948 	 83.3945 	 
H 	 -6.12533 	 -13.3808 	 82.5395 	 
H 	 -6.03345 	 -12.2656 	 83.7843 	 
C 	 -5.66176 	 -14.163 	 84.4638 	 
H 	 -5.20487 	 -14.9872 	 84.1182 	 
H 	 -6.70884 	 -14.3715 	 84.7687 	 
H 	 -5.218 	 -13.8954 	 85.3901 	 
H 	 -3.49715 	 -10.7438 	 77.1084 	 
H 	 -1.27262 	 -16.5019 	 82.6366 	 
*
