! wB97X-D3 SP def2-SVP
%pal
nprocs 16
end

* xyz 0 1
S 	 -30.8143 	 60.6182 	 112.061 	 
C 	 -32.514 	 60.8076 	 111.716 	 
C 	 -33.0473 	 61.9263 	 112.337 	 
C 	 -32.1292 	 62.5839 	 113.186 	 
C 	 -30.8542 	 62.0827 	 113.13 	 
H 	 -32.3607 	 63.4575 	 113.771 	 
C 	 -34.5387 	 62.3243 	 112.246 	 
H 	 -34.6651 	 63.39 	 112.466 	 
H 	 -35.1192 	 61.6792 	 112.927 	 
C 	 -35.1436 	 62.17 	 110.853 	 
H 	 -35.2528 	 61.1125 	 110.582 	 
H 	 -36.182 	 62.5353 	 110.86 	 
C 	 -34.488 	 62.9598 	 109.724 	 
H 	 -33.4445 	 62.5509 	 109.584 	 
H 	 -35.0831 	 62.9867 	 108.771 	 
H 	 -34.2277 	 64.0306 	 109.925 	 
S 	 -28.3652 	 63.2057 	 112.811 	 
C 	 -27.4009 	 63.5675 	 114.209 	 
C 	 -28.1402 	 63.4208 	 115.37 	 
C 	 -29.4269 	 62.7334 	 115.142 	 
C 	 -29.6173 	 62.4971 	 113.745 	 
H 	 -27.8058 	 63.8139 	 116.305 	 
C 	 -30.4613 	 62.4118 	 116.228 	 
H 	 -31.0209 	 61.5492 	 115.919 	 
H 	 -31.224 	 63.157 	 116.332 	 
C 	 -29.9146 	 61.9783 	 117.58 	 
H 	 -29.1175 	 62.6399 	 117.905 	 
H 	 -29.425 	 61.0219 	 117.502 	 
C 	 -31.0181 	 61.8123 	 118.601 	 
H 	 -31.5595 	 60.9537 	 118.334 	 
H 	 -31.8406 	 62.5009 	 118.653 	 
H 	 -30.6185 	 61.6475 	 119.597 	 
H 	 -33.0296 	 60.0993 	 111.065 	 
H 	 -26.3734 	 63.9673 	 114.121 	 
*
