! wB97X-D3 SP def2-SVP
%pal
nprocs 16
end

* xyz 0 1
S 	 -40.9862 	 14.8098 	 76.1203 	 
C 	 -40.4047 	 16.3637 	 76.7724 	 
C 	 -41.4044 	 17.3049 	 76.9536 	 
C 	 -42.6544 	 16.7454 	 76.5317 	 
C 	 -42.6607 	 15.4016 	 76.2128 	 
H 	 -43.6391 	 17.2016 	 76.6962 	 
C 	 -41.2074 	 18.6845 	 77.4731 	 
H 	 -40.1748 	 18.862 	 77.6304 	 
H 	 -41.6905 	 18.7056 	 78.4978 	 
C 	 -41.8021 	 19.818 	 76.6096 	 
H 	 -41.4607 	 19.7371 	 75.5861 	 
H 	 -42.8298 	 19.5224 	 76.5047 	 
C 	 -41.6791 	 21.2995 	 77.107 	 
H 	 -40.6964 	 21.5862 	 77.5589 	 
H 	 -41.8819 	 21.9937 	 76.3061 	 
H 	 -42.283 	 21.5455 	 77.9877 	 
S 	 -44.5575 	 13.9345 	 77.3503 	 
C 	 -46.0938 	 13.6573 	 76.4528 	 
C 	 -45.873 	 13.6775 	 75.1264 	 
C 	 -44.6145 	 14.3122 	 74.7772 	 
C 	 -43.8091 	 14.6086 	 75.8695 	 
H 	 -46.6428 	 13.4119 	 74.4621 	 
C 	 -44.3604 	 14.7308 	 73.3722 	 
H 	 -43.4733 	 15.4666 	 73.4168 	 
H 	 -45.2272 	 15.2465 	 72.9814 	 
C 	 -44.0589 	 13.5272 	 72.3727 	 
H 	 -45.0361 	 13.003 	 72.3126 	 
H 	 -43.3878 	 12.7768 	 72.7738 	 
C 	 -43.5817 	 14.0384 	 70.9266 	 
H 	 -42.6847 	 14.7081 	 70.9529 	 
H 	 -44.2676 	 14.7228 	 70.4614 	 
H 	 -43.3796 	 13.3057 	 70.2319 	 
H 	 -39.3447 	 16.6008 	 76.8434 	 
H 	 -46.9524 	 13.115 	 76.8792 	 
*
