! wB97X-D3 SP def2-SVP
%pal
nprocs 16
end

* xyz 0 1
S 	 35.9546 	 -3.37515 	 68.2061 	 
C 	 36.1609 	 -1.69598 	 68.7369 	 
C 	 35.0007 	 -1.08069 	 69.1068 	 
C 	 33.8902 	 -1.98411 	 68.9517 	 
C 	 34.3046 	 -3.23227 	 68.536 	 
H 	 32.8816 	 -1.81329 	 69.0903 	 
C 	 34.8266 	 0.382504 	 69.4774 	 
H 	 33.7658 	 0.67312 	 69.6307 	 
H 	 35.1167 	 0.96946 	 68.5762 	 
C 	 35.665 	 0.873306 	 70.6912 	 
H 	 36.7254 	 1.00574 	 70.5311 	 
H 	 35.307 	 1.85005 	 71.0496 	 
C 	 35.5309 	 -0.0416803 	 71.8659 	 
H 	 36.118 	 -0.963953 	 71.7074 	 
H 	 35.6999 	 0.377241 	 72.8541 	 
H 	 34.5555 	 -0.397294 	 71.9309 	 
S 	 32.5236 	 -4.21613 	 66.711 	 
C 	 31.2448 	 -5.40973 	 67.2622 	 
C 	 31.6541 	 -5.94445 	 68.4886 	 
C 	 32.7471 	 -5.25469 	 69.0994 	 
C 	 33.3613 	 -4.33553 	 68.2743 	 
H 	 31.1167 	 -6.71166 	 68.952 	 
C 	 33.1686 	 -5.57226 	 70.4609 	 
H 	 34.2489 	 -5.48257 	 70.6176 	 
H 	 33.0994 	 -6.62707 	 70.741 	 
C 	 32.5798 	 -4.68247 	 71.599 	 
H 	 31.4666 	 -4.64607 	 71.4492 	 
H 	 32.9544 	 -3.68586 	 71.5756 	 
C 	 32.9629 	 -5.24422 	 72.9928 	 
H 	 32.8328 	 -4.64712 	 73.8848 	 
H 	 33.9344 	 -5.70284 	 72.9805 	 
H 	 32.3495 	 -6.12987 	 73.2054 	 
H 	 37.051 	 -1.13948 	 68.6765 	 
H 	 30.3247 	 -5.7895 	 66.8247 	 
*
