! wB97X-D3 SP def2-SVP
%pal
nprocs 16
end

* xyz 0 1
S 	 67.4512 	 14.0056 	 76.7005 	 
C 	 66.1005 	 13.8954 	 75.6459 	 
C 	 66.3649 	 14.3879 	 74.3905 	 
C 	 67.6566 	 15.0186 	 74.352 	 
C 	 68.381 	 14.9835 	 75.5669 	 
H 	 68.1141 	 15.5772 	 73.5153 	 
C 	 65.3493 	 14.3389 	 73.2301 	 
H 	 64.7237 	 13.4327 	 73.2145 	 
H 	 65.9965 	 14.3977 	 72.3229 	 
C 	 64.4448 	 15.5841 	 73.04 	 
H 	 65.148 	 16.4129 	 72.6913 	 
H 	 63.7649 	 15.399 	 72.2245 	 
C 	 63.7291 	 16.0223 	 74.2931 	 
H 	 63.09 	 15.2194 	 74.6696 	 
H 	 64.3629 	 16.2755 	 75.1355 	 
H 	 63.0933 	 16.8913 	 74.1591 	 
S 	 71.0466 	 14.8621 	 76.3648 	 
C 	 72.0143 	 16.3392 	 76.6729 	 
C 	 71.2724 	 17.4125 	 76.1938 	 
C 	 69.8995 	 17.1346 	 75.8498 	 
C 	 69.6143 	 15.7536 	 75.8736 	 
H 	 71.5755 	 18.4303 	 76.3253 	 
C 	 68.831 	 18.2108 	 75.6872 	 
H 	 68.1338 	 17.8255 	 74.9647 	 
H 	 69.2507 	 18.9896 	 75.0432 	 
C 	 68.218 	 18.8012 	 77.0406 	 
H 	 67.6581 	 19.6411 	 76.6889 	 
H 	 68.8884 	 19.292 	 77.7027 	 
C 	 67.4432 	 17.8193 	 77.938 	 
H 	 68.0841 	 17.1483 	 78.5032 	 
H 	 66.7319 	 17.1467 	 77.439 	 
H 	 67.0178 	 18.4472 	 78.6883 	 
H 	 65.1756 	 13.3168 	 75.9875 	 
H 	 73.0315 	 16.3664 	 77.0865 	 
*
