! wB97X-D3 SP def2-SVP
%pal
nprocs 16
end

* xyz 0 1
S 	 35.5877 	 17.6146 	 65.1966 	 
C 	 35.6542 	 18.6648 	 66.6275 	 
C 	 36.7818 	 18.3955 	 67.3903 	 
C 	 37.6363 	 17.4148 	 66.7515 	 
C 	 37.0861 	 16.8002 	 65.6731 	 
H 	 38.6876 	 17.1434 	 67.0992 	 
C 	 37.1052 	 19.2585 	 68.673 	 
H 	 36.3695 	 20.0836 	 68.6501 	 
H 	 38.0962 	 19.6572 	 68.3548 	 
C 	 37.029 	 18.652 	 70.081 	 
H 	 36.2399 	 17.9184 	 70.2861 	 
H 	 37.9031 	 18.0353 	 70.1128 	 
C 	 37.2053 	 19.6065 	 71.1967 	 
H 	 36.5491 	 20.4723 	 71.2788 	 
H 	 37.0549 	 19.103 	 72.1541 	 
H 	 38.2509 	 19.8795 	 71.1602 	 
S 	 37.9412 	 16.0359 	 63.1846 	 
C 	 38.7535 	 14.5783 	 62.9443 	 
C 	 38.8897 	 13.9061 	 64.1255 	 
C 	 38.417 	 14.5863 	 65.2939 	 
C 	 37.7896 	 15.8051 	 64.9141 	 
H 	 39.1998 	 12.8668 	 64.0801 	 
C 	 38.3219 	 13.8931 	 66.6367 	 
H 	 37.4254 	 14.3544 	 67.0523 	 
H 	 39.1907 	 14.1867 	 67.213 	 
C 	 38.3001 	 12.3382 	 66.6707 	 
H 	 38.4051 	 11.9339 	 67.65 	 
H 	 39.1483 	 11.841 	 66.1739 	 
C 	 36.9911 	 11.8198 	 65.9511 	 
H 	 37.2789 	 10.7801 	 65.6205 	 
H 	 36.8815 	 12.5017 	 65.0651 	 
H 	 36.1483 	 11.8305 	 66.6556 	 
H 	 34.8831 	 19.384 	 66.8359 	 
H 	 38.8413 	 14.0533 	 62.0068 	 
*
