! wB97X-D3 SP def2-SVP
%pal
nprocs 16
end

* xyz 0 1
S 	 60.3203 	 5.41113 	 78.332 	 
C 	 58.9839 	 6.41135 	 78.5537 	 
C 	 58.4194 	 6.84964 	 77.3779 	 
C 	 59.2374 	 6.50519 	 76.2845 	 
C 	 60.2911 	 5.64591 	 76.6067 	 
H 	 59.0054 	 6.72879 	 75.3017 	 
C 	 57.1597 	 7.65841 	 77.2214 	 
H 	 57.3966 	 8.58998 	 76.6928 	 
H 	 56.8634 	 7.93283 	 78.2465 	 
C 	 56.0929 	 6.80383 	 76.6307 	 
H 	 56.3935 	 6.52831 	 75.5858 	 
H 	 56.1356 	 5.8468 	 77.1481 	 
C 	 54.6717 	 7.3151 	 76.4957 	 
H 	 54.256 	 7.56532 	 77.4773 	 
H 	 54.7325 	 8.0928 	 75.7269 	 
H 	 54.0589 	 6.59368 	 76.011 	 
S 	 61.8336 	 3.38769 	 76.3019 	 
C 	 62.9718 	 3.31829 	 74.9253 	 
C 	 62.9002 	 4.40442 	 74.1783 	 
C 	 61.8731 	 5.32293 	 74.5314 	 
C 	 61.2663 	 4.9971 	 75.7246 	 
H 	 63.5784 	 4.66177 	 73.3878 	 
C 	 61.734 	 6.63276 	 73.8012 	 
H 	 61.4359 	 7.30376 	 74.6214 	 
H 	 61.0528 	 6.63153 	 72.9957 	 
C 	 63.0426 	 7.26053 	 73.1717 	 
H 	 63.5094 	 6.5533 	 72.402 	 
H 	 63.7252 	 7.35685 	 73.9983 	 
C 	 62.6493 	 8.6082 	 72.4751 	 
H 	 63.5255 	 9.13216 	 72.1547 	 
H 	 62.2539 	 9.1479 	 73.3038 	 
H 	 61.9316 	 8.46349 	 71.6427 	 
H 	 58.2929 	 6.31716 	 79.4148 	 
H 	 63.5333 	 2.3942 	 74.6467 	 
*
