! wB97X-D3 SP def2-SVP
%pal
nprocs 16
end

* xyz 0 1
S 	 -56.2457 	 60.3151 	 133.668 	 
C 	 -55.4242 	 60.0184 	 132.139 	 
C 	 -54.0767 	 60.1267 	 132.164 	 
C 	 -53.6257 	 60.6832 	 133.402 	 
C 	 -54.674 	 60.9166 	 134.288 	 
H 	 -52.6639 	 60.9334 	 133.772 	 
C 	 -53.1006 	 59.6126 	 131.137 	 
H 	 -52.1823 	 60.027 	 131.436 	 
H 	 -53.2936 	 60.1411 	 130.239 	 
C 	 -53.0735 	 58.0928 	 130.811 	 
H 	 -53.1721 	 57.7488 	 131.84 	 
H 	 -54.0487 	 57.7444 	 130.417 	 
C 	 -51.8581 	 57.5342 	 130.148 	 
H 	 -50.9389 	 57.8074 	 130.714 	 
H 	 -51.8328 	 56.4088 	 130.152 	 
H 	 -51.757 	 57.9268 	 129.156 	 
S 	 -54.6255 	 63.4121 	 135.314 	 
C 	 -54.5512 	 63.5825 	 137.038 	 
C 	 -54.5582 	 62.377 	 137.627 	 
C 	 -54.6257 	 61.2089 	 136.817 	 
C 	 -54.6024 	 61.6473 	 135.514 	 
H 	 -54.4296 	 62.4471 	 138.686 	 
C 	 -54.8479 	 59.8081 	 137.39 	 
H 	 -53.7834 	 59.4972 	 137.552 	 
H 	 -55.2109 	 59.2003 	 136.614 	 
C 	 -55.652 	 59.66 	 138.702 	 
H 	 -55.1895 	 60.36 	 139.365 	 
H 	 -55.5242 	 58.7214 	 139.143 	 
C 	 -57.1773 	 59.7091 	 138.634 	 
H 	 -57.5173 	 58.6939 	 138.331 	 
H 	 -57.5062 	 60.3309 	 137.871 	 
H 	 -57.5932 	 60.076 	 139.529 	 
H 	 -55.9422 	 59.5435 	 131.337 	 
H 	 -54.5543 	 64.5121 	 137.586 	 
*
