! wB97X-D3 SP def2-SVP
%pal
nprocs 16
end

* xyz 0 1
S 	 -31.4249 	 2.30819 	 99.1175 	 
C 	 -31.0378 	 1.44833 	 97.6165 	 
C 	 -32.0202 	 0.549288 	 97.2748 	 
C 	 -33.1634 	 0.770927 	 98.0661 	 
C 	 -33.0503 	 1.64366 	 99.1536 	 
H 	 -34.1119 	 0.298914 	 97.8607 	 
C 	 -31.9452 	 -0.356159 	 96.0937 	 
H 	 -32.5202 	 -1.23081 	 96.2351 	 
H 	 -30.8703 	 -0.668176 	 96.1846 	 
C 	 -32.1704 	 0.303703 	 94.7278 	 
H 	 -33.3097 	 0.422367 	 94.6604 	 
H 	 -31.6385 	 1.25194 	 94.672 	 
C 	 -31.7258 	 -0.525365 	 93.481 	 
H 	 -32.3534 	 -1.39456 	 93.3118 	 
H 	 -31.662 	 0.0956895 	 92.5718 	 
H 	 -30.6916 	 -0.846835 	 93.7517 	 
S 	 -33.7211 	 3.49497 	 101.071 	 
C 	 -35.014 	 3.18169 	 102.14 	 
C 	 -35.7443 	 2.04398 	 101.8 	 
C 	 -35.1849 	 1.40823 	 100.633 	 
C 	 -34.032 	 2.0272 	 100.178 	 
H 	 -36.5361 	 1.61756 	 102.325 	 
C 	 -35.7436 	 0.0349899 	 100.206 	 
H 	 -34.7737 	 -0.579176 	 100.118 	 
H 	 -36.0425 	 0.0243293 	 99.1864 	 
C 	 -36.6747 	 -0.732263 	 101.217 	 
H 	 -37.5664 	 -0.223486 	 101.554 	 
H 	 -36.0971 	 -1.00316 	 102.142 	 
C 	 -37.0673 	 -2.02929 	 100.617 	 
H 	 -38.0019 	 -2.36609 	 101.188 	 
H 	 -36.3097 	 -2.76514 	 100.748 	 
H 	 -37.3489 	 -2.00021 	 99.5252 	 
H 	 -30.0541 	 1.33475 	 97.1848 	 
H 	 -35.1139 	 3.64586 	 103.1 	 
*
