! wB97X-D3 SP def2-SVP
%pal
nprocs 16
end

* xyz 0 1
S 	 5.80225 	 26.6101 	 69.3577 	 
C 	 5.07087 	 26.435 	 67.7015 	 
C 	 6.02415 	 26.8084 	 66.7629 	 
C 	 7.32226 	 27.1849 	 67.318 	 
C 	 7.32762 	 27.241 	 68.6978 	 
H 	 8.14593 	 27.5527 	 66.7869 	 
C 	 5.69892 	 26.7539 	 65.2431 	 
H 	 6.32771 	 27.391 	 64.6068 	 
H 	 4.69683 	 27.3005 	 65.1034 	 
C 	 5.68735 	 25.3444 	 64.6537 	 
H 	 6.69699 	 25.0133 	 65.0853 	 
H 	 4.95298 	 24.6653 	 65.1206 	 
C 	 5.5604 	 25.3331 	 63.1064 	 
H 	 4.6588 	 25.9087 	 62.9025 	 
H 	 6.45096 	 25.7573 	 62.6595 	 
H 	 5.38716 	 24.346 	 62.7037 	 
S 	 9.08888 	 26.8452 	 70.8635 	 
C 	 10.5448 	 27.8028 	 70.9437 	 
C 	 10.4219 	 28.9394 	 70.1175 	 
C 	 9.16886 	 28.9716 	 69.3936 	 
C 	 8.44098 	 27.7938 	 69.5425 	 
H 	 11.1778 	 29.7229 	 70.0394 	 
C 	 8.67037 	 30.2279 	 68.5658 	 
H 	 8.44796 	 30.9369 	 69.3912 	 
H 	 7.75689 	 29.7985 	 68.163 	 
C 	 9.64308 	 30.7934 	 67.5914 	 
H 	 10.1166 	 29.9928 	 66.9942 	 
H 	 10.4397 	 31.1603 	 68.1129 	 
C 	 9.0839 	 31.9582 	 66.7206 	 
H 	 9.84837 	 32.6244 	 66.3781 	 
H 	 8.46978 	 32.5866 	 67.4051 	 
H 	 8.54437 	 31.5956 	 65.8969 	 
H 	 4.11078 	 26.0238 	 67.4279 	 
H 	 11.352 	 27.4571 	 71.5963 	 
*
