! wB97X-D3 SP def2-SVP
%pal
nprocs 16
end

* xyz 0 1
S 	 12.766 	 0.555187 	 85.6343 	 
C 	 13.7494 	 1.80206 	 84.9446 	 
C 	 13.0382 	 2.80389 	 84.3433 	 
C 	 11.6372 	 2.54623 	 84.3415 	 
C 	 11.3636 	 1.39222 	 84.9902 	 
H 	 10.8898 	 3.13944 	 83.8929 	 
C 	 13.6683 	 3.98223 	 83.7648 	 
H 	 14.7492 	 4.03763 	 84.1242 	 
H 	 13.1353 	 4.79843 	 84.25 	 
C 	 13.6474 	 4.18998 	 82.2543 	 
H 	 12.645 	 4.32641 	 81.8905 	 
H 	 14.0683 	 5.22863 	 82.0641 	 
C 	 14.4532 	 3.15194 	 81.3933 	 
H 	 15.5012 	 3.16073 	 81.665 	 
H 	 14.0107 	 2.21328 	 81.6559 	 
H 	 14.3671 	 3.40838 	 80.3123 	 
S 	 9.55794 	 0.0783747 	 86.6881 	 
C 	 7.90749 	 -0.0730052 	 86.2946 	 
C 	 7.74234 	 0.412951 	 84.9962 	 
C 	 8.93138 	 0.807082 	 84.3136 	 
C 	 10.0612 	 0.754701 	 85.0946 	 
H 	 6.7385 	 0.43933 	 84.5627 	 
C 	 8.8775 	 1.29931 	 82.8481 	 
H 	 8.53842 	 0.481561 	 82.2632 	 
H 	 9.8943 	 1.45664 	 82.4858 	 
C 	 8.05033 	 2.55245 	 82.6978 	 
H 	 8.65686 	 3.38514 	 83.0788 	 
H 	 7.188 	 2.51453 	 83.3605 	 
C 	 7.59244 	 2.77444 	 81.2705 	 
H 	 8.45198 	 3.11672 	 80.6235 	 
H 	 6.94078 	 3.56949 	 81.3332 	 
H 	 6.96066 	 1.90232 	 80.8721 	 
H 	 14.8473 	 1.76405 	 84.6695 	 
H 	 7.05371 	 -0.260051 	 86.9391 	 
*
