! wB97X-D3 SP def2-SVP
%pal
nprocs 16
end

* xyz 0 1
S 	 -61.6904 	 48.3394 	 124.357 	 
C 	 -62.4011 	 46.7061 	 124.334 	 
C 	 -62.7118 	 46.3533 	 123.016 	 
C 	 -62.2741 	 47.37 	 122.036 	 
C 	 -61.7294 	 48.5142 	 122.646 	 
H 	 -62.2847 	 47.3129 	 120.874 	 
C 	 -63.2553 	 45.012 	 122.505 	 
H 	 -64.3622 	 44.9606 	 122.447 	 
H 	 -62.9978 	 44.2309 	 123.262 	 
C 	 -62.6154 	 44.4811 	 121.185 	 
H 	 -62.7728 	 45.1977 	 120.396 	 
H 	 -61.5772 	 44.4604 	 121.344 	 
C 	 -63.102 	 43.1004 	 120.863 	 
H 	 -64.1766 	 42.9918 	 120.708 	 
H 	 -62.6139 	 42.8799 	 119.931 	 
H 	 -62.7922 	 42.2938 	 121.51 	 
S 	 -62.0368 	 50.2471 	 120.558 	 
C 	 -60.7786 	 51.3509 	 120.131 	 
C 	 -59.6289 	 51.0666 	 120.831 	 
C 	 -59.727 	 50.1163 	 121.909 	 
C 	 -61.0101 	 49.517 	 121.878 	 
H 	 -58.8031 	 51.727 	 120.622 	 
C 	 -58.5224 	 49.787 	 122.708 	 
H 	 -58.7839 	 49.6949 	 123.74 	 
H 	 -57.8667 	 50.628 	 122.608 	 
C 	 -57.6855 	 48.5471 	 122.271 	 
H 	 -56.7824 	 48.6186 	 122.867 	 
H 	 -57.3134 	 48.7421 	 121.306 	 
C 	 -58.3572 	 47.1833 	 122.165 	 
H 	 -59.1071 	 47.1287 	 121.429 	 
H 	 -58.7742 	 46.911 	 123.127 	 
H 	 -57.6211 	 46.3806 	 121.918 	 
H 	 -62.4489 	 46.0813 	 125.245 	 
H 	 -60.7128 	 52.1452 	 119.459 	 
*
