! wB97X-D3 SP def2-SVP
%pal
nprocs 16
end

* xyz 0 1
S 	 -46.5293 	 56.9204 	 102.461 	 
C 	 -48.1834 	 56.4508 	 102.788 	 
C 	 -48.8048 	 56.1171 	 101.629 	 
C 	 -48.0144 	 56.473 	 100.504 	 
C 	 -46.7385 	 56.933 	 100.688 	 
H 	 -48.2687 	 56.4682 	 99.4565 	 
C 	 -50.3239 	 55.7457 	 101.476 	 
H 	 -50.7238 	 55.5234 	 102.497 	 
H 	 -50.3683 	 54.8398 	 100.93 	 
C 	 -51.409 	 56.686 	 100.939 	 
H 	 -51.9773 	 57.1838 	 101.696 	 
H 	 -50.8878 	 57.5512 	 100.542 	 
C 	 -52.4492 	 56.0657 	 100.013 	 
H 	 -53.056 	 55.2829 	 100.543 	 
H 	 -53.1048 	 56.7561 	 99.5692 	 
H 	 -51.9497 	 55.5422 	 99.1669 	 
S 	 -45.1167 	 58.9286 	 99.7195 	 
C 	 -44.2757 	 58.7556 	 98.18 	 
C 	 -44.4888 	 57.497 	 97.7018 	 
C 	 -45.4551 	 56.7271 	 98.4548 	 
C 	 -45.8592 	 57.395 	 99.6183 	 
H 	 -43.9563 	 57.2534 	 96.8102 	 
C 	 -45.8223 	 55.2746 	 98.1167 	 
H 	 -46.1263 	 55.0583 	 97.0436 	 
H 	 -46.6248 	 54.9858 	 98.7524 	 
C 	 -44.777 	 54.1581 	 98.4065 	 
H 	 -45.1641 	 53.1361 	 98.4333 	 
H 	 -44.3786 	 54.3785 	 99.4591 	 
C 	 -43.5031 	 54.1414 	 97.4721 	 
H 	 -43.0543 	 55.0506 	 97.2777 	 
H 	 -43.6503 	 53.6111 	 96.5487 	 
H 	 -42.7571 	 53.6234 	 98.0963 	 
H 	 -48.5213 	 56.3226 	 103.761 	 
H 	 -43.7186 	 59.3863 	 97.5682 	 
*
