! wB97X-D3 SP def2-SVP
%pal
nprocs 16
end

* xyz 0 1
S 	 -5.85262 	 43.5791 	 44.2818 	 
C 	 -4.77237 	 42.7176 	 43.2689 	 
C 	 -3.59972 	 42.3295 	 43.8784 	 
C 	 -3.62442 	 42.7329 	 45.2313 	 
C 	 -4.75999 	 43.4617 	 45.6589 	 
H 	 -2.86152 	 42.5601 	 45.9335 	 
C 	 -2.46742 	 41.6497 	 43.3059 	 
H 	 -2.72243 	 41.2875 	 42.2996 	 
H 	 -2.44484 	 40.6807 	 43.8657 	 
C 	 -1.09862 	 42.3169 	 43.4405 	 
H 	 -0.993636 	 42.4564 	 44.5376 	 
H 	 -0.343557 	 41.5795 	 43.1876 	 
C 	 -0.887069 	 43.6008 	 42.7607 	 
H 	 -0.890107 	 43.5103 	 41.6301 	 
H 	 -1.79988 	 44.2601 	 42.9554 	 
H 	 0.0293015 	 44.1503 	 43.0671 	 
S 	 -6.82659 	 43.4538 	 47.5435 	 
C 	 -6.34128 	 44.0029 	 49.1438 	 
C 	 -4.98673 	 44.0944 	 49.3365 	 
C 	 -4.25539 	 44.0815 	 48.1018 	 
C 	 -5.13611 	 43.7239 	 47.0993 	 
H 	 -4.58846 	 44.2482 	 50.3395 	 
C 	 -2.74681 	 44.2916 	 47.9287 	 
H 	 -2.56462 	 45.2722 	 48.4859 	 
H 	 -2.43805 	 44.5124 	 46.8807 	 
C 	 -1.93243 	 43.1149 	 48.4986 	 
H 	 -2.31847 	 42.1123 	 48.2618 	 
H 	 -2.04021 	 43.2559 	 49.6305 	 
C 	 -0.487974 	 43.1555 	 48.1057 	 
H 	 0.212361 	 42.5245 	 48.6941 	 
H 	 -0.181072 	 44.1078 	 48.3309 	 
H 	 -0.444875 	 42.8794 	 47.0533 	 
H 	 -4.982 	 42.4979 	 42.2275 	 
H 	 -6.89537 	 43.9556 	 50.0457 	 
*
