! wB97X-D3 SP def2-SVP
%pal
nprocs 16
end

* xyz 0 1
S 	 -73.399 	 39.6976 	 124.558 	 
C 	 -74.1742 	 41.0929 	 125.195 	 
C 	 -73.3986 	 42.2276 	 125.038 	 
C 	 -72.0693 	 41.8691 	 124.556 	 
C 	 -71.8371 	 40.5363 	 124.366 	 
H 	 -71.2894 	 42.5895 	 124.415 	 
C 	 -73.9151 	 43.6839 	 125.229 	 
H 	 -74.9472 	 43.6556 	 124.894 	 
H 	 -73.5045 	 44.4019 	 124.548 	 
C 	 -73.7032 	 44.2862 	 126.64 	 
H 	 -72.6026 	 44.3094 	 126.77 	 
H 	 -74.1383 	 45.2389 	 126.634 	 
C 	 -74.3375 	 43.5022 	 127.804 	 
H 	 -74.0924 	 42.4634 	 127.655 	 
H 	 -73.8785 	 43.9595 	 128.665 	 
H 	 -75.435 	 43.5012 	 127.913 	 
S 	 -70.4405 	 38.534 	 122.916 	 
C 	 -68.7428 	 38.2861 	 123.248 	 
C 	 -68.3145 	 39.1276 	 124.282 	 
C 	 -69.4092 	 39.9314 	 124.786 	 
C 	 -70.6234 	 39.7318 	 124.147 	 
H 	 -67.3178 	 39.1354 	 124.538 	 
C 	 -69.1871 	 40.9067 	 125.941 	 
H 	 -68.9905 	 40.3225 	 126.743 	 
H 	 -70.0647 	 41.3641 	 126.4 	 
C 	 -68.0613 	 41.9717 	 125.713 	 
H 	 -67.2566 	 41.5806 	 125.082 	 
H 	 -67.6235 	 42.1512 	 126.695 	 
C 	 -68.5775 	 43.3202 	 125.134 	 
H 	 -69.0726 	 43.8124 	 125.928 	 
H 	 -69.381 	 43.0338 	 124.441 	 
H 	 -67.831 	 44.027 	 124.718 	 
H 	 -75.238 	 41.0221 	 125.512 	 
H 	 -68.1317 	 37.4804 	 122.908 	 
*
