! wB97X-D3 SP def2-SVP
%pal
nprocs 16
end

* xyz 0 1
S 	 65.4514 	 27.5015 	 70.363 	 
C 	 65.5391 	 26.2137 	 69.2114 	 
C 	 66.6316 	 25.4722 	 69.4447 	 
C 	 67.4945 	 26.1096 	 70.4665 	 
C 	 66.9088 	 27.0727 	 71.1741 	 
H 	 68.5063 	 25.7916 	 70.6481 	 
C 	 67.2576 	 24.4202 	 68.5447 	 
H 	 67.4652 	 23.5284 	 69.1478 	 
H 	 68.219 	 24.8242 	 68.1363 	 
C 	 66.3739 	 23.98 	 67.3983 	 
H 	 65.555 	 23.429 	 67.9018 	 
H 	 65.9899 	 24.9484 	 66.8818 	 
C 	 67.1044 	 23.0832 	 66.3928 	 
H 	 67.6496 	 23.6711 	 65.6846 	 
H 	 67.7507 	 22.2764 	 66.8607 	 
H 	 66.3626 	 22.4824 	 65.7807 	 
S 	 67.5783 	 29.5547 	 72.2006 	 
C 	 68.1325 	 29.6297 	 73.8273 	 
C 	 68.3174 	 28.375 	 74.401 	 
C 	 67.8577 	 27.3366 	 73.5213 	 
C 	 67.3995 	 27.7973 	 72.3111 	 
H 	 68.6163 	 28.4389 	 75.3959 	 
C 	 67.9778 	 25.8927 	 74.0027 	 
H 	 67.6672 	 25.2955 	 73.1506 	 
H 	 67.2187 	 25.6694 	 74.7448 	 
C 	 69.4169 	 25.4183 	 74.2999 	 
H 	 69.5302 	 24.4371 	 74.6469 	 
H 	 69.8731 	 26.0475 	 75.0848 	 
C 	 70.5219 	 25.7313 	 73.1544 	 
H 	 71.3115 	 25.0145 	 73.2604 	 
H 	 70.8791 	 26.7747 	 73.1985 	 
H 	 70.2017 	 25.5071 	 72.1285 	 
H 	 64.8807 	 25.9179 	 68.3839 	 
H 	 68.1264 	 30.5629 	 74.3628 	 
*
