! wB97X-D3 SP def2-SVP
%pal
nprocs 16
end

* xyz 0 1
S 	 38.0006 	 17.6073 	 84.4051 	 
C 	 36.2673 	 17.8317 	 84.0185 	 
C 	 36.1024 	 17.7216 	 82.674 	 
C 	 37.2575 	 17.1974 	 82.0333 	 
C 	 38.3062 	 16.9225 	 82.8588 	 
H 	 37.4833 	 17.0943 	 80.9043 	 
C 	 34.9206 	 18.1404 	 81.8804 	 
H 	 34.1835 	 18.5819 	 82.5703 	 
H 	 34.5852 	 17.2821 	 81.4106 	 
C 	 35.1437 	 19.2093 	 80.7697 	 
H 	 35.7726 	 19.959 	 81.1624 	 
H 	 35.643 	 18.7107 	 79.9298 	 
C 	 33.8598 	 19.8331 	 80.111 	 
H 	 33.2799 	 20.2563 	 80.9099 	 
H 	 34.1748 	 20.4897 	 79.3246 	 
H 	 33.2117 	 19.1215 	 79.658 	 
S 	 40.744 	 17.0012 	 81.6296 	 
C 	 41.7844 	 15.5845 	 81.7473 	 
C 	 40.999 	 14.4439 	 81.8575 	 
C 	 39.6489 	 14.8373 	 82.3047 	 
C 	 39.4873 	 16.1803 	 82.551 	 
H 	 41.4359 	 13.4775 	 81.808 	 
C 	 38.5578 	 13.8435 	 82.4919 	 
H 	 38.8461 	 12.8833 	 82.0425 	 
H 	 37.7376 	 14.2807 	 81.8485 	 
C 	 38.0228 	 13.6796 	 83.8831 	 
H 	 37.4779 	 14.5896 	 84.1053 	 
H 	 38.7816 	 13.4898 	 84.6173 	 
C 	 36.8783 	 12.6289 	 83.9924 	 
H 	 36.2821 	 12.7163 	 84.9767 	 
H 	 37.3586 	 11.6307 	 83.9708 	 
H 	 36.2175 	 12.823 	 83.1771 	 
H 	 35.4666 	 18.0644 	 84.7507 	 
H 	 42.7741 	 15.5026 	 81.2712 	 
*
