! wB97X-D3 SP def2-SVP
%pal
nprocs 16
end

* xyz 0 1
S 	 8.36164 	 27.6642 	 39.7707 	 
C 	 6.70989 	 27.8037 	 40.1935 	 
C 	 6.24085 	 26.7178 	 40.8927 	 
C 	 7.27839 	 25.8065 	 41.098 	 
C 	 8.49204 	 26.1237 	 40.4734 	 
H 	 7.11355 	 24.9057 	 41.4794 	 
C 	 4.80705 	 26.494 	 41.3918 	 
H 	 4.64607 	 25.4594 	 41.1595 	 
H 	 4.17013 	 27.0972 	 40.7543 	 
C 	 4.50922 	 26.5731 	 42.856 	 
H 	 3.44696 	 26.3089 	 43.0094 	 
H 	 5.16699 	 25.8418 	 43.4468 	 
C 	 4.86251 	 27.8796 	 43.4474 	 
H 	 4.30603 	 28.6112 	 42.8881 	 
H 	 4.53813 	 27.99 	 44.523 	 
H 	 5.94704 	 28.1685 	 43.3798 	 
S 	 10.9644 	 25.9248 	 41.6135 	 
C 	 11.8758 	 24.4671 	 41.5675 	 
C 	 11.2736 	 23.6024 	 40.7355 	 
C 	 10.1176 	 24.0852 	 40.0514 	 
C 	 9.75097 	 25.3895 	 40.4199 	 
H 	 11.6998 	 22.6751 	 40.6243 	 
C 	 9.38094 	 23.2013 	 39.0285 	 
H 	 10.1793 	 22.6142 	 38.6181 	 
H 	 8.99922 	 23.9036 	 38.2231 	 
C 	 8.28301 	 22.2778 	 39.6815 	 
H 	 7.96526 	 22.7515 	 40.583 	 
H 	 8.53934 	 21.2837 	 39.9288 	 
C 	 7.18999 	 22.173 	 38.7279 	 
H 	 6.5919 	 23.0696 	 38.7424 	 
H 	 6.65263 	 21.2809 	 38.9329 	 
H 	 7.63361 	 22.1387 	 37.6606 	 
H 	 6.21092 	 28.7127 	 40.1416 	 
H 	 12.8196 	 24.2821 	 42.0598 	 
*
