! wB97X-D3 SP def2-SVP
%pal
nprocs 16
end

* xyz 0 1
S 	 4.85585 	 -5.3342 	 72.957 	 
C 	 3.25293 	 -5.37079 	 72.3691 	 
C 	 2.42157 	 -4.54728 	 73.1396 	 
C 	 3.05658 	 -4.04048 	 74.3488 	 
C 	 4.32617 	 -4.47856 	 74.4534 	 
H 	 2.58082 	 -3.42486 	 75.0856 	 
C 	 0.888363 	 -4.3927 	 72.9408 	 
H 	 0.457314 	 -5.14536 	 72.2685 	 
H 	 0.586884 	 -3.39467 	 72.5202 	 
C 	 0.0411823 	 -4.4001 	 74.2677 	 
H 	 0.489973 	 -3.87088 	 75.1458 	 
H 	 -0.8706 	 -3.82503 	 74.0263 	 
C 	 -0.370994 	 -5.82684 	 74.7193 	 
H 	 -1.16637 	 -5.72063 	 75.478 	 
H 	 -0.882231 	 -6.37743 	 73.8575 	 
H 	 0.463383 	 -6.41904 	 75.0695 	 
S 	 6.79505 	 -3.71067 	 75.5436 	 
C 	 7.01493 	 -3.45666 	 77.3144 	 
C 	 5.86035 	 -3.77151 	 77.9598 	 
C 	 4.81286 	 -4.27644 	 77.1041 	 
C 	 5.12241 	 -4.2845 	 75.681 	 
H 	 5.71053 	 -3.7597 	 79.0499 	 
C 	 3.38127 	 -4.61148 	 77.6382 	 
H 	 3.46558 	 -5.20204 	 78.5104 	 
H 	 2.9378 	 -5.24778 	 76.8942 	 
C 	 2.60653 	 -3.33409 	 77.9443 	 
H 	 1.53205 	 -3.42347 	 77.6195 	 
H 	 3.07346 	 -2.60548 	 77.3759 	 
C 	 2.62201 	 -2.83111 	 79.4074 	 
H 	 3.60776 	 -2.73447 	 79.7932 	 
H 	 2.06801 	 -3.56258 	 80.048 	 
H 	 2.08432 	 -1.93962 	 79.5285 	 
H 	 2.94788 	 -5.86785 	 71.453 	 
H 	 7.83105 	 -3.1684 	 77.8879 	 
*
