! wB97X-D3 SP def2-SVP
%pal
nprocs 16
end

* xyz 0 1
S 	 -9.45685 	 71.5306 	 48.8936 	 
C 	 -9.7644 	 70.2744 	 47.7005 	 
C 	 -11.1089 	 69.9119 	 47.7769 	 
C 	 -11.8296 	 70.5616 	 48.8229 	 
C 	 -11.118 	 71.5132 	 49.4935 	 
H 	 -12.8591 	 70.3448 	 49.1564 	 
C 	 -11.7738 	 68.9641 	 46.7714 	 
H 	 -12.4282 	 68.2519 	 47.2463 	 
H 	 -11.0474 	 68.4386 	 46.1989 	 
C 	 -12.8312 	 69.6901 	 45.8019 	 
H 	 -13.6793 	 70.0821 	 46.4698 	 
H 	 -12.4192 	 70.5599 	 45.356 	 
C 	 -13.3875 	 68.5909 	 44.8165 	 
H 	 -14.2528 	 68.8562 	 44.2564 	 
H 	 -12.5815 	 68.2183 	 44.2186 	 
H 	 -13.8075 	 67.7059 	 45.3656 	 
S 	 -10.8663 	 72.104 	 52.2208 	 
C 	 -11.9889 	 73.1506 	 52.9429 	 
C 	 -12.9415 	 73.5162 	 52.0721 	 
C 	 -12.7666 	 73.0098 	 50.728 	 
C 	 -11.6388 	 72.2542 	 50.6179 	 
H 	 -13.7326 	 74.1063 	 52.5055 	 
C 	 -13.8434 	 73.2534 	 49.6953 	 
H 	 -14.3988 	 72.3202 	 49.5447 	 
H 	 -13.2751 	 73.4832 	 48.7805 	 
C 	 -14.7845 	 74.5016 	 49.9086 	 
H 	 -14.3044 	 75.4369 	 50.0061 	 
H 	 -15.2537 	 74.3973 	 50.899 	 
C 	 -15.8791 	 74.6945 	 48.8828 	 
H 	 -16.3905 	 75.6276 	 49.0466 	 
H 	 -16.6256 	 73.9152 	 49.1197 	 
H 	 -15.4915 	 74.7176 	 47.9073 	 
H 	 -9.02381 	 69.9422 	 47.0148 	 
H 	 -12.1214 	 73.3874 	 54.0014 	 
*
