! wB97X-D3 SP def2-SVP
%pal
nprocs 16
end

* xyz 0 1
S 	 -99.6972 	 41.0172 	 123.857 	 
C 	 -99.7172 	 41.0384 	 125.572 	 
C 	 -98.5368 	 41.6599 	 126.051 	 
C 	 -97.5283 	 41.6416 	 125.081 	 
C 	 -97.9729 	 41.318 	 123.818 	 
H 	 -96.4883 	 41.8974 	 125.201 	 
C 	 -98.3342 	 42.133 	 127.481 	 
H 	 -99.2708 	 42.5965 	 127.802 	 
H 	 -97.5902 	 42.9465 	 127.271 	 
C 	 -97.8537 	 41.1357 	 128.592 	 
H 	 -96.836 	 40.8413 	 128.35 	 
H 	 -97.9518 	 41.5528 	 129.561 	 
C 	 -98.6559 	 39.8192 	 128.535 	 
H 	 -99.6012 	 39.8848 	 129.047 	 
H 	 -98.8198 	 39.5657 	 127.479 	 
H 	 -98.0577 	 39.0604 	 129.06 	 
S 	 -96.6269 	 39.4275 	 122.257 	 
C 	 -95.7163 	 39.8627 	 120.916 	 
C 	 -95.7935 	 41.2057 	 120.721 	 
C 	 -96.542 	 41.8926 	 121.734 	 
C 	 -97.1146 	 41.04 	 122.641 	 
H 	 -95.1997 	 41.6401 	 119.94 	 
C 	 -96.4488 	 43.3726 	 121.959 	 
H 	 -96.1491 	 43.8294 	 121.095 	 
H 	 -95.5676 	 43.4229 	 122.69 	 
C 	 -97.6283 	 44.2156 	 122.495 	 
H 	 -97.2548 	 45.2095 	 122.515 	 
H 	 -97.7887 	 44.0146 	 123.534 	 
C 	 -98.9376 	 44.0765 	 121.652 	 
H 	 -98.9028 	 44.1338 	 120.561 	 
H 	 -99.5586 	 44.9658 	 121.855 	 
H 	 -99.4217 	 43.1463 	 121.918 	 
H 	 -100.596 	 40.9033 	 126.202 	 
H 	 -95.3425 	 39.1911 	 120.132 	 
*
