! wB97X-D3 SP def2-SVP
%pal
nprocs 16
end

* xyz 0 1
S 	 -2.70902 	 -12.1453 	 71.0937 	 
C 	 -4.51986 	 -12.3181 	 71.2821 	 
C 	 -5.26088 	 -11.5714 	 70.356 	 
C 	 -4.39949 	 -10.718 	 69.5877 	 
C 	 -3.05661 	 -10.9034 	 69.8715 	 
H 	 -4.6382 	 -9.9969 	 68.8 	 
C 	 -6.79788 	 -11.5435 	 70.1113 	 
H 	 -6.9328 	 -12.4712 	 69.5638 	 
H 	 -7.24512 	 -10.8215 	 69.3758 	 
C 	 -7.55464 	 -11.6344 	 71.4455 	 
H 	 -7.8488 	 -12.6335 	 71.7899 	 
H 	 -6.8927 	 -11.2564 	 72.1535 	 
C 	 -8.88557 	 -10.9852 	 71.2924 	 
H 	 -8.77368 	 -10.0167 	 70.8013 	 
H 	 -9.39402 	 -11.5864 	 70.5176 	 
H 	 -9.47172 	 -10.9601 	 72.2177 	 
S 	 -1.56897 	 -8.47648 	 69.6982 	 
C 	 -0.230061 	 -8.35514 	 68.6045 	 
C 	 -0.18122 	 -9.43805 	 67.7655 	 
C 	 -1.13325 	 -10.4632 	 68.065 	 
C 	 -1.97347 	 -10.1234 	 69.155 	 
H 	 0.562932 	 -9.50046 	 66.9824 	 
C 	 -1.19122 	 -11.7287 	 67.3137 	 
H 	 -0.795988 	 -11.6547 	 66.3513 	 
H 	 -2.24017 	 -11.9696 	 66.9866 	 
C 	 -0.418848 	 -12.8399 	 67.9868 	 
H 	 -0.924081 	 -12.9867 	 68.9415 	 
H 	 0.609244 	 -12.5137 	 68.1599 	 
C 	 -0.310041 	 -14.1145 	 67.1143 	 
H 	 -1.34569 	 -14.5017 	 66.9293 	 
H 	 0.291025 	 -14.8585 	 67.5172 	 
H 	 0.0853419 	 -13.9757 	 66.1741 	 
H 	 -5.09411 	 -13.0648 	 71.8577 	 
H 	 0.328411 	 -7.4428 	 68.5294 	 
*
