! wB97X-D3 SP def2-SVP
%pal
nprocs 16
end

* xyz 0 1
S 	 -34.2366 	 75.6527 	 151.667 	 
C 	 -32.7697 	 76.1142 	 152.594 	 
C 	 -31.7069 	 75.3943 	 152.251 	 
C 	 -32.0198 	 74.5553 	 151.106 	 
C 	 -33.3449 	 74.401 	 150.882 	 
H 	 -31.2878 	 73.8942 	 150.664 	 
C 	 -30.306 	 75.5103 	 152.912 	 
H 	 -30.2265 	 74.4438 	 153.135 	 
H 	 -30.2921 	 76.0638 	 153.856 	 
C 	 -29.264 	 76.2289 	 151.958 	 
H 	 -29.2956 	 75.7116 	 151.018 	 
H 	 -29.6382 	 77.2475 	 151.722 	 
C 	 -27.8766 	 76.1461 	 152.507 	 
H 	 -27.7108 	 76.7711 	 153.404 	 
H 	 -27.6563 	 75.1297 	 152.762 	 
H 	 -27.1727 	 76.503 	 151.835 	 
S 	 -34.9447 	 73.954 	 148.748 	 
C 	 -35.2491 	 72.2475 	 148.187 	 
C 	 -34.6446 	 71.3057 	 149.012 	 
C 	 -33.7757 	 71.9558 	 149.932 	 
C 	 -34.0069 	 73.3469 	 150.066 	 
H 	 -34.7857 	 70.2494 	 148.902 	 
C 	 -32.904 	 71.1858 	 150.937 	 
H 	 -32.1082 	 71.795 	 151.195 	 
H 	 -32.3656 	 70.4106 	 150.384 	 
C 	 -33.6524 	 70.6611 	 152.151 	 
H 	 -34.3278 	 69.9128 	 151.798 	 
H 	 -34.1603 	 71.5144 	 152.527 	 
C 	 -32.7081 	 70.1074 	 153.193 	 
H 	 -33.2738 	 69.691 	 153.98 	 
H 	 -32.1213 	 70.8419 	 153.708 	 
H 	 -32.1254 	 69.2706 	 152.903 	 
H 	 -32.8459 	 76.8146 	 153.449 	 
H 	 -35.9875 	 71.9007 	 147.505 	 
*
