! wB97X-D3 SP def2-SVP
%pal
nprocs 16
end

* xyz 0 1
S 	 2.4689 	 -13.8379 	 64.8701 	 
C 	 3.71731 	 -13.1038 	 65.9325 	 
C 	 4.77364 	 -12.5575 	 65.1557 	 
C 	 4.55918 	 -12.7484 	 63.7637 	 
C 	 3.39325 	 -13.3818 	 63.3772 	 
H 	 5.16683 	 -12.4179 	 62.9176 	 
C 	 5.83146 	 -11.6544 	 65.6279 	 
H 	 6.47363 	 -11.3432 	 64.7255 	 
H 	 6.26835 	 -12.2353 	 66.3949 	 
C 	 5.30564 	 -10.3677 	 66.2856 	 
H 	 4.67791 	 -10.6923 	 67.1692 	 
H 	 6.19075 	 -9.8154 	 66.6897 	 
C 	 4.56274 	 -9.36635 	 65.3565 	 
H 	 4.76566 	 -8.33689 	 65.6518 	 
H 	 4.97492 	 -9.40726 	 64.3943 	 
H 	 3.50296 	 -9.63801 	 65.3519 	 
S 	 4.24788 	 -14.0387 	 60.7788 	 
C 	 2.95228 	 -14.1219 	 59.4833 	 
C 	 1.73249 	 -13.7416 	 59.9398 	 
C 	 1.77568 	 -13.3611 	 61.3397 	 
C 	 3.02622 	 -13.5434 	 61.9416 	 
H 	 0.827338 	 -13.8944 	 59.3065 	 
C 	 0.432774 	 -13.1792 	 62.1093 	 
H 	 -0.433598 	 -12.5977 	 61.634 	 
H 	 0.641932 	 -12.4782 	 62.9098 	 
C 	 -0.107933 	 -14.4691 	 62.6889 	 
H 	 0.625966 	 -15.1048 	 63.2277 	 
H 	 -0.476812 	 -15.0763 	 61.8219 	 
C 	 -1.21858 	 -13.9959 	 63.7133 	 
H 	 -1.56885 	 -14.8319 	 64.33 	 
H 	 -1.96659 	 -13.495 	 63.2001 	 
H 	 -0.722155 	 -13.2927 	 64.4049 	 
H 	 3.70861 	 -13.1644 	 67.0134 	 
H 	 3.03282 	 -14.7181 	 58.6521 	 
*
