! wB97X-D3 SP def2-SVP
%pal
nprocs 16
end

* xyz 0 1
S 	 -67.7185 	 52.97 	 120.096 	 
C 	 -68.1215 	 53.4501 	 121.719 	 
C 	 -69.3816 	 53.8442 	 121.879 	 
C 	 -70.0986 	 53.7559 	 120.631 	 
C 	 -69.4344 	 52.9833 	 119.631 	 
H 	 -71.1242 	 53.8716 	 120.501 	 
C 	 -69.9636 	 54.5213 	 123.077 	 
H 	 -69.3463 	 54.2974 	 123.941 	 
H 	 -70.9074 	 54.115 	 123.142 	 
C 	 -70.1161 	 56.0694 	 123.016 	 
H 	 -69.2603 	 56.6944 	 122.833 	 
H 	 -70.713 	 56.1327 	 122.201 	 
C 	 -70.6374 	 56.6807 	 124.257 	 
H 	 -69.9619 	 56.7204 	 125.121 	 
H 	 -70.9321 	 57.6981 	 124.029 	 
H 	 -71.5547 	 56.2747 	 124.685 	 
S 	 -70.1692 	 53.8406 	 117.111 	 
C 	 -70.6336 	 52.6906 	 115.893 	 
C 	 -70.5009 	 51.4146 	 116.378 	 
C 	 -70.1062 	 51.3312 	 117.727 	 
C 	 -69.8042 	 52.5701 	 118.28 	 
H 	 -70.646 	 50.6319 	 115.653 	 
C 	 -69.7819 	 49.9219 	 118.236 	 
H 	 -70.7869 	 49.3344 	 118.347 	 
H 	 -69.4094 	 49.935 	 119.223 	 
C 	 -68.8526 	 48.9898 	 117.307 	 
H 	 -67.8823 	 49.4829 	 117.152 	 
H 	 -69.2684 	 48.7543 	 116.312 	 
C 	 -68.4118 	 47.7421 	 118.041 	 
H 	 -67.9546 	 47.055 	 117.304 	 
H 	 -69.2299 	 47.2701 	 118.537 	 
H 	 -67.681 	 48.0517 	 118.78 	 
H 	 -67.3308 	 53.4785 	 122.465 	 
H 	 -70.8086 	 52.7753 	 114.834 	 
*
