! wB97X-D3 SP def2-SVP
%pal
nprocs 16
end

* xyz 0 1
S 	 31.1678 	 31.7187 	 54.1657 	 
C 	 31.3866 	 30 	 54.1076 	 
C 	 31.2683 	 29.4243 	 55.3673 	 
C 	 30.8333 	 30.3673 	 56.3452 	 
C 	 30.5059 	 31.6431 	 55.7969 	 
H 	 30.7106 	 30.0878 	 57.3933 	 
C 	 31.7327 	 28.0432 	 55.7622 	 
H 	 31.8883 	 27.5015 	 54.7968 	 
H 	 30.7963 	 27.6165 	 56.287 	 
C 	 33.0078 	 27.9092 	 56.685 	 
H 	 33.8313 	 28.4503 	 56.1367 	 
H 	 32.7684 	 28.3072 	 57.724 	 
C 	 33.4731 	 26.4115 	 56.7977 	 
H 	 32.5841 	 25.8506 	 57.2082 	 
H 	 33.881 	 25.831 	 55.9788 	 
H 	 34.163 	 26.1995 	 57.5766 	 
S 	 28.8788 	 33.7948 	 55.7162 	 
C 	 28.4474 	 34.6792 	 57.1595 	 
C 	 29.2492 	 34.1969 	 58.1917 	 
C 	 30.0904 	 33.1019 	 57.8436 	 
C 	 29.9317 	 32.7472 	 56.4924 	 
H 	 29.2072 	 34.5835 	 59.1934 	 
C 	 31.0934 	 32.5079 	 58.7924 	 
H 	 31.7005 	 33.3655 	 59.1547 	 
H 	 31.9406 	 31.9861 	 58.2603 	 
C 	 30.4135 	 31.8025 	 60.002 	 
H 	 29.7804 	 31.0757 	 59.5258 	 
H 	 29.7282 	 32.4952 	 60.4842 	 
C 	 31.3376 	 31.1749 	 61.004 	 
H 	 30.8099 	 30.6144 	 61.7829 	 
H 	 32.1558 	 31.8349 	 61.3069 	 
H 	 31.8221 	 30.3383 	 60.5007 	 
H 	 31.8306 	 29.4688 	 53.2962 	 
H 	 27.9834 	 35.5988 	 57.1413 	 
*
