! wB97X-D3 SP def2-SVP
%pal
nprocs 16
end

* xyz 0 1
S 	 -27.4584 	 -2.384 	 101.267 	 
C 	 -27.4601 	 -2.91337 	 102.925 	 
C 	 -28.6804 	 -3.40746 	 103.272 	 
C 	 -29.6794 	 -2.96638 	 102.362 	 
C 	 -29.1523 	 -2.38393 	 101.224 	 
H 	 -30.6785 	 -3.24903 	 102.472 	 
C 	 -28.9422 	 -4.17234 	 104.533 	 
H 	 -30.0247 	 -4.11588 	 104.675 	 
H 	 -28.4904 	 -3.51226 	 105.385 	 
C 	 -28.3989 	 -5.56348 	 104.647 	 
H 	 -27.3664 	 -5.64265 	 104.295 	 
H 	 -28.3429 	 -5.90795 	 105.671 	 
C 	 -29.1223 	 -6.49957 	 103.694 	 
H 	 -28.7892 	 -6.4745 	 102.632 	 
H 	 -29.0974 	 -7.50252 	 104.16 	 
H 	 -30.2293 	 -6.26536 	 103.685 	 
S 	 -29.2072 	 -2.15122 	 98.4727 	 
C 	 -30.7312 	 -1.67072 	 97.7162 	 
C 	 -31.6216 	 -1.14411 	 98.6396 	 
C 	 -31.1134 	 -1.24102 	 99.9621 	 
C 	 -29.9019 	 -1.83147 	 100.07 	 
H 	 -32.5393 	 -0.672946 	 98.4223 	 
C 	 -32.092 	 -0.749772 	 101.061 	 
H 	 -32.6058 	 0.231496 	 100.856 	 
H 	 -31.5851 	 -0.50804 	 102.013 	 
C 	 -33.1224 	 -1.91257 	 101.272 	 
H 	 -32.607 	 -2.86198 	 101.456 	 
H 	 -33.5323 	 -2.07711 	 100.249 	 
C 	 -34.1028 	 -1.6823 	 102.467 	 
H 	 -34.9014 	 -2.40303 	 102.533 	 
H 	 -34.6531 	 -0.720896 	 102.43 	 
H 	 -33.7524 	 -1.67581 	 103.485 	 
H 	 -26.6543 	 -2.90581 	 103.526 	 
H 	 -30.9641 	 -1.61499 	 96.6538 	 
*
