! wB97X-D3 SP def2-SVP
%pal
nprocs 16
end

* xyz 0 1
S 	 -8.22457 	 75.6234 	 43.9373 	 
C 	 -8.0411 	 76.8144 	 45.1201 	 
C 	 -7.48786 	 76.3195 	 46.3079 	 
C 	 -7.19983 	 74.9132 	 46.1137 	 
C 	 -7.56137 	 74.3407 	 44.8607 	 
H 	 -6.75257 	 74.2221 	 46.8603 	 
C 	 -7.28625 	 77.1657 	 47.5563 	 
H 	 -7.0382 	 76.5071 	 48.4006 	 
H 	 -8.2518 	 77.602 	 47.8358 	 
C 	 -6.3512 	 78.3139 	 47.3737 	 
H 	 -5.40186 	 78.0079 	 46.9096 	 
H 	 -6.84336 	 78.9923 	 46.5797 	 
C 	 -6.10583 	 79.1451 	 48.6671 	 
H 	 -5.90039 	 78.5239 	 49.5527 	 
H 	 -5.22117 	 79.8063 	 48.5932 	 
H 	 -6.9425 	 79.8247 	 48.8989 	 
S 	 -7.68012 	 71.7473 	 45.4787 	 
C 	 -7.51743 	 70.5325 	 44.2064 	 
C 	 -7.03942 	 71.0871 	 43.0355 	 
C 	 -7.06442 	 72.5104 	 43.084 	 
C 	 -7.36021 	 73.0127 	 44.355 	 
H 	 -6.77581 	 70.5141 	 42.1376 	 
C 	 -6.67461 	 73.2826 	 41.875 	 
H 	 -5.59594 	 73.2924 	 41.9635 	 
H 	 -7.06295 	 74.2963 	 41.9243 	 
C 	 -7.1466 	 72.7823 	 40.4802 	 
H 	 -8.20426 	 72.4967 	 40.3839 	 
H 	 -6.51647 	 71.873 	 40.2832 	 
C 	 -6.92161 	 73.8681 	 39.4225 	 
H 	 -7.07438 	 73.5751 	 38.3864 	 
H 	 -5.83585 	 74.0896 	 39.4207 	 
H 	 -7.42111 	 74.86 	 39.5895 	 
H 	 -8.41319 	 77.852 	 44.983 	 
H 	 -7.61713 	 69.5025 	 44.2767 	 
*
