! wB97X-D3 SP def2-SVP
%pal
nprocs 16
end

* xyz 0 1
S 	 -82.3598 	 43.6315 	 129.366 	 
C 	 -83.9776 	 43.3871 	 128.842 	 
C 	 -84.9072 	 43.8585 	 129.715 	 
C 	 -84.3335 	 44.3314 	 130.933 	 
C 	 -82.9695 	 44.2004 	 130.906 	 
H 	 -84.7718 	 44.6952 	 131.851 	 
C 	 -86.3681 	 43.8212 	 129.47 	 
H 	 -86.8519 	 43.7398 	 130.438 	 
H 	 -86.6432 	 42.9851 	 128.921 	 
C 	 -87.0037 	 45.0616 	 128.813 	 
H 	 -88.1133 	 44.8941 	 128.653 	 
H 	 -86.9563 	 45.9003 	 129.554 	 
C 	 -86.3377 	 45.4349 	 127.527 	 
H 	 -85.2458 	 45.638 	 127.589 	 
H 	 -86.4111 	 44.6698 	 126.757 	 
H 	 -86.7686 	 46.3952 	 127.143 	 
S 	 -80.7647 	 45.7293 	 131.621 	 
C 	 -80.2253 	 45.8942 	 133.275 	 
C 	 -80.8587 	 44.8886 	 134.047 	 
C 	 -81.8665 	 44.1524 	 133.345 	 
C 	 -82.0095 	 44.5654 	 132.027 	 
H 	 -80.5521 	 44.7274 	 135.096 	 
C 	 -82.6413 	 43.0814 	 134.126 	 
H 	 -82.0853 	 42.6924 	 134.96 	 
H 	 -82.7667 	 42.2076 	 133.471 	 
C 	 -84.0513 	 43.4796 	 134.598 	 
H 	 -84.7566 	 43.5474 	 133.802 	 
H 	 -84.006 	 44.4254 	 135.151 	 
C 	 -84.6986 	 42.3286 	 135.491 	 
H 	 -85.7082 	 42.5757 	 135.798 	 
H 	 -84.1423 	 42.3003 	 136.437 	 
H 	 -84.506 	 41.3436 	 134.908 	 
H 	 -84.239 	 42.9498 	 127.883 	 
H 	 -79.3786 	 46.3826 	 133.781 	 
*
