! wB97X-D3 SP def2-SVP
%pal
nprocs 16
end

* xyz 0 1
S 	 44.4665 	 24.4596 	 90.8825 	 
C 	 44.6274 	 25.8844 	 91.8121 	 
C 	 44.3473 	 27.0483 	 91.1015 	 
C 	 43.9702 	 26.8048 	 89.7459 	 
C 	 43.9842 	 25.4269 	 89.474 	 
H 	 43.7207 	 27.5598 	 89.0322 	 
C 	 44.3687 	 28.4586 	 91.6845 	 
H 	 45.3504 	 28.8338 	 91.6251 	 
H 	 44.1225 	 28.1354 	 92.6701 	 
C 	 43.3172 	 29.4169 	 91.2133 	 
H 	 43.2693 	 29.4422 	 90.1135 	 
H 	 42.2975 	 28.8983 	 91.3546 	 
C 	 43.503 	 30.8982 	 91.7679 	 
H 	 43.6119 	 30.9584 	 92.8598 	 
H 	 44.4358 	 31.2998 	 91.2825 	 
H 	 42.6798 	 31.583 	 91.6167 	 
S 	 45.0639 	 23.9488 	 87.3744 	 
C 	 44.0506 	 23.5581 	 86.0497 	 
C 	 42.9126 	 24.3355 	 86.0597 	 
C 	 42.6989 	 24.9783 	 87.3277 	 
C 	 43.7461 	 24.8011 	 88.1559 	 
H 	 42.3855 	 24.5408 	 85.1477 	 
C 	 41.4498 	 25.8616 	 87.6164 	 
H 	 41.4208 	 26.3267 	 88.5574 	 
H 	 40.6571 	 25.1717 	 87.6567 	 
C 	 41.1129 	 26.8576 	 86.4799 	 
H 	 41.3701 	 26.5189 	 85.5331 	 
H 	 41.4527 	 27.8234 	 86.6298 	 
C 	 39.6059 	 26.9694 	 86.4007 	 
H 	 39.0579 	 26.0715 	 86.1765 	 
H 	 39.2874 	 27.5795 	 85.4833 	 
H 	 39.1534 	 27.4374 	 87.3049 	 
H 	 44.9389 	 25.822 	 92.9071 	 
H 	 44.384 	 22.8766 	 85.28 	 
*
