! wB97X-D3 SP def2-SVP
%pal
nprocs 16
end

* xyz 0 1
S 	 -2.87314 	 79.0181 	 51.9484 	 
C 	 -1.59452 	 80.1187 	 51.5506 	 
C 	 -0.572481 	 79.504 	 50.9299 	 
C 	 -0.706618 	 78.0754 	 50.9029 	 
C 	 -2.04497 	 77.6863 	 51.1159 	 
H 	 -0.025853 	 77.3218 	 50.5626 	 
C 	 0.66081 	 80.1788 	 50.3638 	 
H 	 1.27242 	 80.2227 	 51.2143 	 
H 	 0.420317 	 81.2124 	 50.1189 	 
C 	 1.46298 	 79.447 	 49.1757 	 
H 	 2.24814 	 79.9959 	 48.7989 	 
H 	 1.81446 	 78.3867 	 49.4975 	 
C 	 0.583138 	 79.3349 	 47.9421 	 
H 	 -0.0254263 	 78.4811 	 48.0644 	 
H 	 -0.075478 	 80.1827 	 47.965 	 
H 	 1.0983 	 79.308 	 47.0025 	 
S 	 -4.11994 	 76.0113 	 51.8974 	 
C 	 -4.23486 	 74.4838 	 51.1279 	 
C 	 -3.23772 	 74.266 	 50.1735 	 
C 	 -2.37139 	 75.356 	 49.9961 	 
C 	 -2.65253 	 76.3942 	 50.8684 	 
H 	 -3.16874 	 73.4194 	 49.5458 	 
C 	 -1.24658 	 75.3242 	 48.9414 	 
H 	 -1.05876 	 76.44 	 48.7702 	 
H 	 -1.82724 	 74.9611 	 48.0879 	 
C 	 -0.0523393 	 74.2841 	 49.3179 	 
H 	 0.455067 	 74.1086 	 48.4123 	 
H 	 -0.496805 	 73.3848 	 49.7535 	 
C 	 1.02218 	 74.9275 	 50.2634 	 
H 	 0.53528 	 75.0094 	 51.3179 	 
H 	 1.42729 	 75.8371 	 49.917 	 
H 	 1.83209 	 74.1771 	 50.4816 	 
H 	 -1.73218 	 81.187 	 51.8162 	 
H 	 -5.13188 	 73.8548 	 51.1708 	 
*
