! wB97X-D3 SP def2-SVP
%pal
nprocs 16
end

* xyz 0 1
S 	 -54.2425 	 60.025 	 135.57 	 
C 	 -53.6429 	 61.0177 	 134.297 	 
C 	 -53.4939 	 62.2935 	 134.682 	 
C 	 -53.929 	 62.4788 	 136.018 	 
C 	 -54.395 	 61.3608 	 136.641 	 
H 	 -54.1127 	 63.3638 	 136.709 	 
C 	 -53.1128 	 63.5463 	 133.846 	 
H 	 -52.033 	 63.7156 	 133.94 	 
H 	 -53.5925 	 64.4322 	 134.281 	 
C 	 -53.4238 	 63.4651 	 132.337 	 
H 	 -52.8728 	 62.6297 	 131.847 	 
H 	 -54.4497 	 63.1515 	 132.215 	 
C 	 -52.9623 	 64.6362 	 131.555 	 
H 	 -53.0375 	 64.4574 	 130.473 	 
H 	 -53.436 	 65.5913 	 131.724 	 
H 	 -51.8991 	 64.8146 	 131.7 	 
S 	 -56.5307 	 61.379 	 138.257 	 
C 	 -56.3219 	 61.2611 	 139.987 	 
C 	 -54.9782 	 61.198 	 140.371 	 
C 	 -54.1774 	 61.2136 	 139.155 	 
C 	 -54.8695 	 61.2836 	 137.996 	 
H 	 -54.7439 	 61.2884 	 141.48 	 
C 	 -52.6677 	 61.3981 	 139.209 	 
H 	 -52.3894 	 61.8919 	 140.2 	 
H 	 -52.3829 	 62.0255 	 138.328 	 
C 	 -51.8042 	 60.1023 	 139.076 	 
H 	 -50.7322 	 60.2826 	 139.329 	 
H 	 -51.7639 	 59.7149 	 138.089 	 
C 	 -52.2409 	 59.0187 	 139.999 	 
H 	 -53.2509 	 58.5874 	 139.738 	 
H 	 -52.3282 	 59.438 	 141.016 	 
H 	 -51.4156 	 58.2985 	 140.097 	 
H 	 -53.5245 	 60.6377 	 133.31 	 
H 	 -57.1694 	 61.3536 	 140.654 	 
*
