! wB97X-D3 SP def2-SVP
%pal
nprocs 16
end

* xyz 0 1
S 	 -46.7643 	 25.4989 	 82.0273 	 
C 	 -47.4221 	 26.3563 	 83.3927 	 
C 	 -48.1766 	 25.4541 	 84.184 	 
C 	 -48.2243 	 24.0939 	 83.6805 	 
C 	 -47.5774 	 23.9979 	 82.4384 	 
H 	 -48.5544 	 23.1485 	 84.0578 	 
C 	 -48.9899 	 25.7955 	 85.4294 	 
H 	 -49.9869 	 25.3823 	 85.4031 	 
H 	 -49.2368 	 26.8587 	 85.3869 	 
C 	 -48.2374 	 25.4816 	 86.7589 	 
H 	 -47.9127 	 24.4649 	 86.7758 	 
H 	 -47.2392 	 25.9937 	 86.7684 	 
C 	 -48.8825 	 25.8885 	 88.058 	 
H 	 -49.8542 	 25.3233 	 88.1619 	 
H 	 -48.2371 	 25.6171 	 88.93 	 
H 	 -49.1794 	 26.9221 	 87.9542 	 
S 	 -47.9366 	 22.7807 	 80.0087 	 
C 	 -47.427 	 21.1081 	 79.871 	 
C 	 -46.7198 	 20.6781 	 80.9225 	 
C 	 -46.65 	 21.6437 	 82.0273 	 
C 	 -47.2471 	 22.8221 	 81.6845 	 
H 	 -46.3948 	 19.6625 	 80.9751 	 
C 	 -45.8872 	 21.2904 	 83.3373 	 
H 	 -46.6377 	 21.385 	 84.1626 	 
H 	 -45.1838 	 22.0892 	 83.466 	 
C 	 -45.3323 	 19.9102 	 83.3496 	 
H 	 -44.5086 	 19.8142 	 82.66 	 
H 	 -46.105 	 19.1781 	 83.1242 	 
C 	 -44.7863 	 19.4215 	 84.6752 	 
H 	 -44.6075 	 18.3337 	 84.6476 	 
H 	 -45.4824 	 19.707 	 85.4151 	 
H 	 -43.8856 	 19.9979 	 85.0092 	 
H 	 -47.15 	 27.4033 	 83.5418 	 
H 	 -47.4565 	 20.5025 	 79.0358 	 
*
