! wB97X-D3 SP def2-SVP
%pal
nprocs 16
end

* xyz 0 1
S 	 55.7725 	 3.06038 	 82.2321 	 
C 	 54.4111 	 4.13796 	 82.1566 	 
C 	 53.3556 	 3.49105 	 82.8372 	 
C 	 53.6239 	 2.12548 	 83.2207 	 
C 	 54.9056 	 1.69445 	 82.9671 	 
H 	 53.008 	 1.39709 	 83.7433 	 
C 	 51.9944 	 4.07284 	 82.8648 	 
H 	 52.0537 	 4.98893 	 83.4172 	 
H 	 51.3371 	 3.4549 	 83.4486 	 
C 	 51.2425 	 4.3101 	 81.5119 	 
H 	 50.3903 	 4.86007 	 81.728 	 
H 	 51.8788 	 4.93191 	 80.813 	 
C 	 51.0057 	 3.00996 	 80.7514 	 
H 	 52.0106 	 2.47943 	 80.5582 	 
H 	 50.3295 	 2.36186 	 81.2191 	 
H 	 50.6042 	 3.23258 	 79.6789 	 
S 	 54.9847 	 -0.527237 	 84.595 	 
C 	 56.1846 	 -1.76059 	 84.3521 	 
C 	 56.8885 	 -1.57487 	 83.2312 	 
C 	 56.4489 	 -0.385501 	 82.5141 	 
C 	 55.4889 	 0.398437 	 83.1454 	 
H 	 57.7348 	 -2.27888 	 82.9559 	 
C 	 57.1191 	 0.0306737 	 81.2039 	 
H 	 58.0884 	 0.47552 	 81.3798 	 
H 	 56.5276 	 0.773526 	 80.8472 	 
C 	 57.3466 	 -0.937966 	 80.0328 	 
H 	 56.3243 	 -1.34961 	 79.7309 	 
H 	 58.1125 	 -1.75094 	 80.1804 	 
C 	 57.8743 	 -0.297947 	 78.7269 	 
H 	 58.2153 	 -1.04799 	 77.9534 	 
H 	 58.7861 	 0.261105 	 79.0336 	 
H 	 57.2235 	 0.42046 	 78.2269 	 
H 	 54.4186 	 5.07101 	 81.6197 	 
H 	 56.4386 	 -2.52833 	 85.0691 	 
*
