! wB97X-D3 SP def2-SVP
%pal
nprocs 16
end

* xyz 0 1
S 	 -101.759 	 47.778 	 125.154 	 
C 	 -103.093 	 46.7302 	 125.674 	 
C 	 -103.738 	 46.0114 	 124.679 	 
C 	 -102.957 	 46.1953 	 123.497 	 
C 	 -101.857 	 47.0716 	 123.538 	 
H 	 -103.206 	 45.7146 	 122.564 	 
C 	 -105.067 	 45.239 	 124.934 	 
H 	 -105.21 	 45.229 	 126.008 	 
H 	 -104.879 	 44.1648 	 124.563 	 
C 	 -106.265 	 45.8789 	 124.202 	 
H 	 -106.281 	 46.9452 	 124.504 	 
H 	 -106.183 	 45.8346 	 123.075 	 
C 	 -107.565 	 45.1654 	 124.66 	 
H 	 -107.92 	 44.5143 	 123.908 	 
H 	 -107.454 	 44.5224 	 125.559 	 
H 	 -108.446 	 45.8015 	 124.849 	 
S 	 -100.377 	 48.97 	 122.43 	 
C 	 -99.4394 	 48.6218 	 121.023 	 
C 	 -99.5519 	 47.2908 	 120.617 	 
C 	 -100.421 	 46.5343 	 121.471 	 
C 	 -100.924 	 47.366 	 122.477 	 
H 	 -99.1339 	 46.8828 	 119.755 	 
C 	 -100.789 	 45.0729 	 121.184 	 
H 	 -101.498 	 44.5429 	 121.787 	 
H 	 -99.8101 	 44.5656 	 121.462 	 
C 	 -101.002 	 44.7955 	 119.652 	 
H 	 -100.964 	 43.7123 	 119.518 	 
H 	 -100.078 	 44.9807 	 119.091 	 
C 	 -102.288 	 45.4417 	 119.065 	 
H 	 -103.171 	 45.2323 	 119.699 	 
H 	 -102.401 	 44.9619 	 118.098 	 
H 	 -102.081 	 46.4585 	 119.028 	 
H 	 -103.41 	 46.7569 	 126.673 	 
H 	 -98.7775 	 49.3357 	 120.53 	 
*
