! wB97X-D3 SP def2-SVP
%pal
nprocs 16
end

* xyz 0 1
S 	 0.353588 	 -4.06227 	 86.8144 	 
C 	 0.936308 	 -5.69406 	 86.9541 	 
C 	 -0.0630018 	 -6.50846 	 87.2895 	 
C 	 -1.39691 	 -5.87554 	 87.2558 	 
C 	 -1.36951 	 -4.50811 	 87.0008 	 
H 	 -2.27855 	 -6.44864 	 87.5053 	 
C 	 0.0582098 	 -8.02301 	 87.3734 	 
H 	 0.580133 	 -8.37595 	 86.488 	 
H 	 -0.913542 	 -8.44382 	 87.2363 	 
C 	 0.893018 	 -8.54148 	 88.5714 	 
H 	 1.02277 	 -9.57547 	 88.4399 	 
H 	 1.92792 	 -8.05275 	 88.49 	 
C 	 0.184827 	 -8.29853 	 89.928 	 
H 	 -0.789905 	 -8.79503 	 89.9096 	 
H 	 0.623564 	 -8.68738 	 90.8878 	 
H 	 0.0752414 	 -7.2458 	 90.1315 	 
S 	 -3.69405 	 -3.66396 	 86.0058 	 
C 	 -4.50774 	 -2.27344 	 86.7597 	 
C 	 -3.70066 	 -1.74574 	 87.7451 	 
C 	 -2.52621 	 -2.49801 	 87.9917 	 
C 	 -2.39187 	 -3.49374 	 87.076 	 
H 	 -4.01532 	 -0.868721 	 88.2923 	 
C 	 -1.60388 	 -2.24658 	 89.1042 	 
H 	 -1.42536 	 -1.18673 	 89.1322 	 
H 	 -0.679103 	 -2.64673 	 88.8423 	 
C 	 -1.91894 	 -2.90172 	 90.5107 	 
H 	 -1.06005 	 -2.84767 	 91.1881 	 
H 	 -2.14992 	 -3.92072 	 90.3544 	 
C 	 -3.01052 	 -2.14458 	 91.2109 	 
H 	 -3.27718 	 -2.66465 	 92.1353 	 
H 	 -3.88144 	 -2.03644 	 90.5048 	 
H 	 -2.69544 	 -1.07808 	 91.4748 	 
H 	 1.91091 	 -6.08071 	 86.7327 	 
H 	 -5.50946 	 -1.90641 	 86.5803 	 
*
