! wB97X-D3 SP def2-SVP
%pal
nprocs 16
end

* xyz 0 1
S 	 53.7182 	 24.312 	 38.8458 	 
C 	 54.8531 	 25.6469 	 38.9416 	 
C 	 54.7875 	 26.2913 	 40.1474 	 
C 	 53.7785 	 25.7715 	 41.016 	 
C 	 53.086 	 24.7155 	 40.4452 	 
H 	 53.5021 	 25.8988 	 42.0294 	 
C 	 55.5851 	 27.4798 	 40.6677 	 
H 	 56.5873 	 27.4268 	 40.2238 	 
H 	 55.8998 	 27.2319 	 41.7014 	 
C 	 55.0287 	 28.8594 	 40.5017 	 
H 	 54.8953 	 29.0105 	 39.448 	 
H 	 54.0285 	 28.7769 	 40.9134 	 
C 	 55.9419 	 29.9018 	 41.1307 	 
H 	 56.0283 	 29.8575 	 42.2504 	 
H 	 56.9571 	 29.7959 	 40.7259 	 
H 	 55.5536 	 30.9296 	 41.0616 	 
S 	 52.6919 	 22.2101 	 41.5021 	 
C 	 51.3802 	 21.8837 	 42.6028 	 
C 	 50.5815 	 22.9704 	 42.7191 	 
C 	 51.0523 	 24.1284 	 42.0489 	 
C 	 52.1305 	 23.8743 	 41.1902 	 
H 	 49.6885 	 23.0284 	 43.2669 	 
C 	 50.4487 	 25.5411 	 42.1154 	 
H 	 51.2333 	 26.2078 	 42.2532 	 
H 	 49.8398 	 25.4973 	 43.0591 	 
C 	 49.6485 	 26.0328 	 40.878 	 
H 	 48.9971 	 25.2019 	 40.6292 	 
H 	 50.3113 	 26.2117 	 40.0224 	 
C 	 48.7908 	 27.294 	 40.9145 	 
H 	 49.4667 	 28.1354 	 41.0104 	 
H 	 48.1432 	 27.1713 	 41.824 	 
H 	 48.2318 	 27.3491 	 39.9498 	 
H 	 55.6405 	 25.7781 	 38.2534 	 
H 	 51.1513 	 20.8872 	 42.9725 	 
*
