! wB97X-D3 SP def2-SVP
%pal
nprocs 16
end

* xyz 0 1
S 	 -45.9741 	 -3.7856 	 96.6098 	 
C 	 -47.2941 	 -4.88235 	 96.7347 	 
C 	 -47.8979 	 -4.87293 	 98.0206 	 
C 	 -47.235 	 -3.87741 	 98.8263 	 
C 	 -46.2185 	 -3.21245 	 98.2143 	 
H 	 -47.4669 	 -3.59928 	 99.8112 	 
C 	 -49.1934 	 -5.58887 	 98.4066 	 
H 	 -48.8459 	 -6.64608 	 98.5632 	 
H 	 -49.8564 	 -5.52506 	 97.5802 	 
C 	 -49.9843 	 -5.15377 	 99.6874 	 
H 	 -50.7411 	 -5.93189 	 99.9521 	 
H 	 -49.3469 	 -5.08868 	 100.536 	 
C 	 -50.8289 	 -3.8753 	 99.4327 	 
H 	 -50.209 	 -2.9996 	 99.2916 	 
H 	 -51.4806 	 -3.99109 	 98.5776 	 
H 	 -51.4475 	 -3.60429 	 100.346 	 
S 	 -43.9202 	 -2.30904 	 99.5694 	 
C 	 -43.8172 	 -0.608295 	 99.9102 	 
C 	 -44.8751 	 0.0792903 	 99.3008 	 
C 	 -45.6982 	 -0.75972 	 98.5478 	 
C 	 -45.4345 	 -2.07923 	 98.7539 	 
H 	 -44.8304 	 1.16548 	 99.3929 	 
C 	 -46.8209 	 -0.171555 	 97.7395 	 
H 	 -47.3005 	 0.61925 	 98.315 	 
H 	 -47.6283 	 -0.934665 	 97.5499 	 
C 	 -46.2967 	 0.459088 	 96.4576 	 
H 	 -45.9367 	 -0.350168 	 95.8308 	 
H 	 -45.5054 	 1.20895 	 96.6686 	 
C 	 -47.4011 	 1.19542 	 95.7433 	 
H 	 -47.6181 	 2.16707 	 96.273 	 
H 	 -48.2037 	 0.471664 	 95.6823 	 
H 	 -47.0832 	 1.49681 	 94.7622 	 
H 	 -47.8019 	 -5.32391 	 95.8255 	 
H 	 -43.1097 	 -0.141395 	 100.567 	 
*
