! wB97X-D3 SP def2-SVP
%pal
nprocs 16
end

* xyz 0 1
S 	 -10.9086 	 66.1505 	 54.4272 	 
C 	 -10.0138 	 65.1286 	 55.4828 	 
C 	 -9.42589 	 64.0476 	 54.8219 	 
C 	 -9.45548 	 64.1699 	 53.3964 	 
C 	 -10.1329 	 65.3868 	 53.0229 	 
H 	 -9.12299 	 63.4356 	 52.6578 	 
C 	 -8.89952 	 62.7987 	 55.5432 	 
H 	 -7.90636 	 63.0102 	 55.8072 	 
H 	 -8.88058 	 62.0666 	 54.7288 	 
C 	 -9.77854 	 62.4081 	 56.7338 	 
H 	 -9.66915 	 63.1656 	 57.5498 	 
H 	 -10.7962 	 62.4993 	 56.4989 	 
C 	 -9.57304 	 60.9758 	 57.2697 	 
H 	 -9.63908 	 60.2765 	 56.4119 	 
H 	 -8.48981 	 60.8447 	 57.5982 	 
H 	 -10.2404 	 60.6288 	 58.0436 	 
S 	 -11.577 	 67.1344 	 51.4867 	 
C 	 -11.3965 	 67.1641 	 49.749 	 
C 	 -10.4786 	 66.2319 	 49.2996 	 
C 	 -9.8567 	 65.5446 	 50.4153 	 
C 	 -10.3809 	 65.8653 	 51.6444 	 
H 	 -10.2989 	 66.0639 	 48.2964 	 
C 	 -8.79217 	 64.5117 	 50.18 	 
H 	 -8.76042 	 64.3057 	 49.1169 	 
H 	 -9.06482 	 63.5425 	 50.4464 	 
C 	 -7.36839 	 64.8294 	 50.7351 	 
H 	 -7.47946 	 64.6767 	 51.797 	 
H 	 -7.0588 	 65.8649 	 50.7226 	 
C 	 -6.26098 	 63.8997 	 50.1653 	 
H 	 -6.2906 	 62.9498 	 50.6039 	 
H 	 -5.26604 	 64.2336 	 50.4292 	 
H 	 -6.47258 	 63.8603 	 49.0739 	 
H 	 -9.91338 	 65.2314 	 56.5176 	 
H 	 -11.9303 	 67.7493 	 49.0561 	 
*
