! wB97X-D3 SP def2-SVP
%pal
nprocs 16
end

* xyz 0 1
S 	 -50.7737 	 65.8324 	 136.53 	 
C 	 -50.0959 	 64.3438 	 136.006 	 
C 	 -49.3254 	 63.6857 	 136.965 	 
C 	 -49.1493 	 64.5076 	 138.076 	 
C 	 -49.8011 	 65.7311 	 137.989 	 
H 	 -48.476 	 64.2223 	 138.918 	 
C 	 -48.5231 	 62.4423 	 136.732 	 
H 	 -48.3123 	 62.3654 	 135.672 	 
H 	 -49.3062 	 61.7124 	 136.886 	 
C 	 -47.3121 	 62.1166 	 137.695 	 
H 	 -46.7186 	 63.0253 	 137.809 	 
H 	 -47.706 	 61.9903 	 138.696 	 
C 	 -46.4964 	 60.8117 	 137.415 	 
H 	 -46.2356 	 60.7362 	 136.383 	 
H 	 -45.5856 	 60.7698 	 137.995 	 
H 	 -47.1005 	 59.9434 	 137.553 	 
S 	 -49.7778 	 68.4831 	 138.137 	 
C 	 -49.6597 	 69.2775 	 139.691 	 
C 	 -49.4668 	 68.3588 	 140.762 	 
C 	 -49.5505 	 66.9673 	 140.321 	 
C 	 -49.675 	 66.8784 	 138.892 	 
H 	 -49.3491 	 68.6946 	 141.775 	 
C 	 -49.46 	 65.794 	 141.326 	 
H 	 -50.1003 	 65.0037 	 140.934 	 
H 	 -49.8853 	 65.9187 	 142.285 	 
C 	 -48.0658 	 65.322 	 141.515 	 
H 	 -47.5234 	 66.0996 	 141.965 	 
H 	 -47.5503 	 65.055 	 140.585 	 
C 	 -47.9933 	 64.1702 	 142.456 	 
H 	 -48.493 	 64.5452 	 143.354 	 
H 	 -47.0294 	 63.9162 	 142.743 	 
H 	 -48.5402 	 63.3036 	 141.998 	 
H 	 -50.1846 	 63.9096 	 134.973 	 
H 	 -49.6892 	 70.302 	 139.766 	 
*
