! wB97X-D3 SP def2-SVP
%pal
nprocs 16
end

* xyz 0 1
S 	 -66.6179 	 53.1306 	 129.404 	 
C 	 -65.7266 	 54.5526 	 129.895 	 
C 	 -66.085 	 54.8972 	 131.19 	 
C 	 -67.1529 	 54.1954 	 131.729 	 
C 	 -67.6597 	 53.236 	 130.843 	 
H 	 -67.5876 	 54.3036 	 132.646 	 
C 	 -65.3581 	 55.9641 	 131.976 	 
H 	 -64.3531 	 56.1318 	 131.581 	 
H 	 -65.233 	 55.6605 	 133.042 	 
C 	 -66.1372 	 57.2465 	 132.165 	 
H 	 -66.1117 	 57.6287 	 131.169 	 
H 	 -67.1463 	 56.9599 	 132.523 	 
C 	 -65.271 	 58.2031 	 132.997 	 
H 	 -64.3145 	 58.4621 	 132.557 	 
H 	 -65.8966 	 59.0698 	 133.222 	 
H 	 -65.1233 	 57.6855 	 133.956 	 
S 	 -67.913 	 50.5945 	 131.65 	 
C 	 -69.5299 	 49.9583 	 131.893 	 
C 	 -70.5331 	 50.831 	 131.474 	 
C 	 -69.9064 	 52.063 	 131.086 	 
C 	 -68.5379 	 52.1619 	 131.164 	 
H 	 -71.5285 	 50.4259 	 131.424 	 
C 	 -70.7363 	 53.208 	 130.62 	 
H 	 -71.5164 	 52.6911 	 129.966 	 
H 	 -70.2002 	 53.8269 	 129.911 	 
C 	 -71.3999 	 54.0774 	 131.752 	 
H 	 -72.0224 	 54.9007 	 131.339 	 
H 	 -70.5548 	 54.5303 	 132.256 	 
C 	 -72.2766 	 53.2189 	 132.703 	 
H 	 -71.6597 	 52.4558 	 133.26 	 
H 	 -73.0427 	 52.6926 	 132.135 	 
H 	 -72.7996 	 53.8045 	 133.47 	 
H 	 -64.9193 	 55.036 	 129.397 	 
H 	 -69.7046 	 48.962 	 132.095 	 
*
