! wB97X-D3 SP def2-SVP
%pal
nprocs 16
end

* xyz 0 1
S 	 -2.77259 	 -19.9755 	 84.4492 	 
C 	 -1.41436 	 -18.8526 	 84.1962 	 
C 	 -1.06567 	 -18.3252 	 85.3953 	 
C 	 -1.74641 	 -18.8482 	 86.5077 	 
C 	 -2.8012 	 -19.6703 	 86.0985 	 
H 	 -1.54246 	 -18.6102 	 87.5411 	 
C 	 0.199325 	 -17.4853 	 85.5608 	 
H 	 -0.108436 	 -16.6275 	 86.1361 	 
H 	 0.50442 	 -17.0015 	 84.6177 	 
C 	 1.42788 	 -18.0901 	 86.3132 	 
H 	 2.26899 	 -17.4061 	 86.1211 	 
H 	 1.20017 	 -18.1039 	 87.388 	 
C 	 1.85175 	 -19.4939 	 85.9372 	 
H 	 1.28229 	 -20.237 	 86.4055 	 
H 	 1.94978 	 -19.6882 	 84.8946 	 
H 	 2.81591 	 -19.6249 	 86.2304 	 
S 	 -4.56354 	 -21.7281 	 86.7389 	 
C 	 -5.64492 	 -21.4999 	 88.0956 	 
C 	 -5.55241 	 -20.1788 	 88.5423 	 
C 	 -4.5582 	 -19.4087 	 87.859 	 
C 	 -3.92816 	 -20.0812 	 86.8891 	 
H 	 -6.16558 	 -19.8474 	 89.4091 	 
C 	 -4.32121 	 -17.9445 	 88.2867 	 
H 	 -3.34129 	 -17.595 	 88.2205 	 
H 	 -4.54254 	 -17.8376 	 89.3311 	 
C 	 -5.28071 	 -17.0072 	 87.5641 	 
H 	 -6.29228 	 -17.3341 	 87.8593 	 
H 	 -5.1705 	 -16.9373 	 86.5475 	 
C 	 -5.09019 	 -15.5904 	 88.1301 	 
H 	 -5.3352 	 -15.5205 	 89.2181 	 
H 	 -5.80459 	 -14.9969 	 87.6665 	 
H 	 -4.10248 	 -15.1319 	 88.0118 	 
H 	 -0.938115 	 -18.8682 	 83.232 	 
H 	 -6.39905 	 -22.2065 	 88.3942 	 
*
