! wB97X-D3 SP def2-SVP
%pal
nprocs 16
end

* xyz 0 1
S 	 44.294 	 15.1801 	 80.7424 	 
C 	 43.7342 	 16.8795 	 80.5981 	 
C 	 43.7667 	 17.5834 	 81.8161 	 
C 	 44.0479 	 16.6501 	 82.9106 	 
C 	 44.2902 	 15.3249 	 82.4777 	 
H 	 44.1672 	 16.8488 	 83.9693 	 
C 	 43.2354 	 18.9324 	 82.122 	 
H 	 43.8627 	 19.7276 	 81.7063 	 
H 	 43.3399 	 18.9669 	 83.1691 	 
C 	 41.7975 	 19.2627 	 81.6223 	 
H 	 41.622 	 19.2337 	 80.5092 	 
H 	 41.2553 	 18.3822 	 82.0277 	 
C 	 41.2352 	 20.6258 	 82.0778 	 
H 	 40.9251 	 20.7568 	 83.0982 	 
H 	 41.9272 	 21.4696 	 81.9116 	 
H 	 40.3294 	 20.8201 	 81.5709 	 
S 	 43.8339 	 12.7871 	 82.7019 	 
C 	 44.4234 	 11.8441 	 84.0589 	 
C 	 45.0639 	 12.6237 	 84.9806 	 
C 	 45.1601 	 13.9739 	 84.5248 	 
C 	 44.5812 	 14.1756 	 83.335 	 
H 	 45.5386 	 12.2114 	 85.8229 	 
C 	 46.1153 	 14.9417 	 85.234 	 
H 	 46.2697 	 15.8942 	 84.6834 	 
H 	 46.9892 	 14.4095 	 85.1922 	 
C 	 45.7157 	 15.1797 	 86.6793 	 
H 	 46.5561 	 15.7275 	 87.1684 	 
H 	 45.7212 	 14.2756 	 87.0981 	 
C 	 44.3261 	 15.8145 	 86.9301 	 
H 	 44.2452 	 16.9148 	 86.6774 	 
H 	 44.134 	 15.6763 	 87.9862 	 
H 	 43.4967 	 15.3534 	 86.4081 	 
H 	 43.2656 	 17.2363 	 79.6462 	 
H 	 44.3208 	 10.8303 	 84.2034 	 
*
