! wB97X-D3 SP def2-SVP
%pal
nprocs 16
end

* xyz 0 1
S 	 -36.9098 	 71.4912 	 169.198 	 
C 	 -35.396 	 71.2592 	 168.374 	 
C 	 -35.3452 	 72.0897 	 167.259 	 
C 	 -36.455 	 72.9932 	 167.146 	 
C 	 -37.3027 	 72.8182 	 168.188 	 
H 	 -36.7053 	 73.7382 	 166.378 	 
C 	 -34.2856 	 72.0634 	 166.204 	 
H 	 -34.8474 	 71.8959 	 165.287 	 
H 	 -33.7349 	 71.102 	 166.297 	 
C 	 -33.3479 	 73.278 	 166.174 	 
H 	 -33.9657 	 74.1436 	 166.308 	 
H 	 -32.6962 	 73.198 	 167.055 	 
C 	 -32.5365 	 73.3741 	 164.86 	 
H 	 -32.1085 	 72.423 	 164.513 	 
H 	 -33.0238 	 73.7577 	 163.885 	 
H 	 -31.754 	 74.13 	 165.071 	 
S 	 -39.9057 	 72.8196 	 168.841 	 
C 	 -40.793 	 74.3687 	 168.71 	 
C 	 -39.96 	 75.4649 	 168.521 	 
C 	 -38.5902 	 75.1159 	 168.446 	 
C 	 -38.4184 	 73.6946 	 168.517 	 
H 	 -40.2706 	 76.4752 	 168.535 	 
C 	 -37.3817 	 76.1088 	 168.324 	 
H 	 -36.513 	 75.4928 	 168.135 	 
H 	 -37.2035 	 76.4057 	 169.341 	 
C 	 -37.6238 	 77.2609 	 167.376 	 
H 	 -36.8424 	 78.0429 	 167.33 	 
H 	 -38.5906 	 77.6284 	 167.654 	 
C 	 -37.8151 	 76.8285 	 165.907 	 
H 	 -37.8507 	 77.72 	 165.326 	 
H 	 -38.7592 	 76.2926 	 165.71 	 
H 	 -36.9622 	 76.2433 	 165.555 	 
H 	 -34.5932 	 70.6088 	 168.731 	 
H 	 -41.8918 	 74.4616 	 168.857 	 
*
