! wB97X-D3 SP def2-SVP
%pal
nprocs 16
end

* xyz 0 1
S 	 40.0012 	 26.4073 	 82.125 	 
C 	 38.6033 	 27.1199 	 82.8504 	 
C 	 38.9198 	 27.8054 	 84.0058 	 
C 	 40.3324 	 27.8178 	 84.3053 	 
C 	 41.0706 	 27.1385 	 83.4052 	 
H 	 40.7271 	 28.2705 	 85.212 	 
C 	 37.8923 	 28.1878 	 85.0811 	 
H 	 36.9346 	 28.2708 	 84.6261 	 
H 	 38.2055 	 29.2065 	 85.3831 	 
C 	 37.8036 	 27.1861 	 86.2224 	 
H 	 37.4778 	 26.2294 	 85.7532 	 
H 	 38.6771 	 27.0476 	 86.8153 	 
C 	 36.7068 	 27.5222 	 87.2369 	 
H 	 37.1139 	 27.5213 	 88.2347 	 
H 	 36.3233 	 28.5225 	 87.0969 	 
H 	 35.9706 	 26.7954 	 87.2237 	 
S 	 43.3887 	 27.5571 	 82.0141 	 
C 	 44.9215 	 27.1208 	 82.7647 	 
C 	 44.7525 	 26.6055 	 84.0236 	 
C 	 43.4027 	 26.3615 	 84.34 	 
C 	 42.5234 	 26.9928 	 83.4135 	 
H 	 45.5998 	 26.2348 	 84.568 	 
C 	 43.1003 	 25.8657 	 85.7136 	 
H 	 43.8036 	 25.0229 	 85.8049 	 
H 	 42.1023 	 25.5046 	 85.6831 	 
C 	 43.3078 	 26.9865 	 86.7054 	 
H 	 42.7604 	 27.813 	 86.2336 	 
H 	 44.2905 	 27.3965 	 86.7105 	 
C 	 42.7525 	 26.7746 	 88.134 	 
H 	 42.801 	 27.5195 	 88.9033 	 
H 	 43.3126 	 26.0286 	 88.523 	 
H 	 41.7384 	 26.3588 	 88.1641 	 
H 	 37.5826 	 27.0765 	 82.4608 	 
H 	 45.8911 	 27.1341 	 82.3339 	 
*
