! wB97X-D3 SP def2-SVP
%pal
nprocs 16
end

* xyz 0 1
S 	 -61.9997 	 34.9809 	 133.955 	 
C 	 -60.347 	 35.2567 	 134.54 	 
C 	 -60.0894 	 36.5941 	 134.888 	 
C 	 -61.2099 	 37.3378 	 134.49 	 
C 	 -62.2995 	 36.6668 	 134.042 	 
H 	 -61.3194 	 38.4328 	 134.516 	 
C 	 -58.8431 	 37.2858 	 135.312 	 
H 	 -59.076 	 38.2834 	 135.606 	 
H 	 -58.1519 	 37.3544 	 134.488 	 
C 	 -58.0791 	 36.7248 	 136.5 	 
H 	 -58.8505 	 36.5425 	 137.273 	 
H 	 -57.5812 	 35.748 	 136.278 	 
C 	 -57.0269 	 37.7305 	 136.96 	 
H 	 -56.2731 	 37.9654 	 136.165 	 
H 	 -57.4714 	 38.7467 	 137.202 	 
H 	 -56.4524 	 37.4802 	 137.794 	 
S 	 -64.6265 	 38.0112 	 134.456 	 
C 	 -65.5984 	 38.5153 	 133.121 	 
C 	 -65.1144 	 38.0806 	 131.928 	 
C 	 -63.7965 	 37.4844 	 132.019 	 
C 	 -63.4548 	 37.265 	 133.37 	 
H 	 -65.5918 	 38.325 	 131.024 	 
C 	 -62.9605 	 37.2529 	 130.774 	 
H 	 -63.4993 	 37.658 	 129.996 	 
H 	 -62.8832 	 36.2362 	 130.551 	 
C 	 -61.5341 	 37.7855 	 130.758 	 
H 	 -61.0359 	 37.4846 	 131.692 	 
H 	 -61.6238 	 38.8997 	 130.802 	 
C 	 -60.6371 	 37.5954 	 129.564 	 
H 	 -61.2178 	 37.9413 	 128.742 	 
H 	 -60.3773 	 36.5617 	 129.476 	 
H 	 -59.7885 	 38.2135 	 129.55 	 
H 	 -59.6 	 34.4847 	 134.743 	 
H 	 -66.4539 	 39.146 	 133.293 	 
*
