! wB97X-D3 SP def2-SVP
%pal
nprocs 16
end

* xyz 0 1
S 	 -111.533 	 52.1412 	 133.163 	 
C 	 -111.861 	 53.3001 	 134.365 	 
C 	 -112.554 	 52.839 	 135.409 	 
C 	 -112.822 	 51.4719 	 135.266 	 
C 	 -112.354 	 50.9387 	 134.056 	 
H 	 -113.348 	 50.8722 	 136.08 	 
C 	 -113.018 	 53.6475 	 136.549 	 
H 	 -113.213 	 53.0981 	 137.429 	 
H 	 -113.933 	 54.1884 	 136.26 	 
C 	 -112.006 	 54.681 	 137.084 	 
H 	 -111.066 	 54.1043 	 136.943 	 
H 	 -111.981 	 55.5116 	 136.408 	 
C 	 -112.124 	 55.1221 	 138.506 	 
H 	 -111.578 	 56.0604 	 138.778 	 
H 	 -113.146 	 55.3881 	 138.676 	 
H 	 -111.782 	 54.3787 	 139.164 	 
S 	 -110.837 	 48.8051 	 132.867 	 
C 	 -111.627 	 47.3298 	 132.635 	 
C 	 -112.824 	 47.221 	 133.344 	 
C 	 -113.232 	 48.4661 	 133.947 	 
C 	 -112.291 	 49.4961 	 133.701 	 
H 	 -113.233 	 46.2474 	 133.212 	 
C 	 -114.664 	 48.6381 	 134.428 	 
H 	 -114.632 	 49.2333 	 135.268 	 
H 	 -115.042 	 47.6515 	 134.741 	 
C 	 -115.715 	 49.1403 	 133.429 	 
H 	 -115.763 	 48.4096 	 132.615 	 
H 	 -115.29 	 49.9902 	 132.847 	 
C 	 -117.164 	 49.4227 	 134.011 	 
H 	 -117.098 	 50.025 	 134.95 	 
H 	 -117.648 	 48.5414 	 134.286 	 
H 	 -117.91 	 49.8098 	 133.225 	 
H 	 -111.473 	 54.3974 	 134.337 	 
H 	 -111.189 	 46.6164 	 131.95 	 
*
