! wB97X-D3 SP def2-SVP
%pal
nprocs 16
end

* xyz 0 1
S 	 27.4789 	 8.11918 	 62.9652 	 
C 	 29.1901 	 8.26508 	 62.9355 	 
C 	 29.7452 	 8.34238 	 64.2033 	 
C 	 28.7537 	 8.22946 	 65.2013 	 
C 	 27.4318 	 8.16579 	 64.7766 	 
H 	 28.9911 	 8.18423 	 66.1684 	 
C 	 31.1838 	 8.49457 	 64.4738 	 
H 	 31.7509 	 7.79008 	 63.8331 	 
H 	 31.1606 	 8.05221 	 65.4394 	 
C 	 31.8047 	 9.97223 	 64.5509 	 
H 	 31.1665 	 10.5685 	 65.2411 	 
H 	 32.7713 	 9.95166 	 65.0388 	 
C 	 31.9616 	 10.6759 	 63.2048 	 
H 	 32.5613 	 9.97621 	 62.6254 	 
H 	 31.094 	 10.8932 	 62.6544 	 
H 	 32.5673 	 11.5599 	 63.2771 	 
S 	 24.651 	 7.69708 	 64.7088 	 
C 	 23.8197 	 7.65263 	 66.2476 	 
C 	 24.7379 	 7.38827 	 67.2526 	 
C 	 26.1181 	 7.48114 	 66.9269 	 
C 	 26.2376 	 7.83324 	 65.5701 	 
H 	 24.2586 	 7.32549 	 68.2755 	 
C 	 27.1989 	 7.24903 	 67.9948 	 
H 	 26.8405 	 7.47471 	 68.9701 	 
H 	 27.8659 	 8.08575 	 67.8709 	 
C 	 27.9438 	 5.89254 	 67.9307 	 
H 	 28.2911 	 5.89327 	 66.9323 	 
H 	 27.3132 	 5.04721 	 68.1344 	 
C 	 29.268 	 6.06973 	 68.6956 	 
H 	 29.8289 	 6.94086 	 68.4061 	 
H 	 29.9964 	 5.28109 	 68.4899 	 
H 	 29.0937 	 6.10967 	 69.7693 	 
H 	 29.7913 	 8.4695 	 62.085 	 
H 	 22.7558 	 7.60842 	 66.3691 	 
*
