! wB97X-D3 SP def2-SVP
%pal
nprocs 16
end

* xyz 0 1
S 	 28.7651 	 -7.79085 	 77.6943 	 
C 	 30.327 	 -7.13126 	 77.3719 	 
C 	 31.0859 	 -7.1266 	 78.5496 	 
C 	 30.2603 	 -7.53683 	 79.6762 	 
C 	 28.9561 	 -7.87359 	 79.4123 	 
H 	 30.5307 	 -7.64681 	 80.6307 	 
C 	 32.4616 	 -6.58046 	 78.7254 	 
H 	 32.8123 	 -6.92504 	 79.6728 	 
H 	 32.4972 	 -5.46217 	 78.8101 	 
C 	 33.4856 	 -6.91932 	 77.5612 	 
H 	 33.5151 	 -7.99866 	 77.316 	 
H 	 33.1225 	 -6.30717 	 76.6385 	 
C 	 34.9362 	 -6.42384 	 77.8453 	 
H 	 35.7241 	 -6.68463 	 77.0329 	 
H 	 34.9387 	 -5.30986 	 77.9833 	 
H 	 35.3446 	 -6.95619 	 78.6621 	 
S 	 26.6165 	 -9.32367 	 79.5009 	 
C 	 25.7408 	 -9.5882 	 80.961 	 
C 	 26.2861 	 -8.89149 	 81.9854 	 
C 	 27.5172 	 -8.24398 	 81.6467 	 
C 	 27.8863 	 -8.40195 	 80.2755 	 
H 	 25.8067 	 -8.88713 	 82.9415 	 
C 	 28.2781 	 -7.29689 	 82.5776 	 
H 	 27.5125 	 -6.70011 	 83.1673 	 
H 	 28.7812 	 -6.5798 	 82.0159 	 
C 	 29.0455 	 -7.97202 	 83.7247 	 
H 	 29.4478 	 -7.12054 	 84.3069 	 
H 	 29.892 	 -8.46919 	 83.2856 	 
C 	 28.3129 	 -8.93993 	 84.7357 	 
H 	 27.4072 	 -8.51778 	 85.0732 	 
H 	 28.9797 	 -9.10963 	 85.6029 	 
H 	 28.1437 	 -9.8989 	 84.2516 	 
H 	 30.7551 	 -6.73902 	 76.4052 	 
H 	 24.8123 	 -10.0778 	 80.885 	 
*
