! wB97X-D3 SP def2-SVP
%pal
nprocs 16
end

* xyz 0 1
S 	 -41.4857 	 32.7062 	 84.9896 	 
C 	 -40.8677 	 34.0857 	 84.0747 	 
C 	 -40.9983 	 33.9527 	 82.6936 	 
C 	 -41.5348 	 32.701 	 82.3804 	 
C 	 -41.8134 	 31.8704 	 83.4299 	 
H 	 -41.7711 	 32.3863 	 81.3756 	 
C 	 -40.5829 	 34.8563 	 81.5816 	 
H 	 -40.9078 	 35.9308 	 81.8071 	 
H 	 -41.2618 	 34.6137 	 80.7682 	 
C 	 -39.1103 	 34.8518 	 81.0396 	 
H 	 -38.498 	 35.4686 	 81.6964 	 
H 	 -38.8222 	 33.7961 	 80.961 	 
C 	 -39.0814 	 35.2781 	 79.6074 	 
H 	 -39.1377 	 36.3927 	 79.605 	 
H 	 -38.1138 	 34.8877 	 79.195 	 
H 	 -39.9172 	 34.8437 	 79.1273 	 
S 	 -41.7438 	 29.2538 	 84.3546 	 
C 	 -42.9648 	 28.1659 	 83.7602 	 
C 	 -43.7535 	 28.7824 	 82.8238 	 
C 	 -43.4828 	 30.1603 	 82.6081 	 
C 	 -42.4212 	 30.5683 	 83.3723 	 
H 	 -44.6355 	 28.2432 	 82.4148 	 
C 	 -44.4187 	 31.0509 	 81.7995 	 
H 	 -43.9519 	 31.3596 	 80.8576 	 
H 	 -44.3584 	 31.9765 	 82.313 	 
C 	 -45.8773 	 30.6996 	 81.5174 	 
H 	 -46.3846 	 31.6469 	 81.5093 	 
H 	 -46.357 	 30.0818 	 82.3428 	 
C 	 -45.971 	 29.7916 	 80.3091 	 
H 	 -46.9498 	 29.4726 	 79.9826 	 
H 	 -45.2919 	 28.973 	 80.2653 	 
H 	 -45.5709 	 30.3868 	 79.4267 	 
H 	 -40.2435 	 34.8657 	 84.52 	 
H 	 -43.0977 	 27.19 	 84.2572 	 
*
