! wB97X-D3 SP def2-SVP
%pal
nprocs 16
end

* xyz 0 1
S 	 -17.898 	 33.7278 	 42.2299 	 
C 	 -16.4129 	 33.0245 	 42.8922 	 
C 	 -15.4302 	 32.9672 	 41.9203 	 
C 	 -15.9425 	 33.3412 	 40.6264 	 
C 	 -17.2441 	 33.7475 	 40.5535 	 
H 	 -15.3738 	 33.3531 	 39.7017 	 
C 	 -14.0171 	 32.5271 	 42.2077 	 
H 	 -13.6633 	 32.8582 	 43.1905 	 
H 	 -13.4517 	 33.0074 	 41.4063 	 
C 	 -13.7785 	 30.9999 	 42.174 	 
H 	 -14.5201 	 30.452 	 42.8189 	 
H 	 -14.1662 	 30.7187 	 41.1753 	 
C 	 -12.361 	 30.6161 	 42.4076 	 
H 	 -12.1563 	 30.6112 	 43.4717 	 
H 	 -12.188 	 29.6626 	 41.9632 	 
H 	 -11.6592 	 31.327 	 42.0236 	 
S 	 -18.5758 	 35.9647 	 39.6617 	 
C 	 -19.0279 	 36.1042 	 37.9661 	 
C 	 -18.4967 	 35.0454 	 37.2362 	 
C 	 -17.9599 	 34.0264 	 38.0668 	 
C 	 -17.8882 	 34.3899 	 39.42 	 
H 	 -18.6143 	 35.0708 	 36.1301 	 
C 	 -17.3374 	 32.7215 	 37.5261 	 
H 	 -18.1325 	 32.2489 	 36.9777 	 
H 	 -17.0628 	 32.1166 	 38.3001 	 
C 	 -16.0452 	 32.9687 	 36.6568 	 
H 	 -15.3727 	 33.5763 	 37.2713 	 
H 	 -16.1703 	 33.6399 	 35.8012 	 
C 	 -15.3976 	 31.6836 	 36.2504 	 
H 	 -16.0686 	 31.2048 	 35.5369 	 
H 	 -15.168 	 31.024 	 37.0817 	 
H 	 -14.4479 	 32.052 	 35.6437 	 
H 	 -16.0569 	 32.8825 	 43.9078 	 
H 	 -19.4181 	 36.9385 	 37.4251 	 
*
