! wB97X-D3 SP def2-SVP
%pal
nprocs 16
end

* xyz 0 1
S 	 -15.47 	 53.5652 	 63.0851 	 
C 	 -14.6029 	 52.3083 	 62.262 	 
C 	 -13.2103 	 52.4377 	 62.4975 	 
C 	 -12.8646 	 53.5862 	 63.2723 	 
C 	 -13.9625 	 54.4197 	 63.4845 	 
H 	 -11.8237 	 53.8148 	 63.5598 	 
C 	 -12.1655 	 51.4966 	 61.9923 	 
H 	 -11.317 	 52.1187 	 61.6428 	 
H 	 -12.7605 	 51.0418 	 61.1989 	 
C 	 -11.7836 	 50.4445 	 63.0565 	 
H 	 -11.5722 	 50.9223 	 64.0138 	 
H 	 -12.6857 	 49.9445 	 63.231 	 
C 	 -10.6115 	 49.6105 	 62.5717 	 
H 	 -10.428 	 49.569 	 61.5627 	 
H 	 -9.65364 	 50.0045 	 62.9591 	 
H 	 -10.7074 	 48.5498 	 62.8866 	 
S 	 -15.2355 	 56.8422 	 63.6831 	 
C 	 -14.6205 	 58.0851 	 64.773 	 
C 	 -13.4819 	 57.7401 	 65.4822 	 
C 	 -13.1149 	 56.3783 	 65.0893 	 
C 	 -13.959 	 55.7309 	 64.1665 	 
H 	 -12.997 	 58.4522 	 66.1419 	 
C 	 -11.8413 	 55.8109 	 65.7699 	 
H 	 -11.5678 	 54.7681 	 65.5111 	 
H 	 -11.9348 	 55.8911 	 66.8773 	 
C 	 -10.5516 	 56.6241 	 65.5412 	 
H 	 -10.6166 	 57.6039 	 65.8401 	 
H 	 -10.235 	 56.6007 	 64.4522 	 
C 	 -9.42562 	 56.0381 	 66.4823 	 
H 	 -8.52537 	 56.5163 	 66.4192 	 
H 	 -9.40461 	 54.9665 	 66.3132 	 
H 	 -9.78897 	 56.1062 	 67.5399 	 
H 	 -15.0091 	 51.4969 	 61.724 	 
H 	 -14.965 	 59.1363 	 64.6792 	 
*
