! wB97X-D3 SP def2-SVP
%pal
nprocs 16
end

* xyz 0 1
S 	 -28.7018 	 60.0343 	 108.992 	 
C 	 -27.4017 	 60.3234 	 107.879 	 
C 	 -27.7597 	 60.021 	 106.548 	 
C 	 -29.1514 	 59.6417 	 106.475 	 
C 	 -29.82 	 59.6117 	 107.703 	 
H 	 -29.7191 	 59.4076 	 105.619 	 
C 	 -26.7742 	 59.965 	 105.364 	 
H 	 -26.4336 	 58.9236 	 105.073 	 
H 	 -25.8906 	 60.5636 	 105.612 	 
C 	 -27.3097 	 60.6431 	 104.164 	 
H 	 -28.2922 	 60.1162 	 103.872 	 
H 	 -27.5588 	 61.6464 	 104.628 	 
C 	 -26.2787 	 60.8749 	 103.047 	 
H 	 -25.2555 	 61.1497 	 103.396 	 
H 	 -26.1384 	 59.8944 	 102.57 	 
H 	 -26.6658 	 61.6642 	 102.311 	 
S 	 -32.2988 	 59.1717 	 106.433 	 
C 	 -33.6963 	 59.1158 	 107.391 	 
C 	 -33.4884 	 59.4319 	 108.69 	 
C 	 -32.1059 	 59.5911 	 108.999 	 
C 	 -31.2667 	 59.4993 	 107.862 	 
H 	 -34.2283 	 59.3664 	 109.443 	 
C 	 -31.6786 	 59.8971 	 110.385 	 
H 	 -32.5413 	 60.4294 	 110.933 	 
H 	 -30.8929 	 60.6311 	 110.369 	 
C 	 -31.2892 	 58.6046 	 111.159 	 
H 	 -30.3859 	 58.0773 	 110.861 	 
H 	 -32.1128 	 57.8119 	 111.147 	 
C 	 -31.1373 	 58.8358 	 112.657 	 
H 	 -32.1294 	 58.779 	 113.038 	 
H 	 -30.7102 	 59.8089 	 112.922 	 
H 	 -30.6256 	 58.0247 	 113.108 	 
H 	 -26.4362 	 60.6118 	 108.233 	 
H 	 -34.6441 	 58.9967 	 107.011 	 
*
