! wB97X-D3 SP def2-SVP
%pal
nprocs 16
end

* xyz 0 1
S 	 7.51865 	 -7.10625 	 96.2035 	 
C 	 8.17715 	 -8.26998 	 97.3375 	 
C 	 9.58864 	 -8.1518 	 97.3504 	 
C 	 10.0674 	 -6.9954 	 96.5719 	 
C 	 9.06125 	 -6.36737 	 95.9257 	 
H 	 11.0593 	 -6.59107 	 96.4601 	 
C 	 10.4513 	 -9.02803 	 98.2847 	 
H 	 10.5948 	 -9.76455 	 97.5437 	 
H 	 9.79109 	 -9.52768 	 98.9965 	 
C 	 11.7488 	 -8.51169 	 98.8907 	 
H 	 12.4658 	 -9.37772 	 99.1247 	 
H 	 12.2944 	 -7.94744 	 98.1153 	 
C 	 11.4838 	 -7.67227 	 100.165 	 
H 	 11.0398 	 -8.24687 	 100.968 	 
H 	 12.3961 	 -7.19189 	 100.552 	 
H 	 10.8107 	 -6.86785 	 99.9278 	 
S 	 8.99751 	 -6.01812 	 93.3385 	 
C 	 9.78957 	 -4.67878 	 92.5945 	 
C 	 10.1713 	 -3.70784 	 93.5469 	 
C 	 9.92294 	 -4.10906 	 94.9131 	 
C 	 9.2283 	 -5.31369 	 94.9377 	 
H 	 10.6308 	 -2.83357 	 93.3008 	 
C 	 10.4481 	 -3.37132 	 96.1043 	 
H 	 11.5505 	 -3.39999 	 96.2184 	 
H 	 10.1039 	 -3.93601 	 96.9985 	 
C 	 10.1581 	 -1.84901 	 96.2809 	 
H 	 10.4206 	 -1.26046 	 95.3608 	 
H 	 10.7739 	 -1.44732 	 97.0579 	 
C 	 8.72391 	 -1.5636 	 96.7236 	 
H 	 8.50847 	 -0.486306 	 96.6638 	 
H 	 8.62774 	 -1.85538 	 97.7921 	 
H 	 7.99981 	 -2.18892 	 96.2225 	 
H 	 7.6843 	 -9.08421 	 97.85 	 
H 	 9.84946 	 -4.53298 	 91.5011 	 
*
