! wB97X-D3 SP def2-SVP
%pal
nprocs 16
end

* xyz 0 1
S 	 1.8834 	 -21.2555 	 54.1731 	 
C 	 0.894499 	 -22.7072 	 54.1576 	 
C 	 1.75019 	 -23.7666 	 54.0198 	 
C 	 3.19385 	 -23.3942 	 53.9248 	 
C 	 3.39823 	 -22.0332 	 54.0566 	 
H 	 3.93981 	 -24.1751 	 53.8361 	 
C 	 1.37703 	 -25.2249 	 53.9922 	 
H 	 2.02699 	 -25.7107 	 53.2424 	 
H 	 0.316918 	 -25.2419 	 53.6745 	 
C 	 1.85188 	 -25.9676 	 55.2648 	 
H 	 1.64858 	 -27.0468 	 55.1861 	 
H 	 2.92552 	 -25.8025 	 55.4098 	 
C 	 1.09785 	 -25.6306 	 56.5734 	 
H 	 0.0848894 	 -25.9564 	 56.5661 	 
H 	 1.36458 	 -26.2993 	 57.3598 	 
H 	 1.21648 	 -24.6639 	 56.9411 	 
S 	 4.88937 	 -20.1968 	 52.5756 	 
C 	 6.58502 	 -20.0716 	 52.7773 	 
C 	 7.01758 	 -20.7946 	 53.859 	 
C 	 5.95979 	 -21.5655 	 54.5076 	 
C 	 4.73151 	 -21.371 	 53.8761 	 
H 	 8.10834 	 -20.7228 	 54.134 	 
C 	 6.31782 	 -22.403 	 55.7456 	 
H 	 5.44822 	 -22.8039 	 56.2348 	 
H 	 6.75271 	 -21.7953 	 56.5188 	 
C 	 7.39351 	 -23.4392 	 55.3349 	 
H 	 7.83946 	 -23.9922 	 56.1582 	 
H 	 8.22473 	 -22.8413 	 54.9605 	 
C 	 6.93504 	 -24.499 	 54.4178 	 
H 	 6.97487 	 -23.9988 	 53.4349 	 
H 	 5.88542 	 -24.8698 	 54.6551 	 
H 	 7.6216 	 -25.3269 	 54.4387 	 
H 	 -0.205631 	 -22.6386 	 54.304 	 
H 	 7.30418 	 -19.4694 	 52.1597 	 
*
