! wB97X-D3 SP def2-SVP
%pal
nprocs 16
end

* xyz 0 1
S 	 31.5537 	 12.9238 	 67.659 	 
C 	 30.4783 	 14.3095 	 68.113 	 
C 	 31.2539 	 15.4693 	 68.3023 	 
C 	 32.6328 	 15.2459 	 67.9408 	 
C 	 32.9966 	 13.9704 	 67.5801 	 
H 	 33.4608 	 16.0057 	 68.0106 	 
C 	 30.8491 	 16.7237 	 68.9487 	 
H 	 30.8501 	 16.3675 	 69.9755 	 
H 	 29.7975 	 16.8427 	 68.7537 	 
C 	 31.7277 	 17.9578 	 68.6005 	 
H 	 32.6314 	 17.9384 	 69.2043 	 
H 	 32.0009 	 17.9979 	 67.5581 	 
C 	 31.0373 	 19.2687 	 68.8949 	 
H 	 30.9414 	 19.5262 	 69.9582 	 
H 	 31.5728 	 20.1268 	 68.485 	 
H 	 30.0226 	 19.2732 	 68.468 	 
S 	 35.4127 	 14.5838 	 66.2536 	 
C 	 36.7553 	 13.4159 	 66.3687 	 
C 	 36.3865 	 12.2791 	 67.0422 	 
C 	 35.0684 	 12.376 	 67.6887 	 
C 	 34.3405 	 13.524 	 67.2519 	 
H 	 37.0604 	 11.5312 	 67.232 	 
C 	 34.5989 	 11.1665 	 68.5492 	 
H 	 34.9399 	 10.1787 	 68.2409 	 
H 	 33.5309 	 10.962 	 68.4434 	 
C 	 34.9267 	 11.3755 	 70.0124 	 
H 	 34.3716 	 12.2917 	 70.2416 	 
H 	 35.931 	 11.5578 	 70.1563 	 
C 	 34.5114 	 10.231 	 70.9068 	 
H 	 35.0723 	 9.35255 	 70.6705 	 
H 	 33.4261 	 10.0395 	 70.6789 	 
H 	 34.7111 	 10.5609 	 71.9043 	 
H 	 29.4415 	 14.0526 	 68.3123 	 
H 	 37.7069 	 13.5523 	 65.9822 	 
*
