! wB97X-D3 SP def2-SVP
%pal
nprocs 16
end

* xyz 0 1
S 	 -36.898 	 55.6287 	 109.749 	 
C 	 -36.0316 	 57.1914 	 109.53 	 
C 	 -36.8357 	 58.2667 	 109.864 	 
C 	 -38.1154 	 57.8976 	 110.151 	 
C 	 -38.357 	 56.5427 	 109.967 	 
H 	 -38.9348 	 58.5395 	 110.324 	 
C 	 -36.4627 	 59.6764 	 110.025 	 
H 	 -37.2292 	 60.4055 	 110.313 	 
H 	 -36.0781 	 60.0446 	 109.075 	 
C 	 -35.1824 	 59.9355 	 110.94 	 
H 	 -34.2318 	 59.4306 	 110.626 	 
H 	 -34.9109 	 60.9675 	 110.971 	 
C 	 -35.3369 	 59.4159 	 112.383 	 
H 	 -35.4613 	 58.3162 	 112.418 	 
H 	 -34.4902 	 59.7026 	 112.987 	 
H 	 -36.1181 	 59.9318 	 112.953 	 
S 	 -39.7127 	 54.5468 	 111.289 	 
C 	 -41.3446 	 54.2635 	 110.678 	 
C 	 -41.8716 	 55.2752 	 109.915 	 
C 	 -40.8768 	 56.2105 	 109.521 	 
C 	 -39.6215 	 55.9425 	 110.109 	 
H 	 -42.9766 	 55.319 	 109.714 	 
C 	 -41.3254 	 57.387 	 108.706 	 
H 	 -40.6819 	 58.2286 	 108.927 	 
H 	 -42.314 	 57.5745 	 109.087 	 
C 	 -41.4839 	 57.1756 	 107.113 	 
H 	 -40.564 	 56.8129 	 106.651 	 
H 	 -41.5374 	 58.2236 	 106.618 	 
C 	 -42.7414 	 56.3983 	 106.665 	 
H 	 -42.745 	 55.3729 	 106.979 	 
H 	 -42.8092 	 56.4833 	 105.636 	 
H 	 -43.638 	 56.8482 	 107.207 	 
H 	 -34.9919 	 57.2621 	 109.151 	 
H 	 -42.0095 	 53.553 	 111.088 	 
*
