! wB97X-D3 SP def2-SVP
%pal
nprocs 16
end

* xyz 0 1
S 	 -2.97917 	 27.8774 	 55.2718 	 
C 	 -2.25193 	 26.3667 	 54.7795 	 
C 	 -1.04799 	 26.5597 	 54.2107 	 
C 	 -0.843944 	 27.9532 	 53.821 	 
C 	 -1.99118 	 28.71 	 54.0481 	 
H 	 -0.0202147 	 28.4579 	 53.3651 	 
C 	 0.111571 	 25.5697 	 54.0224 	 
H 	 0.458879 	 25.6969 	 52.9878 	 
H 	 -0.282735 	 24.6219 	 54.196 	 
C 	 1.32484 	 25.7032 	 54.9273 	 
H 	 2.11459 	 25.0795 	 54.6914 	 
H 	 1.83201 	 26.6345 	 54.6755 	 
C 	 1.04746 	 25.6263 	 56.3835 	 
H 	 0.461813 	 26.599 	 56.5863 	 
H 	 0.408079 	 24.8037 	 56.6274 	 
H 	 1.93212 	 25.5828 	 57.0364 	 
S 	 -2.6286 	 30.5676 	 51.9879 	 
C 	 -2.89428 	 32.2473 	 52.5352 	 
C 	 -2.62785 	 32.4413 	 53.85 	 
C 	 -2.44843 	 31.2143 	 54.5222 	 
C 	 -2.18543 	 30.1029 	 53.676 	 
H 	 -2.82695 	 33.4335 	 54.3016 	 
C 	 -2.44317 	 31.0904 	 56.0448 	 
H 	 -1.44642 	 30.634 	 56.4105 	 
H 	 -3.26346 	 30.3623 	 56.287 	 
C 	 -2.60865 	 32.3594 	 56.8456 	 
H 	 -2.10044 	 33.1177 	 56.3321 	 
H 	 -2.05749 	 32.2149 	 57.8171 	 
C 	 -4.102 	 32.6582 	 57.021 	 
H 	 -4.34331 	 33.709 	 57.1854 	 
H 	 -4.49365 	 32.1107 	 57.9571 	 
H 	 -4.6012 	 32.471 	 56.0838 	 
H 	 -2.65565 	 25.4414 	 55.0676 	 
H 	 -3.16996 	 33.1271 	 51.9657 	 
*
