! wB97X-D3 SP def2-SVP
%pal
nprocs 16
end

* xyz 0 1
S 	 -56.3999 	 39.1231 	 117.007 	 
C 	 -55.878 	 37.8238 	 118.071 	 
C 	 -55.664 	 36.6634 	 117.364 	 
C 	 -56.12 	 36.7553 	 116.04 	 
C 	 -56.6548 	 38.0198 	 115.685 	 
H 	 -56.0979 	 35.9022 	 115.393 	 
C 	 -55.3025 	 35.3843 	 118.115 	 
H 	 -56.0611 	 35.2216 	 118.937 	 
H 	 -54.3397 	 35.6618 	 118.644 	 
C 	 -54.9733 	 34.1097 	 117.336 	 
H 	 -54.7458 	 33.4138 	 118.149 	 
H 	 -55.8456 	 33.7513 	 116.795 	 
C 	 -53.7501 	 34.1666 	 116.372 	 
H 	 -52.8207 	 34.3025 	 116.993 	 
H 	 -53.7666 	 33.2681 	 115.798 	 
H 	 -53.7119 	 35.0763 	 115.723 	 
S 	 -58.6663 	 38.8333 	 113.941 	 
C 	 -58.3207 	 39.1938 	 112.349 	 
C 	 -56.9836 	 38.993 	 112.056 	 
C 	 -56.2623 	 38.5112 	 113.199 	 
C 	 -57.0412 	 38.366 	 114.356 	 
H 	 -56.6142 	 39.0058 	 111.053 	 
C 	 -54.7533 	 38.351 	 113.106 	 
H 	 -54.4536 	 37.9509 	 114.017 	 
H 	 -54.363 	 39.3439 	 113.086 	 
C 	 -54.2489 	 37.4137 	 111.961 	 
H 	 -53.17 	 37.6084 	 111.903 	 
H 	 -54.7084 	 37.7589 	 111.063 	 
C 	 -54.4211 	 35.9271 	 112.071 	 
H 	 -54.9485 	 35.5657 	 111.251 	 
H 	 -55.0111 	 35.6881 	 112.949 	 
H 	 -53.5124 	 35.3728 	 112.1 	 
H 	 -55.7539 	 37.8736 	 119.105 	 
H 	 -59.096 	 39.3921 	 111.673 	 
*
