! wB97X-D3 SP def2-SVP
%pal
nprocs 16
end

* xyz 0 1
S 	 -74.1609 	 50.5336 	 140.041 	 
C 	 -72.6304 	 51.3384 	 139.637 	 
C 	 -72.811 	 52.1928 	 138.585 	 
C 	 -74.1579 	 52.3374 	 138.21 	 
C 	 -75.013 	 51.4825 	 138.956 	 
H 	 -74.4839 	 53.0459 	 137.502 	 
C 	 -71.7925 	 53.1243 	 137.949 	 
H 	 -70.8592 	 52.8573 	 138.471 	 
H 	 -72.0565 	 54.1415 	 138.146 	 
C 	 -71.659 	 52.9615 	 136.423 	 
H 	 -71.663 	 51.8995 	 136.166 	 
H 	 -72.5402 	 53.4038 	 135.984 	 
C 	 -70.4737 	 53.6888 	 135.718 	 
H 	 -69.5962 	 53.5001 	 136.424 	 
H 	 -70.2676 	 53.2616 	 134.793 	 
H 	 -70.7699 	 54.7121 	 135.598 	 
S 	 -77.2312 	 50.3486 	 137.614 	 
C 	 -78.8368 	 50.5509 	 138.271 	 
C 	 -78.832 	 51.4469 	 139.282 	 
C 	 -77.5413 	 51.7633 	 139.737 	 
C 	 -76.4503 	 51.2872 	 138.922 	 
H 	 -79.7362 	 51.5661 	 139.794 	 
C 	 -77.2688 	 52.5729 	 140.94 	 
H 	 -78.1162 	 53.3025 	 140.931 	 
H 	 -76.3164 	 53.0993 	 140.833 	 
C 	 -77.0994 	 51.7 	 142.164 	 
H 	 -76.9157 	 52.2654 	 143.11 	 
H 	 -76.2463 	 51.0476 	 142.029 	 
C 	 -78.4045 	 50.9921 	 142.543 	 
H 	 -78.3736 	 50.4955 	 143.569 	 
H 	 -78.6222 	 50.2 	 141.757 	 
H 	 -79.1849 	 51.7191 	 142.647 	 
H 	 -71.7126 	 51.3214 	 140.16 	 
H 	 -79.6575 	 49.9532 	 137.852 	 
*
