! wB97X-D3 SP def2-SVP
%pal
nprocs 16
end

* xyz 0 1
S 	 -48.4547 	 33.2316 	 94.0628 	 
C 	 -48.69 	 32.7096 	 92.4158 	 
C 	 -49.5332 	 33.5911 	 91.7442 	 
C 	 -50.0743 	 34.623 	 92.5902 	 
C 	 -49.6326 	 34.5257 	 93.9342 	 
H 	 -50.8217 	 35.3972 	 92.3341 	 
C 	 -49.9106 	 33.4096 	 90.3326 	 
H 	 -48.9943 	 33.4851 	 89.7484 	 
H 	 -50.4885 	 34.2217 	 89.9455 	 
C 	 -50.6523 	 32.1261 	 89.9231 	 
H 	 -50.6557 	 32.0121 	 88.859 	 
H 	 -50.1191 	 31.2686 	 90.385 	 
C 	 -52.1238 	 32.0688 	 90.4517 	 
H 	 -52.0705 	 31.6997 	 91.4997 	 
H 	 -52.6049 	 33.0366 	 90.3308 	 
H 	 -52.6494 	 31.3819 	 89.8044 	 
S 	 -49.2451 	 36.228 	 96.0745 	 
C 	 -50.5835 	 36.9642 	 96.8693 	 
C 	 -51.7392 	 36.344 	 96.5534 	 
C 	 -51.5776 	 35.4544 	 95.4198 	 
C 	 -50.2436 	 35.2178 	 95.0563 	 
H 	 -52.6732 	 36.5478 	 97.0857 	 
C 	 -52.7549 	 34.7552 	 94.793 	 
H 	 -52.6265 	 33.6736 	 95.0584 	 
H 	 -52.5998 	 34.6725 	 93.7275 	 
C 	 -54.1954 	 35.2938 	 95.051 	 
H 	 -54.2975 	 35.3794 	 96.1553 	 
H 	 -54.8901 	 34.5154 	 94.6169 	 
C 	 -54.3638 	 36.6292 	 94.4833 	 
H 	 -53.7236 	 37.3442 	 95.0667 	 
H 	 -55.4066 	 36.9381 	 94.636 	 
H 	 -54.2016 	 36.6504 	 93.4479 	 
H 	 -48.0206 	 31.9503 	 91.8901 	 
H 	 -50.5466 	 37.6856 	 97.6867 	 
*
