! wB97X-D3 SP def2-SVP
%pal
nprocs 16
end

* xyz 0 1
S 	 -101.504 	 48.3534 	 118.589 	 
C 	 -102.747 	 49.5455 	 119.111 	 
C 	 -103.611 	 49.0277 	 120.109 	 
C 	 -103.106 	 47.7495 	 120.538 	 
C 	 -101.913 	 47.3753 	 119.958 	 
H 	 -103.384 	 47.2679 	 121.48 	 
C 	 -104.794 	 49.725 	 120.821 	 
H 	 -105.451 	 48.8771 	 121.027 	 
H 	 -105.282 	 50.2878 	 120.05 	 
C 	 -104.534 	 50.5826 	 122.078 	 
H 	 -105.557 	 50.8537 	 122.331 	 
H 	 -104.301 	 50.0082 	 122.975 	 
C 	 -103.666 	 51.8204 	 121.978 	 
H 	 -102.671 	 51.4516 	 121.973 	 
H 	 -103.864 	 52.3798 	 121.07 	 
H 	 -103.759 	 52.5986 	 122.809 	 
S 	 -101.891 	 44.6795 	 120.596 	 
C 	 -100.404 	 43.9505 	 121.05 	 
C 	 -99.3386 	 44.8127 	 120.912 	 
C 	 -99.7111 	 46.1224 	 120.488 	 
C 	 -101.079 	 46.2896 	 120.442 	 
H 	 -98.3221 	 44.4159 	 120.985 	 
C 	 -98.7173 	 47.1274 	 119.992 	 
H 	 -99.045 	 48.0877 	 120.232 	 
H 	 -98.7317 	 47.1881 	 118.929 	 
C 	 -97.2876 	 47.0792 	 120.492 	 
H 	 -96.668 	 47.8364 	 119.916 	 
H 	 -97.0422 	 46.1764 	 119.98 	 
C 	 -97.0753 	 47.1075 	 122.02 	 
H 	 -97.5731 	 46.4062 	 122.712 	 
H 	 -97.265 	 48.0331 	 122.464 	 
H 	 -96.0037 	 47.0086 	 122.167 	 
H 	 -102.844 	 50.4989 	 118.794 	 
H 	 -100.389 	 42.8491 	 121.247 	 
*
