! wB97X-D3 SP def2-SVP
%pal
nprocs 16
end

* xyz 0 1
S 	 -40.6532 	 17.1921 	 77.048 	 
C 	 -39.5352 	 18.5799 	 76.8802 	 
C 	 -38.2523 	 18.1193 	 76.8069 	 
C 	 -38.1668 	 16.7381 	 77.0633 	 
C 	 -39.3425 	 16.0327 	 77.2443 	 
H 	 -37.2126 	 16.2642 	 77.1401 	 
C 	 -37.0069 	 18.9819 	 76.7609 	 
H 	 -36.1014 	 18.3943 	 76.9636 	 
H 	 -37.0526 	 19.753 	 77.4949 	 
C 	 -36.8885 	 19.6851 	 75.4416 	 
H 	 -37.827 	 20.287 	 75.5246 	 
H 	 -36.1664 	 20.4706 	 75.4038 	 
C 	 -36.9248 	 18.7931 	 74.2693 	 
H 	 -36.1294 	 18.111 	 74.2076 	 
H 	 -37.8726 	 18.2353 	 74.2952 	 
H 	 -36.9319 	 19.405 	 73.3447 	 
S 	 -39.8815 	 14.351 	 79.442 	 
C 	 -39.4261 	 12.6899 	 79.1624 	 
C 	 -38.7351 	 12.4979 	 78.022 	 
C 	 -38.8594 	 13.6233 	 77.1312 	 
C 	 -39.5125 	 14.7082 	 77.7241 	 
H 	 -38.3834 	 11.4746 	 77.8833 	 
C 	 -38.1864 	 13.544 	 75.7127 	 
H 	 -37.9382 	 12.4743 	 75.5708 	 
H 	 -37.1864 	 14.1057 	 75.6169 	 
C 	 -39.1857 	 14.0866 	 74.7081 	 
H 	 -39.5623 	 15.1023 	 74.8902 	 
H 	 -40.1233 	 13.5209 	 74.8127 	 
C 	 -38.6328 	 14.0767 	 73.3033 	 
H 	 -38.4172 	 13.0591 	 72.9205 	 
H 	 -37.6234 	 14.568 	 73.1256 	 
H 	 -39.3902 	 14.5035 	 72.594 	 
H 	 -39.8737 	 19.6142 	 76.7558 	 
H 	 -39.6242 	 12.0056 	 79.9611 	 
*
