! wB97X-D3 SP def2-SVP
%pal
nprocs 16
end

* xyz 0 1
S 	 -92.3142 	 57.5367 	 125.595 	 
C 	 -90.8518 	 56.6879 	 126.04 	 
C 	 -91.0283 	 56.1331 	 127.314 	 
C 	 -92.2361 	 56.5123 	 127.911 	 
C 	 -92.9844 	 57.391 	 127.181 	 
H 	 -92.5878 	 56.2525 	 128.869 	 
C 	 -90.0761 	 55.1481 	 128.01 	 
H 	 -90.0283 	 55.2257 	 129.093 	 
H 	 -89.0388 	 55.5121 	 127.765 	 
C 	 -90.1598 	 53.6286 	 127.659 	 
H 	 -91.1733 	 53.4106 	 127.405 	 
H 	 -89.7224 	 53.6491 	 126.635 	 
C 	 -89.4882 	 52.7426 	 128.658 	 
H 	 -89.7193 	 51.7066 	 128.354 	 
H 	 -88.3914 	 52.8515 	 128.599 	 
H 	 -89.8767 	 52.8201 	 129.702 	 
S 	 -95.6759 	 57.6716 	 126.525 	 
C 	 -96.7539 	 58.3864 	 127.678 	 
C 	 -96.0977 	 58.7298 	 128.821 	 
C 	 -94.7092 	 58.411 	 128.839 	 
C 	 -94.2712 	 57.9513 	 127.589 	 
H 	 -96.6364 	 59.1328 	 129.688 	 
C 	 -93.84 	 58.8944 	 130.02 	 
H 	 -93.1995 	 58.0828 	 130.4 	 
H 	 -94.4635 	 59.2957 	 130.736 	 
C 	 -92.802 	 59.9069 	 129.672 	 
H 	 -93.2115 	 60.69 	 128.974 	 
H 	 -92.1028 	 59.3606 	 129.053 	 
C 	 -91.9273 	 60.2984 	 130.911 	 
H 	 -91.2472 	 61.2774 	 130.827 	 
H 	 -91.3119 	 59.3949 	 131.132 	 
H 	 -92.6388 	 60.3995 	 131.705 	 
H 	 -90.0053 	 56.4628 	 125.422 	 
H 	 -97.8018 	 58.3994 	 127.388 	 
*
