! wB97X-D3 SP def2-SVP
%pal
nprocs 16
end

* xyz 0 1
S 	 -110.194 	 47.0275 	 130.529 	 
C 	 -108.958 	 48.2523 	 130.873 	 
C 	 -107.728 	 48.0114 	 130.255 	 
C 	 -107.828 	 46.7511 	 129.554 	 
C 	 -108.996 	 46.1353 	 129.604 	 
H 	 -107.092 	 46.2326 	 128.942 	 
C 	 -106.446 	 48.7596 	 130.484 	 
H 	 -106.595 	 49.7876 	 130.319 	 
H 	 -105.683 	 48.485 	 129.731 	 
C 	 -105.801 	 48.5555 	 131.896 	 
H 	 -106.547 	 48.8595 	 132.719 	 
H 	 -105.688 	 47.4712 	 132.044 	 
C 	 -104.448 	 49.2923 	 131.949 	 
H 	 -103.865 	 48.9078 	 131.07 	 
H 	 -104.54 	 50.374 	 131.805 	 
H 	 -103.932 	 48.9446 	 132.769 	 
S 	 -110.544 	 45.3959 	 127.518 	 
C 	 -110.525 	 43.7477 	 126.965 	 
C 	 -109.65 	 42.9642 	 127.702 	 
C 	 -108.851 	 43.658 	 128.615 	 
C 	 -109.345 	 44.988 	 128.737 	 
H 	 -109.677 	 41.9169 	 127.622 	 
C 	 -107.851 	 42.9669 	 129.513 	 
H 	 -108.149 	 41.8886 	 129.607 	 
H 	 -108.066 	 43.3758 	 130.529 	 
C 	 -106.409 	 42.9745 	 129.171 	 
H 	 -105.922 	 42.5218 	 130.032 	 
H 	 -106.007 	 43.9837 	 129.198 	 
C 	 -106.134 	 42.3306 	 127.769 	 
H 	 -106.594 	 41.3243 	 127.663 	 
H 	 -105.077 	 42.1966 	 127.538 	 
H 	 -106.601 	 43.0255 	 126.964 	 
H 	 -109.255 	 49.0808 	 131.577 	 
H 	 -111.144 	 43.3709 	 126.191 	 
*
