! wB97X-D3 SP def2-SVP
%pal
nprocs 16
end

* xyz 0 1
S 	 -80.1881 	 44.7257 	 125.147 	 
C 	 -81.4034 	 45.1368 	 123.987 	 
C 	 -81.2023 	 44.3846 	 122.797 	 
C 	 -80.383 	 43.2282 	 123.045 	 
C 	 -79.7946 	 43.2375 	 124.294 	 
H 	 -80.1588 	 42.4272 	 122.336 	 
C 	 -81.8645 	 44.5781 	 121.439 	 
H 	 -81.0466 	 44.5417 	 120.775 	 
H 	 -82.5929 	 45.4661 	 121.27 	 
C 	 -82.759 	 43.3984 	 121.029 	 
H 	 -83.0719 	 43.5923 	 120.016 	 
H 	 -82.197 	 42.4629 	 120.887 	 
C 	 -84.043 	 43.1844 	 121.792 	 
H 	 -84.6912 	 43.9977 	 121.655 	 
H 	 -84.5451 	 42.2906 	 121.559 	 
H 	 -83.7858 	 43.2116 	 122.84 	 
S 	 -77.5325 	 43.017 	 125.604 	 
C 	 -76.6814 	 41.5443 	 125.821 	 
C 	 -77.2255 	 40.5169 	 125.061 	 
C 	 -78.4642 	 40.9445 	 124.419 	 
C 	 -78.7947 	 42.2891 	 124.778 	 
H 	 -76.7758 	 39.5851 	 124.938 	 
C 	 -79.1957 	 40.0944 	 123.43 	 
H 	 -80.2465 	 40.4435 	 123.445 	 
H 	 -79.272 	 39.0742 	 123.77 	 
C 	 -78.7402 	 40.2137 	 121.908 	 
H 	 -77.9265 	 39.5668 	 121.998 	 
H 	 -78.3794 	 41.2437 	 121.678 	 
C 	 -79.824 	 39.79 	 120.882 	 
H 	 -80.7169 	 40.4674 	 120.754 	 
H 	 -80.1209 	 38.7708 	 121.069 	 
H 	 -79.388 	 39.6443 	 119.858 	 
H 	 -82.0695 	 46.0701 	 124.013 	 
H 	 -75.7199 	 41.5689 	 126.337 	 
*
