! wB97X-D3 SP def2-SVP
%pal
nprocs 16
end

* xyz 0 1
S 	 18.7386 	 18.3792 	 38.3789 	 
C 	 18.8904 	 18.4331 	 36.6675 	 
C 	 17.6021 	 18.4888 	 36.1016 	 
C 	 16.6162 	 18.8711 	 37.0557 	 
C 	 17.0278 	 18.82 	 38.3762 	 
H 	 15.5216 	 19.0656 	 36.8021 	 
C 	 17.1696 	 18.2624 	 34.6311 	 
H 	 16.4212 	 17.5375 	 34.5323 	 
H 	 18.0986 	 17.8899 	 34.1466 	 
C 	 16.7051 	 19.4983 	 33.9164 	 
H 	 16.6749 	 19.2203 	 32.8701 	 
H 	 15.6565 	 19.7721 	 34.0867 	 
C 	 17.6693 	 20.6887 	 33.8923 	 
H 	 18.6409 	 20.2911 	 33.5762 	 
H 	 17.3842 	 21.4978 	 33.1897 	 
H 	 17.7864 	 21.2703 	 34.801 	 
S 	 15.8189 	 17.6638 	 40.6619 	 
C 	 14.663 	 18.699 	 41.481 	 
C 	 14.6324 	 20.0026 	 41.0457 	 
C 	 15.444 	 20.1907 	 39.881 	 
C 	 16.0945 	 19.0451 	 39.4778 	 
H 	 14.1028 	 20.7457 	 41.5734 	 
C 	 15.5357 	 21.5705 	 39.1144 	 
H 	 14.6375 	 21.616 	 38.4854 	 
H 	 16.4343 	 21.5383 	 38.5467 	 
C 	 15.8049 	 22.8853 	 39.9891 	 
H 	 15.3181 	 23.6272 	 39.2858 	 
H 	 16.8478 	 23.1363 	 39.9779 	 
C 	 15.0814 	 23.155 	 41.2735 	 
H 	 15.2274 	 22.4016 	 42.1236 	 
H 	 13.9939 	 23.165 	 41.067 	 
H 	 15.3549 	 24.1197 	 41.6717 	 
H 	 19.6523 	 17.9703 	 36.1133 	 
H 	 13.8895 	 18.2736 	 42.1742 	 
*
