! wB97X-D3 SP def2-SVP
%pal
nprocs 16
end

* xyz 0 1
S 	 46.8005 	 19.3257 	 104.123 	 
C 	 46.4582 	 19.621 	 102.419 	 
C 	 45.7024 	 18.6123 	 101.921 	 
C 	 45.3534 	 17.6191 	 102.927 	 
C 	 45.8925 	 17.811 	 104.143 	 
H 	 44.7419 	 16.7321 	 102.825 	 
C 	 45.3707 	 18.3728 	 100.467 	 
H 	 45.09 	 19.2962 	 99.9604 	 
H 	 44.3202 	 17.884 	 100.498 	 
C 	 46.3742 	 17.6287 	 99.6149 	 
H 	 46.5369 	 16.6404 	 99.9773 	 
H 	 45.9617 	 17.4821 	 98.623 	 
C 	 47.7933 	 18.2499 	 99.5633 	 
H 	 48.2314 	 18.1826 	 100.555 	 
H 	 48.4685 	 17.6826 	 98.8298 	 
H 	 47.7887 	 19.3507 	 99.1784 	 
S 	 44.139 	 17.5531 	 106.235 	 
C 	 44.1912 	 16.0757 	 107.206 	 
C 	 45.1134 	 15.1772 	 106.738 	 
C 	 45.9863 	 15.6949 	 105.74 	 
C 	 45.5952 	 17.0021 	 105.353 	 
H 	 45.1717 	 14.2865 	 107.23 	 
C 	 47.1284 	 14.9174 	 105.194 	 
H 	 48.0082 	 15.4575 	 105.628 	 
H 	 47.0474 	 15.0396 	 104.051 	 
C 	 47.1979 	 13.3621 	 105.414 	 
H 	 47.2199 	 13.3039 	 106.555 	 
H 	 48.1967 	 12.9179 	 105.171 	 
C 	 46.2395 	 12.5717 	 104.645 	 
H 	 46.2048 	 11.4925 	 104.806 	 
H 	 46.6251 	 12.688 	 103.562 	 
H 	 45.2486 	 13.0623 	 104.674 	 
H 	 46.9173 	 20.4254 	 101.834 	 
H 	 43.4795 	 15.8923 	 107.967 	 
*
