! wB97X-D3 SP def2-SVP
%pal
nprocs 16
end

* xyz 0 1
S 	 60.5737 	 24.9898 	 75.7138 	 
C 	 61.2093 	 25.1074 	 74.1149 	 
C 	 62.3609 	 24.3967 	 74.0137 	 
C 	 62.6351 	 23.5513 	 75.1438 	 
C 	 61.6778 	 23.785 	 76.169 	 
H 	 63.4355 	 22.7833 	 75.3108 	 
C 	 63.3651 	 24.369 	 72.8629 	 
H 	 63.1735 	 23.4304 	 72.278 	 
H 	 64.2983 	 24.3073 	 73.2947 	 
C 	 63.3322 	 25.5622 	 71.9294 	 
H 	 62.3938 	 25.5931 	 71.4507 	 
H 	 63.4947 	 26.4641 	 72.5652 	 
C 	 64.4778 	 25.5589 	 70.9317 	 
H 	 64.2749 	 26.378 	 70.1911 	 
H 	 65.4368 	 25.6858 	 71.3402 	 
H 	 64.4215 	 24.6233 	 70.4582 	 
S 	 61.5637 	 23.9563 	 78.9391 	 
C 	 61.6695 	 22.5011 	 79.9043 	 
C 	 61.7864 	 21.4261 	 79.098 	 
C 	 61.777 	 21.747 	 77.7151 	 
C 	 61.6141 	 23.0815 	 77.4492 	 
H 	 61.8828 	 20.45 	 79.6189 	 
C 	 61.8848 	 20.6284 	 76.5976 	 
H 	 62.8967 	 20.6775 	 76.1856 	 
H 	 61.1576 	 20.8779 	 75.8232 	 
C 	 61.6017 	 19.1785 	 77.1092 	 
H 	 62.3271 	 18.8065 	 77.7591 	 
H 	 61.5801 	 18.5951 	 76.1634 	 
C 	 60.1349 	 19.0442 	 77.6623 	 
H 	 59.8709 	 19.6488 	 78.5236 	 
H 	 59.8272 	 18.0144 	 77.8662 	 
H 	 59.4328 	 19.4492 	 76.8345 	 
H 	 60.8272 	 25.7343 	 73.2992 	 
H 	 61.6763 	 22.4429 	 80.9351 	 
*
