! wB97X-D3 SP def2-SVP
%pal
nprocs 16
end

* xyz 0 1
S 	 9.39242 	 -5.31255 	 89.3291 	 
C 	 9.04036 	 -3.81734 	 90.2085 	 
C 	 9.8027 	 -2.76183 	 89.8541 	 
C 	 10.5246 	 -3.12338 	 88.65 	 
C 	 10.3952 	 -4.45238 	 88.2911 	 
H 	 11.0829 	 -2.50543 	 87.9978 	 
C 	 9.8098 	 -1.35208 	 90.4433 	 
H 	 10.6889 	 -0.740488 	 90.0421 	 
H 	 10.1905 	 -1.34311 	 91.4734 	 
C 	 8.60856 	 -0.434844 	 90.1948 	 
H 	 8.62516 	 -0.332237 	 89.1244 	 
H 	 7.66253 	 -0.863281 	 90.528 	 
C 	 8.68921 	 0.881965 	 90.8848 	 
H 	 8.59687 	 0.595114 	 91.8958 	 
H 	 9.71552 	 1.23151 	 90.6333 	 
H 	 7.90715 	 1.62795 	 90.6926 	 
S 	 12.1043 	 -6.34815 	 87.3356 	 
C 	 12.6476 	 -6.20762 	 85.6853 	 
C 	 11.9689 	 -5.27991 	 84.9337 	 
C 	 11.0161 	 -4.60526 	 85.7287 	 
C 	 11.0276 	 -5.00342 	 87.0987 	 
H 	 12.2303 	 -5.11457 	 83.898 	 
C 	 10.1873 	 -3.40586 	 85.1855 	 
H 	 10.8024 	 -2.53333 	 85.4906 	 
H 	 9.22742 	 -3.48057 	 85.8219 	 
C 	 9.82892 	 -3.25013 	 83.7211 	 
H 	 9.21787 	 -4.04382 	 83.3574 	 
H 	 10.7344 	 -3.18422 	 83.1199 	 
C 	 8.95694 	 -1.94838 	 83.4546 	 
H 	 8.54702 	 -1.81668 	 82.439 	 
H 	 9.66202 	 -1.1467 	 83.6812 	 
H 	 8.04213 	 -1.86761 	 84.1232 	 
H 	 8.50386 	 -3.63996 	 91.1023 	 
H 	 13.5296 	 -6.69114 	 85.3372 	 
*
