! wB97X-D3 SP def2-SVP
%pal
nprocs 16
end

* xyz 0 1
S 	 -59.7796 	 38.7724 	 92.5123 	 
C 	 -60.7796 	 37.3831 	 91.996 	 
C 	 -61.0556 	 37.3573 	 90.6343 	 
C 	 -60.3083 	 38.3096 	 89.9712 	 
C 	 -59.5584 	 39.1196 	 90.8212 	 
H 	 -60.3589 	 38.4407 	 88.9143 	 
C 	 -61.9333 	 36.2793 	 89.8738 	 
H 	 -62.1606 	 36.5263 	 88.8204 	 
H 	 -62.8897 	 36.293 	 90.4305 	 
C 	 -61.4001 	 34.8047 	 89.863 	 
H 	 -61.2161 	 34.5625 	 90.8395 	 
H 	 -62.2637 	 34.1942 	 89.5492 	 
C 	 -60.2225 	 34.5477 	 88.9787 	 
H 	 -59.4612 	 35.2593 	 89.1883 	 
H 	 -59.907 	 33.5404 	 89.0823 	 
H 	 -60.5054 	 34.6219 	 87.8891 	 
S 	 -58.4796 	 41.7325 	 91.1508 	 
C 	 -57.1182 	 42.2157 	 90.136 	 
C 	 -56.9519 	 41.2651 	 89.109 	 
C 	 -57.7366 	 40.1152 	 89.2722 	 
C 	 -58.6074 	 40.1528 	 90.3152 	 
H 	 -56.2585 	 41.4904 	 88.3401 	 
C 	 -57.5391 	 38.9952 	 88.3134 	 
H 	 -56.8902 	 39.4576 	 87.5671 	 
H 	 -58.4164 	 38.8314 	 87.7243 	 
C 	 -57.1283 	 37.5959 	 88.7756 	 
H 	 -56.848 	 36.9747 	 87.8903 	 
H 	 -57.9576 	 37.0722 	 89.2466 	 
C 	 -55.9409 	 37.5531 	 89.8098 	 
H 	 -56.2873 	 37.9021 	 90.7848 	 
H 	 -55.2252 	 38.1531 	 89.3759 	 
H 	 -55.6438 	 36.5684 	 89.7601 	 
H 	 -61.2176 	 36.7151 	 92.7364 	 
H 	 -56.5208 	 43.1122 	 90.2553 	 
*
