! wB97X-D3 SP def2-SVP
%pal
nprocs 16
end

* xyz 0 1
S 	 -32.1821 	 66.3254 	 118.623 	 
C 	 -33.4466 	 65.3098 	 119.383 	 
C 	 -33.0152 	 64.0411 	 119.497 	 
C 	 -31.6044 	 63.888 	 119.225 	 
C 	 -30.9888 	 64.9995 	 118.634 	 
H 	 -31.0433 	 62.9515 	 119.364 	 
C 	 -33.8429 	 62.9558 	 120.154 	 
H 	 -34.0918 	 62.2348 	 119.467 	 
H 	 -34.7236 	 63.4428 	 120.516 	 
C 	 -33.1946 	 62.2868 	 121.417 	 
H 	 -33.7553 	 61.3792 	 121.704 	 
H 	 -32.1132 	 61.9685 	 121.283 	 
C 	 -33.1168 	 63.1737 	 122.722 	 
H 	 -33.9446 	 63.4701 	 123.315 	 
H 	 -32.4892 	 62.858 	 123.519 	 
H 	 -32.6064 	 64.1112 	 122.48 	 
S 	 -28.8337 	 66.6419 	 118.461 	 
C 	 -27.1975 	 66.0291 	 118.283 	 
C 	 -27.2189 	 64.7823 	 117.853 	 
C 	 -28.6069 	 64.2151 	 117.876 	 
C 	 -29.5587 	 65.1078 	 118.286 	 
H 	 -26.2329 	 64.3588 	 117.738 	 
C 	 -28.9116 	 62.8346 	 117.381 	 
H 	 -28.6131 	 62.613 	 116.3 	 
H 	 -29.9988 	 62.7761 	 117.304 	 
C 	 -28.3505 	 61.7303 	 118.301 	 
H 	 -28.4409 	 62.1302 	 119.331 	 
H 	 -27.2057 	 61.7543 	 118.171 	 
C 	 -29.0227 	 60.3759 	 118.211 	 
H 	 -29.0369 	 60.0374 	 117.188 	 
H 	 -30.115 	 60.4177 	 118.642 	 
H 	 -28.4251 	 59.6664 	 118.749 	 
H 	 -34.4337 	 65.5711 	 119.456 	 
H 	 -26.2663 	 66.5916 	 118.261 	 
*
