! wB97X-D3 SP def2-SVP
%pal
nprocs 16
end

* xyz 0 1
S 	 -57.6231 	 52.7354 	 136.581 	 
C 	 -56.3203 	 53.0794 	 135.387 	 
C 	 -55.9514 	 51.9787 	 134.634 	 
C 	 -57.0593 	 51.0387 	 134.752 	 
C 	 -58.0068 	 51.3494 	 135.697 	 
H 	 -57.1044 	 50.1443 	 134.149 	 
C 	 -54.8841 	 51.9458 	 133.526 	 
H 	 -54.6742 	 50.9753 	 133.169 	 
H 	 -53.956 	 52.2825 	 134.004 	 
C 	 -55.2438 	 52.853 	 132.353 	 
H 	 -56.0716 	 52.3857 	 131.814 	 
H 	 -55.5668 	 53.8361 	 132.716 	 
C 	 -54.0734 	 53.2479 	 131.397 	 
H 	 -53.534 	 52.4267 	 130.944 	 
H 	 -54.5383 	 53.8538 	 130.677 	 
H 	 -53.3693 	 53.9769 	 131.841 	 
S 	 -59.8566 	 49.7435 	 134.467 	 
C 	 -61.4642 	 49.6399 	 135.123 	 
C 	 -61.3997 	 49.9288 	 136.477 	 
C 	 -60.2111 	 50.5179 	 136.884 	 
C 	 -59.2354 	 50.5386 	 135.875 	 
H 	 -62.2722 	 49.793 	 137.082 	 
C 	 -60.0312 	 51.2188 	 138.221 	 
H 	 -60.9922 	 51.3365 	 138.627 	 
H 	 -59.686 	 52.2403 	 138.002 	 
C 	 -59.0437 	 50.6852 	 139.321 	 
H 	 -58.0292 	 50.7481 	 138.98 	 
H 	 -59.1178 	 49.6033 	 139.441 	 
C 	 -59.1206 	 51.4365 	 140.662 	 
H 	 -59.0015 	 52.5061 	 140.574 	 
H 	 -58.3978 	 51.0204 	 141.329 	 
H 	 -60.1309 	 51.3117 	 141.048 	 
H 	 -55.8271 	 53.9559 	 135.315 	 
H 	 -62.275 	 49.2023 	 134.666 	 
*
