! wB97X-D3 SP def2-SVP
%pal
nprocs 16
end

* xyz 0 1
S 	 -15.778 	 32.4659 	 37.3407 	 
C 	 -15.1409 	 34.1024 	 37.3812 	 
C 	 -15.9693 	 34.9434 	 36.5864 	 
C 	 -16.9296 	 34.1771 	 35.8731 	 
C 	 -16.8805 	 32.8474 	 36.0252 	 
H 	 -17.7778 	 34.5242 	 35.2951 	 
C 	 -16.0743 	 36.4382 	 36.5841 	 
H 	 -15.0868 	 36.6934 	 36.8395 	 
H 	 -16.6889 	 36.6849 	 37.4569 	 
C 	 -16.3588 	 37.1975 	 35.3606 	 
H 	 -15.6943 	 36.7626 	 34.5618 	 
H 	 -17.3507 	 37.016 	 35.0541 	 
C 	 -16.1337 	 38.7064 	 35.5088 	 
H 	 -16.6401 	 39.128 	 36.4164 	 
H 	 -15.0422 	 38.924 	 35.5684 	 
H 	 -16.4747 	 39.204 	 34.5869 	 
S 	 -18.8973 	 31.0934 	 36.7776 	 
C 	 -19.7014 	 30.1981 	 35.4514 	 
C 	 -19.1827 	 30.5399 	 34.1969 	 
C 	 -18.1815 	 31.5422 	 34.2437 	 
C 	 -17.8919 	 31.92 	 35.576 	 
H 	 -19.6167 	 30.0054 	 33.331 	 
C 	 -17.6035 	 31.9603 	 32.8701 	 
H 	 -17.2324 	 31.0383 	 32.4179 	 
H 	 -16.7278 	 32.5026 	 32.9652 	 
C 	 -18.4233 	 32.7095 	 31.8304 	 
H 	 -19.309 	 32.0691 	 31.5631 	 
H 	 -17.9348 	 32.967 	 30.8502 	 
C 	 -18.8951 	 34.0689 	 32.3067 	 
H 	 -19.6324 	 34.5769 	 31.6868 	 
H 	 -18.1012 	 34.9144 	 32.3424 	 
H 	 -19.3226 	 34.0345 	 33.3036 	 
H 	 -14.2989 	 34.4045 	 37.9455 	 
H 	 -20.4684 	 29.4779 	 35.618 	 
*
