! wB97X-D3 SP def2-SVP
%pal
nprocs 16
end

* xyz 0 1
S 	 -92.818 	 39.5943 	 125.684 	 
C 	 -93.5727 	 38.8302 	 124.34 	 
C 	 -94.6016 	 39.5441 	 123.791 	 
C 	 -94.8322 	 40.7277 	 124.559 	 
C 	 -93.9648 	 40.9802 	 125.62 	 
H 	 -95.6213 	 41.4721 	 124.363 	 
C 	 -95.4715 	 39.2033 	 122.571 	 
H 	 -94.7994 	 38.9539 	 121.832 	 
H 	 -96.0154 	 40.0305 	 122.203 	 
C 	 -96.4505 	 38.0335 	 122.817 	 
H 	 -95.8901 	 37.2092 	 123.215 	 
H 	 -97.2015 	 38.3116 	 123.547 	 
C 	 -97.2245 	 37.5166 	 121.584 	 
H 	 -97.4681 	 36.4919 	 121.802 	 
H 	 -98.1141 	 38.1472 	 121.427 	 
H 	 -96.6236 	 37.4076 	 120.696 	 
S 	 -93.4729 	 41.4133 	 128.328 	 
C 	 -94.0636 	 42.7825 	 129.191 	 
C 	 -94.8891 	 43.5022 	 128.331 	 
C 	 -94.8452 	 43.0894 	 126.976 	 
C 	 -94.1033 	 41.9206 	 126.762 	 
H 	 -95.527 	 44.2987 	 128.714 	 
C 	 -95.6798 	 43.7492 	 125.859 	 
H 	 -95.3518 	 43.5579 	 124.824 	 
H 	 -95.5367 	 44.8219 	 126.002 	 
C 	 -97.2378 	 43.5544 	 125.926 	 
H 	 -97.5004 	 43.6121 	 126.998 	 
H 	 -97.4877 	 42.557 	 125.524 	 
C 	 -97.986 	 44.5385 	 125.105 	 
H 	 -97.6338 	 44.5897 	 124.046 	 
H 	 -98.0584 	 45.579 	 125.591 	 
H 	 -98.9811 	 44.1171 	 125.108 	 
H 	 -93.0393 	 38.0023 	 123.924 	 
H 	 -94.1545 	 42.869 	 130.259 	 
*
