! wB97X-D3 SP def2-SVP
%pal
nprocs 16
end

* xyz 0 1
S 	 4.97064 	 26.579 	 69.0832 	 
C 	 3.31233 	 26.2783 	 68.4109 	 
C 	 3.33258 	 25.8334 	 67.1407 	 
C 	 4.63393 	 25.9962 	 66.5561 	 
C 	 5.62433 	 26.5336 	 67.4169 	 
H 	 4.8685 	 25.8497 	 65.537 	 
C 	 2.08427 	 25.3702 	 66.3126 	 
H 	 2.01358 	 26.0374 	 65.4773 	 
H 	 1.17321 	 25.5682 	 66.8867 	 
C 	 2.30974 	 23.9012 	 65.8461 	 
H 	 3.37459 	 23.6922 	 65.6058 	 
H 	 1.95851 	 23.2127 	 66.5698 	 
C 	 1.62991 	 23.6496 	 64.431 	 
H 	 2.0382 	 24.3527 	 63.7091 	 
H 	 1.84225 	 22.646 	 64.189 	 
H 	 0.553924 	 23.7453 	 64.5213 	 
S 	 7.95921 	 27.413 	 68.6672 	 
C 	 9.4088 	 27.7087 	 67.7918 	 
C 	 9.0685 	 27.7829 	 66.496 	 
C 	 7.81238 	 27.2476 	 66.1345 	 
C 	 7.02024 	 26.894 	 67.2472 	 
H 	 9.80636 	 28.3159 	 65.8572 	 
C 	 7.31678 	 27.4242 	 64.7027 	 
H 	 6.80953 	 26.5139 	 64.4085 	 
H 	 8.21162 	 27.5484 	 64.1148 	 
C 	 6.37636 	 28.6057 	 64.4778 	 
H 	 7.06236 	 29.4588 	 64.5622 	 
H 	 5.69497 	 28.6914 	 65.355 	 
C 	 5.6031 	 28.6869 	 63.0674 	 
H 	 5.34595 	 27.6875 	 62.6279 	 
H 	 6.32921 	 28.9483 	 62.3032 	 
H 	 4.81016 	 29.4547 	 62.9668 	 
H 	 2.45476 	 26.2856 	 69.0246 	 
H 	 10.3015 	 28.2595 	 68.1241 	 
*
