! wB97X-D3 SP def2-SVP
%pal
nprocs 16
end

* xyz 0 1
S 	 -37.2754 	 72.0027 	 166.891 	 
C 	 -36.2112 	 72.3875 	 165.665 	 
C 	 -36.2726 	 73.7618 	 165.325 	 
C 	 -36.8146 	 74.5139 	 166.424 	 
C 	 -37.4468 	 73.6714 	 167.351 	 
H 	 -36.8245 	 75.6066 	 166.488 	 
C 	 -35.5521 	 74.3753 	 164.137 	 
H 	 -35.7803 	 75.4274 	 164.364 	 
H 	 -36.0214 	 73.9812 	 163.237 	 
C 	 -33.9993 	 74.3858 	 164.112 	 
H 	 -33.7311 	 75.0236 	 164.908 	 
H 	 -33.6665 	 73.3834 	 164.5 	 
C 	 -33.4648 	 75.0171 	 162.909 	 
H 	 -32.4386 	 74.8407 	 162.87 	 
H 	 -33.9458 	 74.5857 	 162.065 	 
H 	 -33.596 	 76.1222 	 162.918 	 
S 	 -37.0373 	 74.3885 	 169.977 	 
C 	 -38.3864 	 75.0721 	 170.829 	 
C 	 -39.6078 	 74.8826 	 170.208 	 
C 	 -39.4385 	 74.3315 	 168.906 	 
C 	 -38.0708 	 74.1208 	 168.63 	 
H 	 -40.5826 	 75.1039 	 170.696 	 
C 	 -40.6007 	 74.0958 	 167.963 	 
H 	 -41.3406 	 73.5531 	 168.499 	 
H 	 -40.3343 	 73.258 	 167.301 	 
C 	 -41.07 	 75.2099 	 167.096 	 
H 	 -41.8759 	 74.986 	 166.357 	 
H 	 -40.159 	 75.6141 	 166.588 	 
C 	 -41.6843 	 76.3136 	 168.006 	 
H 	 -40.827 	 76.8359 	 168.468 	 
H 	 -42.2311 	 75.7946 	 168.82 	 
H 	 -42.3077 	 76.9011 	 167.411 	 
H 	 -35.4847 	 71.7117 	 165.159 	 
H 	 -38.2124 	 75.6585 	 171.819 	 
*
