! wB97X-D3 SP def2-SVP
%pal
nprocs 16
end

* xyz 0 1
S 	 15.25 	 24.8576 	 62.5231 	 
C 	 15.9254 	 23.3784 	 61.9033 	 
C 	 14.9164 	 22.5503 	 61.351 	 
C 	 13.6968 	 23.1276 	 61.552 	 
C 	 13.6634 	 24.363 	 62.1543 	 
H 	 12.7125 	 22.7448 	 61.3192 	 
C 	 15.1295 	 21.1777 	 60.718 	 
H 	 15.4429 	 21.2863 	 59.6802 	 
H 	 14.1141 	 20.6941 	 60.6993 	 
C 	 16.1143 	 20.1331 	 61.37 	 
H 	 16.2178 	 19.32 	 60.615 	 
H 	 17.1151 	 20.4346 	 61.3135 	 
C 	 15.8954 	 19.6093 	 62.7318 	 
H 	 15.7424 	 20.4501 	 63.3883 	 
H 	 14.9804 	 18.9675 	 62.6173 	 
H 	 16.6907 	 18.9389 	 63.0781 	 
S 	 12.5757 	 25.9084 	 64.1114 	 
C 	 10.8852 	 26.3447 	 64.0744 	 
C 	 10.2288 	 25.8916 	 62.9551 	 
C 	 11.1602 	 25.0619 	 62.2 	 
C 	 12.4811 	 25.0936 	 62.5833 	 
H 	 9.20481 	 25.9135 	 62.878 	 
C 	 10.6989 	 24.4727 	 60.8751 	 
H 	 11.556 	 24.02 	 60.3365 	 
H 	 10.4172 	 25.3335 	 60.2455 	 
C 	 9.419 	 23.4935 	 60.9444 	 
H 	 9.08369 	 23.2295 	 59.9459 	 
H 	 8.59157 	 24.063 	 61.5346 	 
C 	 9.87398 	 22.1578 	 61.5948 	 
H 	 10.0368 	 22.3941 	 62.5866 	 
H 	 10.7598 	 21.5551 	 61.1711 	 
H 	 9.01577 	 21.488 	 61.731 	 
H 	 17.0114 	 23.1703 	 61.9546 	 
H 	 10.448 	 26.9041 	 64.823 	 
*
