! wB97X-D3 SP def2-SVP
%pal
nprocs 16
end

* xyz 0 1
S 	 -64.694 	 53.0505 	 124.234 	 
C 	 -64.4189 	 52.3421 	 125.806 	 
C 	 -65.3754 	 51.339 	 126.077 	 
C 	 -66.2365 	 51.1833 	 124.945 	 
C 	 -65.8234 	 51.7943 	 123.794 	 
H 	 -67.0494 	 50.4716 	 124.907 	 
C 	 -65.2124 	 50.3231 	 127.198 	 
H 	 -65.8965 	 50.5755 	 127.983 	 
H 	 -64.2909 	 50.4934 	 127.72 	 
C 	 -65.2409 	 48.7868 	 126.896 	 
H 	 -65.0963 	 48.2387 	 127.816 	 
H 	 -66.1187 	 48.4986 	 126.375 	 
C 	 -64.0937 	 48.3501 	 125.928 	 
H 	 -64.1638 	 47.2907 	 125.875 	 
H 	 -64.3393 	 48.6767 	 124.929 	 
H 	 -63.0746 	 48.5716 	 126.259 	 
S 	 -65.8429 	 52.8462 	 121.255 	 
C 	 -67.1511 	 52.3085 	 120.151 	 
C 	 -67.9374 	 51.2888 	 120.633 	 
C 	 -67.6016 	 51.0025 	 122.027 	 
C 	 -66.5045 	 51.7906 	 122.457 	 
H 	 -68.7579 	 50.9839 	 120.062 	 
C 	 -68.5818 	 50.0563 	 122.738 	 
H 	 -69.4922 	 50.142 	 122.163 	 
H 	 -68.9806 	 50.5028 	 123.659 	 
C 	 -68.246 	 48.57 	 122.88 	 
H 	 -67.1666 	 48.5468 	 123.057 	 
H 	 -68.2892 	 47.996 	 121.93 	 
C 	 -69.2475 	 47.8341 	 123.904 	 
H 	 -68.9139 	 48.3445 	 124.834 	 
H 	 -68.9388 	 46.7592 	 123.947 	 
H 	 -70.2848 	 47.8965 	 123.799 	 
H 	 -63.4066 	 52.409 	 126.245 	 
H 	 -67.3398 	 52.6787 	 119.189 	 
*
