! wB97X-D3 SP def2-SVP
%pal
nprocs 16
end

* xyz 0 1
S 	 8.37714 	 21.9446 	 59.6026 	 
C 	 8.57883 	 22.5792 	 57.9877 	 
C 	 7.34061 	 23.0983 	 57.5848 	 
C 	 6.2221 	 22.8289 	 58.4487 	 
C 	 6.66216 	 22.2139 	 59.5617 	 
H 	 5.21708 	 23.0899 	 58.225 	 
C 	 7.10753 	 23.7567 	 56.2543 	 
H 	 7.8387 	 24.5444 	 56.1495 	 
H 	 6.16751 	 24.3017 	 56.2961 	 
C 	 6.94748 	 22.7333 	 55.071 	 
H 	 6.43521 	 23.1928 	 54.2196 	 
H 	 7.9587 	 22.4955 	 54.6982 	 
C 	 6.23421 	 21.3963 	 55.3078 	 
H 	 6.6444 	 20.8346 	 56.0933 	 
H 	 5.1672 	 21.5415 	 55.2481 	 
H 	 6.52713 	 20.7664 	 54.5185 	 
S 	 6.08286 	 20.1931 	 61.2471 	 
C 	 4.94177 	 20.3143 	 62.5345 	 
C 	 4.30904 	 21.5233 	 62.4838 	 
C 	 4.87841 	 22.3828 	 61.4798 	 
C 	 5.91174 	 21.8026 	 60.7405 	 
H 	 3.61735 	 21.7594 	 63.2389 	 
C 	 4.5749 	 23.8775 	 61.4171 	 
H 	 5.10526 	 24.2466 	 60.499 	 
H 	 4.98585 	 24.4982 	 62.2251 	 
C 	 3.12255 	 24.2949 	 61.4116 	 
H 	 2.92186 	 25.3696 	 61.3475 	 
H 	 2.73838 	 23.9905 	 62.414 	 
C 	 2.30109 	 23.5267 	 60.3401 	 
H 	 1.28001 	 23.7542 	 60.6391 	 
H 	 2.56862 	 22.4977 	 60.3846 	 
H 	 2.493 	 23.9212 	 59.3761 	 
H 	 9.43379 	 22.5975 	 57.4051 	 
H 	 4.71971 	 19.4144 	 63.153 	 
*
