! wB97X-D3 SP def2-SVP
%pal
nprocs 16
end

* xyz 0 1
S 	 58.7297 	 -7.58802 	 87.6861 	 
C 	 59.7598 	 -6.23226 	 88.0913 	 
C 	 60.1581 	 -5.48784 	 87.021 	 
C 	 59.6924 	 -6.07407 	 85.831 	 
C 	 58.757 	 -7.12844 	 85.9972 	 
H 	 59.9299 	 -5.708 	 84.9025 	 
C 	 61.0331 	 -4.26254 	 87.1245 	 
H 	 61.9692 	 -4.51822 	 86.6552 	 
H 	 61.2859 	 -4.0399 	 88.1434 	 
C 	 60.5444 	 -2.96958 	 86.4117 	 
H 	 61.2738 	 -2.17548 	 86.5753 	 
H 	 60.6282 	 -3.19242 	 85.3388 	 
C 	 59.1023 	 -2.54528 	 86.6721 	 
H 	 58.8962 	 -2.39953 	 87.7283 	 
H 	 58.9002 	 -1.68305 	 86.2149 	 
H 	 58.4756 	 -3.32666 	 86.2658 	 
S 	 56.8542 	 -9.04563 	 85.4783 	 
C 	 56.7574 	 -9.8648 	 83.9422 	 
C 	 57.6415 	 -9.21485 	 83.0555 	 
C 	 58.3249 	 -8.12026 	 83.5848 	 
C 	 58.1448 	 -8.01183 	 84.9714 	 
H 	 57.7014 	 -9.39218 	 81.9876 	 
C 	 59.4493 	 -7.68285 	 82.7284 	 
H 	 59.6845 	 -6.65666 	 83.1069 	 
H 	 59.1231 	 -7.67784 	 81.704 	 
C 	 60.6698 	 -8.58875 	 82.8244 	 
H 	 61.402 	 -8.21123 	 82.0834 	 
H 	 60.4376 	 -9.59984 	 82.4655 	 
C 	 61.3204 	 -8.71654 	 84.1932 	 
H 	 61.9704 	 -7.94955 	 84.4271 	 
H 	 61.9292 	 -9.64411 	 84.1983 	 
H 	 60.6232 	 -8.72667 	 85.0747 	 
H 	 59.9613 	 -5.85848 	 89.1316 	 
H 	 56.1334 	 -10.7553 	 83.694 	 
*
