! wB97X-D3 SP def2-SVP
%pal
nprocs 16
end

* xyz 0 1
S 	 -3.62534 	 10.2011 	 87.1316 	 
C 	 -3.39254 	 8.9909 	 88.392 	 
C 	 -4.15174 	 7.8732 	 88.2409 	 
C 	 -4.9191 	 8.00383 	 87.032 	 
C 	 -4.7294 	 9.19165 	 86.3751 	 
H 	 -5.61113 	 7.24879 	 86.5626 	 
C 	 -4.1941 	 6.76999 	 89.271 	 
H 	 -5.16161 	 6.30486 	 89.2624 	 
H 	 -4.10442 	 7.24283 	 90.2661 	 
C 	 -3.20499 	 5.67222 	 89.0987 	 
H 	 -3.28858 	 4.99137 	 88.1514 	 
H 	 -2.27769 	 6.03848 	 89.1069 	 
C 	 -3.34186 	 4.61933 	 90.2291 	 
H 	 -4.36729 	 4.26667 	 90.2129 	 
H 	 -2.55636 	 3.93711 	 90.2703 	 
H 	 -3.29747 	 5.05627 	 91.2781 	 
S 	 -5.96136 	 11.3347 	 85.1791 	 
C 	 -6.89048 	 11.1575 	 83.6818 	 
C 	 -6.68378 	 9.90351 	 83.219 	 
C 	 -5.92096 	 9.00313 	 84.0576 	 
C 	 -5.42136 	 9.62181 	 85.2026 	 
H 	 -7.32738 	 9.60076 	 82.3774 	 
C 	 -5.62588 	 7.59414 	 83.5201 	 
H 	 -6.51845 	 6.88683 	 83.505 	 
H 	 -4.87484 	 7.10199 	 84.1831 	 
C 	 -4.9178 	 7.7725 	 82.1664 	 
H 	 -5.40766 	 8.38912 	 81.3467 	 
H 	 -4.80731 	 6.74634 	 81.988 	 
C 	 -3.44868 	 8.29535 	 82.3454 	 
H 	 -2.94505 	 8.24933 	 81.4282 	 
H 	 -2.87178 	 7.75649 	 83.1079 	 
H 	 -3.66179 	 9.34159 	 82.4875 	 
H 	 -2.95073 	 9.35757 	 89.2823 	 
H 	 -7.52322 	 11.9181 	 83.2073 	 
*
