! wB97X-D3 SP def2-SVP
%pal
nprocs 16
end

* xyz 0 1
S 	 -39.1323 	 38.0067 	 85.4506 	 
C 	 -37.5664 	 38.3325 	 84.6959 	 
C 	 -37.3286 	 37.4422 	 83.6467 	 
C 	 -38.4319 	 36.5067 	 83.4252 	 
C 	 -39.4792 	 36.6588 	 84.2665 	 
H 	 -38.5702 	 35.7824 	 82.6437 	 
C 	 -36.1785 	 37.4104 	 82.7071 	 
H 	 -36.4619 	 36.8958 	 81.7623 	 
H 	 -35.4804 	 36.7858 	 83.1926 	 
C 	 -35.5728 	 38.8132 	 82.4201 	 
H 	 -36.2539 	 39.6467 	 82.3164 	 
H 	 -35.0407 	 39.257 	 83.2747 	 
C 	 -34.4285 	 38.7623 	 81.3661 	 
H 	 -33.7629 	 38.0431 	 81.7392 	 
H 	 -34.913 	 38.4867 	 80.476 	 
H 	 -33.8505 	 39.6923 	 81.2645 	 
S 	 -42.0333 	 36.926 	 83.6666 	 
C 	 -43.1876 	 35.6537 	 83.8571 	 
C 	 -42.6151 	 34.4774 	 84.3204 	 
C 	 -41.226 	 34.6785 	 84.6449 	 
C 	 -40.7442 	 35.9509 	 84.2256 	 
H 	 -43.1774 	 33.5714 	 84.4607 	 
C 	 -40.3667 	 33.5739 	 85.1004 	 
H 	 -41.0194 	 32.8532 	 85.6457 	 
H 	 -39.7233 	 33.9987 	 85.7946 	 
C 	 -39.5016 	 32.9079 	 83.9564 	 
H 	 -38.66 	 33.5335 	 83.7198 	 
H 	 -40.0646 	 32.9073 	 83.0568 	 
C 	 -39.0466 	 31.5562 	 84.3963 	 
H 	 -38.209 	 31.6004 	 85.1883 	 
H 	 -38.59 	 30.995 	 83.5404 	 
H 	 -39.788 	 30.9627 	 84.9498 	 
H 	 -36.8168 	 39.0238 	 85.0721 	 
H 	 -44.2302 	 35.8049 	 83.6018 	 
*
