! wB97X-D3 SP def2-SVP
%pal
nprocs 16
end

* xyz 0 1
S 	 -58.3175 	 20.1521 	 86.1367 	 
C 	 -58.4637 	 18.5869 	 87.0141 	 
C 	 -57.2923 	 17.8865 	 86.8234 	 
C 	 -56.3405 	 18.6123 	 86.0729 	 
C 	 -56.7258 	 19.917 	 85.6574 	 
H 	 -55.4454 	 18.1572 	 85.7424 	 
C 	 -57.0694 	 16.4331 	 87.3286 	 
H 	 -56.7557 	 15.8753 	 86.4609 	 
H 	 -57.9673 	 15.9122 	 87.7803 	 
C 	 -55.86 	 16.1718 	 88.2161 	 
H 	 -56.0292 	 15.172 	 88.5862 	 
H 	 -54.8651 	 16.2331 	 87.6316 	 
C 	 -55.6843 	 17.105 	 89.4839 	 
H 	 -56.4715 	 16.8587 	 90.2262 	 
H 	 -54.7191 	 16.8585 	 89.9219 	 
H 	 -55.7972 	 18.1368 	 89.1674 	 
S 	 -57.028 	 21.4512 	 83.4437 	 
C 	 -55.6334 	 22.2047 	 82.7068 	 
C 	 -54.515 	 22.0336 	 83.4711 	 
C 	 -54.7319 	 21.243 	 84.6199 	 
C 	 -56.0648 	 20.8701 	 84.7585 	 
H 	 -53.6006 	 22.3942 	 83.0207 	 
C 	 -53.596 	 20.9903 	 85.6402 	 
H 	 -52.7822 	 20.9244 	 84.9982 	 
H 	 -53.6305 	 20.0677 	 86.182 	 
C 	 -53.2434 	 22.1273 	 86.6384 	 
H 	 -52.9295 	 22.9804 	 85.938 	 
H 	 -52.376 	 21.7382 	 87.2284 	 
C 	 -54.2724 	 22.5648 	 87.6582 	 
H 	 -53.8104 	 23.3588 	 88.2964 	 
H 	 -54.4151 	 21.8434 	 88.3967 	 
H 	 -55.2348 	 22.8019 	 87.2654 	 
H 	 -59.2971 	 18.1499 	 87.455 	 
H 	 -55.5137 	 22.7394 	 81.7681 	 
*
