! wB97X-D3 SP def2-SVP
%pal
nprocs 16
end

* xyz 0 1
S 	 38.8902 	 14.0586 	 80.8 	 
C 	 39.0649 	 13.6131 	 79.1154 	 
C 	 40.2253 	 14.0706 	 78.5118 	 
C 	 41.1058 	 14.7044 	 79.5094 	 
C 	 40.5111 	 14.7418 	 80.7546 	 
H 	 42.128 	 15.1295 	 79.334 	 
C 	 40.5249 	 13.9526 	 77.0892 	 
H 	 41.4091 	 14.5926 	 76.9359 	 
H 	 39.71 	 14.3887 	 76.5509 	 
C 	 40.7682 	 12.5446 	 76.5802 	 
H 	 41.6719 	 12.1765 	 76.9861 	 
H 	 39.9791 	 11.8439 	 76.9051 	 
C 	 40.901 	 12.6127 	 75.0435 	 
H 	 41.7319 	 13.2754 	 74.7826 	 
H 	 41.2589 	 11.6608 	 74.6332 	 
H 	 39.8911 	 12.9017 	 74.6223 	 
S 	 40.3402 	 16.5323 	 82.8753 	 
C 	 41.736 	 16.6977 	 83.9029 	 
C 	 42.7735 	 15.8681 	 83.5959 	 
C 	 42.3991 	 14.973 	 82.5671 	 
C 	 41.1744 	 15.2728 	 81.9351 	 
H 	 43.7062 	 15.8889 	 84.1728 	 
C 	 43.3941 	 13.9323 	 82.1181 	 
H 	 44.428 	 14.1596 	 82.2306 	 
H 	 43.3627 	 13.8723 	 81.0054 	 
C 	 43.2324 	 12.4857 	 82.6725 	 
H 	 42.1972 	 12.1205 	 82.6196 	 
H 	 43.4752 	 12.4883 	 83.7207 	 
C 	 44.0554 	 11.4448 	 81.9602 	 
H 	 44.1397 	 10.5204 	 82.5914 	 
H 	 45.1476 	 11.7246 	 81.9882 	 
H 	 43.7086 	 11.2569 	 80.9466 	 
H 	 38.2592 	 13.2146 	 78.503 	 
H 	 41.8454 	 17.3096 	 84.7877 	 
*
