! wB97X-D3 SP def2-SVP
%pal
nprocs 16
end

* xyz 0 1
S 	 -72.3204 	 39.8049 	 121.656 	 
C 	 -73.6898 	 39.7867 	 122.761 	 
C 	 -74.2884 	 41.0271 	 122.723 	 
C 	 -73.6702 	 41.9311 	 121.767 	 
C 	 -72.64 	 41.404 	 121.021 	 
H 	 -73.9246 	 42.962 	 121.721 	 
C 	 -75.5427 	 41.3584 	 123.499 	 
H 	 -75.2086 	 42.0106 	 124.297 	 
H 	 -75.9856 	 40.6092 	 124.132 	 
C 	 -76.7187 	 41.9948 	 122.648 	 
H 	 -76.3538 	 42.971 	 122.119 	 
H 	 -77.1561 	 41.2426 	 121.952 	 
C 	 -77.897 	 42.3801 	 123.478 	 
H 	 -78.2906 	 41.5165 	 124.094 	 
H 	 -77.5351 	 43.0746 	 124.177 	 
H 	 -78.7224 	 42.8266 	 122.856 	 
S 	 -70.3547 	 41.3058 	 119.426 	 
C 	 -70.3795 	 42.075 	 117.875 	 
C 	 -71.4299 	 43.0054 	 117.788 	 
C 	 -72.3037 	 42.9435 	 118.947 	 
C 	 -71.9707 	 41.8896 	 119.824 	 
H 	 -71.6165 	 43.6439 	 116.899 	 
C 	 -73.4151 	 43.9503 	 119.064 	 
H 	 -74.4179 	 43.5212 	 119.278 	 
H 	 -73.6509 	 44.4272 	 118.033 	 
C 	 -73.0071 	 45.0303 	 120.021 	 
H 	 -72.2144 	 45.6117 	 119.643 	 
H 	 -72.664 	 44.7448 	 120.995 	 
C 	 -74.2927 	 45.8971 	 120.385 	 
H 	 -74.7971 	 46.299 	 119.535 	 
H 	 -74.1761 	 46.7932 	 121.062 	 
H 	 -75.1505 	 45.3648 	 120.86 	 
H 	 -74.0873 	 38.8902 	 123.308 	 
H 	 -69.681 	 42.0123 	 117.134 	 
*
