! wB97X-D3 SP def2-SVP
%pal
nprocs 16
end

* xyz 0 1
S 	 -5.65602 	 -10.564 	 84.4125 	 
C 	 -5.84907 	 -9.92849 	 82.8757 	 
C 	 -6.62561 	 -8.80327 	 82.8993 	 
C 	 -7.28442 	 -8.57042 	 84.1419 	 
C 	 -6.98273 	 -9.6135 	 85.0053 	 
H 	 -7.94314 	 -7.8192 	 84.5356 	 
C 	 -6.97711 	 -7.96645 	 81.7411 	 
H 	 -6.1838 	 -7.9649 	 80.9207 	 
H 	 -7.02561 	 -6.89852 	 82.1521 	 
C 	 -8.3225 	 -8.40657 	 81.1449 	 
H 	 -8.31592 	 -9.52924 	 81.0975 	 
H 	 -9.08943 	 -8.25115 	 81.9263 	 
C 	 -8.61873 	 -7.78981 	 79.7155 	 
H 	 -8.08642 	 -8.38998 	 78.974 	 
H 	 -9.70762 	 -7.84624 	 79.548 	 
H 	 -8.20818 	 -6.75679 	 79.5135 	 
S 	 -6.72083 	 -10.2685 	 87.6239 	 
C 	 -8.17505 	 -10.7932 	 88.4461 	 
C 	 -9.34774 	 -10.8334 	 87.6963 	 
C 	 -9.02612 	 -10.2457 	 86.4306 	 
C 	 -7.69777 	 -9.89973 	 86.2435 	 
H 	 -10.3555 	 -11.057 	 88.1414 	 
C 	 -10.1476 	 -10.089 	 85.3964 	 
H 	 -10.7294 	 -11.0272 	 85.5077 	 
H 	 -9.64051 	 -10.1715 	 84.4328 	 
C 	 -11.035 	 -8.92115 	 85.6802 	 
H 	 -10.6343 	 -8.01758 	 86.2627 	 
H 	 -11.9605 	 -9.32199 	 86.1255 	 
C 	 -11.3222 	 -8.20602 	 84.3283 	 
H 	 -10.4573 	 -7.69202 	 83.824 	 
H 	 -12.0428 	 -7.4308 	 84.4456 	 
H 	 -11.7658 	 -8.92789 	 83.5788 	 
H 	 -5.35174 	 -10.1895 	 81.9858 	 
H 	 -8.15186 	 -11.1465 	 89.4653 	 
*
