! wB97X-D3 SP def2-SVP
%pal
nprocs 16
end

* xyz 0 1
S 	 2.02492 	 -14.971 	 82.1381 	 
C 	 0.291645 	 -14.9155 	 82.3905 	 
C 	 0.0315849 	 -14.808 	 83.7482 	 
C 	 1.18808 	 -14.4393 	 84.4995 	 
C 	 2.36671 	 -14.399 	 83.7652 	 
H 	 1.15826 	 -14.1617 	 85.5136 	 
C 	 -1.42081 	 -14.712 	 84.3814 	 
H 	 -1.95334 	 -13.897 	 83.91 	 
H 	 -1.34976 	 -14.2426 	 85.3443 	 
C 	 -2.30648 	 -15.9567 	 84.4773 	 
H 	 -3.02482 	 -15.7703 	 85.3305 	 
H 	 -2.80644 	 -16.0963 	 83.5513 	 
C 	 -1.48591 	 -17.2482 	 84.6569 	 
H 	 -0.80186 	 -17.4725 	 83.8996 	 
H 	 -0.958351 	 -17.1604 	 85.6468 	 
H 	 -2.15269 	 -18.0601 	 84.7804 	 
S 	 4.2533 	 -12.5785 	 83.4407 	 
C 	 5.50809 	 -12.158 	 84.5433 	 
C 	 5.34561 	 -13.015 	 85.5714 	 
C 	 4.33946 	 -14.0869 	 85.4639 	 
C 	 3.69353 	 -13.9428 	 84.2313 	 
H 	 5.94682 	 -12.9178 	 86.4537 	 
C 	 4.15848 	 -15.0766 	 86.6435 	 
H 	 4.94474 	 -15.7576 	 86.7022 	 
H 	 3.31703 	 -15.6796 	 86.2967 	 
C 	 3.95621 	 -14.4656 	 88.0226 	 
H 	 3.1978 	 -13.6879 	 87.8274 	 
H 	 4.97547 	 -14.1164 	 88.1861 	 
C 	 3.54203 	 -15.5065 	 89.0761 	 
H 	 4.12259 	 -16.4592 	 88.9484 	 
H 	 2.54628 	 -15.8064 	 88.9749 	 
H 	 3.72364 	 -15.1914 	 90.0886 	 
H 	 -0.549844 	 -15.1426 	 81.708 	 
H 	 6.22276 	 -11.3363 	 84.5827 	 
*
