! wB97X-D3 SP def2-SVP
%pal
nprocs 16
end

* xyz 0 1
S 	 -0.17484 	 -26.6262 	 82.8409 	 
C 	 -0.280671 	 -27.8731 	 81.5449 	 
C 	 0.310154 	 -29.073 	 81.9909 	 
C 	 0.966616 	 -28.8601 	 83.2749 	 
C 	 0.804574 	 -27.5848 	 83.8076 	 
H 	 1.60602 	 -29.5995 	 83.7413 	 
C 	 0.224806 	 -30.413 	 81.2699 	 
H 	 1.00149 	 -31.046 	 81.5402 	 
H 	 0.246323 	 -30.2762 	 80.1595 	 
C 	 -0.980832 	 -31.3105 	 81.7154 	 
H 	 -0.915166 	 -32.2837 	 81.204 	 
H 	 -0.900907 	 -31.5937 	 82.752 	 
C 	 -2.36712 	 -30.6629 	 81.5191 	 
H 	 -2.771 	 -30.3221 	 82.4445 	 
H 	 -2.32998 	 -29.8217 	 80.8013 	 
H 	 -3.13294 	 -31.3619 	 81.0159 	 
S 	 2.29413 	 -25.6405 	 85.0579 	 
C 	 2.95872 	 -26.0697 	 86.6637 	 
C 	 2.1334 	 -27.014 	 87.255 	 
C 	 1.24426 	 -27.665 	 86.311 	 
C 	 1.32707 	 -27.1385 	 85.0569 	 
H 	 2.13401 	 -27.205 	 88.3023 	 
C 	 0.506096 	 -28.8962 	 86.6528 	 
H 	 0.714874 	 -29.3543 	 87.631 	 
H 	 0.758684 	 -29.6791 	 85.916 	 
C 	 -0.967598 	 -28.8224 	 86.5925 	 
H 	 -1.53107 	 -29.7684 	 86.8088 	 
H 	 -1.16043 	 -28.5694 	 85.5432 	 
C 	 -1.6451 	 -27.769 	 87.3988 	 
H 	 -2.69967 	 -27.8223 	 87.5521 	 
H 	 -1.36184 	 -26.8317 	 86.9222 	 
H 	 -1.18724 	 -27.7736 	 88.3258 	 
H 	 -0.915269 	 -27.839 	 80.6348 	 
H 	 3.64391 	 -25.4814 	 87.1857 	 
*
