! wB97X-D3 SP def2-SVP
%pal
nprocs 16
end

* xyz 0 1
S 	 -44.0607 	 31.3123 	 74.9385 	 
C 	 -43.158 	 31.763 	 73.5457 	 
C 	 -42.0724 	 32.5119 	 73.8496 	 
C 	 -41.8917 	 32.5258 	 75.2458 	 
C 	 -42.8165 	 32.0055 	 76.0194 	 
H 	 -41.0233 	 32.8383 	 75.7719 	 
C 	 -41.1029 	 33.1278 	 72.8679 	 
H 	 -40.6292 	 32.4191 	 72.2846 	 
H 	 -40.2321 	 33.6245 	 73.3919 	 
C 	 -41.7516 	 34.1028 	 71.9301 	 
H 	 -41.1065 	 34.3113 	 71.0987 	 
H 	 -42.6363 	 33.5926 	 71.5426 	 
C 	 -42.0427 	 35.4011 	 72.5755 	 
H 	 -41.0491 	 35.7632 	 72.9301 	 
H 	 -42.4104 	 36.0901 	 71.8144 	 
H 	 -42.7589 	 35.3626 	 73.3918 	 
S 	 -41.2432 	 31.9901 	 78.1575 	 
C 	 -41.9081 	 31.7046 	 79.7575 	 
C 	 -43.2899 	 31.5482 	 79.7397 	 
C 	 -43.8038 	 31.5493 	 78.3822 	 
C 	 -42.7911 	 31.8317 	 77.4425 	 
H 	 -43.855 	 31.3613 	 80.6802 	 
C 	 -45.2863 	 31.3961 	 78.1233 	 
H 	 -45.5015 	 32.0107 	 77.1984 	 
H 	 -45.7739 	 31.9342 	 78.9406 	 
C 	 -45.7981 	 29.9587 	 77.803 	 
H 	 -45.8833 	 29.3354 	 78.6891 	 
H 	 -45.0004 	 29.5475 	 77.1806 	 
C 	 -47.1375 	 29.8662 	 77.0493 	 
H 	 -47.11 	 30.2738 	 76.0598 	 
H 	 -47.8823 	 30.3991 	 77.67 	 
H 	 -47.4291 	 28.7794 	 77.0006 	 
H 	 -43.3953 	 31.4572 	 72.5154 	 
H 	 -41.3078 	 31.7006 	 80.664 	 
*
