! wB97X-D3 SP def2-SVP
%pal
nprocs 16
end

* xyz 0 1
S 	 43.7562 	 14.1634 	 88.5598 	 
C 	 44.7273 	 12.9216 	 87.7701 	 
C 	 44.2353 	 12.5604 	 86.5198 	 
C 	 43.0657 	 13.3131 	 86.226 	 
C 	 42.6073 	 14.079 	 87.2541 	 
H 	 42.3932 	 13.228 	 85.3221 	 
C 	 44.7904 	 11.4948 	 85.6112 	 
H 	 45.4402 	 10.9581 	 86.2099 	 
H 	 45.4377 	 12.1196 	 85.0851 	 
C 	 43.9265 	 10.6584 	 84.6122 	 
H 	 43.1891 	 11.3122 	 84.1119 	 
H 	 44.6078 	 10.2962 	 83.869 	 
C 	 43.1676 	 9.36786 	 85.1581 	 
H 	 42.3487 	 9.70968 	 85.8079 	 
H 	 42.7034 	 8.90732 	 84.2918 	 
H 	 43.8933 	 8.74563 	 85.6781 	 
S 	 41.6298 	 16.577 	 87.6077 	 
C 	 39.967 	 16.9493 	 87.1125 	 
C 	 39.2794 	 15.7879 	 86.9116 	 
C 	 40.1025 	 14.6055 	 86.9433 	 
C 	 41.3649 	 14.8662 	 87.3157 	 
H 	 38.1741 	 15.885 	 86.585 	 
C 	 39.6166 	 13.2274 	 86.559 	 
H 	 40.4079 	 12.5976 	 86.5037 	 
H 	 39.1102 	 13.32 	 85.6592 	 
C 	 38.736 	 12.6124 	 87.6566 	 
H 	 37.7782 	 13.0915 	 87.7161 	 
H 	 39.0612 	 12.8427 	 88.6596 	 
C 	 38.6336 	 11.0959 	 87.5053 	 
H 	 38.1376 	 10.7453 	 88.3684 	 
H 	 39.5728 	 10.5881 	 87.4713 	 
H 	 37.9673 	 10.795 	 86.6793 	 
H 	 45.6811 	 12.511 	 88.0703 	 
H 	 39.5995 	 17.9895 	 87.2553 	 
*
