! wB97X-D3 SP def2-SVP
%pal
nprocs 16
end

* xyz 0 1
S 	 -22.4588 	 34.7148 	 38.5282 	 
C 	 -20.7894 	 34.0798 	 38.6062 	 
C 	 -20.8236 	 32.8158 	 39.2273 	 
C 	 -22.0716 	 32.5158 	 39.7706 	 
C 	 -23.0852 	 33.4817 	 39.668 	 
H 	 -22.2142 	 31.6359 	 40.2574 	 
C 	 -19.6109 	 31.869 	 39.2182 	 
H 	 -18.8144 	 32.4172 	 38.6905 	 
H 	 -19.9137 	 30.964 	 38.6112 	 
C 	 -19.2576 	 31.4883 	 40.6773 	 
H 	 -19.0031 	 32.3956 	 41.2878 	 
H 	 -20.0953 	 31.1321 	 41.325 	 
C 	 -18.1326 	 30.4411 	 40.7719 	 
H 	 -17.1691 	 30.5866 	 40.2324 	 
H 	 -17.785 	 30.1533 	 41.742 	 
H 	 -18.6018 	 29.5279 	 40.4676 	 
S 	 -25.7344 	 33.9905 	 39.1268 	 
C 	 -26.9673 	 33.737 	 40.3932 	 
C 	 -26.4633 	 32.9887 	 41.4636 	 
C 	 -25.0313 	 32.8284 	 41.3873 	 
C 	 -24.4732 	 33.3129 	 40.1815 	 
H 	 -27.1742 	 32.6809 	 42.2563 	 
C 	 -24.2763 	 32.1789 	 42.5456 	 
H 	 -23.4598 	 31.6176 	 42.0389 	 
H 	 -24.7884 	 31.3265 	 43.0306 	 
C 	 -23.7929 	 33.0691 	 43.711 	 
H 	 -24.6236 	 33.499 	 44.1663 	 
H 	 -23.2094 	 33.9355 	 43.3529 	 
C 	 -22.9673 	 32.277 	 44.73 	 
H 	 -21.9426 	 32.1442 	 44.3534 	 
H 	 -23.4662 	 31.2995 	 45.015 	 
H 	 -22.8227 	 32.9798 	 45.5684 	 
H 	 -20.0169 	 34.3999 	 37.929 	 
H 	 -28.0241 	 33.9842 	 40.2617 	 
*
