! wB97X-D3 SP def2-SVP
%pal
nprocs 16
end

* xyz 0 1
S 	 -37.2679 	 30.2071 	 81.5317 	 
C 	 -36.6785 	 30.6073 	 79.9217 	 
C 	 -36.8714 	 31.993 	 79.762 	 
C 	 -37.65 	 32.5342 	 80.7677 	 
C 	 -37.8934 	 31.7245 	 81.8537 	 
H 	 -37.9479 	 33.561 	 80.7823 	 
C 	 -36.4973 	 32.7625 	 78.509 	 
H 	 -37.3756 	 33.2199 	 78.0851 	 
H 	 -36.0764 	 32.0636 	 77.7892 	 
C 	 -35.4463 	 33.8945 	 78.7758 	 
H 	 -35.9493 	 34.637 	 79.4024 	 
H 	 -34.6597 	 33.3746 	 79.3583 	 
C 	 -34.8921 	 34.5902 	 77.5243 	 
H 	 -35.5121 	 35.0856 	 76.7941 	 
H 	 -34.258 	 35.4429 	 77.8332 	 
H 	 -34.303 	 33.8129 	 77.0437 	 
S 	 -38.1879 	 31.7287 	 84.7098 	 
C 	 -39.6377 	 32.524 	 85.2372 	 
C 	 -40.5692 	 32.7532 	 84.2252 	 
C 	 -40.0186 	 32.4966 	 82.9466 	 
C 	 -38.732 	 32.0186 	 82.9956 	 
H 	 -41.5592 	 33.0727 	 84.4802 	 
C 	 -40.7402 	 32.9164 	 81.6677 	 
H 	 -41.7523 	 32.6514 	 81.704 	 
H 	 -40.3411 	 32.487 	 80.778 	 
C 	 -40.8044 	 34.4311 	 81.4178 	 
H 	 -39.8784 	 34.9304 	 81.7335 	 
H 	 -41.5005 	 34.8074 	 82.1633 	 
C 	 -41.2163 	 34.9691 	 79.9995 	 
H 	 -41.2205 	 36.0736 	 79.9287 	 
H 	 -42.1478 	 34.5585 	 79.5857 	 
H 	 -40.4956 	 34.6736 	 79.2444 	 
H 	 -36.0202 	 29.9648 	 79.2723 	 
H 	 -39.91 	 32.6978 	 86.259 	 
*
