! wB97X-D3 SP def2-SVP
%pal
nprocs 16
end

* xyz 0 1
S 	 -60.1018 	 50.6372 	 135.926 	 
C 	 -58.6132 	 49.6544 	 135.472 	 
C 	 -58.3309 	 48.8545 	 136.546 	 
C 	 -59.3482 	 48.7956 	 137.571 	 
C 	 -60.4519 	 49.5825 	 137.283 	 
H 	 -59.3862 	 48.3038 	 138.516 	 
C 	 -57.0429 	 48.0808 	 136.659 	 
H 	 -56.4451 	 48.0147 	 135.714 	 
H 	 -57.2294 	 47.0838 	 137.016 	 
C 	 -56.0209 	 48.6904 	 137.625 	 
H 	 -56.6431 	 48.7662 	 138.549 	 
H 	 -55.1039 	 48.1378 	 137.777 	 
C 	 -55.7102 	 50.1286 	 137.34 	 
H 	 -55.1067 	 50.5833 	 138.15 	 
H 	 -55.047 	 50.0864 	 136.462 	 
H 	 -56.5133 	 50.7266 	 136.983 	 
S 	 -62.3701 	 48.3214 	 138.811 	 
C 	 -63.3482 	 49.1563 	 139.96 	 
C 	 -63.0171 	 50.4751 	 139.943 	 
C 	 -62.0942 	 50.8008 	 138.902 	 
C 	 -61.5247 	 49.7366 	 138.252 	 
H 	 -63.4775 	 51.1473 	 140.632 	 
C 	 -61.5958 	 52.2809 	 138.822 	 
H 	 -60.5639 	 52.3133 	 138.447 	 
H 	 -61.4665 	 52.6164 	 139.783 	 
C 	 -62.4827 	 53.2893 	 138.023 	 
H 	 -63.3573 	 53.5913 	 138.625 	 
H 	 -62.9278 	 52.7275 	 137.188 	 
C 	 -61.7345 	 54.4884 	 137.454 	 
H 	 -60.8987 	 54.1033 	 136.853 	 
H 	 -61.2865 	 55.1672 	 138.194 	 
H 	 -62.422 	 55.1005 	 136.848 	 
H 	 -57.9314 	 49.8387 	 134.634 	 
H 	 -64.0197 	 48.6647 	 140.614 	 
*
