! wB97X-D3 SP def2-SVP
%pal
nprocs 16
end

* xyz 0 1
S 	 -13.0776 	 38.1093 	 35.7256 	 
C 	 -14.7586 	 37.9994 	 36.1994 	 
C 	 -15.5814 	 38.6328 	 35.3244 	 
C 	 -14.8649 	 39.2585 	 34.2995 	 
C 	 -13.4938 	 39.15 	 34.4062 	 
H 	 -15.3439 	 39.773 	 33.4945 	 
C 	 -17.1034 	 38.5732 	 35.5285 	 
H 	 -17.2741 	 39.194 	 36.4186 	 
H 	 -17.4201 	 37.5549 	 35.8532 	 
C 	 -18.0768 	 39.086 	 34.4176 	 
H 	 -19.0855 	 39.0604 	 34.8188 	 
H 	 -17.8612 	 40.1155 	 33.9759 	 
C 	 -17.8716 	 38.2956 	 33.0937 	 
H 	 -18.2114 	 38.6005 	 32.1423 	 
H 	 -16.7731 	 38.0455 	 32.8963 	 
H 	 -18.4063 	 37.4114 	 33.2948 	 
S 	 -11.2759 	 38.2746 	 32.8917 	 
C 	 -10.6876 	 39.3411 	 31.5917 	 
C 	 -11.3691 	 40.5522 	 31.6027 	 
C 	 -12.3396 	 40.7093 	 32.6524 	 
C 	 -12.4303 	 39.5671 	 33.4583 	 
H 	 -11.1349 	 41.307 	 30.8333 	 
C 	 -13.2232 	 41.9318 	 32.8103 	 
H 	 -12.55 	 42.802 	 32.8337 	 
H 	 -13.6246 	 41.9242 	 33.8281 	 
C 	 -14.3997 	 42.3041 	 31.8904 	 
H 	 -14.9544 	 43.2141 	 32.221 	 
H 	 -15.0931 	 41.4594 	 31.8851 	 
C 	 -13.8426 	 42.6045 	 30.5259 	 
H 	 -14.6932 	 42.7653 	 29.8923 	 
H 	 -13.2461 	 41.8135 	 30.1156 	 
H 	 -13.3049 	 43.5007 	 30.6464 	 
H 	 -15.0834 	 37.3479 	 36.9104 	 
H 	 -9.95151 	 39.0843 	 30.8957 	 
*
