! wB97X-D3 SP def2-SVP
%pal
nprocs 16
end

* xyz 0 1
S 	 -22.2779 	 50.9337 	 65.0113 	 
C 	 -22.7065 	 49.3503 	 64.4293 	 
C 	 -22.8301 	 48.3692 	 65.4195 	 
C 	 -22.556 	 48.9852 	 66.7192 	 
C 	 -22.2157 	 50.311 	 66.6934 	 
H 	 -22.6148 	 48.4757 	 67.6124 	 
C 	 -23.1848 	 46.9141 	 65.1492 	 
H 	 -22.4869 	 46.3485 	 65.8316 	 
H 	 -22.868 	 46.6308 	 64.1038 	 
C 	 -24.64 	 46.5055 	 65.505 	 
H 	 -24.8247 	 45.4 	 65.2629 	 
H 	 -24.711 	 46.6607 	 66.5726 	 
C 	 -25.7121 	 47.2715 	 64.7931 	 
H 	 -25.6408 	 48.3353 	 64.9791 	 
H 	 -25.6657 	 47.146 	 63.7325 	 
H 	 -26.6993 	 47.076 	 65.1823 	 
S 	 -23.1369 	 52.7278 	 67.7886 	 
C 	 -22.788 	 53.0879 	 69.3978 	 
C 	 -21.8904 	 52.1675 	 70.0103 	 
C 	 -21.5209 	 51.116 	 69.1036 	 
C 	 -22.1081 	 51.2403 	 67.7924 	 
H 	 -21.5251 	 52.3084 	 71.035 	 
C 	 -20.4214 	 50.0808 	 69.4667 	 
H 	 -19.6941 	 50.6161 	 70.1488 	 
H 	 -19.949 	 49.808 	 68.6143 	 
C 	 -20.9942 	 48.7845 	 70.1049 	 
H 	 -21.5928 	 48.2557 	 69.4134 	 
H 	 -21.588 	 49.0748 	 70.9255 	 
C 	 -19.924 	 47.7864 	 70.6701 	 
H 	 -19.3704 	 47.4021 	 69.8078 	 
H 	 -20.3186 	 46.9418 	 71.1725 	 
H 	 -19.181 	 48.2518 	 71.2622 	 
H 	 -22.8692 	 49.1438 	 63.3881 	 
H 	 -23.1169 	 53.9438 	 69.9326 	 
*
