! wB97X-D3 SP def2-SVP
%pal
nprocs 16
end

* xyz 0 1
S 	 -0.874817 	 -17.0489 	 82.112 	 
C 	 -2.18251 	 -17.8376 	 81.3632 	 
C 	 -1.89558 	 -19.1972 	 81.1777 	 
C 	 -0.601412 	 -19.5613 	 81.6952 	 
C 	 0.0513913 	 -18.5438 	 82.2931 	 
H 	 -0.173217 	 -20.5174 	 81.6181 	 
C 	 -2.82202 	 -20.1189 	 80.4553 	 
H 	 -2.28073 	 -20.5691 	 79.59 	 
H 	 -3.73165 	 -19.6309 	 80.0803 	 
C 	 -3.38866 	 -21.2701 	 81.3156 	 
H 	 -2.48682 	 -21.9149 	 81.5253 	 
H 	 -3.64433 	 -20.9586 	 82.3752 	 
C 	 -4.37134 	 -22.1464 	 80.5499 	 
H 	 -5.30371 	 -21.5899 	 80.3172 	 
H 	 -3.8654 	 -22.6076 	 79.5885 	 
H 	 -4.73222 	 -23.0188 	 81.1154 	 
S 	 2.31477 	 -17.0178 	 82.216 	 
C 	 3.83743 	 -17.661 	 82.833 	 
C 	 3.66819 	 -18.9041 	 83.2958 	 
C 	 2.32818 	 -19.4304 	 83.1714 	 
C 	 1.43927 	 -18.4876 	 82.6647 	 
H 	 4.53727 	 -19.4238 	 83.7025 	 
C 	 1.98535 	 -20.931 	 83.4844 	 
H 	 0.887642 	 -21.0569 	 83.5389 	 
H 	 2.53565 	 -21.1459 	 84.4258 	 
C 	 2.46358 	 -21.8133 	 82.256 	 
H 	 3.44229 	 -21.6571 	 82.0061 	 
H 	 2.00241 	 -21.3861 	 81.3612 	 
C 	 2.2132 	 -23.3352 	 82.3955 	 
H 	 2.72908 	 -23.7578 	 83.2308 	 
H 	 2.68926 	 -23.7649 	 81.5657 	 
H 	 1.18273 	 -23.6027 	 82.2772 	 
H 	 -3.00447 	 -17.315 	 80.8805 	 
H 	 4.73981 	 -17.1064 	 82.9954 	 
*
