! wB97X-D3 SP def2-SVP
%pal
nprocs 16
end

* xyz 0 1
S 	 -14.5958 	 69.6602 	 49.8942 	 
C 	 -15.4097 	 68.3521 	 49.0066 	 
C 	 -15.9701 	 68.7683 	 47.7899 	 
C 	 -15.782 	 70.1994 	 47.6462 	 
C 	 -15.1475 	 70.8259 	 48.6703 	 
H 	 -16.036 	 70.8641 	 46.8239 	 
C 	 -16.6109 	 67.8448 	 46.7135 	 
H 	 -17.3513 	 68.3691 	 46.165 	 
H 	 -17.1394 	 67.0521 	 47.1673 	 
C 	 -15.613 	 67.3687 	 45.6696 	 
H 	 -15.1145 	 68.1677 	 45.1472 	 
H 	 -14.8461 	 66.8784 	 46.2921 	 
C 	 -16.1025 	 66.3891 	 44.6204 	 
H 	 -15.3225 	 65.7967 	 44.1891 	 
H 	 -16.8598 	 65.694 	 45.0196 	 
H 	 -16.6302 	 66.9371 	 43.8685 	 
S 	 -15.8408 	 73.2386 	 49.8875 	 
C 	 -15.179 	 74.732 	 49.2869 	 
C 	 -14.2546 	 74.52 	 48.2691 	 
C 	 -14.0924 	 73.163 	 47.9447 	 
C 	 -14.8081 	 72.2895 	 48.7641 	 
H 	 -13.731 	 75.3686 	 47.923 	 
C 	 -13.2028 	 72.7119 	 46.7906 	 
H 	 -13.7781 	 72.3609 	 45.9542 	 
H 	 -12.5369 	 71.9379 	 47.2069 	 
C 	 -12.2068 	 73.6753 	 46.0937 	 
H 	 -11.635 	 74.2453 	 46.8555 	 
H 	 -12.8276 	 74.2812 	 45.5029 	 
C 	 -11.1348 	 72.9658 	 45.1582 	 
H 	 -11.6672 	 72.2914 	 44.4552 	 
H 	 -10.3888 	 72.3342 	 45.6287 	 
H 	 -10.645 	 73.8195 	 44.7239 	 
H 	 -15.2044 	 67.2977 	 49.1073 	 
H 	 -15.3564 	 75.704 	 49.8245 	 
*
