! wB97X-D3 SP def2-SVP
%pal
nprocs 16
end

* xyz 0 1
S 	 42.1173 	 21.4025 	 86.0005 	 
C 	 41.1023 	 21.3675 	 87.4289 	 
C 	 40.5594 	 22.6423 	 87.6785 	 
C 	 40.9188 	 23.6118 	 86.6793 	 
C 	 41.707 	 23.1009 	 85.6696 	 
H 	 40.8212 	 24.7139 	 86.5962 	 
C 	 39.6949 	 23.0171 	 88.8904 	 
H 	 39.9422 	 24.0774 	 89.111 	 
H 	 39.9681 	 22.2869 	 89.6346 	 
C 	 38.2033 	 22.8299 	 88.6878 	 
H 	 37.9082 	 23.6052 	 87.9937 	 
H 	 37.9487 	 21.8262 	 88.299 	 
C 	 37.5336 	 22.9352 	 90.0174 	 
H 	 37.8181 	 23.8773 	 90.5411 	 
H 	 36.4917 	 23.0095 	 90.0063 	 
H 	 37.8628 	 22.1645 	 90.7048 	 
S 	 44.1655 	 23.9785 	 84.5335 	 
C 	 44.0397 	 25.0336 	 83.1421 	 
C 	 42.7395 	 25.3619 	 82.8286 	 
C 	 41.7957 	 24.8344 	 83.7832 	 
C 	 42.3663 	 23.9479 	 84.7199 	 
H 	 42.514 	 25.9926 	 81.937 	 
C 	 40.2686 	 25.0896 	 83.5804 	 
H 	 39.8871 	 25.8222 	 84.279 	 
H 	 39.6939 	 24.1634 	 83.8842 	 
C 	 39.7313 	 25.4568 	 82.1751 	 
H 	 39.9981 	 24.759 	 81.4426 	 
H 	 40.0228 	 26.4735 	 82.0296 	 
C 	 38.2282 	 25.7196 	 82.2292 	 
H 	 37.8888 	 26.0301 	 81.234 	 
H 	 37.895 	 26.5805 	 82.8088 	 
H 	 37.8035 	 24.7696 	 82.6322 	 
H 	 41.1017 	 20.5743 	 88.1702 	 
H 	 44.9402 	 25.4017 	 82.5631 	 
*
