! wB97X-D3 SP def2-SVP
%pal
nprocs 16
end

* xyz 0 1
S 	 -58.8724 	 17.9662 	 84.9927 	 
C 	 -57.1193 	 17.8677 	 84.9358 	 
C 	 -56.5202 	 18.4685 	 85.9961 	 
C 	 -57.5105 	 19.049 	 86.847 	 
C 	 -58.8112 	 18.8875 	 86.4081 	 
H 	 -57.4025 	 19.6353 	 87.709 	 
C 	 -55.073 	 18.5417 	 86.2347 	 
H 	 -54.7058 	 17.7298 	 86.856 	 
H 	 -54.9566 	 19.4276 	 86.8861 	 
C 	 -54.0987 	 18.5827 	 85.0605 	 
H 	 -53.0683 	 18.7015 	 85.3922 	 
H 	 -54.0981 	 17.5656 	 84.6143 	 
C 	 -54.4067 	 19.6568 	 84.0273 	 
H 	 -54.6582 	 20.5285 	 84.492 	 
H 	 -53.5178 	 19.8074 	 83.3847 	 
H 	 -55.2445 	 19.4021 	 83.457 	 
S 	 -60.8069 	 20.4799 	 85.5636 	 
C 	 -62.1207 	 20.8212 	 86.6213 	 
C 	 -61.933 	 20.2749 	 87.8722 	 
C 	 -60.6557 	 19.5843 	 88.0799 	 
C 	 -59.9498 	 19.5634 	 86.8941 	 
H 	 -62.6443 	 20.4533 	 88.6667 	 
C 	 -60.3097 	 18.8564 	 89.3269 	 
H 	 -60.5153 	 19.496 	 90.21 	 
H 	 -59.1837 	 18.8842 	 89.4031 	 
C 	 -61.0135 	 17.4941 	 89.5503 	 
H 	 -60.8587 	 16.9397 	 88.659 	 
H 	 -62.0308 	 17.5715 	 89.7197 	 
C 	 -60.4337 	 16.649 	 90.7128 	 
H 	 -60.9169 	 15.6493 	 90.7582 	 
H 	 -60.5114 	 17.0544 	 91.7536 	 
H 	 -59.3542 	 16.5291 	 90.3623 	 
H 	 -56.4412 	 17.3739 	 84.1429 	 
H 	 -62.8719 	 21.5009 	 86.2836 	 
*
