! wB97X-D3 SP def2-SVP
%pal
nprocs 16
end

* xyz 0 1
S 	 45.7797 	 12.3084 	 49.0038 	 
C 	 44.1857 	 12.1845 	 48.2438 	 
C 	 43.1731 	 12.6198 	 49.1032 	 
C 	 43.7294 	 13.1062 	 50.3461 	 
C 	 45.1166 	 13.0969 	 50.4753 	 
H 	 43.1138 	 13.5163 	 51.1758 	 
C 	 41.6955 	 12.5802 	 48.8822 	 
H 	 41.4094 	 13.3991 	 48.2485 	 
H 	 41.1511 	 12.8112 	 49.7748 	 
C 	 41.0845 	 11.3618 	 48.2391 	 
H 	 41.5343 	 11.2655 	 47.2699 	 
H 	 41.44 	 10.4814 	 48.8095 	 
C 	 39.4958 	 11.2909 	 48.2369 	 
H 	 39.0864 	 10.3538 	 48.0648 	 
H 	 39.1124 	 11.6183 	 49.1771 	 
H 	 39.0898 	 12.0438 	 47.5944 	 
S 	 47.2631 	 14.3276 	 51.3177 	 
C 	 47.9221 	 14.0631 	 52.8307 	 
C 	 47.0531 	 13.4041 	 53.6676 	 
C 	 45.7863 	 13.0898 	 53.0303 	 
C 	 45.9024 	 13.3635 	 51.639 	 
H 	 47.3075 	 13.4 	 54.7098 	 
C 	 44.5919 	 12.5708 	 53.8478 	 
H 	 44.9416 	 11.8021 	 54.5734 	 
H 	 43.9157 	 12.028 	 53.2883 	 
C 	 43.8806 	 13.6252 	 54.7758 	 
H 	 44.6343 	 14.0609 	 55.4171 	 
H 	 43.1396 	 13.2472 	 55.4517 	 
C 	 43.1184 	 14.6212 	 53.9586 	 
H 	 43.6184 	 14.8411 	 52.9981 	 
H 	 42.9877 	 15.6258 	 54.3734 	 
H 	 42.0856 	 14.3341 	 53.6636 	 
H 	 43.916 	 11.7259 	 47.2463 	 
H 	 48.9004 	 14.4667 	 53.1286 	 
*
