! wB97X-D3 SP def2-SVP
%pal
nprocs 16
end

* xyz 0 1
S 	 4.73975 	 -12.0692 	 64.5258 	 
C 	 5.22664 	 -12.2432 	 66.1189 	 
C 	 5.53185 	 -11.0081 	 66.6393 	 
C 	 5.045 	 -9.91916 	 65.8536 	 
C 	 4.61404 	 -10.2996 	 64.5842 	 
H 	 5.06675 	 -8.89197 	 66.0629 	 
C 	 6.07877 	 -10.6639 	 68.0165 	 
H 	 6.77774 	 -9.82036 	 67.7266 	 
H 	 6.74648 	 -11.3865 	 68.3202 	 
C 	 5.06419 	 -10.246 	 69.1194 	 
H 	 4.61245 	 -9.27023 	 68.8336 	 
H 	 4.23874 	 -10.9519 	 69.1807 	 
C 	 5.78549 	 -10.0614 	 70.4864 	 
H 	 6.63069 	 -9.38078 	 70.4586 	 
H 	 5.06779 	 -9.75963 	 71.1791 	 
H 	 6.04462 	 -11.0467 	 70.917 	 
S 	 4.51226 	 -7.81271 	 63.1646 	 
C 	 3.35345 	 -7.60026 	 61.8766 	 
C 	 2.43558 	 -8.61129 	 61.965 	 
C 	 2.81359 	 -9.64103 	 62.8268 	 
C 	 3.9239 	 -9.47289 	 63.5922 	 
H 	 1.46367 	 -8.62239 	 61.4402 	 
C 	 1.82473 	 -10.8217 	 62.915 	 
H 	 0.804843 	 -10.4287 	 62.7789 	 
H 	 1.87282 	 -11.1993 	 63.9184 	 
C 	 2.12625 	 -11.8145 	 61.8317 	 
H 	 3.24915 	 -11.9148 	 61.786 	 
H 	 1.73856 	 -11.3441 	 60.844 	 
C 	 1.32884 	 -13.1335 	 62.0664 	 
H 	 1.81949 	 -13.7131 	 62.8545 	 
H 	 1.28543 	 -13.7505 	 61.1756 	 
H 	 0.33244 	 -12.8059 	 62.4726 	 
H 	 5.39696 	 -13.2066 	 66.5927 	 
H 	 3.22478 	 -6.68653 	 61.2597 	 
*
