! wB97X-D3 SP def2-SVP
%pal
nprocs 16
end

* xyz 0 1
S 	 -15.9221 	 -8.70346 	 82.9382 	 
C 	 -15.7744 	 -10.1825 	 81.9454 	 
C 	 -14.7374 	 -10.9661 	 82.4804 	 
C 	 -14.0241 	 -10.2681 	 83.5302 	 
C 	 -14.4364 	 -9.03212 	 83.8246 	 
H 	 -13.2652 	 -10.6508 	 84.0959 	 
C 	 -14.3962 	 -12.3533 	 81.9359 	 
H 	 -14.7955 	 -12.396 	 80.9154 	 
H 	 -14.8711 	 -13.0717 	 82.5732 	 
C 	 -12.8296 	 -12.5748 	 81.9641 	 
H 	 -12.3528 	 -11.6285 	 81.6521 	 
H 	 -12.6471 	 -12.7345 	 83.037 	 
C 	 -12.3029 	 -13.8484 	 81.173 	 
H 	 -12.9663 	 -14.7531 	 81.2377 	 
H 	 -12.1221 	 -13.6038 	 80.1193 	 
H 	 -11.3569 	 -14.0035 	 81.7193 	 
S 	 -14.9219 	 -7.84338 	 86.1528 	 
C 	 -13.7843 	 -6.80435 	 86.8217 	 
C 	 -12.5972 	 -6.62876 	 86.0824 	 
C 	 -12.7021 	 -7.42935 	 84.9029 	 
C 	 -13.8525 	 -8.14614 	 84.8794 	 
H 	 -11.8741 	 -5.91483 	 86.5053 	 
C 	 -11.6128 	 -7.50219 	 83.8187 	 
H 	 -11.301 	 -8.51856 	 83.6671 	 
H 	 -10.7938 	 -6.98508 	 84.1803 	 
C 	 -12.037 	 -6.89894 	 82.5081 	 
H 	 -12.2099 	 -5.84458 	 82.6967 	 
H 	 -13.0087 	 -7.23514 	 82.1622 	 
C 	 -10.9874 	 -7.07598 	 81.4145 	 
H 	 -10.0228 	 -6.60394 	 81.5952 	 
H 	 -11.3531 	 -6.6639 	 80.4333 	 
H 	 -10.8358 	 -8.09577 	 81.2594 	 
H 	 -16.4812 	 -10.5217 	 81.1949 	 
H 	 -13.8411 	 -6.25881 	 87.7644 	 
*
