! wB97X-D3 SP def2-SVP
%pal
nprocs 16
end

* xyz 0 1
S 	 -94.4934 	 58.9388 	 124.364 	 
C 	 -93.445 	 57.5898 	 123.922 	 
C 	 -93.2386 	 56.7505 	 125.048 	 
C 	 -93.8653 	 57.2547 	 126.249 	 
C 	 -94.5245 	 58.4935 	 126.1 	 
H 	 -93.9292 	 56.8175 	 127.217 	 
C 	 -92.4954 	 55.4525 	 125.099 	 
H 	 -91.5382 	 55.7914 	 125.541 	 
H 	 -92.3327 	 55.2319 	 124.061 	 
C 	 -93.1655 	 54.2819 	 125.856 	 
H 	 -93.3883 	 54.4403 	 126.979 	 
H 	 -94.1911 	 54.2164 	 125.395 	 
C 	 -92.3778 	 53.0112 	 125.728 	 
H 	 -91.6578 	 52.9774 	 126.53 	 
H 	 -93.0791 	 52.221 	 125.864 	 
H 	 -91.8428 	 52.9267 	 124.807 	 
S 	 -96.835 	 59.9516 	 126.592 	 
C 	 -96.9542 	 60.8039 	 128.142 	 
C 	 -95.8096 	 60.7121 	 128.864 	 
C 	 -94.8145 	 59.7842 	 128.352 	 
C 	 -95.2358 	 59.241 	 127.122 	 
H 	 -95.7213 	 61.2556 	 129.768 	 
C 	 -93.5233 	 59.4885 	 129.054 	 
H 	 -93.4078 	 58.4801 	 129.015 	 
H 	 -93.4548 	 59.8174 	 130.091 	 
C 	 -92.3335 	 60.2083 	 128.323 	 
H 	 -92.4339 	 61.2707 	 128.509 	 
H 	 -92.5466 	 60.1624 	 127.236 	 
C 	 -90.952 	 59.5596 	 128.557 	 
H 	 -90.5071 	 60.1855 	 129.329 	 
H 	 -90.3281 	 59.6498 	 127.665 	 
H 	 -90.9688 	 58.4653 	 128.887 	 
H 	 -93.0825 	 57.3897 	 122.941 	 
H 	 -97.7493 	 61.4433 	 128.372 	 
*
