! wB97X-D3 SP def2-SVP
%pal
nprocs 16
end

* xyz 0 1
S 	 13.919 	 25.0144 	 65.0332 	 
C 	 14.7126 	 26.2318 	 64.0626 	 
C 	 15.4153 	 27.1596 	 64.8204 	 
C 	 15.4812 	 26.7483 	 66.1984 	 
C 	 14.7801 	 25.6149 	 66.5067 	 
H 	 16.0158 	 27.2532 	 66.9581 	 
C 	 16.0791 	 28.3829 	 64.2394 	 
H 	 15.2449 	 29.0645 	 63.9063 	 
H 	 16.542 	 28.0744 	 63.3287 	 
C 	 17.2293 	 29.1209 	 64.9619 	 
H 	 17.3304 	 30.0801 	 64.4296 	 
H 	 17.004 	 29.4068 	 66.0129 	 
C 	 18.5154 	 28.2743 	 65.0234 	 
H 	 18.7282 	 27.9579 	 63.9558 	 
H 	 19.1921 	 28.8293 	 65.5748 	 
H 	 18.4177 	 27.349 	 65.6621 	 
S 	 13.1458 	 24.4559 	 68.3678 	 
C 	 13.7343 	 24.2327 	 69.9649 	 
C 	 15.0777 	 24.3978 	 70.009 	 
C 	 15.6575 	 24.7933 	 68.7834 	 
C 	 14.7086 	 24.9474 	 67.8114 	 
H 	 15.595 	 24.2611 	 70.9569 	 
C 	 17.1357 	 25.0706 	 68.5844 	 
H 	 17.2915 	 25.4557 	 67.5829 	 
H 	 17.4712 	 24.0442 	 68.6106 	 
C 	 17.9059 	 25.6971 	 69.7155 	 
H 	 18.9298 	 25.9261 	 69.2809 	 
H 	 18.014 	 24.9862 	 70.5415 	 
C 	 17.2022 	 26.9731 	 70.1411 	 
H 	 16.3599 	 26.8888 	 70.7409 	 
H 	 16.833 	 27.5457 	 69.2672 	 
H 	 17.9624 	 27.5186 	 70.769 	 
H 	 14.4687 	 26.4222 	 63.03 	 
H 	 13.1683 	 23.939 	 70.8289 	 
*
