! wB97X-D3 SP def2-SVP
%pal
nprocs 16
end

* xyz 0 1
S 	 -59.956 	 18.9642 	 85.4524 	 
C 	 -60.0783 	 17.4353 	 86.2729 	 
C 	 -58.8756 	 16.8528 	 86.4104 	 
C 	 -57.822 	 17.6957 	 85.9503 	 
C 	 -58.2399 	 18.8742 	 85.3481 	 
H 	 -56.7672 	 17.5054 	 86.0212 	 
C 	 -58.654 	 15.5306 	 87.1273 	 
H 	 -58.5248 	 14.7514 	 86.3784 	 
H 	 -59.5956 	 15.2767 	 87.6093 	 
C 	 -57.5017 	 15.4577 	 88.1196 	 
H 	 -57.2565 	 14.4064 	 88.4045 	 
H 	 -56.5339 	 15.7145 	 87.6487 	 
C 	 -57.7498 	 16.235 	 89.4704 	 
H 	 -58.7728 	 16.0496 	 89.8661 	 
H 	 -57.1122 	 15.9015 	 90.2901 	 
H 	 -57.7374 	 17.3197 	 89.1771 	 
S 	 -58.0983 	 20.3066 	 82.9679 	 
C 	 -56.7756 	 21.4028 	 82.8089 	 
C 	 -55.961 	 21.5498 	 83.9137 	 
C 	 -56.4069 	 20.6867 	 84.9885 	 
C 	 -57.5079 	 19.8496 	 84.5504 	 
H 	 -55.1147 	 22.2294 	 83.8753 	 
C 	 -55.8047 	 20.7076 	 86.332 	 
H 	 -54.926 	 20.0326 	 86.3439 	 
H 	 -56.5655 	 20.2537 	 86.948 	 
C 	 -55.5198 	 22.1352 	 86.8652 	 
H 	 -56.4444 	 22.7074 	 86.9363 	 
H 	 -54.9378 	 22.5966 	 86.1074 	 
C 	 -54.7322 	 22.0742 	 88.2319 	 
H 	 -53.7318 	 21.5717 	 88.2165 	 
H 	 -55.3344 	 21.4655 	 88.9295 	 
H 	 -54.5521 	 23.0204 	 88.7556 	 
H 	 -60.9471 	 16.8908 	 86.5129 	 
H 	 -56.6291 	 22.1348 	 81.9457 	 
*
