! wB97X-D3 SP def2-SVP
%pal
nprocs 16
end

* xyz 0 1
S 	 16.346 	 0.0283417 	 66.3866 	 
C 	 14.8577 	 0.224162 	 65.4166 	 
C 	 15.066 	 1.18827 	 64.4636 	 
C 	 16.2711 	 1.91639 	 64.6335 	 
C 	 17.0195 	 1.44792 	 65.6865 	 
H 	 16.6542 	 2.75783 	 64.0722 	 
C 	 14.1195 	 1.36225 	 63.3573 	 
H 	 13.6485 	 0.43002 	 63.0481 	 
H 	 14.8679 	 1.51942 	 62.5857 	 
C 	 13.0711 	 2.492 	 63.3455 	 
H 	 12.367 	 2.44293 	 62.5024 	 
H 	 12.434 	 2.35005 	 64.152 	 
C 	 13.7308 	 3.93493 	 63.4682 	 
H 	 14.5986 	 4.08799 	 64.0887 	 
H 	 14.1985 	 4.23606 	 62.4815 	 
H 	 12.9752 	 4.75145 	 63.6725 	 
S 	 19.5628 	 0.573351 	 65.8182 	 
C 	 20.7069 	 1.801 	 66.2128 	 
C 	 20.1644 	 3.09186 	 66.353 	 
C 	 18.8066 	 3.07676 	 66.2916 	 
C 	 18.3685 	 1.79809 	 65.9799 	 
H 	 20.6698 	 3.97774 	 66.4111 	 
C 	 17.9881 	 4.31989 	 66.4945 	 
H 	 16.9413 	 4.23166 	 66.2892 	 
H 	 18.2898 	 5.09224 	 65.7823 	 
C 	 18.0469 	 4.8923 	 67.9187 	 
H 	 17.9346 	 4.21495 	 68.7 	 
H 	 17.2017 	 5.52738 	 68.0804 	 
C 	 19.1721 	 5.83697 	 68.2652 	 
H 	 18.9987 	 6.31685 	 69.3118 	 
H 	 19.1712 	 6.67584 	 67.5584 	 
H 	 20.0847 	 5.26882 	 68.121 	 
H 	 14.0031 	 -0.332834 	 65.4042 	 
H 	 21.7915 	 1.71517 	 66.1583 	 
*
