! wB97X-D3 SP def2-SVP
%pal
nprocs 16
end

* xyz 0 1
S 	 42.8333 	 12.8131 	 87.7169 	 
C 	 44.5599 	 13.1681 	 87.4881 	 
C 	 45.2287 	 12.0955 	 86.9142 	 
C 	 44.3798 	 10.9059 	 86.9178 	 
C 	 43.1573 	 11.0579 	 87.4401 	 
H 	 44.6634 	 9.89162 	 86.6006 	 
C 	 46.6598 	 12.2465 	 86.4994 	 
H 	 47.2548 	 11.3478 	 86.8432 	 
H 	 46.9459 	 13.1709 	 87.0363 	 
C 	 46.8601 	 12.4146 	 84.9508 	 
H 	 47.9365 	 12.4138 	 84.9306 	 
H 	 46.5723 	 11.6007 	 84.2777 	 
C 	 46.3797 	 13.6945 	 84.2767 	 
H 	 45.425 	 13.4329 	 83.7401 	 
H 	 46.3672 	 14.6145 	 84.864 	 
H 	 47.0738 	 13.8427 	 83.4348 	 
S 	 40.4851 	 10.446 	 87.1904 	 
C 	 39.945 	 8.88393 	 87.5603 	 
C 	 40.9313 	 8.16042 	 88.2066 	 
C 	 42.1999 	 8.74975 	 88.0941 	 
C 	 42.1715 	 10.0199 	 87.6012 	 
H 	 40.7205 	 7.22445 	 88.7783 	 
C 	 43.3596 	 8.11813 	 88.8209 	 
H 	 43.8726 	 8.94805 	 89.3248 	 
H 	 43.965 	 7.83991 	 88.0503 	 
C 	 43.1705 	 6.76133 	 89.6107 	 
H 	 42.589 	 6.14014 	 88.8946 	 
H 	 42.5794 	 7.06894 	 90.4441 	 
C 	 44.419 	 6.03888 	 89.9264 	 
H 	 45.0943 	 5.88309 	 89.16 	 
H 	 44.1474 	 5.02018 	 90.3273 	 
H 	 44.836 	 6.63154 	 90.7721 	 
H 	 45.0905 	 14.1447 	 87.6097 	 
H 	 38.9365 	 8.48904 	 87.5268 	 
*
