! wB97X-D3 SP def2-SVP
%pal
nprocs 16
end

* xyz 0 1
S 	 43.6719 	 11.5422 	 49.0776 	 
C 	 43.7127 	 10.187 	 50.1846 	 
C 	 44.2948 	 10.5377 	 51.3665 	 
C 	 44.5845 	 11.9496 	 51.3852 	 
C 	 44.2453 	 12.7073 	 50.2313 	 
H 	 45.0379 	 12.3873 	 52.2842 	 
C 	 44.5281 	 9.64093 	 52.6645 	 
H 	 45.4656 	 9.99519 	 53.1185 	 
H 	 44.6348 	 8.57863 	 52.3194 	 
C 	 43.4353 	 9.82563 	 53.8104 	 
H 	 43.3625 	 10.7416 	 54.2726 	 
H 	 42.3952 	 9.73432 	 53.3387 	 
C 	 43.4922 	 8.69439 	 54.8004 	 
H 	 44.3826 	 8.5707 	 55.4115 	 
H 	 42.6138 	 8.80384 	 55.4153 	 
H 	 43.2576 	 7.77035 	 54.3513 	 
S 	 45.3401 	 14.6768 	 48.7521 	 
C 	 44.9993 	 16.3705 	 49.1977 	 
C 	 44.1585 	 16.4465 	 50.2794 	 
C 	 43.807 	 15.1522 	 50.8383 	 
C 	 44.297 	 14.1223 	 50.0445 	 
H 	 43.8357 	 17.3293 	 50.6884 	 
C 	 42.7924 	 14.9862 	 51.9717 	 
H 	 43.017 	 15.8166 	 52.6382 	 
H 	 42.9919 	 14.2162 	 52.627 	 
C 	 41.383 	 14.953 	 51.676 	 
H 	 41.1003 	 15.9044 	 51.3119 	 
H 	 40.8232 	 14.8783 	 52.5914 	 
C 	 40.9007 	 13.9375 	 50.5649 	 
H 	 41.293 	 14.2661 	 49.6928 	 
H 	 39.8107 	 14.113 	 50.5404 	 
H 	 41.1305 	 12.8277 	 50.7289 	 
H 	 43.53 	 9.18026 	 49.9405 	 
H 	 45.2352 	 17.2551 	 48.615 	 
*
