! wB97X-D3 SP def2-SVP
%pal
nprocs 16
end

* xyz 0 1
S 	 -2.95787 	 27.2793 	 52.8855 	 
C 	 -2.03916 	 26.071 	 51.9585 	 
C 	 -1.07071 	 26.7125 	 51.2122 	 
C 	 -1.29707 	 28.1382 	 51.1487 	 
C 	 -2.38065 	 28.5515 	 51.8811 	 
H 	 -0.676465 	 28.8012 	 50.6332 	 
C 	 -0.0423638 	 25.9969 	 50.4745 	 
H 	 0.203244 	 26.6387 	 49.6193 	 
H 	 -0.480358 	 25.0241 	 50.205 	 
C 	 1.32526 	 25.7897 	 51.1187 	 
H 	 1.954 	 25.2838 	 50.4652 	 
H 	 1.7478 	 26.7584 	 51.3838 	 
C 	 1.34037 	 24.7736 	 52.2718 	 
H 	 0.801514 	 23.9045 	 52.0555 	 
H 	 2.30655 	 24.5217 	 52.5776 	 
H 	 0.921083 	 25.1165 	 53.2135 	 
S 	 -4.41223 	 30.2488 	 51.2282 	 
C 	 -4.47041 	 31.8801 	 51.9545 	 
C 	 -3.28703 	 32.1667 	 52.6385 	 
C 	 -2.32971 	 31.1051 	 52.596 	 
C 	 -2.85237 	 29.8981 	 51.9785 	 
H 	 -3.18748 	 33.0757 	 53.173 	 
C 	 -0.921982 	 31.2278 	 53.0793 	 
H 	 -0.568595 	 32.2635 	 52.8178 	 
H 	 -0.2976 	 30.6124 	 52.3953 	 
C 	 -0.663741 	 30.8535 	 54.5133 	 
H 	 -1.17064 	 31.5975 	 55.1858 	 
H 	 0.413904 	 30.897 	 54.7274 	 
C 	 -1.09769 	 29.4723 	 54.9977 	 
H 	 -2.1466 	 29.5468 	 55.3849 	 
H 	 -0.468847 	 29.2809 	 55.9501 	 
H 	 -0.828505 	 28.621 	 54.3726 	 
H 	 -1.90559 	 25.0227 	 52.1658 	 
H 	 -5.4016 	 32.4884 	 52.0156 	 
*
