! wB97X-D3 SP def2-SVP
%pal
nprocs 16
end

* xyz 0 1
S 	 -43.797 	 26.0909 	 84.2698 	 
C 	 -43.9948 	 24.3473 	 83.9734 	 
C 	 -44.6565 	 24.0677 	 82.7812 	 
C 	 -45.3096 	 25.3029 	 82.3036 	 
C 	 -44.944 	 26.4736 	 82.9884 	 
H 	 -45.9667 	 25.4505 	 81.4595 	 
C 	 -44.7623 	 22.739 	 81.9865 	 
H 	 -45.704 	 22.3201 	 82.2956 	 
H 	 -43.9476 	 22.1462 	 82.2711 	 
C 	 -44.5542 	 22.8127 	 80.4202 	 
H 	 -44.6273 	 21.7583 	 80.0482 	 
H 	 -45.3199 	 23.4115 	 80.0253 	 
C 	 -43.152 	 23.3366 	 80.0163 	 
H 	 -42.9062 	 24.3301 	 80.4042 	 
H 	 -42.3866 	 22.6677 	 80.4522 	 
H 	 -43.0054 	 23.3202 	 78.881 	 
S 	 -46.8217 	 28.1181 	 83.8474 	 
C 	 -46.9565 	 29.7125 	 83.2324 	 
C 	 -46.1179 	 29.9528 	 82.103 	 
C 	 -45.2807 	 28.8265 	 81.9005 	 
C 	 -45.5355 	 27.7617 	 82.7643 	 
H 	 -46.2194 	 30.8278 	 81.5545 	 
C 	 -44.2817 	 28.7377 	 80.743 	 
H 	 -43.2704 	 28.4193 	 81.1705 	 
H 	 -44.0357 	 29.7903 	 80.4799 	 
C 	 -44.6826 	 27.9716 	 79.4654 	 
H 	 -45.2694 	 27.0378 	 79.6835 	 
H 	 -43.7868 	 27.579 	 78.9816 	 
C 	 -45.3486 	 28.8973 	 78.4744 	 
H 	 -46.2533 	 29.2714 	 78.7957 	 
H 	 -45.5983 	 28.3987 	 77.5649 	 
H 	 -44.8092 	 29.7763 	 78.1677 	 
H 	 -43.5205 	 23.5346 	 84.5603 	 
H 	 -47.7255 	 30.4838 	 83.4926 	 
*
