! wB97X-D3 SP def2-SVP
%pal
nprocs 16
end

* xyz 0 1
S 	 -33.1834 	 57.3044 	 106.709 	 
C 	 -31.6849 	 56.4623 	 106.175 	 
C 	 -31.0324 	 55.8252 	 107.202 	 
C 	 -31.8874 	 55.8221 	 108.368 	 
C 	 -33.0545 	 56.4729 	 108.28 	 
H 	 -31.5701 	 55.4885 	 109.358 	 
C 	 -29.5712 	 55.4158 	 107.323 	 
H 	 -29.2996 	 55.3516 	 108.321 	 
H 	 -28.872 	 56.0949 	 106.78 	 
C 	 -29.3359 	 54.0523 	 106.667 	 
H 	 -30.0752 	 53.3318 	 107.099 	 
H 	 -29.6869 	 54.1762 	 105.663 	 
C 	 -27.9452 	 53.4328 	 106.722 	 
H 	 -27.7562 	 53.1699 	 107.792 	 
H 	 -27.8155 	 52.4747 	 106.114 	 
H 	 -27.1913 	 54.1097 	 106.483 	 
S 	 -34.5516 	 58.4445 	 109.587 	 
C 	 -35.1521 	 58.0591 	 111.135 	 
C 	 -34.8278 	 56.8114 	 111.566 	 
C 	 -34.2468 	 56.0583 	 110.523 	 
C 	 -33.9541 	 56.813 	 109.415 	 
H 	 -35.0601 	 56.4864 	 112.558 	 
C 	 -33.8437 	 54.6121 	 110.614 	 
H 	 -32.9241 	 54.6472 	 111.174 	 
H 	 -33.566 	 54.3559 	 109.576 	 
C 	 -34.9389 	 53.6321 	 111.084 	 
H 	 -35.6948 	 53.5897 	 110.297 	 
H 	 -35.3971 	 54.0883 	 112.033 	 
C 	 -34.2763 	 52.2486 	 111.311 	 
H 	 -33.6405 	 52.0291 	 110.466 	 
H 	 -34.9969 	 51.4325 	 111.462 	 
H 	 -33.6843 	 52.3357 	 112.233 	 
H 	 -31.171 	 56.6831 	 105.259 	 
H 	 -35.6018 	 58.709 	 111.889 	 
*
