! wB97X-D3 SP def2-SVP
%pal
nprocs 16
end

* xyz 0 1
S 	 -96.9094 	 44.1811 	 117.219 	 
C 	 -97.7872 	 45.425 	 118.07 	 
C 	 -97.174 	 45.7135 	 119.319 	 
C 	 -95.9527 	 45.0091 	 119.44 	 
C 	 -95.7024 	 44.0417 	 118.504 	 
H 	 -95.2516 	 45.0646 	 120.281 	 
C 	 -97.7918 	 46.5455 	 120.439 	 
H 	 -97.3327 	 46.412 	 121.391 	 
H 	 -98.8385 	 46.2011 	 120.441 	 
C 	 -97.8548 	 47.9747 	 120.122 	 
H 	 -96.9342 	 48.5369 	 119.925 	 
H 	 -98.3489 	 48.0429 	 119.124 	 
C 	 -98.8237 	 48.7555 	 120.998 	 
H 	 -99.8405 	 48.4513 	 120.842 	 
H 	 -98.5898 	 48.821 	 122.07 	 
H 	 -98.8234 	 49.7259 	 120.568 	 
S 	 -94.2286 	 41.6603 	 118.937 	 
C 	 -92.5467 	 41.582 	 118.762 	 
C 	 -92.1651 	 42.8327 	 118.338 	 
C 	 -93.1546 	 43.8461 	 118.252 	 
C 	 -94.4376 	 43.3127 	 118.437 	 
H 	 -91.1282 	 42.9522 	 118.074 	 
C 	 -92.8241 	 45.316 	 117.862 	 
H 	 -91.9551 	 45.6292 	 118.467 	 
H 	 -93.6556 	 45.9709 	 118.301 	 
C 	 -92.4469 	 45.7273 	 116.419 	 
H 	 -91.4053 	 45.4971 	 116.184 	 
H 	 -92.4254 	 46.7926 	 116.303 	 
C 	 -93.4902 	 45.2227 	 115.342 	 
H 	 -93.4423 	 45.8062 	 114.432 	 
H 	 -94.4846 	 45.39 	 115.802 	 
H 	 -93.4552 	 44.1655 	 115.036 	 
H 	 -98.8 	 45.936 	 117.787 	 
H 	 -91.7389 	 40.8177 	 118.784 	 
*
