! wB97X-D3 SP def2-SVP
%pal
nprocs 16
end

* xyz 0 1
S 	 -69.0031 	 39.8632 	 125.417 	 
C 	 -70.0286 	 41.2677 	 125.665 	 
C 	 -70.725 	 41.1598 	 126.81 	 
C 	 -70.2716 	 39.9995 	 127.548 	 
C 	 -69.268 	 39.2617 	 126.945 	 
H 	 -70.6137 	 39.7249 	 128.481 	 
C 	 -71.9611 	 41.9803 	 127.223 	 
H 	 -71.9289 	 42.2194 	 128.3 	 
H 	 -72.9075 	 41.4976 	 127.04 	 
C 	 -72.1248 	 43.3184 	 126.425 	 
H 	 -71.2265 	 43.8697 	 126.639 	 
H 	 -72.1548 	 43.0941 	 125.354 	 
C 	 -73.3784 	 44.0143 	 126.78 	 
H 	 -74.2781 	 43.415 	 126.495 	 
H 	 -73.4172 	 44.1652 	 127.923 	 
H 	 -73.4114 	 44.9703 	 126.353 	 
S 	 -69.4581 	 36.5731 	 126.871 	 
C 	 -68.5405 	 35.5908 	 127.985 	 
C 	 -67.8438 	 36.3646 	 128.875 	 
C 	 -67.9319 	 37.7558 	 128.607 	 
C 	 -68.7796 	 37.9949 	 127.493 	 
H 	 -67.3521 	 36.0015 	 129.792 	 
C 	 -67.2289 	 38.7873 	 129.466 	 
H 	 -67.4735 	 38.4022 	 130.462 	 
H 	 -67.7781 	 39.6626 	 129.175 	 
C 	 -65.7554 	 38.9565 	 129.168 	 
H 	 -65.4855 	 39.3835 	 128.183 	 
H 	 -65.3333 	 37.922 	 129.159 	 
C 	 -65.1296 	 39.8779 	 130.233 	 
H 	 -65.5871 	 40.8321 	 130.306 	 
H 	 -64.0488 	 40.14 	 130.061 	 
H 	 -65.1224 	 39.3786 	 131.22 	 
H 	 -70.119 	 42.1105 	 124.987 	 
H 	 -68.5416 	 34.5166 	 128.02 	 
*
