! wB97X-D3 SP def2-SVP
%pal
nprocs 16
end

* xyz 0 1
S 	 -37.483 	 31.8244 	 42.5951 	 
C 	 -38.7986 	 31.1777 	 43.5635 	 
C 	 -38.2365 	 30.092 	 44.2761 	 
C 	 -36.8319 	 29.9235 	 44.1882 	 
C 	 -36.2521 	 30.724 	 43.259 	 
H 	 -36.1602 	 29.2114 	 44.6154 	 
C 	 -38.9861 	 29.1579 	 45.1927 	 
H 	 -40.0373 	 29.3263 	 44.9964 	 
H 	 -38.7572 	 29.3042 	 46.2024 	 
C 	 -38.7463 	 27.6649 	 45.052 	 
H 	 -39.0941 	 27.2596 	 44.0643 	 
H 	 -37.6703 	 27.4951 	 44.9816 	 
C 	 -39.337 	 26.7913 	 46.2148 	 
H 	 -38.8004 	 26.9963 	 47.0889 	 
H 	 -40.3516 	 27.0672 	 46.3885 	 
H 	 -39.2021 	 25.7543 	 46.1035 	 
S 	 -34.2731 	 32.5359 	 43.2323 	 
C 	 -32.5853 	 32.1242 	 43.1858 	 
C 	 -32.4728 	 30.7533 	 43.0081 	 
C 	 -33.7739 	 30.042 	 43.0149 	 
C 	 -34.8711 	 30.911 	 43.0268 	 
H 	 -31.4771 	 30.2887 	 42.865 	 
C 	 -33.8581 	 28.5081 	 42.7127 	 
H 	 -33.8249 	 28.4412 	 41.5807 	 
H 	 -34.8377 	 28.2617 	 42.98 	 
C 	 -32.8218 	 27.6116 	 43.479 	 
H 	 -31.8396 	 27.8816 	 43.1295 	 
H 	 -32.8735 	 26.5206 	 43.2914 	 
C 	 -32.8234 	 27.8474 	 44.9457 	 
H 	 -32.3352 	 28.7971 	 45.1687 	 
H 	 -32.2401 	 27.0396 	 45.4985 	 
H 	 -33.8516 	 27.8717 	 45.4413 	 
H 	 -39.8808 	 31.4602 	 43.5061 	 
H 	 -31.7215 	 32.8325 	 43.122 	 
*
