! wB97X-D3 SP def2-SVP
%pal
nprocs 16
end

* xyz 0 1
S 	 -55.5972 	 37.9423 	 92.2657 	 
C 	 -57.2526 	 38.1072 	 92.6512 	 
C 	 -58.0329 	 37.7571 	 91.5417 	 
C 	 -57.267 	 37.4854 	 90.3628 	 
C 	 -55.8734 	 37.7064 	 90.5496 	 
H 	 -57.6376 	 37.2812 	 89.4148 	 
C 	 -59.5354 	 37.7733 	 91.5776 	 
H 	 -59.8744 	 37.7448 	 90.5609 	 
H 	 -59.7459 	 38.7277 	 92.0246 	 
C 	 -60.1793 	 36.5953 	 92.2925 	 
H 	 -59.6845 	 36.4305 	 93.2489 	 
H 	 -61.2464 	 36.7796 	 92.4992 	 
C 	 -60.1442 	 35.2886 	 91.5623 	 
H 	 -59.0876 	 34.9803 	 91.3117 	 
H 	 -60.509 	 34.482 	 92.2202 	 
H 	 -60.6852 	 35.1992 	 90.6396 	 
S 	 -53.1736 	 37.8735 	 90.3229 	 
C 	 -52.2376 	 37.4199 	 88.8857 	 
C 	 -53.2311 	 37.3065 	 87.8993 	 
C 	 -54.6176 	 37.3561 	 88.3019 	 
C 	 -54.7348 	 37.6235 	 89.6522 	 
H 	 -52.7874 	 37.2394 	 86.8546 	 
C 	 -55.7471 	 37.198 	 87.3136 	 
H 	 -55.3248 	 37.4475 	 86.3245 	 
H 	 -56.432 	 38.0353 	 87.6004 	 
C 	 -56.3926 	 35.793 	 87.3785 	 
H 	 -57.2992 	 35.6327 	 86.6387 	 
H 	 -56.7042 	 35.6936 	 88.3709 	 
C 	 -55.3035 	 34.6852 	 87.0876 	 
H 	 -54.6435 	 34.4867 	 87.9139 	 
H 	 -54.7101 	 34.9899 	 86.18 	 
H 	 -55.7294 	 33.7414 	 86.908 	 
H 	 -57.603 	 38.2893 	 93.6344 	 
H 	 -51.157 	 37.3287 	 88.9024 	 
*
