! wB97X-D3 SP def2-SVP
%pal
nprocs 16
end

* xyz 0 1
S 	 26.061 	 7.99729 	 76.795 	 
C 	 27.1939 	 8.59388 	 78.0254 	 
C 	 27.9671 	 7.64876 	 78.6136 	 
C 	 27.3636 	 6.36232 	 78.3458 	 
C 	 26.1526 	 6.45509 	 77.5943 	 
H 	 27.636 	 5.36254 	 78.729 	 
C 	 29.235 	 7.8732 	 79.4203 	 
H 	 28.7607 	 8.09227 	 80.381 	 
H 	 29.6925 	 8.78515 	 79.0662 	 
C 	 30.3761 	 6.82068 	 79.4187 	 
H 	 31.0108 	 7.08365 	 80.2223 	 
H 	 29.9613 	 5.84104 	 79.7117 	 
C 	 31.1957 	 6.73843 	 78.1724 	 
H 	 31.6364 	 5.77812 	 78.0569 	 
H 	 30.6674 	 7.03682 	 77.2264 	 
H 	 32.0049 	 7.42985 	 78.2862 	 
S 	 24.5482 	 5.16974 	 75.75 	 
C 	 23.4723 	 3.95275 	 76.3116 	 
C 	 23.7158 	 3.61701 	 77.6862 	 
C 	 24.667 	 4.47499 	 78.2988 	 
C 	 25.1869 	 5.4166 	 77.3642 	 
H 	 23.161 	 2.87201 	 78.1833 	 
C 	 24.9553 	 4.42379 	 79.7607 	 
H 	 24.073 	 4.03964 	 80.2698 	 
H 	 25.0592 	 5.48036 	 80.0188 	 
C 	 26.0751 	 3.4397 	 80.2111 	 
H 	 27.0039 	 3.60793 	 79.6474 	 
H 	 25.7598 	 2.43144 	 79.8924 	 
C 	 26.3065 	 3.32761 	 81.7364 	 
H 	 25.5561 	 2.73484 	 82.2201 	 
H 	 26.18 	 4.34544 	 82.19 	 
H 	 27.3169 	 2.85418 	 81.8841 	 
H 	 27.5795 	 9.58438 	 78.0639 	 
H 	 22.7756 	 3.53519 	 75.6721 	 
*
