! wB97X-D3 SP def2-SVP
%pal
nprocs 16
end

* xyz 0 1
S 	 -30.9033 	 62.4136 	 112.394 	 
C 	 -30.3805 	 60.7817 	 112.011 	 
C 	 -31.0661 	 59.86 	 112.813 	 
C 	 -31.7926 	 60.5417 	 113.885 	 
C 	 -31.7907 	 61.9031 	 113.866 	 
H 	 -32.2883 	 60.0425 	 114.652 	 
C 	 -30.9261 	 58.3165 	 112.922 	 
H 	 -30.8603 	 58.1968 	 113.977 	 
H 	 -29.9988 	 58.0648 	 112.426 	 
C 	 -32.1418 	 57.5119 	 112.388 	 
H 	 -33.0724 	 57.9394 	 112.809 	 
H 	 -32.3029 	 57.6985 	 111.313 	 
C 	 -32.0235 	 56.0103 	 112.652 	 
H 	 -32.884 	 55.4483 	 112.304 	 
H 	 -31.1404 	 55.549 	 112.229 	 
H 	 -31.9793 	 55.7586 	 113.795 	 
S 	 -34.0346 	 62.6261 	 115.287 	 
C 	 -33.9417 	 63.964 	 116.457 	 
C 	 -32.7058 	 64.5849 	 116.424 	 
C 	 -31.835 	 63.956 	 115.514 	 
C 	 -32.3663 	 62.8413 	 114.827 	 
H 	 -32.4871 	 65.3825 	 117.098 	 
C 	 -30.3926 	 64.5593 	 115.296 	 
H 	 -30.2301 	 65.5405 	 115.698 	 
H 	 -30.2266 	 64.5955 	 114.233 	 
C 	 -29.2954 	 63.6135 	 115.808 	 
H 	 -29.4728 	 62.6096 	 115.376 	 
H 	 -29.3227 	 63.5447 	 116.86 	 
C 	 -27.9772 	 64.0929 	 115.361 	 
H 	 -27.878 	 64.4347 	 114.36 	 
H 	 -27.1659 	 63.3929 	 115.611 	 
H 	 -27.6194 	 64.9731 	 115.938 	 
H 	 -29.6236 	 60.4216 	 111.268 	 
H 	 -34.7861 	 64.0726 	 117.159 	 
*
