! wB97X-D3 SP def2-SVP
%pal
nprocs 16
end

* xyz 0 1
S 	 56.9379 	 27.0927 	 39.6881 	 
C 	 58.0625 	 26.3677 	 40.8945 	 
C 	 57.3569 	 26.1055 	 42.0262 	 
C 	 55.9731 	 26.2756 	 41.8514 	 
C 	 55.5873 	 26.7412 	 40.6508 	 
H 	 55.235 	 26.1838 	 42.6637 	 
C 	 58.1352 	 25.8367 	 43.3452 	 
H 	 58.8668 	 25.0205 	 43.1281 	 
H 	 57.4911 	 25.4609 	 44.1097 	 
C 	 58.9875 	 26.9883 	 43.9127 	 
H 	 59.583 	 26.7297 	 44.7207 	 
H 	 59.6267 	 27.1481 	 43.0702 	 
C 	 58.1038 	 28.1987 	 44.3151 	 
H 	 57.6226 	 28.512 	 43.3661 	 
H 	 57.4238 	 27.963 	 45.1162 	 
H 	 58.7025 	 28.949 	 44.7367 	 
S 	 54.374 	 28.742 	 39.3489 	 
C 	 52.6322 	 28.8004 	 39.2292 	 
C 	 52.0463 	 27.7619 	 39.9128 	 
C 	 52.9651 	 26.8122 	 40.4322 	 
C 	 54.2747 	 27.2039 	 40.2389 	 
H 	 51.0331 	 27.6718 	 39.9681 	 
C 	 52.5922 	 25.662 	 41.2954 	 
H 	 52.4441 	 26.0112 	 42.3196 	 
H 	 53.444 	 25.0051 	 41.489 	 
C 	 51.4602 	 24.8575 	 40.7639 	 
H 	 51.5602 	 24.6535 	 39.7203 	 
H 	 50.5472 	 25.5007 	 40.6703 	 
C 	 51.1073 	 23.637 	 41.606 	 
H 	 51.8315 	 22.9711 	 41.8374 	 
H 	 50.3656 	 23.039 	 41.0812 	 
H 	 50.5684 	 23.8198 	 42.5577 	 
H 	 59.176 	 26.4084 	 40.8013 	 
H 	 52.085 	 29.6183 	 38.8156 	 
*
