! wB97X-D3 SP def2-SVP
%pal
nprocs 16
end

* xyz 0 1
S 	 40.0348 	 9.3787 	 83.247 	 
C 	 40.9549 	 8.14074 	 82.4514 	 
C 	 41.6494 	 7.33871 	 83.3726 	 
C 	 41.1451 	 7.57175 	 84.6911 	 
C 	 40.2149 	 8.56071 	 84.7032 	 
H 	 41.3802 	 7.01838 	 85.5748 	 
C 	 42.6168 	 6.25091 	 83.0253 	 
H 	 42.5462 	 6.0791 	 81.9019 	 
H 	 42.2182 	 5.4264 	 83.5261 	 
C 	 44.0682 	 6.54382 	 83.5276 	 
H 	 44.1142 	 6.70273 	 84.589 	 
H 	 44.7328 	 5.73913 	 83.3857 	 
C 	 44.6533 	 7.79006 	 82.8596 	 
H 	 44.7157 	 7.78787 	 81.7344 	 
H 	 44.1052 	 8.67785 	 83.1811 	 
H 	 45.6423 	 8.00066 	 83.2449 	 
S 	 37.7678 	 8.80603 	 85.739 	 
C 	 37.5201 	 9.50947 	 87.3647 	 
C 	 38.6503 	 9.2396 	 88.1001 	 
C 	 39.7972 	 8.92574 	 87.288 	 
C 	 39.4674 	 8.77796 	 85.9381 	 
H 	 38.6629 	 9.32696 	 89.1918 	 
C 	 41.1636 	 8.65256 	 87.9972 	 
H 	 41.5393 	 7.67047 	 87.821 	 
H 	 40.9552 	 8.63572 	 89.083 	 
C 	 42.205 	 9.69812 	 87.7422 	 
H 	 41.8892 	 10.7528 	 87.9891 	 
H 	 42.4108 	 9.73475 	 86.6938 	 
C 	 43.5308 	 9.473 	 88.5366 	 
H 	 43.97 	 8.5123 	 88.5866 	 
H 	 43.2946 	 9.56973 	 89.5531 	 
H 	 44.3479 	 10.2462 	 88.4097 	 
H 	 41.1795 	 8.17804 	 81.3606 	 
H 	 36.5661 	 9.75195 	 87.8611 	 
*
