! wB97X-D3 SP def2-SVP
%pal
nprocs 16
end

* xyz 0 1
S 	 -85.0408 	 54.6226 	 134.75 	 
C 	 -85.6533 	 53.4015 	 135.922 	 
C 	 -84.6982 	 53.1149 	 136.86 	 
C 	 -83.5374 	 53.933 	 136.714 	 
C 	 -83.5513 	 54.7213 	 135.553 	 
H 	 -82.6688 	 53.7945 	 137.359 	 
C 	 -84.7747 	 52.0077 	 137.914 	 
H 	 -84.819 	 51.1319 	 137.267 	 
H 	 -85.8212 	 52.0476 	 138.419 	 
C 	 -83.7605 	 52.0709 	 139.013 	 
H 	 -82.7422 	 52.1067 	 138.667 	 
H 	 -83.8662 	 53.026 	 139.494 	 
C 	 -83.8068 	 50.8073 	 139.887 	 
H 	 -83.6791 	 49.8139 	 139.378 	 
H 	 -82.9457 	 50.893 	 140.378 	 
H 	 -84.6779 	 50.9159 	 140.589 	 
S 	 -82.8632 	 56.9338 	 133.981 	 
C 	 -81.2524 	 57.1684 	 133.447 	 
C 	 -80.4086 	 56.1609 	 133.932 	 
C 	 -81.1295 	 55.2784 	 134.824 	 
C 	 -82.4705 	 55.5072 	 134.944 	 
H 	 -79.3961 	 56.114 	 133.584 	 
C 	 -80.2067 	 54.1616 	 135.437 	 
H 	 -79.8525 	 53.6105 	 134.542 	 
H 	 -80.841 	 53.5209 	 136.068 	 
C 	 -79.0817 	 54.7027 	 136.359 	 
H 	 -78.4075 	 55.2834 	 135.737 	 
H 	 -78.5503 	 53.8853 	 136.745 	 
C 	 -79.625 	 55.5569 	 137.473 	 
H 	 -78.8758 	 55.6637 	 138.264 	 
H 	 -80.5379 	 55.1744 	 137.917 	 
H 	 -79.85 	 56.5604 	 137.158 	 
H 	 -86.5026 	 52.8285 	 135.725 	 
H 	 -81.0581 	 57.9685 	 132.766 	 
*
