! wB97X-D3 SP def2-SVP
%pal
nprocs 16
end

* xyz 0 1
S 	 -38.1117 	 -1.48011 	 99.3472 	 
C 	 -36.54 	 -0.664838 	 99.2481 	 
C 	 -36.335 	 -0.361824 	 97.8978 	 
C 	 -37.3428 	 -0.819742 	 97.0123 	 
C 	 -38.3374 	 -1.51964 	 97.6029 	 
H 	 -37.349 	 -0.599012 	 95.9629 	 
C 	 -35.3096 	 0.653001 	 97.3373 	 
H 	 -35.385 	 1.66018 	 97.798 	 
H 	 -35.5312 	 0.723111 	 96.2696 	 
C 	 -33.8415 	 0.348822 	 97.4322 	 
H 	 -33.6362 	 0.19972 	 98.5234 	 
H 	 -33.6043 	 -0.63816 	 96.9476 	 
C 	 -32.8798 	 1.35161 	 96.8576 	 
H 	 -32.8333 	 2.18245 	 97.5388 	 
H 	 -31.907 	 0.934351 	 96.8099 	 
H 	 -33.1144 	 1.78354 	 95.8441 	 
S 	 -40.8899 	 -1.54722 	 97.3231 	 
C 	 -41.6847 	 -2.51634 	 96.0697 	 
C 	 -40.7717 	 -3.24365 	 95.3303 	 
C 	 -39.4681 	 -3.0305 	 95.8038 	 
C 	 -39.426 	 -2.20265 	 96.8968 	 
H 	 -41.1367 	 -3.94462 	 94.5407 	 
C 	 -38.2758 	 -3.64643 	 95.1479 	 
H 	 -37.411 	 -3.03695 	 95.2931 	 
H 	 -38.3508 	 -3.64499 	 94.0844 	 
C 	 -37.9489 	 -5.11369 	 95.561 	 
H 	 -37.4043 	 -5.60153 	 94.7088 	 
H 	 -38.8902 	 -5.62112 	 95.4567 	 
C 	 -37.3257 	 -5.22838 	 96.9955 	 
H 	 -36.9989 	 -6.25563 	 97.0882 	 
H 	 -38.03 	 -5.11027 	 97.8607 	 
H 	 -36.3752 	 -4.57693 	 97.0853 	 
H 	 -35.9869 	 -0.263905 	 100.055 	 
H 	 -42.7547 	 -2.67051 	 95.772 	 
*
