! wB97X-D3 SP def2-SVP
%pal
nprocs 16
end

* xyz 0 1
S 	 9.11539 	 22.4452 	 41.6656 	 
C 	 7.7384 	 23.5138 	 41.7451 	 
C 	 8.0585 	 24.87 	 41.8362 	 
C 	 9.45223 	 25.0588 	 41.9418 	 
C 	 10.1782 	 23.8483 	 41.9162 	 
H 	 10.0482 	 25.9665 	 41.9286 	 
C 	 7.20804 	 26.1128 	 41.7741 	 
H 	 6.53799 	 26.0922 	 40.8624 	 
H 	 7.74383 	 27.0114 	 41.5559 	 
C 	 6.38951 	 26.4048 	 43.0419 	 
H 	 5.76794 	 25.6188 	 43.3477 	 
H 	 7.09214 	 26.5565 	 43.8444 	 
C 	 5.52612 	 27.6487 	 42.8615 	 
H 	 4.63837 	 27.5583 	 42.1661 	 
H 	 5.26197 	 27.91 	 43.8755 	 
H 	 6.16117 	 28.3967 	 42.4044 	 
S 	 12.1922 	 24.5812 	 43.5936 	 
C 	 13.7539 	 23.8642 	 43.3555 	 
C 	 13.8268 	 23.077 	 42.2291 	 
C 	 12.6304 	 23.0222 	 41.5253 	 
C 	 11.612 	 23.7041 	 42.1254 	 
H 	 14.729 	 22.5915 	 41.9754 	 
C 	 12.6937 	 22.2853 	 40.2147 	 
H 	 13.7147 	 22.4432 	 39.8201 	 
H 	 11.914 	 22.6249 	 39.5101 	 
C 	 12.4266 	 20.7845 	 40.3638 	 
H 	 11.5008 	 20.6648 	 40.8615 	 
H 	 13.1567 	 20.243 	 41.0742 	 
C 	 12.438 	 19.8425 	 39.1788 	 
H 	 12.1515 	 18.7556 	 39.5074 	 
H 	 13.3006 	 19.824 	 38.5257 	 
H 	 11.618 	 20.1671 	 38.546 	 
H 	 6.7142 	 23.165 	 41.7093 	 
H 	 14.5176 	 23.8524 	 44.1268 	 
*
