! wB97X-D3 SP def2-SVP
%pal
nprocs 16
end

* xyz 0 1
S 	 -43.3172 	 14.2959 	 74.9708 	 
C 	 -42.0327 	 15.222 	 74.2974 	 
C 	 -41.2298 	 14.4122 	 73.4904 	 
C 	 -41.7538 	 13.064 	 73.4279 	 
C 	 -42.8186 	 12.8008 	 74.285 	 
H 	 -41.3513 	 12.173 	 72.9255 	 
C 	 -40.0319 	 14.8929 	 72.6495 	 
H 	 -39.2669 	 14.2499 	 72.7842 	 
H 	 -39.6852 	 15.8224 	 73.0104 	 
C 	 -40.3886 	 15.0272 	 71.1248 	 
H 	 -39.5448 	 15.2666 	 70.561 	 
H 	 -40.7315 	 14.023 	 70.926 	 
C 	 -41.6021 	 15.9574 	 70.955 	 
H 	 -41.9194 	 15.8562 	 69.9901 	 
H 	 -42.4708 	 15.652 	 71.4953 	 
H 	 -41.4079 	 17.0649 	 71.1016 	 
S 	 -45.0493 	 11.2137 	 73.5744 	 
C 	 -45.4433 	 9.80998 	 74.5519 	 
C 	 -44.4562 	 9.49652 	 75.4041 	 
C 	 -43.4359 	 10.5445 	 75.4118 	 
C 	 -43.586 	 11.5577 	 74.4783 	 
H 	 -44.4064 	 8.61674 	 76.0735 	 
C 	 -42.2152 	 10.2451 	 76.2835 	 
H 	 -42.6278 	 10.3892 	 77.3298 	 
H 	 -41.4367 	 11.0259 	 76.2955 	 
C 	 -41.495 	 8.85291 	 76.1607 	 
H 	 -42.1775 	 7.98348 	 76.2052 	 
H 	 -40.7828 	 8.76034 	 76.941 	 
C 	 -40.6895 	 8.77458 	 74.8368 	 
H 	 -40.0016 	 9.60954 	 74.7155 	 
H 	 -41.4069 	 8.62301 	 74.0229 	 
H 	 -40.0904 	 7.92125 	 74.9082 	 
H 	 -42.0258 	 16.2352 	 74.3001 	 
H 	 -46.3159 	 9.20983 	 74.5675 	 
*
