! wB97X-D3 SP def2-SVP
%pal
nprocs 16
end

* xyz 0 1
S 	 -13.8635 	 39.169 	 36.2113 	 
C 	 -13.8813 	 39.2243 	 38.0091 	 
C 	 -14.1389 	 37.9811 	 38.5626 	 
C 	 -14.2764 	 37.007 	 37.5044 	 
C 	 -14.1042 	 37.465 	 36.2389 	 
H 	 -14.3621 	 35.9477 	 37.6891 	 
C 	 -14.4233 	 37.6316 	 40.0641 	 
H 	 -14.8218 	 36.7087 	 40.3409 	 
H 	 -15.1472 	 38.3901 	 40.4532 	 
C 	 -13.2029 	 37.8951 	 40.9679 	 
H 	 -12.9013 	 38.9075 	 40.7689 	 
H 	 -13.3704 	 37.9915 	 42.0179 	 
C 	 -11.9496 	 37.0585 	 40.6752 	 
H 	 -12.169 	 36.0132 	 41.0508 	 
H 	 -11.6859 	 36.9896 	 39.6468 	 
H 	 -11.2127 	 37.5419 	 41.3898 	 
S 	 -12.6078 	 36.1842 	 34.3133 	 
C 	 -13.4426 	 35.3826 	 33.0554 	 
C 	 -14.7892 	 35.3718 	 33.2031 	 
C 	 -15.1862 	 36.0105 	 34.4354 	 
C 	 -14.1038 	 36.6109 	 35.0578 	 
H 	 -15.3769 	 34.7168 	 32.5179 	 
C 	 -16.6637 	 36.0828 	 34.8768 	 
H 	 -17.208 	 36.5648 	 34.0707 	 
H 	 -16.695 	 36.7479 	 35.7574 	 
C 	 -17.3935 	 34.6886 	 35.2269 	 
H 	 -16.7214 	 33.9053 	 35.6875 	 
H 	 -17.573 	 34.2238 	 34.2322 	 
C 	 -18.6109 	 34.9361 	 36.093 	 
H 	 -19.1158 	 34.0641 	 36.1252 	 
H 	 -19.249 	 35.8169 	 35.7784 	 
H 	 -18.2493 	 35.059 	 37.0843 	 
H 	 -13.7829 	 40.1459 	 38.5845 	 
H 	 -12.9366 	 34.8479 	 32.281 	 
*
