! wB97X-D3 SP def2-SVP
%pal
nprocs 16
end

* xyz 0 1
S 	 -96.5905 	 40.6554 	 125.436 	 
C 	 -97.8088 	 40.7329 	 126.635 	 
C 	 -97.436 	 41.6728 	 127.598 	 
C 	 -96.3151 	 42.484 	 127.207 	 
C 	 -95.7503 	 42.1131 	 126 	 
H 	 -95.9876 	 43.3238 	 127.755 	 
C 	 -98.0805 	 41.8876 	 128.997 	 
H 	 -99.0383 	 41.3595 	 129.028 	 
H 	 -98.3651 	 42.9008 	 128.946 	 
C 	 -97.2229 	 41.781 	 130.261 	 
H 	 -96.2669 	 42.214 	 130.058 	 
H 	 -97.6818 	 42.2917 	 131.145 	 
C 	 -97.134 	 40.3396 	 130.707 	 
H 	 -96.2749 	 40.056 	 130.212 	 
H 	 -97.0698 	 40.3642 	 131.791 	 
H 	 -97.9111 	 39.6121 	 130.423 	 
S 	 -93.2337 	 41.5353 	 124.98 	 
C 	 -92.4488 	 42.802 	 124.036 	 
C 	 -93.1469 	 44.019 	 124.102 	 
C 	 -94.3208 	 43.9941 	 124.866 	 
C 	 -94.5348 	 42.6721 	 125.354 	 
H 	 -92.7965 	 44.8827 	 123.66 	 
C 	 -95.1744 	 45.2057 	 125.049 	 
H 	 -94.5361 	 46.0214 	 125.388 	 
H 	 -95.756 	 45.1882 	 125.958 	 
C 	 -96.1901 	 45.521 	 123.904 	 
H 	 -96.7112 	 44.616 	 123.592 	 
H 	 -95.5873 	 45.7637 	 123.048 	 
C 	 -97.1266 	 46.7006 	 124.224 	 
H 	 -97.4755 	 46.6929 	 125.244 	 
H 	 -97.9461 	 46.6619 	 123.577 	 
H 	 -96.6874 	 47.7015 	 124.051 	 
H 	 -98.5738 	 40.0983 	 126.75 	 
H 	 -91.5537 	 42.605 	 123.41 	 
*
