! wB97X-D3 SP def2-SVP
%pal
nprocs 16
end

* xyz 0 1
S 	 -5.81082 	 72.7793 	 57.1946 	 
C 	 -6.60018 	 71.3596 	 57.7456 	 
C 	 -7.56384 	 70.8844 	 56.8325 	 
C 	 -7.37899 	 71.4662 	 55.5646 	 
C 	 -6.57999 	 72.6126 	 55.6286 	 
H 	 -7.96914 	 71.163 	 54.6945 	 
C 	 -8.4641 	 69.6841 	 56.9758 	 
H 	 -8.52882 	 69.4871 	 58.0928 	 
H 	 -8.0789 	 68.8203 	 56.4709 	 
C 	 -9.87976 	 69.9228 	 56.4101 	 
H 	 -10.173 	 70.901 	 56.6574 	 
H 	 -9.89499 	 69.711 	 55.3739 	 
C 	 -11.0204 	 69.1117 	 57.1479 	 
H 	 -12.0107 	 69.3536 	 56.7373 	 
H 	 -10.9025 	 68.0121 	 56.9862 	 
H 	 -10.8699 	 69.3015 	 58.2471 	 
S 	 -7.09369 	 75.078 	 54.8174 	 
C 	 -6.38089 	 75.6842 	 53.3726 	 
C 	 -5.81599 	 74.7322 	 52.633 	 
C 	 -5.6217 	 73.5368 	 53.4105 	 
C 	 -6.30478 	 73.6069 	 54.6187 	 
H 	 -5.32783 	 74.9344 	 51.7435 	 
C 	 -5.09924 	 72.2396 	 52.7363 	 
H 	 -5.953 	 71.7204 	 52.3827 	 
H 	 -4.75281 	 71.4883 	 53.4659 	 
C 	 -4.12812 	 72.3626 	 51.5855 	 
H 	 -3.22384 	 72.8269 	 51.9827 	 
H 	 -4.58938 	 73.096 	 50.9265 	 
C 	 -3.92829 	 70.9907 	 50.8666 	 
H 	 -3.86103 	 71.0184 	 49.7739 	 
H 	 -4.76721 	 70.3835 	 51.0747 	 
H 	 -3.13602 	 70.4781 	 51.3321 	 
H 	 -6.49231 	 70.8968 	 58.7555 	 
H 	 -6.38892 	 76.7597 	 53.1328 	 
*
