! wB97X-D3 SP def2-SVP
%pal
nprocs 16
end

* xyz 0 1
S 	 -66.464 	 39.5216 	 137.904 	 
C 	 -65.0874 	 39.1212 	 138.765 	 
C 	 -64.4885 	 37.9939 	 138.267 	 
C 	 -65.1806 	 37.4374 	 137.208 	 
C 	 -66.3404 	 38.1678 	 136.87 	 
H 	 -64.8609 	 36.5156 	 136.68 	 
C 	 -63.4423 	 37.169 	 139.078 	 
H 	 -62.9911 	 37.872 	 139.831 	 
H 	 -62.7463 	 36.8602 	 138.319 	 
C 	 -63.8216 	 35.8574 	 139.854 	 
H 	 -63.949 	 35.0522 	 139.102 	 
H 	 -63.0415 	 35.6132 	 140.428 	 
C 	 -65.1139 	 35.89 	 140.587 	 
H 	 -66.0113 	 36.1739 	 139.902 	 
H 	 -65.4569 	 34.989 	 140.978 	 
H 	 -64.8186 	 36.6136 	 141.393 	 
S 	 -68.3776 	 36.3451 	 136.31 	 
C 	 -69.3031 	 36.6476 	 134.891 	 
C 	 -68.6893 	 37.5928 	 134.055 	 
C 	 -67.6281 	 38.273 	 134.652 	 
C 	 -67.3519 	 37.7405 	 135.943 	 
H 	 -69.321 	 37.8471 	 133.203 	 
C 	 -67.0862 	 39.5769 	 134.085 	 
H 	 -66.6101 	 40.1266 	 134.885 	 
H 	 -68.049 	 40.1817 	 133.908 	 
C 	 -66.0833 	 39.5434 	 132.836 	 
H 	 -65.6679 	 40.5447 	 132.663 	 
H 	 -66.7135 	 39.2402 	 132.021 	 
C 	 -64.8623 	 38.6984 	 132.924 	 
H 	 -64.3762 	 38.866 	 133.915 	 
H 	 -64.2336 	 39.0128 	 132.084 	 
H 	 -65.076 	 37.5962 	 132.977 	 
H 	 -64.7894 	 39.6318 	 139.656 	 
H 	 -70.1466 	 36.1562 	 134.539 	 
*
