! wB97X-D3 SP def2-SVP
%pal
nprocs 16
end

* xyz 0 1
S 	 -10.1927 	 50.096 	 30.5046 	 
C 	 -9.75379 	 48.6268 	 29.5814 	 
C 	 -8.42066 	 48.6331 	 29.1696 	 
C 	 -7.72263 	 49.6812 	 29.8079 	 
C 	 -8.49555 	 50.5925 	 30.5576 	 
H 	 -6.65434 	 49.7797 	 29.8387 	 
C 	 -7.74959 	 47.5592 	 28.4526 	 
H 	 -8.1933 	 46.5245 	 28.7614 	 
H 	 -6.818 	 47.3647 	 28.9701 	 
C 	 -7.62588 	 47.7893 	 26.9519 	 
H 	 -8.61614 	 47.8283 	 26.5032 	 
H 	 -7.15487 	 48.7005 	 26.8627 	 
C 	 -6.64183 	 46.7129 	 26.4449 	 
H 	 -5.63055 	 47.0755 	 26.7969 	 
H 	 -6.87764 	 45.6919 	 26.8723 	 
H 	 -6.60833 	 46.6296 	 25.3387 	 
S 	 -8.44126 	 53.2813 	 30.919 	 
C 	 -7.33259 	 54.0597 	 32.0237 	 
C 	 -6.75832 	 53.0992 	 32.8024 	 
C 	 -7.04275 	 51.7938 	 32.395 	 
C 	 -7.8929 	 51.7065 	 31.2948 	 
H 	 -6.1208 	 53.3699 	 33.6351 	 
C 	 -6.47859 	 50.6968 	 33.087 	 
H 	 -5.80856 	 51.0015 	 33.8926 	 
H 	 -5.83904 	 50.1386 	 32.3957 	 
C 	 -7.57308 	 49.7456 	 33.828 	 
H 	 -6.94892 	 49.0472 	 34.4695 	 
H 	 -8.12379 	 49.2136 	 33.0719 	 
C 	 -8.61247 	 50.5048 	 34.626 	 
H 	 -9.27347 	 49.8363 	 35.2053 	 
H 	 -9.3014 	 51.0345 	 33.9932 	 
H 	 -8.28364 	 51.2013 	 35.3734 	 
H 	 -10.5097 	 48.0086 	 29.0861 	 
H 	 -7.39689 	 55.1322 	 32.213 	 
*
