! wB97X-D3 SP def2-SVP
%pal
nprocs 16
end

* xyz 0 1
S 	 -1.12768 	 -14.8449 	 84.8598 	 
C 	 -2.58842 	 -15.8022 	 84.4689 	 
C 	 -2.27418 	 -17.0067 	 83.8309 	 
C 	 -0.886578 	 -17.1652 	 83.5517 	 
C 	 -0.14482 	 -16.1458 	 84.1123 	 
H 	 -0.416713 	 -17.9779 	 83.1458 	 
C 	 -3.27272 	 -18.0396 	 83.4 	 
H 	 -3.42146 	 -17.9223 	 82.3624 	 
H 	 -4.2186 	 -17.7473 	 83.8822 	 
C 	 -2.88384 	 -19.5088 	 83.7628 	 
H 	 -2.17416 	 -19.9041 	 82.9639 	 
H 	 -2.37516 	 -19.6037 	 84.7135 	 
C 	 -4.14412 	 -20.4034 	 83.6994 	 
H 	 -4.84327 	 -20.0613 	 84.4463 	 
H 	 -4.51588 	 -20.2428 	 82.6988 	 
H 	 -3.9913 	 -21.4199 	 83.7588 	 
S 	 2.22281 	 -14.7856 	 83.6384 	 
C 	 3.69495 	 -15.3444 	 84.3475 	 
C 	 3.57205 	 -16.609 	 84.8427 	 
C 	 2.22458 	 -17.1213 	 84.7919 	 
C 	 1.30566 	 -16.1483 	 84.3107 	 
H 	 4.40272 	 -17.1458 	 85.3331 	 
C 	 1.89387 	 -18.4373 	 85.4273 	 
H 	 0.826096 	 -18.5291 	 85.6671 	 
H 	 2.3181 	 -18.4597 	 86.4365 	 
C 	 2.28133 	 -19.7413 	 84.6325 	 
H 	 3.35944 	 -19.7982 	 84.6208 	 
H 	 1.95451 	 -19.7387 	 83.6201 	 
C 	 1.86132 	 -20.959 	 85.3159 	 
H 	 0.748127 	 -21.0676 	 85.4591 	 
H 	 2.317 	 -21.0212 	 86.3323 	 
H 	 2.26991 	 -21.8054 	 84.8131 	 
H 	 -3.55699 	 -15.4892 	 84.7043 	 
H 	 4.58802 	 -14.8106 	 84.3018 	 
*
