! wB97X-D3 SP def2-SVP
%pal
nprocs 16
end

* xyz 0 1
S 	 -107.42 	 56.2822 	 114.321 	 
C 	 -107.978 	 56.379 	 112.66 	 
C 	 -106.957 	 56.3656 	 111.751 	 
C 	 -105.752 	 55.9993 	 112.328 	 
C 	 -105.831 	 55.681 	 113.692 	 
H 	 -104.883 	 55.7272 	 111.724 	 
C 	 -107.208 	 56.5071 	 110.262 	 
H 	 -106.26 	 56.7916 	 109.837 	 
H 	 -107.904 	 57.3232 	 110.067 	 
C 	 -107.491 	 55.1961 	 109.504 	 
H 	 -108.38 	 54.6829 	 109.922 	 
H 	 -107.792 	 55.5326 	 108.496 	 
C 	 -106.32 	 54.2746 	 109.434 	 
H 	 -106.012 	 53.8277 	 110.447 	 
H 	 -106.654 	 53.5242 	 108.808 	 
H 	 -105.521 	 54.7666 	 108.853 	 
S 	 -104.418 	 55.6316 	 116.155 	 
C 	 -103.292 	 54.3515 	 116.408 	 
C 	 -103.292 	 53.4254 	 115.441 	 
C 	 -104.211 	 53.789 	 114.41 	 
C 	 -104.886 	 54.9614 	 114.585 	 
H 	 -102.712 	 52.5501 	 115.633 	 
C 	 -104.462 	 52.7429 	 113.294 	 
H 	 -103.544 	 52.6093 	 112.737 	 
H 	 -105.243 	 53.2277 	 112.627 	 
C 	 -104.896 	 51.295 	 113.754 	 
H 	 -104.16 	 50.9842 	 114.462 	 
H 	 -104.706 	 50.7166 	 112.867 	 
C 	 -106.366 	 51.2164 	 114.203 	 
H 	 -106.647 	 50.1995 	 113.951 	 
H 	 -106.992 	 51.9424 	 113.678 	 
H 	 -106.643 	 51.3454 	 115.238 	 
H 	 -109.1 	 56.4192 	 112.45 	 
H 	 -102.648 	 54.2933 	 117.233 	 
*
