! wB97X-D3 SP def2-SVP
%pal
nprocs 16
end

* xyz 0 1
S 	 -57.7528 	 50.8791 	 137.459 	 
C 	 -57.4765 	 52.4461 	 136.909 	 
C 	 -57.8519 	 53.4143 	 137.77 	 
C 	 -58.4384 	 52.8483 	 138.962 	 
C 	 -58.2767 	 51.4652 	 139.03 	 
H 	 -58.8567 	 53.4937 	 139.767 	 
C 	 -57.8998 	 54.8424 	 137.507 	 
H 	 -57.2517 	 55.0713 	 136.665 	 
H 	 -57.3272 	 55.3324 	 138.301 	 
C 	 -59.2247 	 55.5431 	 137.263 	 
H 	 -59.879 	 54.9132 	 136.584 	 
H 	 -59.7098 	 55.6449 	 138.264 	 
C 	 -59.12 	 56.9606 	 136.746 	 
H 	 -58.8685 	 57.0749 	 135.701 	 
H 	 -60.0761 	 57.4243 	 136.831 	 
H 	 -58.5341 	 57.519 	 137.438 	 
S 	 -58.0366 	 48.9791 	 139.97 	 
C 	 -59.271 	 48.2458 	 140.92 	 
C 	 -60.2662 	 49.1161 	 141.213 	 
C 	 -59.9972 	 50.4337 	 140.78 	 
C 	 -58.8546 	 50.5113 	 139.999 	 
H 	 -61.1048 	 48.8743 	 141.857 	 
C 	 -61.0322 	 51.5287 	 141.051 	 
H 	 -60.5409 	 52.4985 	 141.073 	 
H 	 -61.6258 	 51.2956 	 141.918 	 
C 	 -61.9835 	 51.7075 	 139.909 	 
H 	 -62.2213 	 50.819 	 139.387 	 
H 	 -61.4109 	 52.1952 	 139.098 	 
C 	 -63.2529 	 52.5694 	 140.162 	 
H 	 -62.9889 	 53.5847 	 140.542 	 
H 	 -64.0054 	 52.0883 	 140.834 	 
H 	 -63.7247 	 52.7635 	 139.277 	 
H 	 -57.0069 	 52.7016 	 135.898 	 
H 	 -59.2793 	 47.1974 	 141.299 	 
*
