! wB97X-D3 SP def2-SVP
%pal
nprocs 16
end

* xyz 0 1
S 	 -48.0317 	 62.9789 	 141.057 	 
C 	 -46.7559 	 63.835 	 141.883 	 
C 	 -46.6839 	 65.1775 	 141.685 	 
C 	 -47.6838 	 65.572 	 140.764 	 
C 	 -48.3744 	 64.5112 	 140.243 	 
H 	 -47.8974 	 66.5633 	 140.535 	 
C 	 -45.8166 	 66.2672 	 142.293 	 
H 	 -46.3957 	 66.8177 	 143.058 	 
H 	 -45.6414 	 67.0272 	 141.526 	 
C 	 -44.5263 	 65.8022 	 142.841 	 
H 	 -44.5558 	 64.9087 	 143.463 	 
H 	 -43.9355 	 65.5091 	 142.006 	 
C 	 -43.625 	 66.9058 	 143.505 	 
H 	 -43.3999 	 67.7352 	 142.879 	 
H 	 -44.113 	 67.1932 	 144.489 	 
H 	 -42.6385 	 66.4756 	 143.716 	 
S 	 -51.1441 	 64.7441 	 140.225 	 
C 	 -51.8346 	 65.0714 	 138.687 	 
C 	 -50.9295 	 65.1733 	 137.663 	 
C 	 -49.5701 	 65.0178 	 138.117 	 
C 	 -49.5573 	 64.6537 	 139.448 	 
H 	 -51.2511 	 65.3541 	 136.697 	 
C 	 -48.3236 	 65.0619 	 137.211 	 
H 	 -48.5411 	 64.4051 	 136.315 	 
H 	 -47.5596 	 64.6798 	 137.871 	 
C 	 -47.8903 	 66.4501 	 136.725 	 
H 	 -47.861 	 67.1972 	 137.491 	 
H 	 -48.6763 	 66.9206 	 136.111 	 
C 	 -46.6239 	 66.451 	 135.854 	 
H 	 -45.7698 	 66.3287 	 136.481 	 
H 	 -46.457 	 67.3346 	 135.364 	 
H 	 -46.6986 	 65.7437 	 135.02 	 
H 	 -46.2202 	 63.4074 	 142.728 	 
H 	 -52.8995 	 65.1644 	 138.643 	 
*
