! wB97X-D3 SP def2-SVP
%pal
nprocs 16
end

* xyz 0 1
S 	 37.095 	 25.6382 	 50.0252 	 
C 	 37.4698 	 27.0763 	 51.0102 	 
C 	 38.7162 	 27.6385 	 50.649 	 
C 	 39.4074 	 26.8613 	 49.663 	 
C 	 38.6515 	 25.739 	 49.2417 	 
H 	 40.4577 	 26.8139 	 49.244 	 
C 	 39.2689 	 28.8226 	 51.3233 	 
H 	 38.7776 	 29.7433 	 50.9951 	 
H 	 40.3167 	 28.9533 	 50.9053 	 
C 	 39.3933 	 28.894 	 52.869 	 
H 	 38.3779 	 29.0845 	 53.2357 	 
H 	 39.8114 	 27.9152 	 53.1873 	 
C 	 40.3113 	 30.0239 	 53.3277 	 
H 	 41.2983 	 29.8914 	 52.8957 	 
H 	 39.9977 	 30.9096 	 52.7624 	 
H 	 40.4176 	 30.2885 	 54.3709 	 
S 	 40.3645 	 23.4654 	 48.7621 	 
C 	 40.2228 	 22.695 	 47.1835 	 
C 	 39.3653 	 23.3976 	 46.3968 	 
C 	 38.6737 	 24.4879 	 47.0624 	 
C 	 39.108 	 24.7187 	 48.3215 	 
H 	 39.2346 	 23.0883 	 45.3777 	 
C 	 37.7832 	 25.4798 	 46.3438 	 
H 	 38.1302 	 25.7492 	 45.3474 	 
H 	 37.9225 	 26.4819 	 46.749 	 
C 	 36.2552 	 25.0825 	 46.3352 	 
H 	 35.6388 	 25.9638 	 46.1165 	 
H 	 35.8804 	 24.8895 	 47.3616 	 
C 	 36.0177 	 23.83 	 45.315 	 
H 	 34.8635 	 23.7243 	 45.2166 	 
H 	 36.4199 	 22.9213 	 45.63 	 
H 	 36.5323 	 23.984 	 44.4125 	 
H 	 36.8358 	 27.4465 	 51.7805 	 
H 	 40.5549 	 21.7 	 46.963 	 
*
