! wB97X-D3 SP def2-SVP
%pal
nprocs 16
end

* xyz 0 1
S 	 43.3663 	 10.3954 	 50.6394 	 
C 	 41.6659 	 10.6744 	 50.2739 	 
C 	 41.3248 	 11.9912 	 50.3912 	 
C 	 42.3568 	 12.8386 	 50.7026 	 
C 	 43.5539 	 12.1474 	 50.9067 	 
H 	 42.2173 	 13.9101 	 50.8153 	 
C 	 39.8537 	 12.5052 	 50.2386 	 
H 	 39.6928 	 13.5236 	 50.6095 	 
H 	 39.142 	 11.857 	 50.7764 	 
C 	 39.4545 	 12.4373 	 48.7027 	 
H 	 40.0415 	 13.1093 	 48.1066 	 
H 	 39.5859 	 11.3918 	 48.343 	 
C 	 38.1124 	 13.0298 	 48.3914 	 
H 	 37.966 	 12.7994 	 47.3334 	 
H 	 37.3583 	 12.4816 	 49.0315 	 
H 	 38.0718 	 14.1471 	 48.5203 	 
S 	 45.1445 	 14.2848 	 50.4374 	 
C 	 46.5515 	 14.5345 	 51.3931 	 
C 	 46.7532 	 13.6145 	 52.3562 	 
C 	 45.7265 	 12.6332 	 52.3448 	 
C 	 44.7749 	 12.8903 	 51.3652 	 
H 	 47.6586 	 13.6188 	 53.0417 	 
C 	 45.7153 	 11.5785 	 53.4206 	 
H 	 46.6868 	 11.1149 	 53.4802 	 
H 	 45.1108 	 10.7417 	 53.0633 	 
C 	 45.1324 	 11.9986 	 54.7762 	 
H 	 45.5243 	 12.9062 	 55.2401 	 
H 	 45.3948 	 11.1712 	 55.4736 	 
C 	 43.5945 	 12.1819 	 54.6732 	 
H 	 43.3615 	 12.9145 	 53.9219 	 
H 	 42.9955 	 12.6165 	 55.5457 	 
H 	 43.0389 	 11.3077 	 54.4321 	 
H 	 40.9616 	 9.92236 	 50.1157 	 
H 	 47.2068 	 15.3793 	 51.2724 	 
*
