! wB97X-D3 SP def2-SVP
%pal
nprocs 16
end

* xyz 0 1
S 	 -64.5826 	 51.9272 	 121.238 	 
C 	 -63.9024 	 51.2561 	 122.685 	 
C 	 -64.8592 	 50.9706 	 123.632 	 
C 	 -66.1241 	 51.3691 	 123.211 	 
C 	 -66.158 	 51.9483 	 121.966 	 
H 	 -67.1304 	 51.4196 	 123.68 	 
C 	 -64.4396 	 50.4316 	 125.039 	 
H 	 -64.0511 	 51.2029 	 125.711 	 
H 	 -63.4918 	 49.8741 	 124.839 	 
C 	 -65.1876 	 49.3234 	 125.771 	 
H 	 -66.1596 	 49.713 	 125.947 	 
H 	 -65.1577 	 48.5156 	 125 	 
C 	 -64.6084 	 48.9082 	 127.065 	 
H 	 -65.2092 	 48.1211 	 127.456 	 
H 	 -63.5808 	 48.5997 	 127.023 	 
H 	 -64.5908 	 49.718 	 127.841 	 
S 	 -67.3221 	 54.1311 	 120.781 	 
C 	 -68.9086 	 53.881 	 120.11 	 
C 	 -69.3876 	 52.5867 	 120.243 	 
C 	 -68.5247 	 51.831 	 121.028 	 
C 	 -67.3194 	 52.4362 	 121.282 	 
H 	 -70.3245 	 52.2984 	 119.888 	 
C 	 -68.8731 	 50.4025 	 121.347 	 
H 	 -69.9714 	 50.3655 	 121.356 	 
H 	 -68.5488 	 50.0145 	 122.326 	 
C 	 -68.3938 	 49.4406 	 120.295 	 
H 	 -67.3217 	 49.4688 	 120.287 	 
H 	 -68.7237 	 49.7884 	 119.328 	 
C 	 -68.8077 	 48.0241 	 120.643 	 
H 	 -68.5619 	 47.3087 	 119.777 	 
H 	 -69.8318 	 48.0741 	 120.735 	 
H 	 -68.1849 	 47.7756 	 121.462 	 
H 	 -62.8897 	 50.9412 	 122.811 	 
H 	 -69.3714 	 54.7923 	 119.651 	 
*
