! wB97X-D3 SP def2-SVP
%pal
nprocs 16
end

* xyz 0 1
S 	 50.0461 	 6.03922 	 80.9341 	 
C 	 50.4428 	 7.41788 	 82.0726 	 
C 	 49.8561 	 7.14383 	 83.3012 	 
C 	 49.2605 	 5.84736 	 83.3796 	 
C 	 49.516 	 5.02583 	 82.2624 	 
H 	 48.785 	 5.4322 	 84.1963 	 
C 	 49.6527 	 8.1817 	 84.4153 	 
H 	 48.5681 	 8.38398 	 84.5193 	 
H 	 50.1656 	 9.11637 	 84.1722 	 
C 	 50.0194 	 7.66837 	 85.8309 	 
H 	 49.6539 	 8.37219 	 86.6086 	 
H 	 49.4593 	 6.76987 	 85.9262 	 
C 	 51.5685 	 7.45694 	 86.1181 	 
H 	 52.0285 	 8.41662 	 86.2748 	 
H 	 51.6735 	 6.95709 	 87.1173 	 
H 	 52.1398 	 6.85714 	 85.3548 	 
S 	 48.5823 	 3.08623 	 80.5015 	 
C 	 48.5107 	 1.41611 	 81.1124 	 
C 	 48.8141 	 1.30982 	 82.4661 	 
C 	 49.1861 	 2.59799 	 83.0016 	 
C 	 49.1625 	 3.63133 	 82.0953 	 
H 	 48.7026 	 0.381913 	 82.9193 	 
C 	 49.5292 	 2.69926 	 84.5356 	 
H 	 48.5909 	 2.33326 	 85.0677 	 
H 	 49.6385 	 3.75109 	 84.8814 	 
C 	 50.727 	 1.7379 	 84.9139 	 
H 	 51.6071 	 1.97174 	 84.2771 	 
H 	 50.3538 	 0.7416 	 84.7022 	 
C 	 50.9764 	 1.63514 	 86.4326 	 
H 	 51.944 	 1.19925 	 86.5926 	 
H 	 50.2573 	 1.01251 	 86.9743 	 
H 	 51.001 	 2.64928 	 86.8919 	 
H 	 50.8637 	 8.31114 	 81.7307 	 
H 	 48.245 	 0.582704 	 80.4886 	 
*
