! wB97X-D3 SP def2-SVP
%pal
nprocs 16
end

* xyz 0 1
S 	 -91.597 	 51.5823 	 125.514 	 
C 	 -90.9399 	 50.9133 	 127.01 	 
C 	 -91.1926 	 49.5222 	 127.188 	 
C 	 -91.9302 	 49.0505 	 126.065 	 
C 	 -92.2505 	 50.0408 	 125.16 	 
H 	 -92.1246 	 48.0825 	 125.894 	 
C 	 -90.6462 	 48.6827 	 128.294 	 
H 	 -90.5828 	 49.3785 	 129.15 	 
H 	 -89.6735 	 48.2472 	 127.962 	 
C 	 -91.4462 	 47.3891 	 128.707 	 
H 	 -92.5085 	 47.4916 	 128.683 	 
H 	 -91.2126 	 46.6941 	 127.863 	 
C 	 -90.8845 	 47.03 	 130.105 	 
H 	 -91.0299 	 47.7434 	 130.918 	 
H 	 -91.5529 	 46.2354 	 130.337 	 
H 	 -89.8609 	 46.6577 	 130.078 	 
S 	 -92.1794 	 50.1197 	 122.452 	 
C 	 -93.6721 	 50.1187 	 121.64 	 
C 	 -94.7827 	 49.8657 	 122.508 	 
C 	 -94.3306 	 49.6944 	 123.88 	 
C 	 -92.9862 	 49.879 	 123.965 	 
H 	 -95.7875 	 49.9507 	 122.032 	 
C 	 -95.26 	 49.6988 	 125.053 	 
H 	 -94.6725 	 49.5272 	 125.936 	 
H 	 -95.8207 	 48.7366 	 124.968 	 
C 	 -96.2514 	 50.8209 	 125.225 	 
H 	 -96.7993 	 50.5863 	 126.149 	 
H 	 -97.1593 	 50.7593 	 124.566 	 
C 	 -95.6221 	 52.231 	 125.169 	 
H 	 -94.7134 	 52.1596 	 125.752 	 
H 	 -96.2137 	 52.9351 	 125.623 	 
H 	 -95.4844 	 52.5603 	 124.144 	 
H 	 -90.3178 	 51.4525 	 127.715 	 
H 	 -93.8507 	 50.2442 	 120.541 	 
*
