! wB97X-D3 SP def2-SVP
%pal
nprocs 16
end

* xyz 0 1
S 	 39.7342 	 26.828 	 82.8964 	 
C 	 38.7568 	 27.8051 	 83.9716 	 
C 	 39.5673 	 28.4634 	 84.8679 	 
C 	 40.9817 	 28.1384 	 84.6652 	 
C 	 41.2401 	 27.3272 	 83.603 	 
H 	 41.7769 	 28.4612 	 85.3284 	 
C 	 39.0868 	 29.2878 	 85.9796 	 
H 	 38.0387 	 29.5457 	 85.7176 	 
H 	 39.6968 	 30.1459 	 86.0223 	 
C 	 39.2276 	 28.6536 	 87.3719 	 
H 	 38.5577 	 27.8145 	 87.2555 	 
H 	 40.1815 	 28.2815 	 87.5224 	 
C 	 39.0473 	 29.6573 	 88.502 	 
H 	 39.1127 	 28.993 	 89.3133 	 
H 	 39.8599 	 30.3936 	 88.5666 	 
H 	 38.0805 	 30.1512 	 88.5583 	 
S 	 42.506 	 26.8536 	 81.2675 	 
C 	 44.2771 	 26.5341 	 81.2625 	 
C 	 44.8817 	 26.6421 	 82.4991 	 
C 	 43.8804 	 27.0532 	 83.518 	 
C 	 42.5528 	 27.0639 	 83.0692 	 
H 	 45.9157 	 26.4851 	 82.7395 	 
C 	 44.2655 	 27.2998 	 85.0074 	 
H 	 43.5143 	 26.7645 	 85.6963 	 
H 	 44.1292 	 28.3261 	 85.2509 	 
C 	 45.5356 	 26.7146 	 85.5866 	 
H 	 46.4485 	 27.1861 	 85.1069 	 
H 	 45.4967 	 25.6933 	 85.2892 	 
C 	 45.802 	 26.9312 	 87.096 	 
H 	 46.6458 	 26.337 	 87.4591 	 
H 	 44.8667 	 26.6646 	 87.6364 	 
H 	 45.9056 	 27.9984 	 87.2715 	 
H 	 37.6886 	 27.963 	 84.048 	 
H 	 44.82 	 26.2336 	 80.3904 	 
*
