! wB97X-D3 SP def2-SVP
%pal
nprocs 16
end

* xyz 0 1
S 	 -44.3059 	 27.6449 	 84.6063 	 
C 	 -44.8875 	 26.0472 	 85.0308 	 
C 	 -45.4929 	 25.3547 	 84.0165 	 
C 	 -45.519 	 26.1406 	 82.8309 	 
C 	 -44.9009 	 27.3649 	 82.9972 	 
H 	 -45.878 	 25.8842 	 81.8513 	 
C 	 -45.7236 	 23.8449 	 84.0896 	 
H 	 -46.8246 	 23.7004 	 84.005 	 
H 	 -45.4396 	 23.3428 	 84.984 	 
C 	 -45.1652 	 23.0523 	 82.8951 	 
H 	 -45.5789 	 22.0502 	 82.9208 	 
H 	 -45.4999 	 23.5636 	 81.9707 	 
C 	 -43.613 	 22.9527 	 82.9739 	 
H 	 -43.3493 	 22.6841 	 84.0048 	 
H 	 -43.3626 	 22.1135 	 82.3868 	 
H 	 -43.2588 	 23.9147 	 82.6315 	 
S 	 -44.8879 	 30.0369 	 82.1283 	 
C 	 -44.3345 	 30.4235 	 80.4946 	 
C 	 -43.9914 	 29.2756 	 79.7896 	 
C 	 -44.229 	 28.0936 	 80.5804 	 
C 	 -44.6304 	 28.3005 	 81.8678 	 
H 	 -43.7709 	 29.3168 	 78.7675 	 
C 	 -44.0248 	 26.675 	 80.0665 	 
H 	 -44.963 	 26.3412 	 79.8089 	 
H 	 -43.6307 	 25.8987 	 80.8255 	 
C 	 -43.1498 	 26.3888 	 78.8231 	 
H 	 -42.1773 	 26.8249 	 78.9282 	 
H 	 -43.5634 	 26.7605 	 77.9075 	 
C 	 -42.9886 	 24.847 	 78.6708 	 
H 	 -42.9021 	 24.5147 	 77.644 	 
H 	 -43.8592 	 24.3033 	 79.0927 	 
H 	 -42.1091 	 24.431 	 79.1754 	 
H 	 -44.7546 	 25.6243 	 85.9776 	 
H 	 -44.2826 	 31.421 	 80.0878 	 
*
