! wB97X-D3 SP def2-SVP
%pal
nprocs 16
end

* xyz 0 1
S 	 41.5507 	 11.9669 	 78.8146 	 
C 	 42.4959 	 12.4026 	 80.2044 	 
C 	 43.8613 	 12.6141 	 79.8566 	 
C 	 44.0344 	 12.5741 	 78.4774 	 
C 	 42.9172 	 12.2388 	 77.7199 	 
H 	 44.9177 	 12.8278 	 77.8526 	 
C 	 44.9972 	 13.0916 	 80.7727 	 
H 	 44.6127 	 13.3306 	 81.7191 	 
H 	 45.3835 	 14.0448 	 80.4041 	 
C 	 46.1515 	 11.9975 	 80.9121 	 
H 	 46.5466 	 11.7184 	 79.9396 	 
H 	 46.992 	 12.51 	 81.4449 	 
C 	 45.5771 	 10.7487 	 81.7071 	 
H 	 44.9211 	 10.1145 	 81.2084 	 
H 	 46.3837 	 10.1873 	 82.191 	 
H 	 45.0507 	 11.0924 	 82.6105 	 
S 	 42.2032 	 10.2832 	 75.9456 	 
C 	 42.237 	 10.6199 	 74.2455 	 
C 	 42.8574 	 11.8339 	 73.9698 	 
C 	 43.2311 	 12.5477 	 75.1217 	 
C 	 42.8619 	 11.8875 	 76.3006 	 
H 	 43.1657 	 12.138 	 72.989 	 
C 	 43.7256 	 13.9891 	 75.0714 	 
H 	 43.586 	 14.3602 	 76.0688 	 
H 	 42.9394 	 14.5628 	 74.5391 	 
C 	 45.1015 	 14.328 	 74.4773 	 
H 	 45.2816 	 15.3712 	 74.5816 	 
H 	 45.2286 	 14.0691 	 73.4401 	 
C 	 46.2609 	 13.6971 	 75.2432 	 
H 	 46.1059 	 13.7968 	 76.3288 	 
H 	 47.2596 	 14.0576 	 75.0087 	 
H 	 46.2518 	 12.6261 	 75.0287 	 
H 	 42.059 	 12.3451 	 81.1992 	 
H 	 42.1119 	 9.82176 	 73.562 	 
*
