! wB97X-D3 SP def2-SVP
%pal
nprocs 16
end

* xyz 0 1
S 	 -31.8252 	 62.8356 	 110.493 	 
C 	 -31.8854 	 62.2178 	 112.104 	 
C 	 -33.139 	 61.9452 	 112.531 	 
C 	 -34.0821 	 62.3399 	 111.545 	 
C 	 -33.5449 	 62.8495 	 110.363 	 
H 	 -35.1558 	 62.1378 	 111.611 	 
C 	 -33.6382 	 61.6302 	 113.91 	 
H 	 -34.7033 	 61.7597 	 113.773 	 
H 	 -33.2684 	 62.3385 	 114.614 	 
C 	 -33.4511 	 60.2482 	 114.496 	 
H 	 -32.5221 	 59.9666 	 114.989 	 
H 	 -34.0268 	 60.0572 	 115.343 	 
C 	 -33.8335 	 59.0358 	 113.537 	 
H 	 -33.6728 	 58.0249 	 113.985 	 
H 	 -34.8794 	 59.0622 	 113.348 	 
H 	 -33.4017 	 59.0529 	 112.56 	 
S 	 -34.0072 	 62.0167 	 107.785 	 
C 	 -35.4171 	 62.6247 	 106.993 	 
C 	 -35.8325 	 63.8166 	 107.5 	 
C 	 -35.136 	 64.1446 	 108.728 	 
C 	 -34.2128 	 63.1775 	 109.075 	 
H 	 -36.4603 	 64.4622 	 106.889 	 
C 	 -35.4934 	 65.3282 	 109.625 	 
H 	 -35.3611 	 66.1933 	 108.999 	 
H 	 -34.84 	 65.3845 	 110.493 	 
C 	 -36.9444 	 65.3224 	 110.228 	 
H 	 -37.6515 	 65.2852 	 109.439 	 
H 	 -37.0857 	 66.28 	 110.731 	 
C 	 -37.2665 	 64.234 	 111.161 	 
H 	 -37.268 	 63.3252 	 110.595 	 
H 	 -38.2597 	 64.429 	 111.567 	 
H 	 -36.6124 	 64.1245 	 112.028 	 
H 	 -31.009 	 62.1777 	 112.77 	 
H 	 -35.7815 	 62.4258 	 106.029 	 
*
