! wB97X-D3 SP def2-SVP
%pal
nprocs 16
end

* xyz 0 1
S 	 4.38891 	 -9.97362 	 102.052 	 
C 	 5.77161 	 -8.93642 	 101.818 	 
C 	 6.69518 	 -9.35394 	 100.897 	 
C 	 6.28168 	 -10.5677 	 100.346 	 
C 	 5.11225 	 -11.1142 	 100.958 	 
H 	 6.73784 	 -11.1936 	 99.5983 	 
C 	 7.9823 	 -8.64523 	 100.569 	 
H 	 7.64554 	 -7.62166 	 100.301 	 
H 	 8.49575 	 -9.02643 	 99.6867 	 
C 	 9.01944 	 -8.64054 	 101.74 	 
H 	 8.72716 	 -7.8225 	 102.461 	 
H 	 9.25442 	 -9.69062 	 102.163 	 
C 	 10.3799 	 -8.10845 	 101.343 	 
H 	 10.2668 	 -7.20973 	 100.793 	 
H 	 11.0408 	 -8.07145 	 102.183 	 
H 	 10.8398 	 -8.84818 	 100.746 	 
S 	 2.94469 	 -12.2049 	 99.7 	 
C 	 2.95066 	 -13.9564 	 99.4016 	 
C 	 4.0908 	 -14.4995 	 99.9126 	 
C 	 5.02243 	 -13.6061 	 100.544 	 
C 	 4.48458 	 -12.3253 	 100.504 	 
H 	 4.31912 	 -15.5207 	 99.6859 	 
C 	 6.31186 	 -14.0278 	 101.242 	 
H 	 5.96685 	 -14.5965 	 102.092 	 
H 	 6.84113 	 -13.114 	 101.615 	 
C 	 7.31885 	 -14.839 	 100.312 	 
H 	 7.59394 	 -14.162 	 99.4918 	 
H 	 6.93843 	 -15.6732 	 99.7746 	 
C 	 8.66539 	 -15.1947 	 101.028 	 
H 	 9.25133 	 -14.3237 	 101.408 	 
H 	 9.2932 	 -15.6839 	 100.282 	 
H 	 8.47236 	 -15.8626 	 101.874 	 
H 	 6.07554 	 -8.12028 	 102.4 	 
H 	 2.16962 	 -14.5348 	 98.8578 	 
*
