! wB97X-D3 SP def2-SVP
%pal
nprocs 16
end

* xyz 0 1
S 	 -48.1542 	 32.8856 	 98.6216 	 
C 	 -47.2988 	 33.7287 	 97.3229 	 
C 	 -46.623 	 34.8872 	 97.6913 	 
C 	 -46.7629 	 35.0722 	 99.1429 	 
C 	 -47.5869 	 34.0603 	 99.7632 	 
H 	 -46.2798 	 35.8608 	 99.5628 	 
C 	 -45.8458 	 35.8734 	 96.7727 	 
H 	 -45.0531 	 35.3124 	 96.301 	 
H 	 -45.4362 	 36.6141 	 97.3918 	 
C 	 -46.7048 	 36.614 	 95.7664 	 
H 	 -46.0679 	 37.2212 	 95.0535 	 
H 	 -47.155 	 35.9693 	 95.0677 	 
C 	 -47.9892 	 37.3569 	 96.3508 	 
H 	 -47.8333 	 38.3708 	 96.7334 	 
H 	 -48.5381 	 37.6491 	 95.4398 	 
H 	 -48.7039 	 36.7817 	 96.9911 	 
S 	 -49.5253 	 34.575 	 101.667 	 
C 	 -49.0767 	 34.5345 	 103.4 	 
C 	 -47.7993 	 34.0397 	 103.566 	 
C 	 -47.0784 	 33.8418 	 102.306 	 
C 	 -47.9147 	 34.0929 	 101.175 	 
H 	 -47.5016 	 33.89 	 104.584 	 
C 	 -45.6478 	 33.2768 	 102.211 	 
H 	 -44.8404 	 33.9869 	 102.401 	 
H 	 -45.3051 	 33.0937 	 101.163 	 
C 	 -45.529 	 31.876 	 102.912 	 
H 	 -45.7121 	 31.9992 	 104.002 	 
H 	 -44.4727 	 31.5194 	 102.81 	 
C 	 -46.472 	 30.8251 	 102.351 	 
H 	 -46.4679 	 29.8338 	 102.789 	 
H 	 -46.3203 	 30.761 	 101.272 	 
H 	 -47.4753 	 31.2243 	 102.494 	 
H 	 -47.2779 	 33.3284 	 96.3218 	 
H 	 -49.6524 	 34.7871 	 104.264 	 
*
