! wB97X-D3 SP def2-SVP
%pal
nprocs 16
end

* xyz 0 1
S 	 33.3802 	 19.3671 	 69.2231 	 
C 	 32.232 	 18.2486 	 69.8855 	 
C 	 32.7521 	 17.7561 	 71.0942 	 
C 	 33.8861 	 18.4568 	 71.6353 	 
C 	 34.3532 	 19.3925 	 70.7313 	 
H 	 34.4568 	 18.1791 	 72.4986 	 
C 	 32.1003 	 16.6466 	 71.9228 	 
H 	 32.8643 	 16.3515 	 72.6679 	 
H 	 32.0058 	 15.8395 	 71.1947 	 
C 	 30.75 	 16.9105 	 72.5926 	 
H 	 30.9458 	 17.7021 	 73.2497 	 
H 	 30.0672 	 17.2216 	 71.8559 	 
C 	 30.2794 	 15.6112 	 73.2225 	 
H 	 31.0439 	 15.2248 	 73.8293 	 
H 	 29.4981 	 15.8141 	 73.9122 	 
H 	 29.8752 	 14.8754 	 72.5119 	 
S 	 35.1338 	 22.066 	 70.3996 	 
C 	 36.8533 	 22.4526 	 70.8238 	 
C 	 37.4841 	 21.3432 	 71.299 	 
C 	 36.7341 	 20.1071 	 71.2813 	 
C 	 35.4346 	 20.3183 	 70.8308 	 
H 	 38.5462 	 21.4942 	 71.5739 	 
C 	 37.27 	 18.7814 	 71.8052 	 
H 	 36.662 	 18.3264 	 72.5859 	 
H 	 38.1765 	 18.9885 	 72.4141 	 
C 	 37.6254 	 17.6921 	 70.7634 	 
H 	 36.6749 	 17.3967 	 70.3068 	 
H 	 37.9191 	 16.8195 	 71.2432 	 
C 	 38.5367 	 18.0825 	 69.5923 	 
H 	 38.8152 	 17.205 	 69.0325 	 
H 	 39.4178 	 18.5788 	 70.0238 	 
H 	 38.1409 	 18.8384 	 68.9712 	 
H 	 31.3821 	 17.9366 	 69.3058 	 
H 	 37.2525 	 23.4434 	 70.9442 	 
*
