! wB97X-D3 SP def2-SVP
%pal
nprocs 16
end

* xyz 0 1
S 	 -69.4976 	 39.503 	 125.144 	 
C 	 -70.1147 	 41.1619 	 125.144 	 
C 	 -69.1483 	 42.1373 	 125.092 	 
C 	 -67.9334 	 41.4966 	 124.708 	 
C 	 -67.8691 	 40.1351 	 124.726 	 
H 	 -67.0162 	 41.9421 	 124.52 	 
C 	 -69.428 	 43.526 	 125.547 	 
H 	 -68.725 	 43.7934 	 126.388 	 
H 	 -70.4766 	 43.4986 	 125.909 	 
C 	 -69.4245 	 44.7203 	 124.471 	 
H 	 -70.3162 	 44.6669 	 123.851 	 
H 	 -69.5063 	 45.6041 	 125.058 	 
C 	 -68.148 	 44.9429 	 123.647 	 
H 	 -67.2153 	 44.4296 	 123.978 	 
H 	 -68.4352 	 44.5661 	 122.673 	 
H 	 -68.0786 	 45.9632 	 123.458 	 
S 	 -67.1671 	 37.8378 	 123.575 	 
C 	 -65.5469 	 37.2543 	 123.669 	 
C 	 -64.7723 	 38.0745 	 124.493 	 
C 	 -65.4054 	 39.2857 	 124.921 	 
C 	 -66.7367 	 39.2929 	 124.455 	 
H 	 -63.7772 	 37.8629 	 124.945 	 
C 	 -64.6869 	 40.4185 	 125.749 	 
H 	 -64.4147 	 39.9008 	 126.665 	 
H 	 -65.4454 	 41.1427 	 126.081 	 
C 	 -63.4933 	 41.0727 	 125.069 	 
H 	 -62.7428 	 40.297 	 124.781 	 
H 	 -63.1735 	 41.7594 	 125.858 	 
C 	 -63.6841 	 41.911 	 123.742 	 
H 	 -62.8459 	 42.4825 	 123.509 	 
H 	 -64.4298 	 42.6742 	 123.885 	 
H 	 -64.0152 	 41.3615 	 122.906 	 
H 	 -71.1608 	 41.3262 	 125.166 	 
H 	 -65.4021 	 36.1569 	 123.601 	 
*
