! wB97X-D3 SP def2-SVP
%pal
nprocs 16
end

* xyz 0 1
S 	 55.6698 	 4.21397 	 89.3393 	 
C 	 56.265 	 4.77902 	 87.8467 	 
C 	 55.6813 	 4.22137 	 86.7601 	 
C 	 54.9099 	 3.07855 	 87.1661 	 
C 	 54.9424 	 2.84383 	 88.5525 	 
H 	 54.3545 	 2.44841 	 86.4899 	 
C 	 55.8057 	 4.69546 	 85.3153 	 
H 	 56.2157 	 5.69984 	 85.3049 	 
H 	 54.7315 	 4.69921 	 84.9298 	 
C 	 56.8168 	 3.93746 	 84.4668 	 
H 	 57.8095 	 4.0152 	 84.9613 	 
H 	 56.5242 	 2.8971 	 84.3845 	 
C 	 56.942 	 4.35802 	 83.0144 	 
H 	 57.1446 	 5.39091 	 82.8848 	 
H 	 57.5937 	 3.72762 	 82.4045 	 
H 	 56.0048 	 4.20774 	 82.5744 	 
S 	 53.4235 	 2.10805 	 90.7318 	 
C 	 52.8335 	 0.524533 	 90.8961 	 
C 	 53.4882 	 -0.308684 	 90.0062 	 
C 	 54.2349 	 0.390938 	 89.0124 	 
C 	 54.28 	 1.76971 	 89.2522 	 
H 	 53.3138 	 -1.35694 	 89.9542 	 
C 	 54.9228 	 -0.298757 	 87.8921 	 
H 	 55.8075 	 -0.712724 	 88.342 	 
H 	 55.3266 	 0.489835 	 87.2592 	 
C 	 54.0807 	 -1.28384 	 87.0052 	 
H 	 53.4446 	 -0.745946 	 86.3474 	 
H 	 53.522 	 -1.89839 	 87.7305 	 
C 	 54.9237 	 -2.13294 	 86.1348 	 
H 	 55.4207 	 -1.56844 	 85.3356 	 
H 	 54.3362 	 -2.8812 	 85.5829 	 
H 	 55.5771 	 -2.74227 	 86.7145 	 
H 	 56.9466 	 5.53267 	 87.6336 	 
H 	 52.1335 	 0.270603 	 91.6574 	 
*
