! wB97X-D3 SP def2-SVP
%pal
nprocs 16
end

* xyz 0 1
S 	 -1.47414 	 -18.2086 	 78.4005 	 
C 	 -1.2321 	 -18.8743 	 80.0363 	 
C 	 -2.30049 	 -18.5439 	 80.8297 	 
C 	 -3.29233 	 -17.6969 	 80.2171 	 
C 	 -3.02325 	 -17.3963 	 78.8885 	 
H 	 -4.16965 	 -17.4142 	 80.7497 	 
C 	 -2.35515 	 -19.0055 	 82.284 	 
H 	 -1.49453 	 -19.6053 	 82.4996 	 
H 	 -3.14058 	 -19.7219 	 82.447 	 
C 	 -2.57366 	 -17.8842 	 83.2936 	 
H 	 -1.75004 	 -17.1211 	 83.2619 	 
H 	 -3.4582 	 -17.3074 	 83.1295 	 
C 	 -2.82324 	 -18.4151 	 84.7435 	 
H 	 -3.58962 	 -19.18 	 84.6368 	 
H 	 -1.91872 	 -18.7919 	 85.2488 	 
H 	 -3.3234 	 -17.6889 	 85.3845 	 
S 	 -5.43077 	 -17.3496 	 77.3769 	 
C 	 -5.80496 	 -15.8369 	 76.4804 	 
C 	 -4.95512 	 -14.8619 	 76.8323 	 
C 	 -3.87914 	 -15.3095 	 77.6872 	 
C 	 -3.84488 	 -16.6888 	 77.9112 	 
H 	 -5.04275 	 -13.9325 	 76.3994 	 
C 	 -2.96578 	 -14.306 	 78.283 	 
H 	 -2.33115 	 -14.8684 	 78.9863 	 
H 	 -3.41118 	 -13.665 	 79.0058 	 
C 	 -1.88599 	 -13.6507 	 77.3952 	 
H 	 -1.31944 	 -12.99 	 77.9865 	 
H 	 -2.29644 	 -13.006 	 76.5559 	 
C 	 -1.00643 	 -14.8057 	 76.7981 	 
H 	 -0.162295 	 -14.4268 	 76.1962 	 
H 	 -1.53186 	 -15.5052 	 76.1294 	 
H 	 -0.568009 	 -15.4212 	 77.6125 	 
H 	 -0.343594 	 -19.3705 	 80.3948 	 
H 	 -6.58353 	 -15.7106 	 75.7711 	 
*
