! wB97X-D3 SP def2-SVP
%pal
nprocs 16
end

* xyz 0 1
S 	 -15.8375 	 38.1197 	 33.6078 	 
C 	 -16.424 	 38.5652 	 35.2592 	 
C 	 -15.5492 	 38.0699 	 36.1956 	 
C 	 -14.5687 	 37.1797 	 35.6651 	 
C 	 -14.5582 	 37.0811 	 34.2758 	 
H 	 -13.7007 	 36.8026 	 36.1115 	 
C 	 -15.605 	 38.4384 	 37.6692 	 
H 	 -15.215 	 37.5737 	 38.2367 	 
H 	 -16.6568 	 38.54 	 37.9546 	 
C 	 -14.8251 	 39.7448 	 38.0794 	 
H 	 -15.1806 	 40.5461 	 37.5762 	 
H 	 -14.8962 	 39.8051 	 39.1328 	 
C 	 -13.362 	 39.7022 	 37.7968 	 
H 	 -13.0321 	 38.7322 	 38.2002 	 
H 	 -13.1679 	 39.8876 	 36.7387 	 
H 	 -12.8266 	 40.5217 	 38.2491 	 
S 	 -12.0988 	 37.4483 	 33.3173 	 
C 	 -11.3066 	 36.0927 	 32.4692 	 
C 	 -11.9866 	 34.9012 	 32.5784 	 
C 	 -13.2774 	 35.1064 	 33.1012 	 
C 	 -13.51 	 36.4396 	 33.4909 	 
H 	 -11.4737 	 33.9471 	 32.3557 	 
C 	 -14.2461 	 33.9496 	 33.2654 	 
H 	 -13.7922 	 32.9214 	 32.896 	 
H 	 -15.1789 	 34.2438 	 32.8483 	 
C 	 -14.5006 	 33.4961 	 34.7046 	 
H 	 -15.0521 	 32.5533 	 34.944 	 
H 	 -15.2131 	 34.2122 	 35.145 	 
C 	 -13.1923 	 33.523 	 35.5649 	 
H 	 -13.4431 	 33.0811 	 36.5079 	 
H 	 -12.8111 	 34.5184 	 35.7513 	 
H 	 -12.3128 	 33.0839 	 35.0273 	 
H 	 -17.141 	 39.283 	 35.4571 	 
H 	 -10.3926 	 36.0716 	 31.9031 	 
*
