! wB97X-D3 SP def2-SVP
%pal
nprocs 16
end

* xyz 0 1
S 	 1.03151 	 -6.5185 	 90.5999 	 
C 	 1.83907 	 -5.3667 	 91.6743 	 
C 	 1.12297 	 -4.15517 	 91.8113 	 
C 	 -0.0807044 	 -4.21047 	 91.0916 	 
C 	 -0.296352 	 -5.3733 	 90.398 	 
H 	 -0.876341 	 -3.46441 	 91.0448 	 
C 	 1.5193 	 -2.96323 	 92.7203 	 
H 	 0.7728 	 -2.20176 	 92.5924 	 
H 	 2.44864 	 -2.63138 	 92.3607 	 
C 	 1.69883 	 -3.37546 	 94.1953 	 
H 	 1.53655 	 -2.59576 	 94.9955 	 
H 	 1.05512 	 -4.23863 	 94.3955 	 
C 	 3.10281 	 -3.81683 	 94.6196 	 
H 	 3.92246 	 -3.19598 	 94.2932 	 
H 	 3.1695 	 -4.03264 	 95.6038 	 
H 	 3.20772 	 -4.72654 	 94.1048 	 
S 	 -1.59107 	 -5.84428 	 88.0779 	 
C 	 -3.3435 	 -5.94811 	 88.0984 	 
C 	 -3.82964 	 -5.79827 	 89.4119 	 
C 	 -2.82461 	 -5.58728 	 90.4009 	 
C 	 -1.56197 	 -5.7304 	 89.8241 	 
H 	 -4.90436 	 -5.61399 	 89.6025 	 
C 	 -3.29846 	 -5.37707 	 91.832 	 
H 	 -2.49058 	 -5.81139 	 92.5175 	 
H 	 -4.17828 	 -6.03942 	 92.1181 	 
C 	 -3.64951 	 -3.93225 	 92.2327 	 
H 	 -4.61602 	 -3.7563 	 91.7473 	 
H 	 -2.89535 	 -3.26234 	 91.8643 	 
C 	 -3.75886 	 -3.79187 	 93.7762 	 
H 	 -4.42497 	 -4.46614 	 94.3184 	 
H 	 -3.91409 	 -2.78377 	 94.065 	 
H 	 -2.80541 	 -3.99747 	 94.2781 	 
H 	 2.81083 	 -5.48208 	 92.2293 	 
H 	 -3.98016 	 -5.91529 	 87.2268 	 
*
