! wB97X-D3 SP def2-SVP
%pal
nprocs 16
end

* xyz 0 1
S 	 -91.5734 	 53.6102 	 122.084 	 
C 	 -90.9091 	 51.99 	 121.939 	 
C 	 -91.3815 	 51.1092 	 122.929 	 
C 	 -92.246 	 51.7849 	 123.827 	 
C 	 -92.4773 	 53.1006 	 123.462 	 
H 	 -92.804 	 51.3416 	 124.595 	 
C 	 -91.1355 	 49.5908 	 122.947 	 
H 	 -91.922 	 49.2074 	 123.544 	 
H 	 -90.1515 	 49.4465 	 123.513 	 
C 	 -91.0611 	 48.8563 	 121.651 	 
H 	 -91.8305 	 49.0289 	 120.972 	 
H 	 -90.0828 	 49.0232 	 121.102 	 
C 	 -91.1342 	 47.3305 	 121.775 	 
H 	 -90.4132 	 47.0718 	 122.441 	 
H 	 -92.1288 	 46.9984 	 122.048 	 
H 	 -90.954 	 46.7761 	 120.827 	 
S 	 -94.8636 	 54.5044 	 123.296 	 
C 	 -95.4813 	 55.1517 	 124.811 	 
C 	 -94.6412 	 55.027 	 125.854 	 
C 	 -93.4375 	 54.3369 	 125.493 	 
C 	 -93.4164 	 53.9761 	 124.169 	 
H 	 -94.8795 	 55.3887 	 126.867 	 
C 	 -92.3058 	 54.1154 	 126.434 	 
H 	 -91.7074 	 53.289 	 126.096 	 
H 	 -92.7245 	 53.8449 	 127.397 	 
C 	 -91.3725 	 55.2888 	 126.749 	 
H 	 -90.8972 	 55.0211 	 127.682 	 
H 	 -91.9788 	 56.102 	 127.055 	 
C 	 -90.3819 	 55.7329 	 125.688 	 
H 	 -89.6454 	 56.4362 	 126.116 	 
H 	 -90.8431 	 56.2418 	 124.836 	 
H 	 -89.9407 	 54.8413 	 125.345 	 
H 	 -90.2894 	 51.5869 	 121.212 	 
H 	 -96.4899 	 55.5522 	 124.857 	 
*
