! wB97X-D3 SP def2-SVP
%pal
nprocs 16
end

* xyz 0 1
S 	 57.5962 	 8.24546 	 65.5768 	 
C 	 57.4966 	 9.83392 	 66.3049 	 
C 	 56.1849 	 10.1374 	 66.7633 	 
C 	 55.2577 	 9.02619 	 66.5147 	 
C 	 55.8413 	 8.01504 	 65.7675 	 
H 	 54.227 	 8.97894 	 66.9529 	 
C 	 55.7705 	 11.4388 	 67.4333 	 
H 	 54.752 	 11.5931 	 67.3029 	 
H 	 56.2045 	 12.1649 	 66.7011 	 
C 	 56.3945 	 11.729 	 68.7871 	 
H 	 55.9116 	 10.958 	 69.4173 	 
H 	 57.4472 	 11.535 	 68.8272 	 
C 	 56.097 	 13.1263 	 69.3393 	 
H 	 56.3393 	 13.9159 	 68.5845 	 
H 	 55.0276 	 13.1434 	 69.5871 	 
H 	 56.7566 	 13.3918 	 70.1766 	 
S 	 56.1364 	 5.31597 	 66.0953 	 
C 	 54.7572 	 4.28548 	 65.7165 	 
C 	 53.7323 	 4.95788 	 65.0496 	 
C 	 54.0361 	 6.38193 	 64.9522 	 
C 	 55.2368 	 6.75044 	 65.554 	 
H 	 52.7815 	 4.62096 	 64.6933 	 
C 	 53.0702 	 7.47155 	 64.4267 	 
H 	 53.3253 	 8.44762 	 64.8876 	 
H 	 52.0157 	 7.33166 	 64.7434 	 
C 	 53.1441 	 7.63922 	 62.8084 	 
H 	 52.7663 	 6.75629 	 62.3092 	 
H 	 54.1811 	 7.59466 	 62.6054 	 
C 	 52.5173 	 8.91745 	 62.3826 	 
H 	 52.9096 	 9.8194 	 62.8574 	 
H 	 51.4048 	 8.86661 	 62.4626 	 
H 	 52.8412 	 9.159 	 61.3868 	 
H 	 58.4462 	 10.4112 	 66.4136 	 
H 	 54.896 	 3.22211 	 65.7848 	 
*
