! wB97X-D3 SP def2-SVP
%pal
nprocs 16
end

* xyz 0 1
S 	 -50.5454 	 22.9171 	 82.802 	 
C 	 -50.6569 	 23.3168 	 84.4843 	 
C 	 -50.1046 	 22.3032 	 85.3024 	 
C 	 -49.5462 	 21.1833 	 84.5668 	 
C 	 -49.5921 	 21.398 	 83.1969 	 
H 	 -49.2296 	 20.2872 	 85.072 	 
C 	 -50.1376 	 22.3431 	 86.7508 	 
H 	 -50.5212 	 21.4426 	 87.2926 	 
H 	 -50.8542 	 23.1179 	 87.058 	 
C 	 -48.7082 	 22.6277 	 87.4187 	 
H 	 -48.12 	 21.7241 	 87.1564 	 
H 	 -48.1141 	 23.3442 	 86.8924 	 
C 	 -48.6263 	 22.8472 	 88.9528 	 
H 	 -49.1908 	 21.9808 	 89.3622 	 
H 	 -47.5481 	 22.753 	 89.3597 	 
H 	 -49.0965 	 23.7872 	 89.3004 	 
S 	 -50.2628 	 19.8487 	 81.0915 	 
C 	 -49.0455 	 19.1249 	 80.0553 	 
C 	 -47.7845 	 19.3671 	 80.639 	 
C 	 -47.8105 	 20.1523 	 81.8201 	 
C 	 -49.1031 	 20.5541 	 82.1385 	 
H 	 -46.9048 	 18.9635 	 80.18 	 
C 	 -46.5472 	 20.429 	 82.6687 	 
H 	 -46.6603 	 21.3642 	 83.2114 	 
H 	 -45.7499 	 20.7435 	 82.005 	 
C 	 -46.245 	 19.2869 	 83.6229 	 
H 	 -45.9409 	 18.2966 	 83.2069 	 
H 	 -47.1416 	 19.0552 	 84.1633 	 
C 	 -45.1494 	 19.7604 	 84.5666 	 
H 	 -45.051 	 19.0205 	 85.2734 	 
H 	 -45.43 	 20.6318 	 85.2338 	 
H 	 -44.2503 	 19.9963 	 84.0521 	 
H 	 -51.078 	 24.1677 	 84.9443 	 
H 	 -49.2436 	 18.5055 	 79.1129 	 
*
