! wB97X-D3 SP def2-SVP
%pal
nprocs 16
end

* xyz 0 1
S 	 7.32262 	 -27.5611 	 83.88 	 
C 	 6.52165 	 -26.7604 	 85.2015 	 
C 	 6.05689 	 -25.4881 	 84.7992 	 
C 	 6.65847 	 -25.1264 	 83.6041 	 
C 	 7.37298 	 -26.1208 	 82.9125 	 
H 	 6.75012 	 -24.2184 	 83.0845 	 
C 	 5.34872 	 -24.4471 	 85.6526 	 
H 	 4.45801 	 -24.8798 	 86.0273 	 
H 	 5.03603 	 -23.5403 	 85.0391 	 
C 	 6.19517 	 -23.987 	 86.8811 	 
H 	 6.59015 	 -24.945 	 87.376 	 
H 	 7.08404 	 -23.4337 	 86.5899 	 
C 	 5.40042 	 -23.2915 	 87.9995 	 
H 	 5.27848 	 -22.2254 	 87.8956 	 
H 	 4.41393 	 -23.6633 	 88.1774 	 
H 	 6.01526 	 -23.2672 	 88.9062 	 
S 	 7.11278 	 -25.9697 	 80.2162 	 
C 	 8.39422 	 -25.3004 	 79.2881 	 
C 	 9.52355 	 -24.9997 	 80.0289 	 
C 	 9.25517 	 -25.1972 	 81.4018 	 
C 	 8.05865 	 -25.9182 	 81.6729 	 
H 	 10.3415 	 -24.5787 	 79.5228 	 
C 	 10.295 	 -24.6597 	 82.3971 	 
H 	 11.2966 	 -24.8956 	 82.0408 	 
H 	 10.0672 	 -25.1704 	 83.3801 	 
C 	 10.2679 	 -23.0717 	 82.5833 	 
H 	 9.31831 	 -22.753 	 82.9817 	 
H 	 10.2989 	 -22.4911 	 81.7007 	 
C 	 11.2798 	 -22.648 	 83.6278 	 
H 	 11.1928 	 -21.5575 	 83.674 	 
H 	 12.3433 	 -22.856 	 83.3903 	 
H 	 11.1153 	 -23.0343 	 84.6283 	 
H 	 6.13588 	 -27.2508 	 86.02 	 
H 	 8.33857 	 -25.1726 	 78.2101 	 
*
