! wB97X-D3 SP def2-SVP
%pal
nprocs 16
end

* xyz 0 1
S 	 29.1981 	 17.2817 	 71.5229 	 
C 	 28.761 	 15.6187 	 71.9321 	 
C 	 29.8757 	 14.9535 	 72.4723 	 
C 	 31.0433 	 15.7888 	 72.6321 	 
C 	 30.8722 	 17.0387 	 72.0433 	 
H 	 32.0391 	 15.572 	 72.9329 	 
C 	 29.8868 	 13.5047 	 72.7661 	 
H 	 29.0786 	 13.2821 	 73.5131 	 
H 	 30.7784 	 13.4658 	 73.3743 	 
C 	 29.8542 	 12.6082 	 71.5259 	 
H 	 29.0581 	 12.84 	 70.7647 	 
H 	 30.7882 	 12.8129 	 71.0403 	 
C 	 29.9485 	 11.0795 	 71.9261 	 
H 	 29.7115 	 10.4044 	 71.0967 	 
H 	 30.9044 	 10.8109 	 72.3825 	 
H 	 29.1719 	 10.8185 	 72.6039 	 
S 	 31.6878 	 18.7929 	 70.0264 	 
C 	 33.4316 	 19.1095 	 69.9648 	 
C 	 34.064 	 18.855 	 71.1581 	 
C 	 33.2287 	 18.193 	 72.0685 	 
C 	 31.9245 	 17.9523 	 71.587 	 
H 	 35.1115 	 19.1015 	 71.1301 	 
C 	 33.8271 	 17.7127 	 73.3389 	 
H 	 33.0421 	 17.446 	 74.1098 	 
H 	 34.2459 	 18.6334 	 73.8223 	 
C 	 34.8349 	 16.5174 	 73.3001 	 
H 	 35.7753 	 16.6448 	 72.6568 	 
H 	 34.3722 	 15.6523 	 72.7838 	 
C 	 35.2727 	 16.1211 	 74.7128 	 
H 	 36.218 	 15.5474 	 74.8017 	 
H 	 34.4165 	 15.5018 	 75.108 	 
H 	 35.5769 	 17.0148 	 75.2127 	 
H 	 27.8491 	 15.1608 	 71.6384 	 
H 	 33.9517 	 19.5789 	 69.1049 	 
*
