! wB97X-D3 SP def2-SVP
%pal
nprocs 16
end

* xyz 0 1
S 	 -3.07036 	 -13.1173 	 69.0011 	 
C 	 -3.84978 	 -14.5492 	 68.3458 	 
C 	 -5.00623 	 -14.286 	 67.5882 	 
C 	 -5.28813 	 -12.9004 	 67.6628 	 
C 	 -4.36737 	 -12.1715 	 68.3785 	 
H 	 -6.06431 	 -12.4112 	 67.0505 	 
C 	 -5.71792 	 -15.2144 	 66.6679 	 
H 	 -5.00178 	 -15.9302 	 66.2802 	 
H 	 -6.02943 	 -14.8014 	 65.7013 	 
C 	 -6.83405 	 -16.1181 	 67.308 	 
H 	 -7.40626 	 -16.524 	 66.4996 	 
H 	 -6.41844 	 -16.9877 	 67.8509 	 
C 	 -7.77011 	 -15.3465 	 68.2368 	 
H 	 -7.89701 	 -14.3494 	 67.7832 	 
H 	 -8.79791 	 -15.6295 	 68.3046 	 
H 	 -7.35525 	 -15.2698 	 69.209 	 
S 	 -5.6585 	 -9.98013 	 69.468 	 
C 	 -4.95956 	 -8.41353 	 69.2724 	 
C 	 -3.93497 	 -8.36048 	 68.328 	 
C 	 -3.58552 	 -9.72824 	 67.9347 	 
C 	 -4.37492 	 -10.7266 	 68.496 	 
H 	 -3.57063 	 -7.43086 	 67.9578 	 
C 	 -2.649 	 -10.0079 	 66.7721 	 
H 	 -2.68851 	 -9.20875 	 66.0715 	 
H 	 -3.02831 	 -10.8179 	 66.167 	 
C 	 -1.12684 	 -10.0367 	 67.0528 	 
H 	 -1.02995 	 -10.7737 	 67.9008 	 
H 	 -0.841617 	 -9.03431 	 67.2702 	 
C 	 -0.27317 	 -10.5504 	 65.8672 	 
H 	 -0.48921 	 -11.6247 	 65.7231 	 
H 	 0.77249 	 -10.5961 	 65.9905 	 
H 	 -0.413402 	 -9.95818 	 64.925 	 
H 	 -3.4174 	 -15.5608 	 68.4435 	 
H 	 -5.32612 	 -7.54283 	 69.7865 	 
*
