! wB97X-D3 SP def2-SVP
%pal
nprocs 16
end

* xyz 0 1
S 	 53.2944 	 3.19366 	 92.8085 	 
C 	 53.538 	 4.78803 	 92.0648 	 
C 	 52.4839 	 5.62193 	 92.246 	 
C 	 51.4063 	 4.88153 	 92.7779 	 
C 	 51.6011 	 3.55846 	 93.0503 	 
H 	 50.4316 	 5.26861 	 92.8355 	 
C 	 52.3156 	 7.03857 	 91.7948 	 
H 	 51.1881 	 7.16586 	 91.8007 	 
H 	 52.639 	 7.15427 	 90.7544 	 
C 	 52.989 	 8.06387 	 92.7975 	 
H 	 52.7543 	 9.03337 	 92.4814 	 
H 	 52.3639 	 7.86495 	 93.6505 	 
C 	 54.4669 	 7.8508 	 93.156 	 
H 	 55.044 	 7.91012 	 92.226 	 
H 	 54.754 	 8.618 	 93.8639 	 
H 	 54.6225 	 6.91593 	 93.738 	 
S 	 50.7106 	 1.22639 	 91.9329 	 
C 	 49.3618 	 0.396349 	 92.7108 	 
C 	 48.6387 	 1.20816 	 93.5288 	 
C 	 49.2792 	 2.49043 	 93.7797 	 
C 	 50.5559 	 2.5321 	 93.1813 	 
H 	 47.6655 	 0.877653 	 93.961 	 
C 	 48.6346 	 3.54864 	 94.7234 	 
H 	 47.6318 	 3.80326 	 94.4053 	 
H 	 49.137 	 4.42967 	 94.4154 	 
C 	 48.6379 	 3.32235 	 96.1828 	 
H 	 48.4187 	 2.29389 	 96.3819 	 
H 	 47.8181 	 4.01582 	 96.4766 	 
C 	 49.8763 	 3.68242 	 97.0491 	 
H 	 50.7997 	 3.04541 	 96.8845 	 
H 	 49.5779 	 3.6255 	 98.0981 	 
H 	 50.2035 	 4.68117 	 96.9056 	 
H 	 54.4254 	 5.10006 	 91.5803 	 
H 	 49.0125 	 -0.494823 	 92.29 	 
*
