! wB97X-D3 SP def2-SVP
%pal
nprocs 16
end

* xyz 0 1
S 	 -50.1419 	 32.9238 	 91.2863 	 
C 	 -50.4624 	 31.2667 	 90.934 	 
C 	 -51.1034 	 30.6165 	 91.937 	 
C 	 -51.4733 	 31.5207 	 93.011 	 
C 	 -51.0291 	 32.8553 	 92.7928 	 
H 	 -51.8578 	 31.2418 	 93.9758 	 
C 	 -51.4951 	 29.1158 	 91.9621 	 
H 	 -50.9585 	 28.4794 	 92.6827 	 
H 	 -50.9153 	 28.8422 	 91.0759 	 
C 	 -52.9428 	 28.6166 	 91.6756 	 
H 	 -53.3267 	 29.0218 	 90.8202 	 
H 	 -52.7753 	 27.5532 	 91.4286 	 
C 	 -53.8591 	 28.836 	 92.875 	 
H 	 -53.8951 	 29.7941 	 93.334 	 
H 	 -54.8911 	 28.5909 	 92.6928 	 
H 	 -53.5955 	 28.1575 	 93.723 	 
S 	 -51.4768 	 35.4768 	 93.0879 	 
C 	 -51.3393 	 36.3133 	 94.6402 	 
C 	 -51.0492 	 35.4165 	 95.6538 	 
C 	 -50.7893 	 34.0668 	 95.1544 	 
C 	 -50.9882 	 33.9691 	 93.7327 	 
H 	 -50.9462 	 35.8739 	 96.7029 	 
C 	 -50.4301 	 32.9484 	 96.1359 	 
H 	 -49.5463 	 33.4036 	 96.6779 	 
H 	 -49.9532 	 32.0948 	 95.552 	 
C 	 -51.5113 	 32.3268 	 96.9248 	 
H 	 -51.1799 	 31.3181 	 97.3183 	 
H 	 -52.3717 	 32.1556 	 96.2315 	 
C 	 -51.9116 	 33.1309 	 98.0934 	 
H 	 -52.6142 	 32.5169 	 98.721 	 
H 	 -52.4458 	 33.9914 	 97.8483 	 
H 	 -51.2682 	 33.328 	 98.8871 	 
H 	 -50.0951 	 30.8031 	 90.0212 	 
H 	 -51.5513 	 37.3887 	 94.8134 	 
*
