! wB97X-D3 SP def2-SVP
%pal
nprocs 16
end

* xyz 0 1
S 	 -73.3994 	 42.6258 	 126.282 	 
C 	 -73.2259 	 43.8929 	 127.506 	 
C 	 -72.0734 	 44.6411 	 127.362 	 
C 	 -71.2634 	 44.1754 	 126.252 	 
C 	 -71.7853 	 43.122 	 125.586 	 
H 	 -70.219 	 44.4634 	 126.008 	 
C 	 -71.584 	 45.7727 	 128.19 	 
H 	 -72.3689 	 46.4843 	 128.408 	 
H 	 -70.939 	 46.4016 	 127.575 	 
C 	 -70.7385 	 45.3856 	 129.414 	 
H 	 -69.7969 	 45.0014 	 128.959 	 
H 	 -70.473 	 46.2764 	 129.954 	 
C 	 -71.4644 	 44.385 	 130.35 	 
H 	 -72.1087 	 43.6939 	 129.883 	 
H 	 -70.7472 	 43.8289 	 130.946 	 
H 	 -72.0953 	 45.0119 	 131.055 	 
S 	 -70.2305 	 43.0998 	 123.322 	 
C 	 -70.1112 	 41.6702 	 122.367 	 
C 	 -70.7535 	 40.6346 	 123.036 	 
C 	 -71.3393 	 40.9424 	 124.3 	 
C 	 -71.1276 	 42.2926 	 124.592 	 
H 	 -70.849 	 39.745 	 122.529 	 
C 	 -72.0373 	 39.8516 	 125.069 	 
H 	 -72.3129 	 39.215 	 124.31 	 
H 	 -72.9129 	 40.2316 	 125.619 	 
C 	 -71.0885 	 39.075 	 126.037 	 
H 	 -70.0379 	 39.5284 	 125.854 	 
H 	 -71.0454 	 38.0178 	 125.667 	 
C 	 -71.3752 	 39.115 	 127.482 	 
H 	 -72.3668 	 38.6046 	 127.665 	 
H 	 -71.5994 	 40.0561 	 127.874 	 
H 	 -70.5895 	 38.4928 	 127.989 	 
H 	 -73.9492 	 44.0508 	 128.3 	 
H 	 -69.8422 	 41.5251 	 121.306 	 
*
