! wB97X-D3 SP def2-SVP
%pal
nprocs 16
end

* xyz 0 1
S 	 -5.11213 	 74.3844 	 45.8194 	 
C 	 -4.57835 	 75.6426 	 46.9548 	 
C 	 -5.41376 	 75.6398 	 48.0686 	 
C 	 -6.42078 	 74.6004 	 47.9858 	 
C 	 -6.40282 	 73.8418 	 46.8212 	 
H 	 -7.05801 	 74.3704 	 48.8114 	 
C 	 -5.24334 	 76.6643 	 49.2004 	 
H 	 -4.14269 	 76.7858 	 49.3397 	 
H 	 -5.61421 	 76.1876 	 50.0891 	 
C 	 -5.98001 	 77.9731 	 48.9607 	 
H 	 -6.08887 	 78.1302 	 47.8635 	 
H 	 -6.9875 	 77.8989 	 49.2085 	 
C 	 -5.43391 	 79.2402 	 49.7001 	 
H 	 -5.77494 	 79.272 	 50.761 	 
H 	 -4.35894 	 79.4086 	 49.6108 	 
H 	 -5.99898 	 80.1067 	 49.3048 	 
S 	 -6.42346 	 71.1453 	 46.7173 	 
C 	 -7.84699 	 70.4128 	 46.2267 	 
C 	 -8.85012 	 71.3139 	 45.9332 	 
C 	 -8.56331 	 72.6585 	 46.2845 	 
C 	 -7.26747 	 72.7231 	 46.6477 	 
H 	 -9.83694 	 70.8952 	 45.6416 	 
C 	 -9.58614 	 73.7646 	 46.1882 	 
H 	 -9.17674 	 74.6966 	 45.715 	 
H 	 -9.82371 	 74.0183 	 47.1868 	 
C 	 -10.9006 	 73.3571 	 45.4516 	 
H 	 -11.3396 	 72.5354 	 45.9353 	 
H 	 -10.6192 	 73.0123 	 44.4521 	 
C 	 -11.8532 	 74.528 	 45.2601 	 
H 	 -11.96 	 75.1384 	 46.1517 	 
H 	 -12.781 	 74.1672 	 44.8714 	 
H 	 -11.5119 	 75.1902 	 44.4542 	 
H 	 -3.88416 	 76.4921 	 46.8895 	 
H 	 -7.7713 	 69.3634 	 45.9249 	 
*
