! wB97X-D3 SP def2-SVP
%pal
nprocs 16
end

* xyz 0 1
S 	 -8.62306 	 64.3276 	 50.5058 	 
C 	 -8.89024 	 62.5988 	 50.6593 	 
C 	 -8.41506 	 62.0548 	 51.8449 	 
C 	 -7.78326 	 63.0916 	 52.6114 	 
C 	 -7.77327 	 64.3012 	 51.9637 	 
H 	 -7.38044 	 62.9163 	 53.5525 	 
C 	 -8.41243 	 60.5922 	 52.1765 	 
H 	 -9.34334 	 60.1736 	 51.7704 	 
H 	 -8.39035 	 60.4334 	 53.2585 	 
C 	 -7.25436 	 59.7887 	 51.5483 	 
H 	 -7.55038 	 58.7216 	 51.6685 	 
H 	 -7.28013 	 60.06 	 50.4928 	 
C 	 -5.93164 	 60.0067 	 52.1619 	 
H 	 -5.99337 	 59.737 	 53.2384 	 
H 	 -5.15866 	 59.5047 	 51.5772 	 
H 	 -5.60234 	 61.0194 	 52.1297 	 
S 	 -8.22035 	 66.4763 	 53.5329 	 
C 	 -6.86194 	 67.5061 	 53.8798 	 
C 	 -5.68599 	 66.9876 	 53.4571 	 
C 	 -5.83896 	 65.7802 	 52.7389 	 
C 	 -7.17512 	 65.4844 	 52.5242 	 
H 	 -4.75077 	 67.4746 	 53.7582 	 
C 	 -4.63014 	 65.1293 	 52.1325 	 
H 	 -3.78878 	 65.8662 	 52.1048 	 
H 	 -4.74672 	 64.9455 	 51.1078 	 
C 	 -3.96905 	 63.9317 	 52.9068 	 
H 	 -4.61595 	 63.0411 	 52.8049 	 
H 	 -3.84572 	 64.1554 	 53.9074 	 
C 	 -2.66546 	 63.5027 	 52.2433 	 
H 	 -2.31453 	 62.5482 	 52.7476 	 
H 	 -1.98242 	 64.3262 	 52.5195 	 
H 	 -2.63921 	 63.3799 	 51.1051 	 
H 	 -9.37508 	 61.9192 	 49.8915 	 
H 	 -6.92109 	 68.477 	 54.4178 	 
*
