! wB97X-D3 SP def2-SVP
%pal
nprocs 16
end

* xyz 0 1
S 	 56.3369 	 14.8268 	 59.7808 	 
C 	 57.1927 	 16.0356 	 60.7219 	 
C 	 57.5437 	 15.5112 	 61.9598 	 
C 	 57.0562 	 14.1969 	 62.1927 	 
C 	 56.3867 	 13.6495 	 61.1042 	 
H 	 57.1648 	 13.5342 	 63.0528 	 
C 	 58.3148 	 16.2795 	 63.0409 	 
H 	 59.3728 	 16.3411 	 62.6537 	 
H 	 58.4193 	 15.7473 	 64.0001 	 
C 	 57.7956 	 17.707 	 63.3808 	 
H 	 58.4232 	 18.1361 	 64.1264 	 
H 	 57.9186 	 18.2778 	 62.46 	 
C 	 56.3724 	 17.7309 	 64.0066 	 
H 	 55.6585 	 17.7438 	 63.13 	 
H 	 56.1034 	 16.8924 	 64.6633 	 
H 	 56.2548 	 18.6948 	 64.4776 	 
S 	 54.3308 	 11.8834 	 60.8799 	 
C 	 54.6355 	 10.1496 	 61.0143 	 
C 	 55.9391 	 9.89337 	 61.1819 	 
C 	 56.7588 	 11.061 	 61.2227 	 
C 	 56.037 	 12.2321 	 60.9932 	 
H 	 56.1942 	 8.83799 	 61.2959 	 
C 	 58.2368 	 10.9282 	 61.5001 	 
H 	 58.3384 	 10 	 62.0773 	 
H 	 58.3564 	 11.734 	 62.277 	 
C 	 59.1825 	 10.8978 	 60.3069 	 
H 	 58.9622 	 10.0206 	 59.7234 	 
H 	 60.2137 	 10.61 	 60.7061 	 
C 	 59.2784 	 12.1683 	 59.4777 	 
H 	 59.8478 	 12.0778 	 58.5453 	 
H 	 59.7718 	 12.9608 	 60.103 	 
H 	 58.2686 	 12.5896 	 59.237 	 
H 	 57.5871 	 16.9767 	 60.1861 	 
H 	 53.824 	 9.36763 	 60.9991 	 
*
