! wB97X-D3 SP def2-SVP
%pal
nprocs 16
end

* xyz 0 1
S 	 37.336 	 9.44857 	 79.3029 	 
C 	 38.4846 	 8.27568 	 80.0993 	 
C 	 39.609 	 8.99088 	 80.4917 	 
C 	 39.5344 	 10.3681 	 80.2341 	 
C 	 38.4347 	 10.7806 	 79.5937 	 
H 	 40.2183 	 11.1729 	 80.4613 	 
C 	 40.8368 	 8.39366 	 81.1606 	 
H 	 40.4293 	 7.67773 	 81.9033 	 
H 	 41.2844 	 9.22336 	 81.7316 	 
C 	 41.8208 	 7.60949 	 80.2972 	 
H 	 42.5102 	 7.06072 	 80.9592 	 
H 	 41.3231 	 6.76858 	 79.7255 	 
C 	 42.5077 	 8.53087 	 79.2991 	 
H 	 43.3485 	 8.04493 	 78.7499 	 
H 	 41.9051 	 8.86295 	 78.5023 	 
H 	 42.9164 	 9.42581 	 79.8737 	 
S 	 37.5304 	 12.4858 	 77.7239 	 
C 	 37.4694 	 14.2257 	 77.9998 	 
C 	 37.9248 	 14.4858 	 79.2753 	 
C 	 38.209 	 13.3162 	 80.0384 	 
C 	 38.1647 	 12.1416 	 79.2795 	 
H 	 37.9549 	 15.4896 	 79.5376 	 
C 	 38.7817 	 13.332 	 81.5112 	 
H 	 39.1794 	 12.3836 	 81.7233 	 
H 	 38.0519 	 13.4699 	 82.3671 	 
C 	 39.9584 	 14.3542 	 81.6829 	 
H 	 40.1412 	 14.4036 	 82.7695 	 
H 	 39.5804 	 15.3687 	 81.4794 	 
C 	 41.2385 	 14.05 	 81.014 	 
H 	 41.765 	 13.2285 	 81.3934 	 
H 	 41.8804 	 14.8997 	 81.1037 	 
H 	 41.007 	 13.7351 	 80.0516 	 
H 	 38.4605 	 7.21969 	 80.2907 	 
H 	 37.3044 	 14.9563 	 77.2061 	 
*
