! wB97X-D3 SP def2-SVP
%pal
nprocs 16
end

* xyz 0 1
S 	 -113.263 	 55.8364 	 111.512 	 
C 	 -113.437 	 54.472 	 110.403 	 
C 	 -113.262 	 53.2486 	 111.028 	 
C 	 -112.92 	 53.5344 	 112.362 	 
C 	 -112.899 	 54.8607 	 112.816 	 
H 	 -112.661 	 52.853 	 113.195 	 
C 	 -113.255 	 51.7979 	 110.461 	 
H 	 -112.93 	 51.7425 	 109.413 	 
H 	 -114.326 	 51.5248 	 110.398 	 
C 	 -112.568 	 50.6404 	 111.16 	 
H 	 -111.542 	 50.8644 	 111.222 	 
H 	 -112.981 	 50.6511 	 112.127 	 
C 	 -112.804 	 49.3142 	 110.451 	 
H 	 -112.669 	 49.4098 	 109.386 	 
H 	 -111.991 	 48.6074 	 110.841 	 
H 	 -113.76 	 48.8483 	 110.589 	 
S 	 -111.796 	 56.972 	 114.296 	 
C 	 -111.928 	 57.0196 	 116.013 	 
C 	 -112.715 	 55.9603 	 116.449 	 
C 	 -113.142 	 55.0368 	 115.402 	 
C 	 -112.594 	 55.3478 	 114.178 	 
H 	 -112.901 	 55.8229 	 117.481 	 
C 	 -114.15 	 53.9303 	 115.713 	 
H 	 -114.509 	 53.457 	 114.844 	 
H 	 -114.997 	 54.5509 	 116.011 	 
C 	 -113.86 	 53.0658 	 116.925 	 
H 	 -113.646 	 53.5818 	 117.83 	 
H 	 -112.963 	 52.449 	 116.842 	 
C 	 -115.037 	 52.1117 	 117.235 	 
H 	 -115.194 	 51.2523 	 116.559 	 
H 	 -115.998 	 52.6314 	 117.338 	 
H 	 -114.735 	 51.6452 	 118.183 	 
H 	 -113.563 	 54.5455 	 109.24 	 
H 	 -111.413 	 57.7501 	 116.666 	 
*
