! wB97X-D3 SP def2-SVP
%pal
nprocs 16
end

* xyz 0 1
S 	 42.1532 	 16.3384 	 85.956 	 
C 	 42.6881 	 15.8935 	 84.3467 	 
C 	 42.1871 	 14.6399 	 83.9989 	 
C 	 41.4033 	 14.104 	 85.0145 	 
C 	 41.3983 	 14.7722 	 86.2068 	 
H 	 40.9134 	 13.1615 	 84.8821 	 
C 	 42.3546 	 13.9594 	 82.6662 	 
H 	 42.3282 	 14.7963 	 81.9632 	 
H 	 41.5731 	 13.3387 	 82.4326 	 
C 	 43.6271 	 13.3337 	 82.4118 	 
H 	 44.4387 	 14.0873 	 82.4644 	 
H 	 43.8408 	 12.5744 	 83.1603 	 
C 	 43.5338 	 12.6666 	 81.0762 	 
H 	 42.6795 	 11.902 	 81.1176 	 
H 	 43.3922 	 13.424 	 80.3335 	 
H 	 44.4465 	 12.1339 	 80.7123 	 
S 	 40.0804 	 15.9742 	 88.251 	 
C 	 39.5089 	 14.971 	 89.5873 	 
C 	 39.5729 	 13.6231 	 89.2993 	 
C 	 40.2507 	 13.39 	 88.1269 	 
C 	 40.6302 	 14.5535 	 87.4399 	 
H 	 38.9115 	 12.9151 	 89.7504 	 
C 	 40.4734 	 11.9453 	 87.6607 	 
H 	 41.1204 	 11.3177 	 88.2587 	 
H 	 41.0499 	 12.018 	 86.7013 	 
C 	 39.195 	 11.2558 	 87.3415 	 
H 	 38.7703 	 11.8989 	 86.5916 	 
H 	 38.3814 	 11.2358 	 88.1069 	 
C 	 39.3387 	 9.90519 	 86.7033 	 
H 	 38.3698 	 9.51336 	 86.5032 	 
H 	 39.9465 	 9.27246 	 87.3781 	 
H 	 39.8912 	 10.0851 	 85.8004 	 
H 	 43.2947 	 16.502 	 83.6859 	 
H 	 38.8115 	 15.305 	 90.2908 	 
*
