! wB97X-D3 SP def2-SVP
%pal
nprocs 16
end

* xyz 0 1
S 	 8.11017 	 -18.5399 	 56.4688 	 
C 	 7.97089 	 -17.3808 	 57.8057 	 
C 	 8.51074 	 -16.1692 	 57.5205 	 
C 	 8.90873 	 -16.0754 	 56.1459 	 
C 	 8.70638 	 -17.228 	 55.4609 	 
H 	 9.42264 	 -15.2786 	 55.6407 	 
C 	 8.67279 	 -14.9751 	 58.4672 	 
H 	 9.67147 	 -15.0623 	 58.8936 	 
H 	 8.00112 	 -15.0802 	 59.3396 	 
C 	 8.32692 	 -13.6102 	 57.8941 	 
H 	 8.34173 	 -12.84 	 58.5632 	 
H 	 9.01208 	 -13.3242 	 57.0837 	 
C 	 6.93822 	 -13.6761 	 57.222 	 
H 	 6.25429 	 -14.2309 	 57.8509 	 
H 	 6.51605 	 -12.6989 	 56.897 	 
H 	 7.10921 	 -14.1629 	 56.2335 	 
S 	 10.7019 	 -17.0312 	 53.4765 	 
C 	 10.1735 	 -17.2086 	 51.826 	 
C 	 8.85268 	 -17.5458 	 51.6676 	 
C 	 8.26557 	 -17.8138 	 52.931 	 
C 	 9.0529 	 -17.5001 	 54.044 	 
H 	 8.39014 	 -17.7276 	 50.6426 	 
C 	 6.77143 	 -18.2605 	 52.9919 	 
H 	 6.26391 	 -17.3418 	 52.6904 	 
H 	 6.59863 	 -18.4604 	 54.0401 	 
C 	 6.35708 	 -19.5443 	 52.2228 	 
H 	 6.85891 	 -20.3664 	 52.7786 	 
H 	 6.62351 	 -19.6369 	 51.1727 	 
C 	 4.83807 	 -19.7633 	 52.3711 	 
H 	 4.39392 	 -19.6896 	 53.3779 	 
H 	 4.6384 	 -20.7002 	 51.9401 	 
H 	 4.29307 	 -19.1111 	 51.7069 	 
H 	 7.5105 	 -17.5228 	 58.7909 	 
H 	 10.8541 	 -17.1239 	 51.0079 	 
*
