! wB97X-D3 SP def2-SVP
%pal
nprocs 16
end

* xyz 0 1
S 	 -114.236 	 45.4923 	 133.577 	 
C 	 -114.743 	 44.412 	 134.867 	 
C 	 -115.679 	 44.9595 	 135.718 	 
C 	 -116.01 	 46.2712 	 135.205 	 
C 	 -115.429 	 46.7082 	 134.023 	 
H 	 -116.68 	 46.911 	 135.707 	 
C 	 -116.203 	 44.3928 	 137.005 	 
H 	 -116.926 	 43.5996 	 136.827 	 
H 	 -116.843 	 45.2015 	 137.509 	 
C 	 -115.064 	 44.0779 	 138.07 	 
H 	 -115.546 	 43.8573 	 139.043 	 
H 	 -114.513 	 43.2463 	 137.69 	 
C 	 -114.056 	 45.2302 	 138.292 	 
H 	 -114.459 	 46.0268 	 138.964 	 
H 	 -113.183 	 44.8442 	 138.796 	 
H 	 -113.765 	 45.7402 	 137.392 	 
S 	 -114.076 	 48.5067 	 132.413 	 
C 	 -114.775 	 49.9174 	 131.736 	 
C 	 -116.083 	 50.0484 	 132.165 	 
C 	 -116.488 	 48.9571 	 133.094 	 
C 	 -115.524 	 47.995 	 133.264 	 
H 	 -116.633 	 50.8473 	 131.737 	 
C 	 -117.855 	 48.8131 	 133.647 	 
H 	 -118.02 	 49.6792 	 134.267 	 
H 	 -117.892 	 47.867 	 134.19 	 
C 	 -118.993 	 48.7334 	 132.719 	 
H 	 -118.898 	 49.7043 	 132.22 	 
H 	 -120.017 	 48.6175 	 133.152 	 
C 	 -118.831 	 47.6119 	 131.583 	 
H 	 -117.988 	 47.7516 	 130.95 	 
H 	 -119.705 	 47.6305 	 130.981 	 
H 	 -118.762 	 46.5666 	 131.935 	 
H 	 -114.413 	 43.3525 	 135.085 	 
H 	 -114.282 	 50.5619 	 130.985 	 
*
