! wB97X-D3 SP def2-SVP
%pal
nprocs 16
end

* xyz 0 1
S 	 59.5839 	 -4.77969 	 88.4683 	 
C 	 57.9087 	 -4.66217 	 88.8366 	 
C 	 57.1569 	 -4.36027 	 87.7182 	 
C 	 57.9724 	 -4.16913 	 86.565 	 
C 	 59.329 	 -4.40632 	 86.7699 	 
H 	 57.6397 	 -4.05208 	 85.5932 	 
C 	 55.6363 	 -4.33211 	 87.5812 	 
H 	 55.1795 	 -5.07911 	 88.244 	 
H 	 55.4476 	 -4.72289 	 86.5506 	 
C 	 54.9634 	 -2.96856 	 87.7734 	 
H 	 53.9356 	 -3.10046 	 87.9972 	 
H 	 55.5268 	 -2.41766 	 88.5993 	 
C 	 55.0999 	 -2.12059 	 86.4804 	 
H 	 56.1831 	 -1.87821 	 86.2965 	 
H 	 54.6422 	 -2.74226 	 85.6933 	 
H 	 54.5459 	 -1.2337 	 86.675 	 
S 	 62.0714 	 -4.29607 	 86.5405 	 
C 	 62.7994 	 -4.22021 	 84.9656 	 
C 	 61.9172 	 -3.95669 	 83.9699 	 
C 	 60.5507 	 -4.07291 	 84.4655 	 
C 	 60.4462 	 -4.33999 	 85.8226 	 
H 	 62.285 	 -3.86436 	 82.9802 	 
C 	 59.3057 	 -3.91605 	 83.5558 	 
H 	 58.552 	 -4.66132 	 83.8016 	 
H 	 59.7268 	 -4.1954 	 82.6385 	 
C 	 58.8114 	 -2.52879 	 83.2907 	 
H 	 59.6022 	 -1.86315 	 82.8843 	 
H 	 58.4831 	 -2.01211 	 84.1647 	 
C 	 57.618 	 -2.52753 	 82.3127 	 
H 	 57.0027 	 -3.42581 	 82.6058 	 
H 	 57.9237 	 -2.57343 	 81.3055 	 
H 	 57.0229 	 -1.5646 	 82.4106 	 
H 	 57.3611 	 -4.78527 	 89.8154 	 
H 	 63.8609 	 -4.22712 	 84.8517 	 
*
