! wB97X-D3 SP def2-SVP
%pal
nprocs 16
end

* xyz 0 1
S 	 -2.13399 	 27.1434 	 37.5776 	 
C 	 -2.06005 	 26.2178 	 36.0762 	 
C 	 -1.06034 	 26.7054 	 35.2704 	 
C 	 -0.228348 	 27.674 	 35.9067 	 
C 	 -0.55569 	 27.8613 	 37.2238 	 
H 	 0.708743 	 28.0414 	 35.5747 	 
C 	 -0.793804 	 26.2429 	 33.8068 	 
H 	 -0.0459571 	 25.486 	 33.8874 	 
H 	 -0.268604 	 27.1747 	 33.3229 	 
C 	 -2.03315 	 25.8038 	 32.9974 	 
H 	 -2.42064 	 24.9285 	 33.5174 	 
H 	 -2.7667 	 26.6591 	 32.9632 	 
C 	 -1.67042 	 25.4563 	 31.5464 	 
H 	 -0.855067 	 24.6793 	 31.616 	 
H 	 -2.44192 	 24.8804 	 31.0042 	 
H 	 -1.19955 	 26.1986 	 30.8891 	 
S 	 -0.99642 	 29.7928 	 39.1901 	 
C 	 0.357829 	 30.4032 	 40.0598 	 
C 	 1.52739 	 29.9064 	 39.5149 	 
C 	 1.41941 	 28.9492 	 38.4599 	 
C 	 0.0625746 	 28.7193 	 38.2334 	 
H 	 2.45404 	 30.136 	 39.9592 	 
C 	 2.56135 	 28.1953 	 37.8741 	 
H 	 3.27461 	 28.9329 	 37.4421 	 
H 	 2.18524 	 27.5871 	 37.106 	 
C 	 3.31147 	 27.3227 	 38.9267 	 
H 	 3.55261 	 27.924 	 39.8223 	 
H 	 4.19988 	 26.9914 	 38.4527 	 
C 	 2.42506 	 26.184 	 39.4006 	 
H 	 1.45457 	 26.4261 	 39.677 	 
H 	 2.8077 	 25.6636 	 40.29 	 
H 	 2.47611 	 25.4952 	 38.5784 	 
H 	 -2.7639 	 25.464 	 35.7319 	 
H 	 0.330119 	 31.1481 	 40.8423 	 
*
