! wB97X-D3 SP def2-SVP
%pal
nprocs 16
end

* xyz 0 1
S 	 32.3773 	 25.8388 	 55.0154 	 
C 	 31.3452 	 27.2354 	 54.781 	 
C 	 30.3031 	 27.263 	 55.6636 	 
C 	 30.395 	 26.1633 	 56.6395 	 
C 	 31.5494 	 25.4287 	 56.5109 	 
H 	 29.835 	 25.9066 	 57.4907 	 
C 	 29.2677 	 28.2599 	 55.8135 	 
H 	 28.4344 	 27.9191 	 56.4679 	 
H 	 28.7971 	 28.3146 	 54.79 	 
C 	 29.6193 	 29.6983 	 56.2505 	 
H 	 29.9294 	 29.6973 	 57.275 	 
H 	 30.5953 	 29.9381 	 55.676 	 
C 	 28.4749 	 30.7196 	 56.0265 	 
H 	 27.7552 	 30.5643 	 56.749 	 
H 	 28.7941 	 31.7427 	 55.9872 	 
H 	 28.0139 	 30.4927 	 55.0806 	 
S 	 32.274 	 24.4825 	 59.0441 	 
C 	 32.7897 	 22.8173 	 59.1642 	 
C 	 32.4709 	 22.1908 	 58.0246 	 
C 	 31.9367 	 22.9906 	 56.9783 	 
C 	 31.9286 	 24.311 	 57.3046 	 
H 	 32.6591 	 21.1596 	 57.8903 	 
C 	 31.6934 	 22.4042 	 55.6074 	 
H 	 31.0593 	 23.0723 	 55.1164 	 
H 	 31.0605 	 21.5295 	 55.7399 	 
C 	 32.9914 	 22.1288 	 54.9296 	 
H 	 33.6165 	 21.4557 	 55.5067 	 
H 	 33.5176 	 23.1076 	 54.8525 	 
C 	 32.7464 	 21.3171 	 53.6127 	 
H 	 31.9868 	 21.8239 	 53.0005 	 
H 	 32.3576 	 20.2998 	 53.7907 	 
H 	 33.7121 	 21.1712 	 53.0517 	 
H 	 31.4574 	 27.9711 	 53.9833 	 
H 	 33.0043 	 22.2369 	 60.0598 	 
*
