! wB97X-D3 SP def2-SVP
%pal
nprocs 16
end

* xyz 0 1
S 	 -32.8277 	 63.29 	 112.076 	 
C 	 -34.4662 	 62.7268 	 111.722 	 
C 	 -35.284 	 63.8253 	 111.618 	 
C 	 -34.5859 	 65.0694 	 111.593 	 
C 	 -33.2341 	 64.9649 	 111.693 	 
H 	 -35.0952 	 66.0145 	 111.354 	 
C 	 -36.7595 	 63.7401 	 111.607 	 
H 	 -36.9022 	 63.1154 	 110.699 	 
H 	 -37.0827 	 64.666 	 111.384 	 
C 	 -37.4797 	 63.1401 	 112.78 	 
H 	 -38.5143 	 63.0715 	 112.585 	 
H 	 -37.1229 	 62.1637 	 112.851 	 
C 	 -37.3315 	 63.7939 	 114.152 	 
H 	 -36.2535 	 63.6662 	 114.47 	 
H 	 -37.4351 	 64.8482 	 114.274 	 
H 	 -37.874 	 63.3285 	 114.943 	 
S 	 -30.7374 	 65.624 	 112.62 	 
C 	 -30.1888 	 67.3027 	 112.582 	 
C 	 -31.1577 	 68.152 	 112.167 	 
C 	 -32.3592 	 67.4841 	 111.833 	 
C 	 -32.3091 	 66.1075 	 111.967 	 
H 	 -30.9083 	 69.1326 	 112.06 	 
C 	 -33.378 	 68.2463 	 111.03 	 
H 	 -33.4436 	 69.2956 	 111.323 	 
H 	 -34.3406 	 67.8397 	 111.394 	 
C 	 -33.2772 	 68.0467 	 109.5 	 
H 	 -33.1087 	 67.0139 	 109.149 	 
H 	 -32.3792 	 68.5771 	 109.076 	 
C 	 -34.4121 	 68.58 	 108.719 	 
H 	 -34.3413 	 69.6035 	 108.399 	 
H 	 -35.2588 	 68.522 	 109.35 	 
H 	 -34.5403 	 68.1055 	 107.762 	 
H 	 -34.6808 	 61.6917 	 111.748 	 
H 	 -29.2139 	 67.7285 	 112.81 	 
*
