! wB97X-D3 SP def2-SVP
%pal
nprocs 16
end

* xyz 0 1
S 	 -4.80576 	 38.8797 	 32.8063 	 
C 	 -6.20213 	 37.7383 	 33.0223 	 
C 	 -7.42057 	 38.4366 	 33.2162 	 
C 	 -7.16537 	 39.7996 	 33.5482 	 
C 	 -5.82149 	 40.1654 	 33.3575 	 
H 	 -7.88255 	 40.5378 	 33.7903 	 
C 	 -8.79687 	 37.8005 	 33.3473 	 
H 	 -9.35017 	 38.0212 	 32.3779 	 
H 	 -9.41088 	 38.2276 	 34.2005 	 
C 	 -8.78648 	 36.2181 	 33.4664 	 
H 	 -8.30815 	 35.8477 	 32.5498 	 
H 	 -8.17917 	 35.8414 	 34.2864 	 
C 	 -10.1559 	 35.5259 	 33.3944 	 
H 	 -9.96696 	 34.3875 	 33.3357 	 
H 	 -10.7101 	 35.5454 	 34.3096 	 
H 	 -10.8135 	 35.8647 	 32.6074 	 
S 	 -4.03075 	 41.7674 	 34.6816 	 
C 	 -3.82773 	 43.4134 	 34.2896 	 
C 	 -4.81915 	 43.8253 	 33.4377 	 
C 	 -5.74679 	 42.8329 	 33.0164 	 
C 	 -5.398 	 41.5847 	 33.5556 	 
H 	 -4.89257 	 44.7986 	 33.1231 	 
C 	 -6.87755 	 43.1706 	 32.0502 	 
H 	 -7.79414 	 43.3798 	 32.5777 	 
H 	 -7.05131 	 42.2098 	 31.5678 	 
C 	 -6.66869 	 44.3711 	 31.108 	 
H 	 -5.80019 	 44.2631 	 30.5125 	 
H 	 -6.47621 	 45.2396 	 31.7063 	 
C 	 -7.79032 	 44.3614 	 30.0876 	 
H 	 -7.6749 	 43.3972 	 29.5353 	 
H 	 -7.77837 	 45.215 	 29.4605 	 
H 	 -8.80449 	 44.2516 	 30.5358 	 
H 	 -6.12011 	 36.6958 	 32.9956 	 
H 	 -3.2535 	 44.1639 	 34.7699 	 
*
