! wB97X-D3 SP def2-SVP
%pal
nprocs 16
end

* xyz 0 1
S 	 -112.551 	 55.0638 	 112.97 	 
C 	 -112.163 	 55.7597 	 111.419 	 
C 	 -111.394 	 54.8786 	 110.681 	 
C 	 -110.935 	 53.7693 	 111.407 	 
C 	 -111.649 	 53.5483 	 112.539 	 
H 	 -110.146 	 53.0644 	 111.105 	 
C 	 -110.978 	 55.2127 	 109.298 	 
H 	 -111.684 	 54.82 	 108.604 	 
H 	 -110.121 	 54.6455 	 109.046 	 
C 	 -110.722 	 56.7263 	 109.028 	 
H 	 -110.731 	 57.0376 	 107.928 	 
H 	 -111.728 	 57.1465 	 109.281 	 
C 	 -109.493 	 57.2767 	 109.83 	 
H 	 -109.321 	 58.3623 	 109.796 	 
H 	 -109.561 	 57.0116 	 110.891 	 
H 	 -108.622 	 56.7725 	 109.587 	 
S 	 -111.296 	 52.8697 	 115.245 	 
C 	 -110.976 	 51.1202 	 115.647 	 
C 	 -111.324 	 50.3015 	 114.591 	 
C 	 -111.542 	 51.0358 	 113.347 	 
C 	 -111.546 	 52.4738 	 113.549 	 
H 	 -111.32 	 49.2576 	 114.763 	 
C 	 -111.917 	 50.2108 	 112.082 	 
H 	 -111.04 	 49.7542 	 111.666 	 
H 	 -112.528 	 50.7856 	 111.341 	 
C 	 -112.94 	 49.0296 	 112.333 	 
H 	 -112.51 	 48.296 	 113.021 	 
H 	 -113.101 	 48.5181 	 111.397 	 
C 	 -114.264 	 49.6314 	 112.887 	 
H 	 -114.173 	 50.204 	 113.808 	 
H 	 -114.966 	 48.8006 	 113.077 	 
H 	 -114.754 	 50.3402 	 112.229 	 
H 	 -112.426 	 56.7611 	 111.223 	 
H 	 -110.687 	 50.7155 	 116.61 	 
*
