! wB97X-D3 SP def2-SVP
%pal
nprocs 16
end

* xyz 0 1
S 	 -34.2415 	 69.5414 	 144.395 	 
C 	 -35.6943 	 69.5615 	 143.449 	 
C 	 -35.6866 	 68.5283 	 142.504 	 
C 	 -34.616 	 67.5944 	 142.837 	 
C 	 -33.8229 	 67.8934 	 143.928 	 
H 	 -34.4291 	 66.6485 	 142.278 	 
C 	 -36.6769 	 68.2432 	 141.422 	 
H 	 -36.2274 	 67.7437 	 140.527 	 
H 	 -37.1017 	 69.1934 	 140.961 	 
C 	 -37.8532 	 67.3235 	 141.955 	 
H 	 -38.403 	 68.0052 	 142.62 	 
H 	 -38.5342 	 67.1745 	 141.119 	 
C 	 -37.6132 	 65.9536 	 142.602 	 
H 	 -38.5754 	 65.4204 	 142.742 	 
H 	 -37.0522 	 65.2991 	 141.912 	 
H 	 -37.1664 	 66.0231 	 143.594 	 
S 	 -31.143 	 67.7051 	 144.389 	 
C 	 -30.3824 	 66.421 	 145.246 	 
C 	 -31.3466 	 65.5086 	 145.589 	 
C 	 -32.643 	 65.8112 	 145.126 	 
C 	 -32.7365 	 67.0422 	 144.533 	 
H 	 -31.0645 	 64.6631 	 146.229 	 
C 	 -33.8974 	 64.9226 	 145.452 	 
H 	 -34.832 	 65.4058 	 145.25 	 
H 	 -33.9432 	 64.7759 	 146.52 	 
C 	 -33.9765 	 63.6038 	 144.732 	 
H 	 -34.6614 	 62.9886 	 145.328 	 
H 	 -33.0229 	 63.1206 	 144.824 	 
C 	 -34.3523 	 63.7035 	 143.246 	 
H 	 -33.917 	 64.5865 	 142.696 	 
H 	 -35.415 	 63.8395 	 143.128 	 
H 	 -34.0197 	 62.8243 	 142.611 	 
H 	 -36.3416 	 70.3998 	 143.393 	 
H 	 -29.3306 	 66.4323 	 145.546 	 
*
