! wB97X-D3 SP def2-SVP
%pal
nprocs 16
end

* xyz 0 1
S 	 2.47132 	 -19.0193 	 85.5062 	 
C 	 1.06961 	 -19.8975 	 85.9319 	 
C 	 0.104915 	 -19.0952 	 86.5449 	 
C 	 0.61122 	 -17.7812 	 86.72 	 
C 	 1.92012 	 -17.6493 	 86.3216 	 
H 	 0.103185 	 -17.0241 	 87.1485 	 
C 	 -1.26462 	 -19.5831 	 87.0264 	 
H 	 -1.68053 	 -18.9826 	 87.8379 	 
H 	 -1.11209 	 -20.608 	 87.4265 	 
C 	 -2.1558 	 -19.8391 	 85.7501 	 
H 	 -2.27251 	 -18.9816 	 85.0892 	 
H 	 -1.75257 	 -20.5477 	 85.013 	 
C 	 -3.57326 	 -20.256 	 86.2132 	 
H 	 -3.47102 	 -21.2411 	 86.72 	 
H 	 -3.84694 	 -19.4458 	 86.8928 	 
H 	 -4.26995 	 -20.3203 	 85.3426 	 
S 	 2.8313 	 -15.373 	 85.3779 	 
C 	 3.87607 	 -14.3284 	 86.3389 	 
C 	 4.16304 	 -14.8827 	 87.56 	 
C 	 3.52674 	 -16.1562 	 87.6926 	 
C 	 2.80997 	 -16.5358 	 86.5995 	 
H 	 4.76677 	 -14.3969 	 88.2746 	 
C 	 3.60405 	 -16.9435 	 88.9584 	 
H 	 2.535 	 -17.0454 	 89.3242 	 
H 	 4.17367 	 -16.4063 	 89.6707 	 
C 	 4.35705 	 -18.2624 	 88.8745 	 
H 	 5.3492 	 -17.9741 	 88.5799 	 
H 	 3.99248 	 -18.9359 	 88.013 	 
C 	 4.23387 	 -19.0646 	 90.1827 	 
H 	 3.17294 	 -19.3298 	 90.2612 	 
H 	 4.56391 	 -18.4968 	 91.1504 	 
H 	 4.85671 	 -19.921 	 90.1088 	 
H 	 0.928277 	 -20.9155 	 85.6254 	 
H 	 4.29335 	 -13.3835 	 86.0264 	 
*
