! wB97X-D3 SP def2-SVP
%pal
nprocs 16
end

* xyz 0 1
S 	 -37.6226 	 68.2087 	 144.792 	 
C 	 -37.4697 	 67.0001 	 143.544 	 
C 	 -36.6908 	 65.963 	 143.917 	 
C 	 -36.2751 	 66.0604 	 145.276 	 
C 	 -36.7459 	 67.1886 	 145.95 	 
H 	 -35.6649 	 65.2749 	 145.851 	 
C 	 -36.35 	 64.8079 	 142.936 	 
H 	 -36.9799 	 64.8153 	 142.072 	 
H 	 -36.4577 	 63.8699 	 143.505 	 
C 	 -34.897 	 64.8165 	 142.494 	 
H 	 -34.3441 	 64.4532 	 143.333 	 
H 	 -34.7707 	 64.0213 	 141.71 	 
C 	 -34.3081 	 66.0809 	 141.956 	 
H 	 -34.9282 	 66.5169 	 141.123 	 
H 	 -34.2395 	 66.9132 	 142.607 	 
H 	 -33.3899 	 65.933 	 141.416 	 
S 	 -38.1488 	 67.9474 	 148.155 	 
C 	 -37.3629 	 68.2061 	 149.677 	 
C 	 -36.022 	 67.953 	 149.509 	 
C 	 -35.6372 	 67.4976 	 148.265 	 
C 	 -36.6635 	 67.5941 	 147.343 	 
H 	 -35.3775 	 68.0764 	 150.409 	 
C 	 -34.1259 	 67.1279 	 148.054 	 
H 	 -34.098 	 66.1882 	 147.537 	 
H 	 -33.6928 	 66.9001 	 149.086 	 
C 	 -33.3025 	 68.0915 	 147.185 	 
H 	 -33.5378 	 69.0548 	 147.587 	 
H 	 -33.8679 	 68.0823 	 146.283 	 
C 	 -31.8519 	 67.607 	 147.109 	 
H 	 -31.3305 	 68.2752 	 146.441 	 
H 	 -31.6744 	 66.6141 	 146.747 	 
H 	 -31.4501 	 67.6191 	 148.146 	 
H 	 -37.6958 	 67.0085 	 142.517 	 
H 	 -37.9178 	 68.5702 	 150.514 	 
*
