! wB97X-D3 SP def2-SVP
%pal
nprocs 16
end

* xyz 0 1
S 	 -46.8389 	 57.3846 	 97.7075 	 
C 	 -47.3047 	 57.5827 	 99.3764 	 
C 	 -47.4427 	 56.3321 	 99.9626 	 
C 	 -47.2115 	 55.2193 	 99.1726 	 
C 	 -46.9163 	 55.5839 	 97.883 	 
H 	 -47.241 	 54.2062 	 99.3896 	 
C 	 -47.9619 	 56.1149 	 101.391 	 
H 	 -47.2841 	 56.558 	 102.134 	 
H 	 -47.7648 	 55.027 	 101.615 	 
C 	 -49.3889 	 56.5161 	 101.729 	 
H 	 -49.563 	 57.515 	 101.473 	 
H 	 -50.1397 	 55.8778 	 101.333 	 
C 	 -49.6477 	 56.3151 	 103.252 	 
H 	 -49.4145 	 55.2521 	 103.425 	 
H 	 -49.0737 	 56.9192 	 103.952 	 
H 	 -50.6763 	 56.6651 	 103.434 	 
S 	 -47.6072 	 54.6327 	 95.324 	 
C 	 -46.441 	 53.5874 	 94.4826 	 
C 	 -45.2953 	 53.4152 	 95.1909 	 
C 	 -45.4131 	 53.9663 	 96.515 	 
C 	 -46.5359 	 54.7537 	 96.7194 	 
H 	 -44.4755 	 52.9104 	 94.6875 	 
C 	 -44.373 	 53.6878 	 97.5968 	 
H 	 -44.5398 	 52.6621 	 97.9057 	 
H 	 -44.866 	 54.1068 	 98.4674 	 
C 	 -42.8973 	 54.052 	 97.4931 	 
H 	 -42.3972 	 53.5614 	 96.6802 	 
H 	 -42.3289 	 53.8619 	 98.4617 	 
C 	 -42.8438 	 55.61 	 97.1284 	 
H 	 -43.3929 	 56.2468 	 97.8521 	 
H 	 -43.2747 	 55.8173 	 96.1151 	 
H 	 -41.8576 	 56.0131 	 97.0363 	 
H 	 -47.4062 	 58.5466 	 99.9262 	 
H 	 -46.673 	 53.1064 	 93.5033 	 
*
