! wB97X-D3 SP def2-SVP
%pal
nprocs 16
end

* xyz 0 1
S 	 -21.5517 	 -2.9777 	 92.7034 	 
C 	 -22.4446 	 -1.68538 	 91.8977 	 
C 	 -21.9245 	 -1.47195 	 90.6956 	 
C 	 -21.0166 	 -2.46882 	 90.2637 	 
C 	 -20.6858 	 -3.39504 	 91.2657 	 
H 	 -20.5183 	 -2.42408 	 89.3249 	 
C 	 -22.5241 	 -0.395802 	 89.7749 	 
H 	 -21.8394 	 -0.00457673 	 89.1231 	 
H 	 -22.7653 	 0.379438 	 90.5232 	 
C 	 -23.8641 	 -0.814196 	 89.1152 	 
H 	 -24.5626 	 -1.04509 	 89.9151 	 
H 	 -24.3873 	 -0.073574 	 88.5346 	 
C 	 -23.5976 	 -2.01117 	 88.1446 	 
H 	 -23.3677 	 -2.81187 	 88.7763 	 
H 	 -24.3826 	 -2.24956 	 87.4424 	 
H 	 -22.7237 	 -1.81624 	 87.5583 	 
S 	 -18.02 	 -3.56443 	 91.7253 	 
C 	 -17.3037 	 -5.19199 	 91.5482 	 
C 	 -18.1181 	 -6.05079 	 90.7934 	 
C 	 -19.4397 	 -5.53201 	 90.6782 	 
C 	 -19.5492 	 -4.25351 	 91.1647 	 
H 	 -17.8393 	 -7.0323 	 90.5067 	 
C 	 -20.6798 	 -6.29734 	 90.1365 	 
H 	 -21.5151 	 -6.13959 	 90.7782 	 
H 	 -20.4056 	 -7.35862 	 90.2167 	 
C 	 -21.096 	 -5.96202 	 88.6874 	 
H 	 -20.198 	 -6.00076 	 88.0132 	 
H 	 -21.5194 	 -4.89262 	 88.6118 	 
C 	 -22.1149 	 -6.91934 	 88.1577 	 
H 	 -23.1116 	 -6.83042 	 88.5887 	 
H 	 -21.7041 	 -7.91526 	 88.2516 	 
H 	 -22.4924 	 -6.6874 	 87.1458 	 
H 	 -23.1726 	 -1.01844 	 92.3689 	 
H 	 -16.2507 	 -5.32448 	 91.7277 	 
*
