! wB97X-D3 SP def2-SVP
%pal
nprocs 16
end

* xyz 0 1
S 	 11.8163 	 -13.7556 	 75.8045 	 
C 	 11.1282 	 -12.3213 	 76.4921 	 
C 	 11.2188 	 -12.2412 	 77.8899 	 
C 	 12.0544 	 -13.2933 	 78.3699 	 
C 	 12.4074 	 -14.1921 	 77.4038 	 
H 	 12.3062 	 -13.5131 	 79.3204 	 
C 	 10.8491 	 -10.9778 	 78.6547 	 
H 	 9.75872 	 -10.8503 	 78.5955 	 
H 	 11.2304 	 -10.1099 	 78.142 	 
C 	 11.1972 	 -10.9221 	 80.0967 	 
H 	 10.9137 	 -11.9566 	 80.549 	 
H 	 12.2043 	 -10.6912 	 80.1735 	 
C 	 10.2825 	 -9.89727 	 80.7904 	 
H 	 10.6059 	 -8.93445 	 80.5435 	 
H 	 9.17612 	 -10.0374 	 80.7431 	 
H 	 10.464 	 -9.89964 	 81.8398 	 
S 	 12.2982 	 -16.8647 	 77.2802 	 
C 	 13.5939 	 -17.9192 	 77.9855 	 
C 	 14.504 	 -17.0997 	 78.6512 	 
C 	 14.2652 	 -15.6754 	 78.4356 	 
C 	 13.1441 	 -15.3773 	 77.6343 	 
H 	 15.2317 	 -17.5108 	 79.2722 	 
C 	 15.2913 	 -14.6438 	 79.0358 	 
H 	 16.0047 	 -15.2351 	 79.5402 	 
H 	 14.8192 	 -13.9134 	 79.7082 	 
C 	 16.1616 	 -13.8829 	 78.0065 	 
H 	 15.4725 	 -13.4656 	 77.1785 	 
H 	 16.7824 	 -14.6388 	 77.4886 	 
C 	 17.0897 	 -12.8409 	 78.6269 	 
H 	 16.4256 	 -12.0887 	 79.1503 	 
H 	 17.7978 	 -12.3088 	 77.9993 	 
H 	 17.7427 	 -13.2583 	 79.4228 	 
H 	 10.6641 	 -11.5457 	 75.9547 	 
H 	 13.4309 	 -18.9912 	 78.0298 	 
*
