! wB97X-D3 SP def2-SVP
%pal
nprocs 16
end

* xyz 0 1
S 	 -108.387 	 54.2887 	 116.063 	 
C 	 -109.624 	 55.4704 	 116.073 	 
C 	 -109.096 	 56.7155 	 116.318 	 
C 	 -107.687 	 56.7813 	 116.383 	 
C 	 -107.104 	 55.5281 	 116.163 	 
H 	 -107.061 	 57.6594 	 116.607 	 
C 	 -109.882 	 58.0177 	 116.52 	 
H 	 -109.267 	 58.8818 	 116.81 	 
H 	 -110.584 	 57.7199 	 117.302 	 
C 	 -110.787 	 58.4797 	 115.36 	 
H 	 -111.481 	 57.6425 	 115.181 	 
H 	 -111.268 	 59.3638 	 115.646 	 
C 	 -110.003 	 58.7792 	 114.076 	 
H 	 -109.305 	 58.0093 	 113.791 	 
H 	 -110.637 	 58.9802 	 113.196 	 
H 	 -109.397 	 59.6471 	 114.244 	 
S 	 -104.735 	 54.5739 	 117.438 	 
C 	 -103.22 	 54.7171 	 116.593 	 
C 	 -103.49 	 55.2193 	 115.282 	 
C 	 -104.858 	 55.5362 	 115.022 	 
C 	 -105.689 	 55.267 	 116.086 	 
H 	 -102.666 	 55.2644 	 114.621 	 
C 	 -105.309 	 55.9519 	 113.644 	 
H 	 -104.743 	 56.8511 	 113.472 	 
H 	 -106.357 	 56.4226 	 113.764 	 
C 	 -105.31 	 54.8464 	 112.558 	 
H 	 -104.302 	 54.4138 	 112.659 	 
H 	 -105.337 	 55.3367 	 111.598 	 
C 	 -106.479 	 53.79 	 112.604 	 
H 	 -107.425 	 54.22 	 112.342 	 
H 	 -106.693 	 53.22 	 113.519 	 
H 	 -106.315 	 53.0337 	 111.771 	 
H 	 -110.665 	 55.1962 	 116.161 	 
H 	 -102.234 	 54.2566 	 116.926 	 
*
