! wB97X-D3 SP def2-SVP
%pal
nprocs 16
end

* xyz 0 1
S 	 55.2576 	 5.32482 	 79.2816 	 
C 	 53.6276 	 4.8513 	 78.6777 	 
C 	 53.3283 	 3.60252 	 79.2772 	 
C 	 54.4097 	 3.02213 	 79.9759 	 
C 	 55.5764 	 3.75 	 79.9752 	 
H 	 54.4043 	 2.05168 	 80.5016 	 
C 	 52.0355 	 2.85503 	 78.9904 	 
H 	 51.2973 	 3.59184 	 78.6359 	 
H 	 51.6028 	 2.50364 	 79.9387 	 
C 	 52.0875 	 1.70872 	 77.994 	 
H 	 51.0977 	 1.629 	 77.449 	 
H 	 52.8262 	 1.94159 	 77.2657 	 
C 	 52.5222 	 0.380436 	 78.5346 	 
H 	 52.5469 	 -0.402942 	 77.739 	 
H 	 53.5158 	 0.370705 	 78.8711 	 
H 	 51.8732 	 0.0448375 	 79.3313 	 
S 	 57.6781 	 4.65006 	 81.5489 	 
C 	 58.9767 	 3.55101 	 81.9891 	 
C 	 58.7516 	 2.24301 	 81.5249 	 
C 	 57.5552 	 2.12125 	 80.778 	 
C 	 56.8611 	 3.34336 	 80.6076 	 
H 	 59.5228 	 1.45904 	 81.6654 	 
C 	 57.196 	 0.85522 	 80.0153 	 
H 	 57.993 	 0.552777 	 79.378 	 
H 	 56.3722 	 0.901968 	 79.3094 	 
C 	 56.7225 	 -0.271699 	 80.9973 	 
H 	 56.0253 	 0.0485791 	 81.7908 	 
H 	 57.5807 	 -0.666519 	 81.5586 	 
C 	 56.1433 	 -1.43583 	 80.2341 	 
H 	 55.7408 	 -2.20538 	 80.9971 	 
H 	 56.8771 	 -1.92737 	 79.5981 	 
H 	 55.3231 	 -1.16265 	 79.5544 	 
H 	 52.9748 	 5.46511 	 78.0308 	 
H 	 59.8688 	 3.83136 	 82.5467 	 
*
