! wB97X-D3 SP def2-SVP
%pal
nprocs 16
end

* xyz 0 1
S 	 -43.5613 	 37.6035 	 80.5324 	 
C 	 -42.8694 	 38.9443 	 79.8127 	 
C 	 -41.5113 	 38.7355 	 79.5156 	 
C 	 -41.2106 	 37.3193 	 79.5764 	 
C 	 -42.1515 	 36.6214 	 80.304 	 
H 	 -40.3171 	 36.6888 	 79.329 	 
C 	 -40.5024 	 39.7467 	 79.1334 	 
H 	 -39.5758 	 39.2458 	 78.7534 	 
H 	 -40.1482 	 40.4151 	 79.923 	 
C 	 -41.149 	 40.5713 	 77.9523 	 
H 	 -41.5003 	 39.9461 	 77.109 	 
H 	 -41.9293 	 41.2188 	 78.4648 	 
C 	 -40.2587 	 41.6769 	 77.3824 	 
H 	 -39.4672 	 41.2771 	 76.7789 	 
H 	 -40.8662 	 42.3026 	 76.7169 	 
H 	 -39.7929 	 42.2959 	 78.1655 	 
S 	 -43.2619 	 34.2171 	 79.941 	 
C 	 -42.4799 	 32.7782 	 80.5089 	 
C 	 -41.2886 	 33.0818 	 81.1656 	 
C 	 -41.0845 	 34.493 	 81.2585 	 
C 	 -42.0629 	 35.2444 	 80.6968 	 
H 	 -40.6371 	 32.2608 	 81.4116 	 
C 	 -39.9649 	 35.125 	 82.0096 	 
H 	 -39.8834 	 34.5471 	 82.9776 	 
H 	 -40.1345 	 36.1882 	 82.1697 	 
C 	 -38.6947 	 35.2512 	 81.2093 	 
H 	 -38.922 	 35.873 	 80.3579 	 
H 	 -38.3978 	 34.2469 	 80.9082 	 
C 	 -37.5725 	 35.9894 	 81.8955 	 
H 	 -37.5705 	 35.7367 	 82.9997 	 
H 	 -37.6638 	 37.1366 	 81.9155 	 
H 	 -36.6243 	 35.6679 	 81.5077 	 
H 	 -43.2824 	 39.9477 	 79.9808 	 
H 	 -42.6934 	 31.7119 	 80.2746 	 
*
