! wB97X-D3 SP def2-SVP
%pal
nprocs 16
end

* xyz 0 1
S 	 70.929 	 27.5558 	 73.3829 	 
C 	 70.4929 	 27.8347 	 71.7412 	 
C 	 71.0877 	 26.8907 	 70.9145 	 
C 	 71.9656 	 26.0251 	 71.6313 	 
C 	 71.9697 	 26.2184 	 72.9578 	 
H 	 72.4074 	 25.1465 	 71.1517 	 
C 	 70.7342 	 26.6889 	 69.4447 	 
H 	 71.5818 	 26.6897 	 68.8512 	 
H 	 70.1286 	 27.5849 	 69.1953 	 
C 	 69.9854 	 25.3728 	 69.1388 	 
H 	 70.1838 	 25.1454 	 68.0646 	 
H 	 70.4783 	 24.6595 	 69.6839 	 
C 	 68.4613 	 25.4044 	 69.6048 	 
H 	 68.1159 	 24.3645 	 69.2602 	 
H 	 68.2103 	 25.6273 	 70.675 	 
H 	 67.8246 	 25.9671 	 68.9426 	 
S 	 74.1604 	 26.4766 	 74.6485 	 
C 	 74.904 	 25.0503 	 75.3609 	 
C 	 74.2531 	 23.8809 	 74.8752 	 
C 	 73.1053 	 24.1346 	 74.0442 	 
C 	 72.8702 	 25.5327 	 73.8667 	 
H 	 74.6492 	 22.9408 	 75.2324 	 
C 	 72.2921 	 23.0256 	 73.445 	 
H 	 71.5193 	 23.5638 	 72.8812 	 
H 	 71.7249 	 22.4683 	 74.175 	 
C 	 73.046 	 22.0138 	 72.5939 	 
H 	 73.7987 	 21.5121 	 73.138 	 
H 	 73.5296 	 22.6903 	 71.8088 	 
C 	 72.1505 	 20.9844 	 71.9492 	 
H 	 71.7492 	 20.2876 	 72.7195 	 
H 	 72.6007 	 20.3544 	 71.2199 	 
H 	 71.3301 	 21.4035 	 71.4311 	 
H 	 69.8133 	 28.5429 	 71.3259 	 
H 	 75.7869 	 25.1672 	 75.9731 	 
*
