! wB97X-D3 SP def2-SVP
%pal
nprocs 16
end

* xyz 0 1
S 	 15.078 	 19.5414 	 38.9704 	 
C 	 14.7815 	 19.8765 	 37.2684 	 
C 	 13.685 	 19.1685 	 36.7941 	 
C 	 13.019 	 18.4589 	 37.8654 	 
C 	 13.6682 	 18.5168 	 39.0614 	 
H 	 12.0771 	 17.8491 	 37.7338 	 
C 	 13.2936 	 19.2679 	 35.3199 	 
H 	 12.7351 	 18.4085 	 35.1097 	 
H 	 14.0903 	 19.3221 	 34.6241 	 
C 	 12.253 	 20.4172 	 34.9542 	 
H 	 11.7048 	 20.228 	 34.0008 	 
H 	 11.5663 	 20.4777 	 35.7959 	 
C 	 12.8643 	 21.7971 	 34.7475 	 
H 	 13.3681 	 22.1046 	 35.7173 	 
H 	 13.5162 	 21.6892 	 33.848 	 
H 	 12.0955 	 22.566 	 34.6946 	 
S 	 14.4728 	 17.5508 	 41.4975 	 
C 	 13.2718 	 16.89 	 42.5607 	 
C 	 12.0001 	 17.1774 	 42.1622 	 
C 	 11.961 	 17.8846 	 40.8918 	 
C 	 13.2394 	 17.9967 	 40.3467 	 
H 	 11.1277 	 16.8748 	 42.7742 	 
C 	 10.6232 	 18.1789 	 40.236 	 
H 	 9.73206 	 17.7838 	 40.8738 	 
H 	 10.5785 	 17.5481 	 39.3761 	 
C 	 10.5223 	 19.6845 	 39.801 	 
H 	 9.54929 	 19.7569 	 39.3042 	 
H 	 11.4474 	 19.9965 	 39.3383 	 
C 	 10.5626 	 20.5461 	 41.1129 	 
H 	 11.5976 	 20.6213 	 41.4902 	 
H 	 9.88167 	 20.2476 	 41.867 	 
H 	 10.3003 	 21.4854 	 40.8866 	 
H 	 15.3987 	 20.5312 	 36.5513 	 
H 	 13.5325 	 16.2742 	 43.3665 	 
*
