! wB97X-D3 SP def2-SVP
%pal
nprocs 16
end

* xyz 0 1
S 	 19.8339 	 -8.35985 	 81.0534 	 
C 	 18.9009 	 -6.91509 	 80.7009 	 
C 	 17.8757 	 -7.1843 	 79.7381 	 
C 	 17.7495 	 -8.61965 	 79.6035 	 
C 	 18.6648 	 -9.42474 	 80.2964 	 
H 	 16.946 	 -9.1607 	 79.097 	 
C 	 16.9593 	 -6.1554 	 79.0513 	 
H 	 17.247 	 -5.88265 	 78.0404 	 
H 	 17.1043 	 -5.28212 	 79.6632 	 
C 	 15.4828 	 -6.50923 	 78.9431 	 
H 	 15.3501 	 -7.27608 	 78.2549 	 
H 	 15.0557 	 -6.8488 	 79.8813 	 
C 	 14.5038 	 -5.45624 	 78.4601 	 
H 	 13.4423 	 -5.6855 	 78.4128 	 
H 	 14.7679 	 -4.50066 	 78.9743 	 
H 	 14.6138 	 -5.10039 	 77.4375 	 
S 	 18.7618 	 -11.3633 	 82.228 	 
C 	 19.2113 	 -12.9815 	 81.7557 	 
C 	 19.0502 	 -13.1883 	 80.3834 	 
C 	 18.9616 	 -11.9568 	 79.6884 	 
C 	 18.7054 	 -10.848 	 80.4872 	 
H 	 19.0626 	 -14.2288 	 79.9899 	 
C 	 18.9421 	 -11.8221 	 78.199 	 
H 	 19.7045 	 -12.4656 	 77.8394 	 
H 	 19.1819 	 -10.7765 	 78.1737 	 
C 	 17.5893 	 -11.9774 	 77.4412 	 
H 	 17.8915 	 -11.9223 	 76.4183 	 
H 	 16.9924 	 -11.1062 	 77.6126 	 
C 	 16.933 	 -13.267 	 77.6556 	 
H 	 16.4525 	 -13.5156 	 78.6393 	 
H 	 17.604 	 -14.0848 	 77.3068 	 
H 	 16.1217 	 -13.294 	 76.923 	 
H 	 19.2046 	 -5.91487 	 81.0996 	 
H 	 19.2388 	 -13.8487 	 82.4363 	 
*
