! wB97X-D3 SP def2-SVP
%pal
nprocs 16
end

* xyz 0 1
S 	 -44.3896 	 52.4125 	 101.179 	 
C 	 -46.0229 	 52.4521 	 101.978 	 
C 	 -46.8592 	 51.5458 	 101.382 	 
C 	 -46.199 	 50.6908 	 100.444 	 
C 	 -44.871 	 51.0263 	 100.181 	 
H 	 -46.6403 	 49.8586 	 99.9583 	 
C 	 -48.3621 	 51.3759 	 101.728 	 
H 	 -49.002 	 51.0581 	 100.806 	 
H 	 -48.7445 	 52.4099 	 101.728 	 
C 	 -48.8083 	 50.6316 	 103.005 	 
H 	 -49.8986 	 50.5301 	 102.956 	 
H 	 -48.4067 	 49.6278 	 102.882 	 
C 	 -48.3393 	 51.2569 	 104.282 	 
H 	 -48.8151 	 52.2227 	 104.549 	 
H 	 -48.5494 	 50.6887 	 105.108 	 
H 	 -47.2864 	 51.521 	 104.336 	 
S 	 -43.4733 	 48.6842 	 99.4897 	 
C 	 -42.2886 	 48.6954 	 98.2117 	 
C 	 -42.2694 	 49.9217 	 97.6517 	 
C 	 -43.1644 	 50.9023 	 98.2261 	 
C 	 -43.974 	 50.3743 	 99.2271 	 
H 	 -41.543 	 49.9603 	 96.8362 	 
C 	 -43.0731 	 52.3344 	 97.774 	 
H 	 -42.1001 	 52.6698 	 98.0564 	 
H 	 -43.825 	 52.9001 	 98.2985 	 
C 	 -43.2405 	 52.6526 	 96.2868 	 
H 	 -44.3119 	 52.5505 	 96.1264 	 
H 	 -42.7375 	 51.8772 	 95.7747 	 
C 	 -42.7281 	 54.0708 	 95.817 	 
H 	 -41.6512 	 54.0583 	 95.8038 	 
H 	 -43.1487 	 54.8991 	 96.4281 	 
H 	 -43.2345 	 54.1148 	 94.8744 	 
H 	 -46.4266 	 53.208 	 102.606 	 
H 	 -41.6144 	 47.9623 	 97.9692 	 
*
