! wB97X-D3 SP def2-SVP
%pal
nprocs 16
end

* xyz 0 1
S 	 1.14029 	 12.697 	 82.1836 	 
C 	 -0.621367 	 12.4538 	 82.1122 	 
C 	 -1.11504 	 12.4365 	 83.449 	 
C 	 -0.0831521 	 12.602 	 84.4281 	 
C 	 1.17495 	 12.6529 	 83.9644 	 
H 	 -0.171025 	 12.5817 	 85.489 	 
C 	 -2.55158 	 12.2541 	 83.8368 	 
H 	 -2.8608 	 13.2633 	 83.8469 	 
H 	 -2.68968 	 11.7341 	 84.7877 	 
C 	 -3.46369 	 11.5607 	 82.7799 	 
H 	 -3.5299 	 12.0332 	 81.8074 	 
H 	 -2.99222 	 10.6168 	 82.6028 	 
C 	 -4.93195 	 11.4393 	 83.3393 	 
H 	 -5.32362 	 12.3893 	 83.577 	 
H 	 -5.57507 	 11.1053 	 82.521 	 
H 	 -5.11738 	 10.8172 	 84.205 	 
S 	 2.56654 	 11.4284 	 85.9921 	 
C 	 4.0662 	 12.0174 	 86.5574 	 
C 	 4.32703 	 13.2755 	 86.0304 	 
C 	 3.40436 	 13.6685 	 84.9669 	 
C 	 2.42502 	 12.6878 	 84.7856 	 
H 	 5.10682 	 13.9827 	 86.2503 	 
C 	 3.33703 	 14.9664 	 84.304 	 
H 	 2.84844 	 14.7683 	 83.3838 	 
H 	 4.33307 	 15.3279 	 83.9964 	 
C 	 2.60765 	 16.1084 	 85.1692 	 
H 	 3.07931 	 16.2052 	 86.1526 	 
H 	 1.64952 	 15.6819 	 85.2656 	 
C 	 2.34948 	 17.5086 	 84.4715 	 
H 	 1.81457 	 17.2653 	 83.6275 	 
H 	 3.29456 	 17.9562 	 84.2548 	 
H 	 1.72755 	 18.1837 	 84.9091 	 
H 	 -1.16098 	 12.3857 	 81.1362 	 
H 	 4.6176 	 11.5009 	 87.3145 	 
*
