! wB97X-D3 SP def2-SVP
%pal
nprocs 16
end

* xyz 0 1
S 	 -0.285827 	 5.01162 	 85.339 	 
C 	 0.798175 	 4.42765 	 84.0801 	 
C 	 0.211606 	 4.3659 	 82.8726 	 
C 	 -1.16554 	 4.76989 	 82.8969 	 
C 	 -1.5612 	 5.14382 	 84.1657 	 
H 	 -1.86211 	 4.71813 	 82.0731 	 
C 	 0.869733 	 3.89843 	 81.6195 	 
H 	 1.94204 	 3.87289 	 81.9025 	 
H 	 0.784478 	 4.63513 	 80.8229 	 
C 	 0.287176 	 2.55717 	 81.0302 	 
H 	 0.176681 	 1.71987 	 81.7483 	 
H 	 -0.697448 	 2.75342 	 80.725 	 
C 	 1.03835 	 2.09804 	 79.7872 	 
H 	 0.406804 	 1.53432 	 79.0956 	 
H 	 1.31433 	 2.95563 	 79.1726 	 
H 	 1.9784 	 1.64017 	 79.8183 	 
S 	 -3.46844 	 4.86173 	 86.0155 	 
C 	 -5.00386 	 5.72132 	 85.7753 	 
C 	 -4.96652 	 6.55283 	 84.6519 	 
C 	 -3.78237 	 6.45678 	 83.8647 	 
C 	 -2.91679 	 5.55054 	 84.5408 	 
H 	 -5.82359 	 7.16371 	 84.4669 	 
C 	 -3.57378 	 7.22072 	 82.553 	 
H 	 -2.51419 	 7.36584 	 82.2921 	 
H 	 -4.07906 	 8.20345 	 82.8033 	 
C 	 -4.27519 	 6.5678 	 81.3717 	 
H 	 -5.27807 	 6.28319 	 81.6321 	 
H 	 -3.64477 	 5.79112 	 80.8591 	 
C 	 -4.44263 	 7.54707 	 80.2151 	 
H 	 -4.97525 	 6.9703 	 79.4555 	 
H 	 -3.51157 	 7.93795 	 79.9079 	 
H 	 -5.0468 	 8.37935 	 80.6331 	 
H 	 1.81903 	 4.09517 	 84.2399 	 
H 	 -5.89221 	 5.6459 	 86.5002 	 
*
