! wB97X-D3 SP def2-SVP
%pal
nprocs 16
end

* xyz 0 1
S 	 14.1833 	 -14.8563 	 79.8104 	 
C 	 15.3833 	 -14.1913 	 78.6993 	 
C 	 14.8424 	 -13.2896 	 77.8205 	 
C 	 13.4563 	 -13.0566 	 78.0373 	 
C 	 13.002 	 -13.6777 	 79.1734 	 
H 	 12.8568 	 -12.4597 	 77.3917 	 
C 	 15.5435 	 -12.6209 	 76.6892 	 
H 	 16.5334 	 -13.0747 	 76.6525 	 
H 	 15.6601 	 -11.6308 	 76.9271 	 
C 	 14.9056 	 -12.7025 	 75.275 	 
H 	 14.8088 	 -13.7911 	 75.0031 	 
H 	 13.8306 	 -12.3222 	 75.4203 	 
C 	 15.581 	 -11.8455 	 74.1785 	 
H 	 15.4708 	 -10.8264 	 74.2582 	 
H 	 16.7229 	 -12.0482 	 74.207 	 
H 	 15.2423 	 -12.1805 	 73.2366 	 
S 	 11.0752 	 -15.1712 	 80.4749 	 
C 	 9.49915 	 -14.5804 	 80.6611 	 
C 	 9.38674 	 -13.2297 	 80.2927 	 
C 	 10.5629 	 -12.7293 	 79.6559 	 
C 	 11.6127 	 -13.6807 	 79.6068 	 
H 	 8.48904 	 -12.7224 	 80.466 	 
C 	 10.5883 	 -11.2719 	 79.0069 	 
H 	 10.8332 	 -11.5052 	 77.9492 	 
H 	 11.3858 	 -10.7465 	 79.5213 	 
C 	 9.25905 	 -10.6012 	 79.2215 	 
H 	 9.0438 	 -10.6708 	 80.2165 	 
H 	 8.46905 	 -11.0324 	 78.5591 	 
C 	 9.31283 	 -9.06057 	 78.9878 	 
H 	 9.35782 	 -8.76895 	 77.8738 	 
H 	 10.1367 	 -8.67619 	 79.5816 	 
H 	 8.38199 	 -8.68781 	 79.3738 	 
H 	 16.4046 	 -14.5297 	 78.7542 	 
H 	 8.79264 	 -15.1034 	 81.3571 	 
*
