! wB97X-D3 SP def2-SVP
%pal
nprocs 16
end

* xyz 0 1
S 	 -30.7914 	 61.0197 	 112.809 	 
C 	 -30.7938 	 59.578 	 111.726 	 
C 	 -31.0463 	 58.4158 	 112.387 	 
C 	 -31.3477 	 58.6587 	 113.758 	 
C 	 -31.4076 	 59.9839 	 114.107 	 
H 	 -31.654 	 58.0332 	 114.596 	 
C 	 -31.0742 	 56.9947 	 111.843 	 
H 	 -30.5578 	 57.0957 	 110.905 	 
H 	 -32.1348 	 56.7293 	 111.584 	 
C 	 -30.3358 	 55.895 	 112.678 	 
H 	 -29.263 	 56.0401 	 112.628 	 
H 	 -30.644 	 55.9807 	 113.747 	 
C 	 -30.536 	 54.4843 	 112.179 	 
H 	 -30.3318 	 54.3593 	 111.165 	 
H 	 -29.8775 	 53.773 	 112.672 	 
H 	 -31.5688 	 54.138 	 112.274 	 
S 	 -30.6643 	 61.2128 	 116.533 	 
C 	 -31.8877 	 61.6303 	 117.726 	 
C 	 -33.1105 	 61.2779 	 117.24 	 
C 	 -33.1415 	 60.6669 	 115.941 	 
C 	 -31.8892 	 60.5762 	 115.413 	 
H 	 -33.9683 	 61.4317 	 117.862 	 
C 	 -34.5306 	 60.2943 	 115.261 	 
H 	 -34.8886 	 59.4681 	 115.803 	 
H 	 -34.3508 	 59.9983 	 114.308 	 
C 	 -35.5658 	 61.4833 	 115.209 	 
H 	 -35.148 	 62.2419 	 114.49 	 
H 	 -35.5742 	 61.976 	 116.159 	 
C 	 -36.8952 	 61.1699 	 114.567 	 
H 	 -36.6657 	 60.6516 	 113.646 	 
H 	 -37.5147 	 62.0589 	 114.378 	 
H 	 -37.3954 	 60.3846 	 115.122 	 
H 	 -30.3153 	 59.5616 	 110.792 	 
H 	 -31.7334 	 62.1507 	 118.623 	 
*
