! wB97X-D3 SP def2-SVP
%pal
nprocs 16
end

* xyz 0 1
S 	 -35.0298 	 32.1186 	 44.6179 	 
C 	 -34.5175 	 32.1316 	 46.3069 	 
C 	 -33.9514 	 33.3689 	 46.6638 	 
C 	 -33.9952 	 34.2924 	 45.5597 	 
C 	 -34.4907 	 33.7262 	 44.3518 	 
H 	 -33.8462 	 35.3176 	 45.5552 	 
C 	 -33.3952 	 33.8309 	 48.0199 	 
H 	 -34.1922 	 33.7279 	 48.8019 	 
H 	 -33.0565 	 34.8198 	 47.8381 	 
C 	 -32.0934 	 33.2179 	 48.4903 	 
H 	 -31.5062 	 33.3191 	 47.6121 	 
H 	 -31.6367 	 33.7953 	 49.3393 	 
C 	 -32.1985 	 31.7262 	 48.8862 	 
H 	 -32.8319 	 31.5673 	 49.7329 	 
H 	 -32.6488 	 31.2535 	 47.9897 	 
H 	 -31.2231 	 31.3408 	 49.0415 	 
S 	 -36.4531 	 34.9694 	 42.9019 	 
C 	 -36.048 	 35.889 	 41.5424 	 
C 	 -34.7007 	 35.862 	 41.3007 	 
C 	 -33.9431 	 35.2174 	 42.3558 	 
C 	 -34.7695 	 34.5569 	 43.2109 	 
H 	 -34.3018 	 36.4882 	 40.5045 	 
C 	 -32.4516 	 35.0969 	 42.1948 	 
H 	 -32.2295 	 34.409 	 41.4286 	 
H 	 -32.1859 	 34.7108 	 43.2242 	 
C 	 -31.6969 	 36.3874 	 42.0414 	 
H 	 -32.1389 	 36.8714 	 41.1503 	 
H 	 -30.692 	 36.173 	 41.6916 	 
C 	 -31.7042 	 37.2637 	 43.3492 	 
H 	 -32.7194 	 37.6573 	 43.619 	 
H 	 -31.1587 	 38.1565 	 43.0583 	 
H 	 -31.235 	 36.7432 	 44.1852 	 
H 	 -34.8129 	 31.3427 	 46.9842 	 
H 	 -36.7271 	 36.3449 	 40.8068 	 
*
