! wB97X-D3 SP def2-SVP
%pal
nprocs 16
end

* xyz 0 1
S 	 42.43 	 8.55981 	 87.9916 	 
C 	 42.0848 	 7.15445 	 89.0907 	 
C 	 40.8204 	 6.62115 	 88.912 	 
C 	 40.242 	 7.20188 	 87.7702 	 
C 	 40.9857 	 8.20264 	 87.1169 	 
H 	 39.2744 	 6.92333 	 87.367 	 
C 	 40.1671 	 5.5316 	 89.7067 	 
H 	 40.4762 	 5.66032 	 90.7518 	 
H 	 40.5923 	 4.56948 	 89.3591 	 
C 	 38.6242 	 5.5272 	 89.6838 	 
H 	 38.1502 	 5.24465 	 90.5832 	 
H 	 38.4002 	 6.63144 	 89.6523 	 
C 	 38.0827 	 4.54611 	 88.6013 	 
H 	 37.0362 	 4.42101 	 88.7474 	 
H 	 38.2606 	 4.89113 	 87.5498 	 
H 	 38.4971 	 3.57629 	 88.7312 	 
S 	 40.8718 	 10.7485 	 86.0226 	 
C 	 39.8303 	 11.0033 	 84.625 	 
C 	 39.5249 	 9.786 	 84.0378 	 
C 	 40.0043 	 8.65291 	 84.6916 	 
C 	 40.595 	 8.99329 	 85.9273 	 
H 	 39.0834 	 9.62674 	 83.0515 	 
C 	 39.7877 	 7.26516 	 84.1172 	 
H 	 38.7115 	 6.97529 	 84.1991 	 
H 	 40.3597 	 6.63588 	 84.8411 	 
C 	 40.2653 	 6.95999 	 82.7056 	 
H 	 39.5772 	 7.28121 	 81.8998 	 
H 	 40.1703 	 5.87184 	 82.6601 	 
C 	 41.7617 	 7.30069 	 82.5466 	 
H 	 42.3907 	 6.8659 	 83.3896 	 
H 	 41.9065 	 8.37481 	 82.4117 	 
H 	 42.1095 	 6.88412 	 81.6552 	 
H 	 42.7758 	 7.01302 	 89.9116 	 
H 	 39.6889 	 11.9114 	 84.0236 	 
*
