! wB97X-D3 SP def2-SVP
%pal
nprocs 16
end

* xyz 0 1
S 	 -4.2793 	 -18.1596 	 57.6436 	 
C 	 -2.92567 	 -17.5248 	 56.7793 	 
C 	 -3.2872 	 -16.7149 	 55.7581 	 
C 	 -4.71341 	 -16.6768 	 55.6551 	 
C 	 -5.40275 	 -17.4611 	 56.5188 	 
H 	 -5.29522 	 -16.0315 	 54.9453 	 
C 	 -2.40713 	 -16.0625 	 54.7837 	 
H 	 -1.39687 	 -16.3521 	 55.1023 	 
H 	 -2.42943 	 -14.9496 	 54.8814 	 
C 	 -2.61025 	 -16.5582 	 53.3537 	 
H 	 -1.71861 	 -16.1359 	 52.8015 	 
H 	 -2.43761 	 -17.6502 	 53.4437 	 
C 	 -3.90724 	 -16.107 	 52.7072 	 
H 	 -4.75019 	 -16.7097 	 52.9522 	 
H 	 -4.17109 	 -15.0785 	 53.0462 	 
H 	 -3.84284 	 -16.1979 	 51.5861 	 
S 	 -7.27802 	 -19.2324 	 55.8358 	 
C 	 -8.95854 	 -18.9873 	 55.9758 	 
C 	 -9.10959 	 -17.6625 	 56.3512 	 
C 	 -7.93442 	 -16.9029 	 56.6805 	 
C 	 -6.79783 	 -17.7466 	 56.5015 	 
H 	 -10.1719 	 -17.3548 	 56.445 	 
C 	 -7.90932 	 -15.44 	 56.9827 	 
H 	 -6.90586 	 -15.1222 	 56.9125 	 
H 	 -8.28523 	 -15.304 	 58.0068 	 
C 	 -8.8228 	 -14.5638 	 56.042 	 
H 	 -9.73015 	 -15.139 	 56.0499 	 
H 	 -8.37965 	 -14.471 	 55.0419 	 
C 	 -9.1627 	 -13.1934 	 56.7033 	 
H 	 -9.74463 	 -12.5435 	 55.9871 	 
H 	 -8.15734 	 -12.7501 	 57.0126 	 
H 	 -9.80132 	 -13.1279 	 57.6391 	 
H 	 -1.87984 	 -17.7915 	 56.9737 	 
H 	 -9.65472 	 -19.74 	 55.6497 	 
*
