! wB97X-D3 SP def2-SVP
%pal
nprocs 16
end

* xyz 0 1
S 	 -12.9156 	 -3.20692 	 78.6416 	 
C 	 -11.2827 	 -2.52507 	 78.636 	 
C 	 -10.2794 	 -3.41802 	 78.9849 	 
C 	 -10.8294 	 -4.76289 	 79.1424 	 
C 	 -12.2206 	 -4.8129 	 78.8471 	 
H 	 -10.1519 	 -5.5425 	 79.394 	 
C 	 -8.79768 	 -3.13322 	 79.1712 	 
H 	 -8.42431 	 -3.71362 	 80.0499 	 
H 	 -8.74173 	 -2.08446 	 79.4402 	 
C 	 -7.91052 	 -3.41153 	 77.816 	 
H 	 -7.72895 	 -4.45039 	 77.5262 	 
H 	 -8.36775 	 -2.98275 	 76.9325 	 
C 	 -6.54237 	 -2.64051 	 77.7976 	 
H 	 -6.50652 	 -1.54248 	 77.7332 	 
H 	 -6.06436 	 -2.93199 	 78.7006 	 
H 	 -5.87822 	 -3.14814 	 77.0521 	 
S 	 -14.3786 	 -6.23945 	 79.8743 	 
C 	 -14.7774 	 -7.75744 	 79.178 	 
C 	 -13.9374 	 -8.04051 	 78.12 	 
C 	 -12.9267 	 -7.06517 	 77.8894 	 
C 	 -13.0216 	 -5.99959 	 78.7527 	 
H 	 -14.2271 	 -8.78735 	 77.4782 	 
C 	 -11.9065 	 -7.12954 	 76.7246 	 
H 	 -11.0351 	 -6.58312 	 77.1022 	 
H 	 -12.2843 	 -6.52735 	 75.9045 	 
C 	 -11.2578 	 -8.50377 	 76.3901 	 
H 	 -10.6166 	 -8.27727 	 75.5148 	 
H 	 -12.1273 	 -9.19588 	 76.1119 	 
C 	 -10.3311 	 -9.17196 	 77.4278 	 
H 	 -10.0481 	 -10.1591 	 77.1059 	 
H 	 -10.8849 	 -9.38317 	 78.2951 	 
H 	 -9.39897 	 -8.6277 	 77.6823 	 
H 	 -11.1588 	 -1.45412 	 78.6919 	 
H 	 -15.6697 	 -8.38346 	 79.3676 	 
*
