! wB97X-D3 SP def2-SVP
%pal
nprocs 16
end

* xyz 0 1
S 	 -1.4522 	 -13.1176 	 77.2807 	 
C 	 -2.57569 	 -13.3931 	 75.9386 	 
C 	 -3.59454 	 -12.4658 	 75.8713 	 
C 	 -3.55898 	 -11.5421 	 76.9355 	 
C 	 -2.52725 	 -11.8347 	 77.8023 	 
H 	 -4.13501 	 -10.6398 	 77.0939 	 
C 	 -4.79727 	 -12.4233 	 74.9034 	 
H 	 -5.61436 	 -12.098 	 75.6015 	 
H 	 -5.00111 	 -13.4775 	 74.5199 	 
C 	 -4.77747 	 -11.5039 	 73.7536 	 
H 	 -3.79238 	 -11.359 	 73.4307 	 
H 	 -5.3932 	 -11.9985 	 72.978 	 
C 	 -5.53659 	 -10.1793 	 73.9563 	 
H 	 -5.10644 	 -9.64495 	 74.8387 	 
H 	 -5.51326 	 -9.48239 	 73.1336 	 
H 	 -6.63909 	 -10.3004 	 74.1969 	 
S 	 -0.660818 	 -10.473 	 79.2813 	 
C 	 -1.18014 	 -9.51057 	 80.5817 	 
C 	 -2.46759 	 -9.82606 	 80.9471 	 
C 	 -3.17949 	 -10.5888 	 80.0774 	 
C 	 -2.29057 	 -11.0932 	 79.079 	 
H 	 -2.85128 	 -9.42443 	 81.8522 	 
C 	 -4.68022 	 -10.7248 	 80.2411 	 
H 	 -5.07993 	 -10.9838 	 81.1989 	 
H 	 -4.87203 	 -11.5698 	 79.5878 	 
C 	 -5.48043 	 -9.5136 	 79.7338 	 
H 	 -5.12058 	 -9.20263 	 78.7581 	 
H 	 -5.28405 	 -8.66772 	 80.374 	 
C 	 -7.00037 	 -9.76697 	 79.7662 	 
H 	 -7.4639 	 -8.83098 	 79.6268 	 
H 	 -7.35256 	 -10.0865 	 80.7566 	 
H 	 -7.36796 	 -10.5857 	 79.154 	 
H 	 -2.53161 	 -14.1702 	 75.1992 	 
H 	 -0.574291 	 -8.84107 	 81.2202 	 
*
