! wB97X-D3 SP def2-SVP
%pal
nprocs 16
end

* xyz 0 1
S 	 -38.9787 	 32.6503 	 78.3979 	 
C 	 -38.9875 	 33.0172 	 76.7491 	 
C 	 -40.0066 	 33.9429 	 76.4729 	 
C 	 -40.872 	 34.1357 	 77.5686 	 
C 	 -40.5461 	 33.4039 	 78.6509 	 
H 	 -41.6769 	 34.8337 	 77.572 	 
C 	 -40.2442 	 34.7674 	 75.169 	 
H 	 -41.3312 	 34.8612 	 74.8937 	 
H 	 -39.6309 	 34.4147 	 74.3648 	 
C 	 -39.8841 	 36.2563 	 75.3219 	 
H 	 -40.2498 	 36.784 	 74.3824 	 
H 	 -40.5122 	 36.5623 	 76.1715 	 
C 	 -38.3998 	 36.675 	 75.5835 	 
H 	 -37.6649 	 36.3409 	 74.8395 	 
H 	 -38.3945 	 37.7753 	 75.7089 	 
H 	 -38.0785 	 36.1866 	 76.4978 	 
S 	 -41.2718 	 34.9545 	 80.9026 	 
C 	 -41.8672 	 34.1492 	 82.3454 	 
C 	 -42.0103 	 32.8092 	 82.1221 	 
C 	 -41.7241 	 32.4472 	 80.8172 	 
C 	 -41.2053 	 33.4497 	 79.9906 	 
H 	 -42.4193 	 32.2012 	 82.8956 	 
C 	 -41.8356 	 30.9653 	 80.3369 	 
H 	 -40.9308 	 30.4944 	 80.7317 	 
H 	 -41.6851 	 30.9131 	 79.2139 	 
C 	 -43.1811 	 30.1869 	 80.8297 	 
H 	 -44.0959 	 30.7421 	 80.8918 	 
H 	 -42.9842 	 29.8633 	 81.8295 	 
C 	 -43.5222 	 29.0348 	 79.9632 	 
H 	 -42.6441 	 28.3148 	 80.0314 	 
H 	 -43.6158 	 29.2959 	 78.9122 	 
H 	 -44.367 	 28.5222 	 80.3308 	 
H 	 -38.3787 	 32.5935 	 75.9771 	 
H 	 -42.083 	 34.5342 	 83.357 	 
*
