! wB97X-D3 SP def2-SVP
%pal
nprocs 16
end

* xyz 0 1
S 	 -0.72684 	 8.25485 	 80.5029 	 
C 	 0.402691 	 8.90985 	 79.3385 	 
C 	 -0.0369995 	 8.66726 	 78.0547 	 
C 	 -1.2465 	 7.89807 	 78.0557 	 
C 	 -1.83108 	 7.62477 	 79.2729 	 
H 	 -1.71947 	 7.525 	 77.1815 	 
C 	 0.665196 	 9.08221 	 76.7583 	 
H 	 1.42401 	 9.86859 	 76.9586 	 
H 	 -0.198184 	 9.5746 	 76.3251 	 
C 	 1.03897 	 7.92846 	 75.7245 	 
H 	 2.00343 	 7.51971 	 76.0667 	 
H 	 0.277381 	 7.09603 	 75.8204 	 
C 	 1.15681 	 8.3371 	 74.2991 	 
H 	 0.354576 	 8.95521 	 73.9648 	 
H 	 2.04995 	 8.95835 	 74.2576 	 
H 	 1.17357 	 7.378 	 73.7512 	 
S 	 -2.94436 	 5.92511 	 81.2203 	 
C 	 -4.62858 	 5.65615 	 81.0976 	 
C 	 -5.20664 	 6.07063 	 79.9059 	 
C 	 -4.26306 	 6.83753 	 79.168 	 
C 	 -2.98594 	 6.85379 	 79.7276 	 
H 	 -6.29327 	 5.88384 	 79.6551 	 
C 	 -4.61712 	 7.47555 	 77.8448 	 
H 	 -5.52333 	 6.84292 	 77.5354 	 
H 	 -3.86243 	 7.13981 	 77.1159 	 
C 	 -4.9625 	 8.94263 	 77.6975 	 
H 	 -3.98171 	 9.48421 	 77.5548 	 
H 	 -5.52634 	 9.29224 	 78.5541 	 
C 	 -5.90761 	 9.24237 	 76.4925 	 
H 	 -5.65145 	 8.60582 	 75.6852 	 
H 	 -5.97694 	 10.267 	 76.0408 	 
H 	 -6.89987 	 9.01925 	 76.7033 	 
H 	 1.32527 	 9.50227 	 79.5487 	 
H 	 -5.0988 	 4.92559 	 81.7522 	 
*
