! wB97X-D3 SP def2-SVP
%pal
nprocs 16
end

* xyz 0 1
S 	 -43.9631 	 32.333 	 80.3721 	 
C 	 -44.3559 	 32.8141 	 78.7032 	 
C 	 -43.4908 	 32.2346 	 77.7876 	 
C 	 -42.3687 	 31.5825 	 78.4318 	 
C 	 -42.4559 	 31.6677 	 79.8033 	 
H 	 -41.5517 	 31.1237 	 77.9483 	 
C 	 -43.3987 	 32.4911 	 76.3017 	 
H 	 -42.3273 	 32.8658 	 76.0056 	 
H 	 -43.9677 	 33.4043 	 76.0449 	 
C 	 -43.8419 	 31.2015 	 75.5638 	 
H 	 -43.0394 	 30.434 	 75.47 	 
H 	 -44.6688 	 30.6851 	 76.0827 	 
C 	 -44.2214 	 31.3874 	 74.0729 	 
H 	 -45.0261 	 32.1858 	 73.9516 	 
H 	 -43.3077 	 31.7046 	 73.5913 	 
H 	 -44.5145 	 30.5051 	 73.6115 	 
S 	 -39.8874 	 32.0322 	 80.6469 	 
C 	 -39.2153 	 31.1756 	 82.0283 	 
C 	 -40.1235 	 30.2373 	 82.4003 	 
C 	 -41.4123 	 30.2942 	 81.7358 	 
C 	 -41.4467 	 31.2355 	 80.7212 	 
H 	 -39.7123 	 29.5298 	 83.1428 	 
C 	 -42.6232 	 29.3741 	 82.1164 	 
H 	 -43.5833 	 29.8607 	 82.1393 	 
H 	 -42.4567 	 29.4167 	 83.2401 	 
C 	 -42.8325 	 27.9659 	 81.5692 	 
H 	 -43.5661 	 27.4715 	 82.1895 	 
H 	 -41.8359 	 27.5895 	 81.6441 	 
C 	 -43.3474 	 27.9912 	 80.1355 	 
H 	 -42.5431 	 28.2042 	 79.4238 	 
H 	 -44.0506 	 28.7932 	 79.9912 	 
H 	 -43.9494 	 27.1001 	 79.9745 	 
H 	 -45.125 	 33.5304 	 78.3819 	 
H 	 -38.2737 	 31.2013 	 82.5139 	 
*
