! wB97X-D3 SP def2-SVP
%pal
nprocs 16
end

* xyz 0 1
S 	 11.3459 	 -10.0442 	 96.7327 	 
C 	 12.5374 	 -8.96439 	 97.5189 	 
C 	 12.6755 	 -7.79863 	 96.8349 	 
C 	 11.7649 	 -7.7699 	 95.7268 	 
C 	 10.8501 	 -8.84962 	 95.6463 	 
H 	 11.6579 	 -6.98602 	 95.0268 	 
C 	 13.7013 	 -6.762 	 97.2191 	 
H 	 14.1546 	 -6.35043 	 96.2813 	 
H 	 14.5085 	 -7.23925 	 97.8299 	 
C 	 13.2171 	 -5.55086 	 97.986 	 
H 	 13.9245 	 -4.71607 	 97.7775 	 
H 	 12.3212 	 -5.19585 	 97.451 	 
C 	 12.7942 	 -5.87311 	 99.42 	 
H 	 13.6359 	 -6.39401 	 99.9629 	 
H 	 12.346 	 -5.07711 	 100.016 	 
H 	 12.0122 	 -6.55295 	 99.2766 	 
S 	 9.97032 	 -10.125 	 93.46 	 
C 	 8.40803 	 -9.67865 	 92.7266 	 
C 	 7.80192 	 -8.60254 	 93.3795 	 
C 	 8.56881 	 -8.16388 	 94.492 	 
C 	 9.75395 	 -8.936 	 94.6975 	 
H 	 6.85911 	 -8.12138 	 92.9889 	 
C 	 7.95994 	 -7.05756 	 95.3786 	 
H 	 7.92156 	 -6.11552 	 94.8763 	 
H 	 8.70217 	 -6.90827 	 96.1201 	 
C 	 6.54538 	 -7.46422 	 96.0658 	 
H 	 5.85057 	 -7.66787 	 95.1574 	 
H 	 6.12189 	 -6.63755 	 96.6662 	 
C 	 6.50904 	 -8.69996 	 96.9016 	 
H 	 6.9528 	 -9.50836 	 96.2987 	 
H 	 5.47108 	 -9.06241 	 97.1983 	 
H 	 7.10044 	 -8.4814 	 97.7699 	 
H 	 13.1621 	 -9.20835 	 98.3474 	 
H 	 7.98389 	 -10.0352 	 91.807 	 
*
