! wB97X-D3 SP def2-SVP
%pal
nprocs 16
end

* xyz 0 1
S 	 10.6868 	 -15.6364 	 86.6904 	 
C 	 12.0334 	 -16.0443 	 85.5591 	 
C 	 12.9206 	 -14.95 	 85.5968 	 
C 	 12.5079 	 -13.8715 	 86.4009 	 
C 	 11.2637 	 -13.9935 	 86.9672 	 
H 	 13.1171 	 -12.9874 	 86.6987 	 
C 	 14.2246 	 -14.8899 	 84.9424 	 
H 	 14.099 	 -13.9929 	 84.2444 	 
H 	 14.2216 	 -15.7341 	 84.2761 	 
C 	 15.4444 	 -14.9051 	 85.9295 	 
H 	 16.3429 	 -14.7973 	 85.2952 	 
H 	 15.5167 	 -14.0378 	 86.5078 	 
C 	 15.5109 	 -16.0774 	 86.8542 	 
H 	 15.4964 	 -17.0099 	 86.3783 	 
H 	 16.4759 	 -15.973 	 87.4245 	 
H 	 14.7371 	 -16.0996 	 87.5612 	 
S 	 10.0891 	 -13.9871 	 89.4516 	 
C 	 9.94387 	 -12.4312 	 90.1838 	 
C 	 10.0007 	 -11.4009 	 89.2416 	 
C 	 10.5996 	 -11.8137 	 88.0533 	 
C 	 10.6912 	 -13.2037 	 87.9977 	 
H 	 9.72654 	 -10.3496 	 89.5335 	 
C 	 11.0703 	 -10.8573 	 87.003 	 
H 	 10.2296 	 -10.1931 	 86.7088 	 
H 	 11.3796 	 -11.3035 	 86.0981 	 
C 	 12.2076 	 -9.89066 	 87.432 	 
H 	 13.0659 	 -10.4265 	 87.8588 	 
H 	 11.8673 	 -9.24712 	 88.3067 	 
C 	 12.4846 	 -9.01347 	 86.1662 	 
H 	 13.1936 	 -9.48991 	 85.4231 	 
H 	 13.0119 	 -8.127 	 86.4711 	 
H 	 11.5892 	 -8.57781 	 85.728 	 
H 	 12.1007 	 -17.0073 	 85.0133 	 
H 	 9.51442 	 -12.2461 	 91.1546 	 
*
