! wB97X-D3 SP def2-SVP
%pal
nprocs 16
end

* xyz 0 1
S 	 -0.774042 	 -9.98728 	 66.2737 	 
C 	 -2.51475 	 -9.46962 	 66.4673 	 
C 	 -3.19602 	 -10.1982 	 67.4076 	 
C 	 -2.46483 	 -11.3114 	 67.7422 	 
C 	 -1.1591 	 -11.4345 	 67.2814 	 
H 	 -2.67777 	 -12.0231 	 68.5542 	 
C 	 -4.58254 	 -9.9481 	 67.9753 	 
H 	 -4.97317 	 -10.8191 	 68.5438 	 
H 	 -5.32372 	 -9.8244 	 67.0791 	 
C 	 -4.59977 	 -8.72862 	 68.9366 	 
H 	 -4.06419 	 -7.90501 	 68.4763 	 
H 	 -5.60473 	 -8.33338 	 69.1682 	 
C 	 -3.90656 	 -9.03951 	 70.2526 	 
H 	 -4.20042 	 -10.0413 	 70.7252 	 
H 	 -2.82977 	 -9.07541 	 69.8971 	 
H 	 -4.05545 	 -8.15028 	 70.8893 	 
S 	 1.28533 	 -12.1349 	 68.1442 	 
C 	 1.83831 	 -13.7393 	 67.9521 	 
C 	 0.813048 	 -14.5909 	 67.6381 	 
C 	 -0.419514 	 -13.8967 	 67.4314 	 
C 	 -0.228032 	 -12.5164 	 67.4886 	 
H 	 0.894838 	 -15.6881 	 67.629 	 
C 	 -1.71041 	 -14.6739 	 67.034 	 
H 	 -1.37454 	 -15.2193 	 66.1355 	 
H 	 -2.31938 	 -13.9349 	 66.5795 	 
C 	 -2.40431 	 -15.607 	 68.0762 	 
H 	 -1.5573 	 -16.1382 	 68.4965 	 
H 	 -3.08832 	 -16.181 	 67.4855 	 
C 	 -3.09357 	 -14.9207 	 69.2038 	 
H 	 -2.28614 	 -14.5657 	 69.9268 	 
H 	 -3.58344 	 -15.6318 	 69.8183 	 
H 	 -3.75316 	 -14.1148 	 68.9146 	 
H 	 -2.99878 	 -8.59636 	 66.0051 	 
H 	 2.87288 	 -14.086 	 68.0602 	 
*
