! wB97X-D3 SP def2-SVP
%pal
nprocs 16
end

* xyz 0 1
S 	 41.9652 	 14.216 	 71.5772 	 
C 	 40.3897 	 13.7174 	 72.0376 	 
C 	 39.5179 	 14.82 	 71.9639 	 
C 	 40.2144 	 16.0908 	 71.7348 	 
C 	 41.5842 	 15.9726 	 71.5379 	 
H 	 39.6831 	 16.9977 	 71.5063 	 
C 	 37.9908 	 14.708 	 72.0277 	 
H 	 37.6517 	 15.7191 	 72.0769 	 
H 	 37.6239 	 14.2671 	 73.0193 	 
C 	 37.2883 	 13.9854 	 70.9038 	 
H 	 37.4779 	 12.8813 	 70.9197 	 
H 	 36.229 	 14.1257 	 70.9846 	 
C 	 37.5415 	 14.6266 	 69.4983 	 
H 	 37.5075 	 13.8089 	 68.6984 	 
H 	 36.8618 	 15.4293 	 69.3183 	 
H 	 38.5571 	 15.067 	 69.2788 	 
S 	 41.9684 	 18.3611 	 70.2827 	 
C 	 43.56 	 19.2204 	 70.4074 	 
C 	 44.4327 	 18.4353 	 71.1921 	 
C 	 43.8652 	 17.2182 	 71.7155 	 
C 	 42.5439 	 17.0342 	 71.2854 	 
H 	 45.4997 	 18.6657 	 71.332 	 
C 	 44.6384 	 16.3242 	 72.6352 	 
H 	 45.4718 	 16.0098 	 72.0763 	 
H 	 44.1471 	 15.2996 	 72.6053 	 
C 	 44.901 	 16.8058 	 74.0068 	 
H 	 44.0143 	 16.9609 	 74.5348 	 
H 	 45.3217 	 17.785 	 73.9237 	 
C 	 45.9249 	 16.0083 	 74.7827 	 
H 	 46.863 	 15.9081 	 74.2674 	 
H 	 45.5386 	 15.0409 	 75.0157 	 
H 	 46.1247 	 16.3843 	 75.8009 	 
H 	 40.0309 	 12.71 	 72.2839 	 
H 	 43.887 	 20.1518 	 69.9476 	 
*
