! wB97X-D3 SP def2-SVP
%pal
nprocs 16
end

* xyz 0 1
S 	 -35.2468 	 54.253 	 115.215 	 
C 	 -35.2724 	 55.9745 	 115.275 	 
C 	 -36.5359 	 56.4292 	 114.944 	 
C 	 -37.5203 	 55.3887 	 114.669 	 
C 	 -36.9761 	 54.1309 	 114.779 	 
H 	 -38.5943 	 55.5125 	 114.475 	 
C 	 -36.9635 	 57.923 	 114.963 	 
H 	 -36.1552 	 58.389 	 115.536 	 
H 	 -37.9334 	 58.0009 	 115.433 	 
C 	 -36.9297 	 58.6102 	 113.584 	 
H 	 -37.5887 	 58.1129 	 112.862 	 
H 	 -37.1991 	 59.6456 	 113.582 	 
C 	 -35.5213 	 58.486 	 112.889 	 
H 	 -34.6405 	 58.7215 	 113.449 	 
H 	 -35.4628 	 57.4651 	 112.534 	 
H 	 -35.5189 	 59.0932 	 112.001 	 
S 	 -37.7852 	 51.9834 	 116.131 	 
C 	 -38.8876 	 50.8414 	 115.422 	 
C 	 -39.3958 	 51.1983 	 114.216 	 
C 	 -38.8182 	 52.4526 	 113.816 	 
C 	 -37.8095 	 52.9177 	 114.728 	 
H 	 -40.032 	 50.5566 	 113.582 	 
C 	 -39.3723 	 53.0875 	 112.537 	 
H 	 -39.3249 	 52.2905 	 111.818 	 
H 	 -38.7186 	 53.922 	 112.326 	 
C 	 -40.8523 	 53.5699 	 112.601 	 
H 	 -41.0317 	 54.0175 	 113.542 	 
H 	 -41.5105 	 52.7318 	 112.56 	 
C 	 -41.2533 	 54.5984 	 111.503 	 
H 	 -40.4981 	 55.402 	 111.434 	 
H 	 -42.1725 	 55.1035 	 111.636 	 
H 	 -41.2261 	 54.1642 	 110.503 	 
H 	 -34.4045 	 56.5288 	 115.511 	 
H 	 -39.1548 	 49.8936 	 115.841 	 
*
