! wB97X-D3 SP def2-SVP
%pal
nprocs 16
end

* xyz 0 1
S 	 -4.60503 	 73.2668 	 49.9723 	 
C 	 -3.74657 	 74.5011 	 48.9983 	 
C 	 -2.38239 	 74.3122 	 49.078 	 
C 	 -2.013 	 73.0928 	 49.8326 	 
C 	 -3.1504 	 72.3306 	 50.1635 	 
H 	 -0.964195 	 72.7729 	 49.9881 	 
C 	 -1.34872 	 75.1835 	 48.3585 	 
H 	 -1.97298 	 75.6578 	 47.6073 	 
H 	 -0.617001 	 74.591 	 47.8653 	 
C 	 -0.574299 	 76.1134 	 49.3297 	 
H 	 -1.37355 	 76.7173 	 49.7571 	 
H 	 -0.0814432 	 75.6624 	 50.1354 	 
C 	 0.450538 	 76.9474 	 48.5475 	 
H 	 1.1602 	 77.5045 	 49.1287 	 
H 	 1.04044 	 76.2583 	 47.9998 	 
H 	 -0.0560137 	 77.5409 	 47.8348 	 
S 	 -4.47681 	 70.8881 	 52.1152 	 
C 	 -3.95823 	 69.2472 	 52.4047 	 
C 	 -3.10266 	 68.7942 	 51.473 	 
C 	 -2.69622 	 69.8235 	 50.5758 	 
C 	 -3.18742 	 71.0873 	 50.8711 	 
H 	 -2.7478 	 67.7419 	 51.448 	 
C 	 -1.71582 	 69.5146 	 49.484 	 
H 	 -1.31602 	 68.4821 	 49.6174 	 
H 	 -0.842881 	 70.1967 	 49.5614 	 
C 	 -2.21845 	 69.4633 	 48.0476 	 
H 	 -1.42218 	 69.3198 	 47.318 	 
H 	 -2.5866 	 70.4735 	 47.6914 	 
C 	 -3.37782 	 68.4429 	 47.8549 	 
H 	 -2.9936 	 67.435 	 47.9794 	 
H 	 -3.76607 	 68.3279 	 46.882 	 
H 	 -4.33922 	 68.5724 	 48.415 	 
H 	 -4.26502 	 75.321 	 48.4939 	 
H 	 -4.26943 	 68.688 	 53.2808 	 
*
