! wB97X-D3 SP def2-SVP
%pal
nprocs 16
end

* xyz 0 1
S 	 -9.60574 	 -13.5128 	 86.7627 	 
C 	 -11.2517 	 -14.1708 	 86.6929 	 
C 	 -12.1046 	 -13.4259 	 87.5085 	 
C 	 -11.4379 	 -12.2703 	 88.0943 	 
C 	 -10.09 	 -12.1846 	 87.8719 	 
H 	 -11.9573 	 -11.5773 	 88.7963 	 
C 	 -13.4966 	 -13.7412 	 87.7496 	 
H 	 -13.7557 	 -13.6705 	 88.8 	 
H 	 -13.5847 	 -14.7628 	 87.4378 	 
C 	 -14.4751 	 -12.8751 	 86.9738 	 
H 	 -14.2659 	 -11.8293 	 86.8505 	 
H 	 -14.5027 	 -13.2922 	 85.9754 	 
C 	 -15.8738 	 -12.9157 	 87.5811 	 
H 	 -16.5773 	 -12.2918 	 86.9857 	 
H 	 -16.1363 	 -14.0081 	 87.5147 	 
H 	 -15.8399 	 -12.5212 	 88.6264 	 
S 	 -8.40875 	 -10.0396 	 87.5813 	 
C 	 -7.53137 	 -9.46087 	 88.9175 	 
C 	 -7.72522 	 -10.1851 	 90.0527 	 
C 	 -8.72863 	 -11.1667 	 89.9367 	 
C 	 -9.12937 	 -11.3244 	 88.5743 	 
H 	 -7.10417 	 -9.98542 	 90.8963 	 
C 	 -9.05579 	 -12.3041 	 90.9665 	 
H 	 -10.0862 	 -12.5675 	 90.9275 	 
H 	 -9.11465 	 -11.8298 	 91.9655 	 
C 	 -8.23579 	 -13.6366 	 90.8072 	 
H 	 -8.09118 	 -13.7632 	 89.6869 	 
H 	 -8.70096 	 -14.5944 	 91.0366 	 
C 	 -6.85966 	 -13.3798 	 91.4603 	 
H 	 -6.08938 	 -14.1487 	 91.207 	 
H 	 -7.02938 	 -13.3208 	 92.5426 	 
H 	 -6.49495 	 -12.4564 	 91.0828 	 
H 	 -11.5329 	 -15.1397 	 86.2476 	 
H 	 -6.83575 	 -8.69503 	 88.907 	 
*
