! wB97X-D3 SP def2-SVP
%pal
nprocs 16
end

* xyz 0 1
S 	 59.3803 	 -8.96583 	 86.2808 	 
C 	 59.15 	 -7.51536 	 87.2189 	 
C 	 59.2376 	 -6.44097 	 86.3846 	 
C 	 59.5462 	 -6.74341 	 85.0506 	 
C 	 59.7773 	 -8.07598 	 84.8013 	 
H 	 59.6133 	 -6.09874 	 84.1595 	 
C 	 59.0156 	 -5.02794 	 86.9376 	 
H 	 59.946 	 -4.73223 	 87.4992 	 
H 	 58.2925 	 -5.03956 	 87.6565 	 
C 	 58.8512 	 -3.81299 	 85.9541 	 
H 	 58.8371 	 -2.88683 	 86.4906 	 
H 	 59.7611 	 -3.79144 	 85.42 	 
C 	 57.5696 	 -3.86739 	 85.162 	 
H 	 56.7594 	 -4.48267 	 85.6742 	 
H 	 57.1757 	 -2.92985 	 84.782 	 
H 	 57.8128 	 -4.49849 	 84.2959 	 
S 	 58.8005 	 -10.0612 	 83.1885 	 
C 	 59.366 	 -10.2213 	 81.5065 	 
C 	 60.4915 	 -9.41317 	 81.3133 	 
C 	 60.7674 	 -8.60526 	 82.419 	 
C 	 59.9785 	 -8.78592 	 83.5417 	 
H 	 60.813 	 -9.3921 	 80.271 	 
C 	 61.8818 	 -7.55866 	 82.2785 	 
H 	 61.6353 	 -6.62483 	 82.8296 	 
H 	 61.8596 	 -7.25601 	 81.1985 	 
C 	 63.3792 	 -8.06544 	 82.6187 	 
H 	 64.0271 	 -7.24221 	 82.7005 	 
H 	 63.7762 	 -8.69174 	 81.8092 	 
C 	 63.6531 	 -8.76648 	 84.0356 	 
H 	 64.7282 	 -8.66593 	 84.2311 	 
H 	 63.2785 	 -9.88119 	 83.9921 	 
H 	 63.0749 	 -8.23327 	 84.761 	 
H 	 58.93 	 -7.47547 	 88.257 	 
H 	 59.0779 	 -10.8535 	 80.7182 	 
*
