! wB97X-D3 SP def2-SVP
%pal
nprocs 16
end

* xyz 0 1
S 	 0.545415 	 29.6881 	 44.1738 	 
C 	 0.0648574 	 28.0839 	 43.5024 	 
C 	 0.496594 	 27.9797 	 42.2252 	 
C 	 1.25131 	 29.0734 	 41.8089 	 
C 	 1.35034 	 30.093 	 42.6745 	 
H 	 1.58792 	 29.0731 	 40.8079 	 
C 	 0.115822 	 26.7596 	 41.3876 	 
H 	 -0.129484 	 25.946 	 42.0475 	 
H 	 1.06254 	 26.3653 	 40.9751 	 
C 	 -0.998665 	 27.0125 	 40.3489 	 
H 	 -1.8175 	 27.5153 	 40.888 	 
H 	 -0.786196 	 27.6233 	 39.4555 	 
C 	 -1.69007 	 25.6835 	 39.935 	 
H 	 -2.7962 	 25.9618 	 39.8836 	 
H 	 -1.37689 	 25.4087 	 38.8771 	 
H 	 -1.52975 	 24.8805 	 40.6716 	 
S 	 1.95003 	 32.5916 	 43.935 	 
C 	 2.86856 	 33.7224 	 42.9469 	 
C 	 2.99712 	 33.3123 	 41.6676 	 
C 	 2.72485 	 31.9404 	 41.4631 	 
C 	 2.11198 	 31.3314 	 42.5674 	 
H 	 3.31794 	 33.8857 	 40.8381 	 
C 	 2.84782 	 31.3995 	 40.0673 	 
H 	 3.17739 	 30.392 	 40.2314 	 
H 	 3.61587 	 31.9333 	 39.5962 	 
C 	 1.52511 	 31.425 	 39.1755 	 
H 	 1.5233 	 32.5014 	 38.8994 	 
H 	 0.683945 	 31.2181 	 39.7906 	 
C 	 1.65899 	 30.4233 	 37.9987 	 
H 	 2.22333 	 30.8349 	 37.1986 	 
H 	 0.706702 	 30.2826 	 37.5222 	 
H 	 2.00765 	 29.3846 	 38.2298 	 
H 	 -0.443504 	 27.2607 	 44.1155 	 
H 	 3.11513 	 34.7472 	 43.2783 	 
*
