! wB97X-D3 SP def2-SVP
%pal
nprocs 16
end

* xyz 0 1
S 	 47.2228 	 1.53303 	 85.6886 	 
C 	 48.8166 	 1.60655 	 85.0157 	 
C 	 49.7985 	 1.4493 	 86.0246 	 
C 	 49.1705 	 1.43114 	 87.3001 	 
C 	 47.7888 	 1.35024 	 87.2698 	 
H 	 49.6592 	 1.48066 	 88.2909 	 
C 	 51.2942 	 1.25767 	 85.8591 	 
H 	 51.7011 	 1.91284 	 86.6762 	 
H 	 51.5504 	 1.51183 	 84.8244 	 
C 	 51.9233 	 -0.147058 	 86.2189 	 
H 	 51.9184 	 -0.200979 	 87.3444 	 
H 	 51.206 	 -1.03179 	 86.0061 	 
C 	 53.3328 	 -0.295285 	 85.6319 	 
H 	 53.8142 	 0.570909 	 85.9935 	 
H 	 53.7573 	 -1.26057 	 85.939 	 
H 	 53.2996 	 -0.382455 	 84.5713 	 
S 	 46.083 	 3.04417 	 88.6511 	 
C 	 45.6165 	 2.69338 	 90.3296 	 
C 	 46.127 	 1.46352 	 90.6898 	 
C 	 46.8815 	 0.855477 	 89.6794 	 
C 	 46.961 	 1.53525 	 88.4485 	 
H 	 46.1033 	 1.17487 	 91.781 	 
C 	 47.727 	 -0.352719 	 90.1175 	 
H 	 48.0845 	 -0.933297 	 89.3046 	 
H 	 47.1469 	 -1.17869 	 90.5664 	 
C 	 48.9444 	 -0.0959279 	 91.0699 	 
H 	 48.6546 	 0.410524 	 91.9645 	 
H 	 49.6616 	 0.542551 	 90.5558 	 
C 	 49.6984 	 -1.35742 	 91.4394 	 
H 	 49.0213 	 -1.9695 	 91.9978 	 
H 	 50.4735 	 -1.1706 	 92.2482 	 
H 	 50.2405 	 -1.75377 	 90.6083 	 
H 	 49.1643 	 1.77345 	 83.9948 	 
H 	 45.3293 	 3.50926 	 91.0401 	 
*
