! wB97X-D3 SP def2-SVP
%pal
nprocs 16
end

* xyz 0 1
S 	 54.2663 	 22.1468 	 93.2338 	 
C 	 52.6441 	 22.3213 	 93.758 	 
C 	 51.9174 	 21.1393 	 93.7191 	 
C 	 52.8416 	 20.0283 	 93.6374 	 
C 	 54.1909 	 20.3377 	 93.525 	 
H 	 52.6624 	 18.9334 	 93.6544 	 
C 	 50.3846 	 20.9094 	 93.836 	 
H 	 49.9367 	 21.1305 	 92.8886 	 
H 	 50.0579 	 21.7454 	 94.5062 	 
C 	 49.8657 	 19.5917 	 94.2991 	 
H 	 48.7487 	 19.6173 	 94.2483 	 
H 	 50.2259 	 18.7174 	 93.721 	 
C 	 50.1653 	 19.2047 	 95.7553 	 
H 	 49.6599 	 19.8287 	 96.4747 	 
H 	 49.7944 	 18.2363 	 95.8817 	 
H 	 51.2615 	 19.2854 	 96.1368 	 
S 	 56.2488 	 19.5147 	 92.0643 	 
C 	 57.3532 	 18.3051 	 92.602 	 
C 	 56.9448 	 17.8288 	 93.8595 	 
C 	 55.7245 	 18.3706 	 94.3418 	 
C 	 55.2977 	 19.4303 	 93.5271 	 
H 	 57.6155 	 17.0815 	 94.291 	 
C 	 55.1334 	 17.9551 	 95.6608 	 
H 	 55.61 	 17.0492 	 96.1216 	 
H 	 54.1724 	 17.5801 	 95.3114 	 
C 	 54.9329 	 19.1084 	 96.6384 	 
H 	 54.2467 	 18.7009 	 97.4203 	 
H 	 54.4196 	 19.9184 	 96.1319 	 
C 	 56.2677 	 19.4866 	 97.3519 	 
H 	 56.1706 	 20.197 	 98.2068 	 
H 	 56.9735 	 19.8623 	 96.5973 	 
H 	 56.7243 	 18.6255 	 97.7428 	 
H 	 51.9828 	 23.195 	 93.7835 	 
H 	 58.2029 	 18.1108 	 92.026 	 
*
