! wB97X-D3 SP def2-SVP
%pal
nprocs 16
end

* xyz 0 1
S 	 36.3512 	 14.407 	 78.5866 	 
C 	 35.0853 	 14.8426 	 77.3761 	 
C 	 34.3471 	 15.9728 	 77.8079 	 
C 	 34.9458 	 16.4606 	 79.0377 	 
C 	 36.0251 	 15.7754 	 79.532 	 
H 	 34.5963 	 17.3309 	 79.5771 	 
C 	 33.2125 	 16.6881 	 77.1128 	 
H 	 33.125 	 16.3412 	 76.0677 	 
H 	 33.4288 	 17.7181 	 77.1433 	 
C 	 31.7351 	 16.4852 	 77.7021 	 
H 	 31.4386 	 15.429 	 77.8329 	 
H 	 31.6044 	 16.7707 	 78.7734 	 
C 	 30.6896 	 17.2411 	 76.9089 	 
H 	 30.8781 	 18.3334 	 77.096 	 
H 	 30.7092 	 17.0824 	 75.7798 	 
H 	 29.6434 	 17.0879 	 77.2869 	 
S 	 38.597 	 16.744 	 80.3299 	 
C 	 39.0594 	 16.446 	 82.0315 	 
C 	 37.9662 	 15.8808 	 82.7772 	 
C 	 36.8179 	 15.6261 	 81.9503 	 
C 	 36.9157 	 16.1372 	 80.6569 	 
H 	 38.1315 	 15.5551 	 83.7757 	 
C 	 35.7139 	 14.6713 	 82.424 	 
H 	 36.0385 	 13.662 	 82.5443 	 
H 	 34.9236 	 14.4964 	 81.6803 	 
C 	 34.9601 	 15.0492 	 83.6896 	 
H 	 34.8118 	 16.1124 	 83.6894 	 
H 	 35.7149 	 14.8686 	 84.4944 	 
C 	 33.6918 	 14.1979 	 83.9326 	 
H 	 32.9795 	 14.2112 	 83.1429 	 
H 	 33.3057 	 14.599 	 84.8555 	 
H 	 33.9174 	 13.2415 	 84.232 	 
H 	 34.8029 	 14.263 	 76.5067 	 
H 	 39.9348 	 16.7837 	 82.5136 	 
*
