! wB97X-D3 SP def2-SVP
%pal
nprocs 16
end

* xyz 0 1
S 	 9.19277 	 -12.9817 	 102.098 	 
C 	 9.53109 	 -12.177 	 103.648 	 
C 	 8.34873 	 -11.7218 	 104.239 	 
C 	 7.15179 	 -11.9923 	 103.445 	 
C 	 7.43801 	 -12.6073 	 102.26 	 
H 	 6.20434 	 -11.6362 	 103.67 	 
C 	 8.32116 	 -10.9943 	 105.598 	 
H 	 7.41015 	 -10.4859 	 105.737 	 
H 	 9.09461 	 -10.3002 	 105.621 	 
C 	 8.55663 	 -11.9492 	 106.743 	 
H 	 8.46605 	 -11.2581 	 107.519 	 
H 	 7.71478 	 -12.6413 	 106.781 	 
C 	 9.91514 	 -12.6932 	 106.679 	 
H 	 10.7254 	 -12.0392 	 106.255 	 
H 	 10.1239 	 -13.0345 	 107.662 	 
H 	 9.85593 	 -13.5925 	 106.066 	 
S 	 6.72786 	 -11.9209 	 99.6641 	 
C 	 5.23916 	 -12.5655 	 99.0561 	 
C 	 4.64986 	 -13.5515 	 99.8594 	 
C 	 5.37158 	 -13.6281 	 101.155 	 
C 	 6.45354 	 -12.7713 	 101.224 	 
H 	 3.74089 	 -14.0608 	 99.5015 	 
C 	 4.87794 	 -14.5254 	 102.294 	 
H 	 3.78675 	 -14.3203 	 102.278 	 
H 	 5.09677 	 -14.3056 	 103.35 	 
C 	 5.23544 	 -16.0244 	 102.2 	 
H 	 6.28987 	 -16.0713 	 102.127 	 
H 	 4.68095 	 -16.4526 	 101.392 	 
C 	 4.82804 	 -16.8341 	 103.454 	 
H 	 3.73779 	 -16.8829 	 103.633 	 
H 	 5.42303 	 -16.4912 	 104.295 	 
H 	 5.19205 	 -17.8921 	 103.306 	 
H 	 10.4471 	 -12.0539 	 104.191 	 
H 	 4.83526 	 -12.2595 	 98.1257 	 
*
