! wB97X-D3 SP def2-SVP
%pal
nprocs 16
end

* xyz 0 1
S 	 -101.024 	 42.2355 	 123.732 	 
C 	 -99.7147 	 41.0985 	 124.289 	 
C 	 -99.4633 	 41.2633 	 125.627 	 
C 	 -100.307 	 42.2146 	 126.244 	 
C 	 -101.169 	 42.9334 	 125.41 	 
H 	 -100.336 	 42.6103 	 127.286 	 
C 	 -98.3217 	 40.5134 	 126.41 	 
H 	 -98.6898 	 39.5504 	 126.319 	 
H 	 -98.3543 	 40.8949 	 127.504 	 
C 	 -96.8904 	 40.7808 	 126.027 	 
H 	 -96.6818 	 40.4642 	 125.037 	 
H 	 -96.7312 	 41.8623 	 125.934 	 
C 	 -95.8662 	 40.0604 	 126.978 	 
H 	 -95.9303 	 39.0084 	 127.096 	 
H 	 -94.8586 	 40.2802 	 126.696 	 
H 	 -95.7781 	 40.4611 	 128.065 	 
S 	 -103.844 	 43.6041 	 125.54 	 
C 	 -104.244 	 45.2825 	 125.781 	 
C 	 -103.174 	 45.9989 	 126.227 	 
C 	 -101.953 	 45.24 	 126.138 	 
C 	 -102.149 	 43.9399 	 125.74 	 
H 	 -103.187 	 46.9794 	 126.594 	 
C 	 -100.617 	 45.8607 	 126.495 	 
H 	 -100.201 	 45.3463 	 127.329 	 
H 	 -100.828 	 46.8492 	 126.921 	 
C 	 -99.569 	 45.9481 	 125.411 	 
H 	 -99.9647 	 46.6174 	 124.607 	 
H 	 -99.4556 	 44.9609 	 124.97 	 
C 	 -98.2781 	 46.4694 	 125.935 	 
H 	 -98.3092 	 47.4862 	 126.235 	 
H 	 -97.4935 	 46.519 	 125.152 	 
H 	 -97.7825 	 45.7703 	 126.683 	 
H 	 -99.1232 	 40.4203 	 123.689 	 
H 	 -105.192 	 45.7315 	 126.091 	 
*
