! wB97X-D3 SP def2-SVP
%pal
nprocs 16
end

* xyz 0 1
S 	 -2.11758 	 44.6342 	 32.6872 	 
C 	 -1.56425 	 44.0463 	 34.2253 	 
C 	 -1.21893 	 45.0957 	 35.0824 	 
C 	 -1.42913 	 46.352 	 34.5203 	 
C 	 -1.9021 	 46.304 	 33.2288 	 
H 	 -1.19959 	 47.2475 	 35.0317 	 
C 	 -0.616363 	 44.8186 	 36.3974 	 
H 	 -0.0331561 	 45.6712 	 36.6782 	 
H 	 0.0408627 	 43.9882 	 36.2678 	 
C 	 -1.65456 	 44.3897 	 37.5049 	 
H 	 -1.07106 	 44.3994 	 38.4107 	 
H 	 -2.56506 	 44.9679 	 37.6426 	 
C 	 -2.21639 	 42.9236 	 37.3841 	 
H 	 -2.63415 	 42.7343 	 36.3647 	 
H 	 -1.39246 	 42.0933 	 37.5961 	 
H 	 -3.07298 	 42.755 	 38.0233 	 
S 	 -2.29924 	 47.0262 	 30.6826 	 
C 	 -2.24434 	 48.6544 	 30.2002 	 
C 	 -2.33474 	 49.4878 	 31.2825 	 
C 	 -2.20841 	 48.8395 	 32.5446 	 
C 	 -2.08149 	 47.4653 	 32.351 	 
H 	 -2.38149 	 50.5192 	 31.1332 	 
C 	 -2.03961 	 49.6884 	 33.7229 	 
H 	 -2.38874 	 49.1349 	 34.5295 	 
H 	 -2.67133 	 50.5572 	 33.7376 	 
C 	 -0.572165 	 49.9312 	 34.0972 	 
H 	 -0.00683718 	 48.9982 	 34.1644 	 
H 	 -0.55718 	 50.2147 	 35.1687 	 
C 	 0.0936346 	 51.1327 	 33.5055 	 
H 	 -0.346044 	 52.0198 	 33.8834 	 
H 	 0.0685834 	 51.3469 	 32.4358 	 
H 	 1.15808 	 51.0799 	 33.7698 	 
H 	 -1.27027 	 43.0744 	 34.4388 	 
H 	 -2.49676 	 48.9931 	 29.2201 	 
*
