! wB97X-D3 SP def2-SVP
%pal
nprocs 16
end

* xyz 0 1
S 	 -41.7846 	 24.8438 	 87.5292 	 
C 	 -41.8672 	 26.5312 	 87.8084 	 
C 	 -42.0908 	 27.293 	 86.6391 	 
C 	 -42.4233 	 26.4352 	 85.5443 	 
C 	 -42.4087 	 25.1109 	 85.9072 	 
H 	 -42.7982 	 26.758 	 84.6481 	 
C 	 -42.1717 	 28.7923 	 86.568 	 
H 	 -41.4661 	 29.1679 	 85.7699 	 
H 	 -41.7471 	 29.1905 	 87.4854 	 
C 	 -43.583 	 29.383 	 86.3774 	 
H 	 -43.9591 	 29.2064 	 85.361 	 
H 	 -44.2954 	 28.7975 	 87.0095 	 
C 	 -43.712 	 30.8686 	 86.663 	 
H 	 -43.0579 	 31.4763 	 85.9993 	 
H 	 -44.6952 	 31.1372 	 86.3379 	 
H 	 -43.6 	 31.0777 	 87.6875 	 
S 	 -44.287 	 23.9471 	 84.289 	 
C 	 -43.8434 	 22.4925 	 83.4136 	 
C 	 -42.5156 	 22.1879 	 83.6195 	 
C 	 -41.8269 	 23.0583 	 84.4425 	 
C 	 -42.659 	 23.9723 	 85.0267 	 
H 	 -42.0768 	 21.369 	 83.0695 	 
C 	 -40.295 	 23.0908 	 84.5786 	 
H 	 -39.9169 	 22.0704 	 84.4514 	 
H 	 -39.9597 	 23.3562 	 85.6052 	 
C 	 -39.6214 	 24.0688 	 83.6472 	 
H 	 -38.5874 	 24.1583 	 83.9783 	 
H 	 -40.0708 	 25.1108 	 83.8838 	 
C 	 -39.7552 	 23.7023 	 82.1664 	 
H 	 -39.1389 	 24.3126 	 81.4991 	 
H 	 -40.7247 	 24.0056 	 81.8586 	 
H 	 -39.5886 	 22.6929 	 81.9376 	 
H 	 -41.5772 	 26.8139 	 88.8346 	 
H 	 -44.522 	 21.9821 	 82.7349 	 
*
