! wB97X-D3 SP def2-SVP
%pal
nprocs 16
end

* xyz 0 1
S 	 7.64739 	 -27.0141 	 82.5785 	 
C 	 8.81702 	 -27.9397 	 83.4881 	 
C 	 9.97985 	 -27.261 	 83.7135 	 
C 	 9.85615 	 -25.905 	 83.2635 	 
C 	 8.58712 	 -25.5419 	 82.9398 	 
H 	 10.601 	 -25.1263 	 83.2257 	 
C 	 11.1991 	 -27.7243 	 84.4182 	 
H 	 11.1146 	 -28.7291 	 84.8512 	 
H 	 11.2286 	 -27.0444 	 85.2728 	 
C 	 12.4455 	 -27.6171 	 83.5516 	 
H 	 12.4139 	 -28.2363 	 82.682 	 
H 	 12.6977 	 -26.5949 	 83.1185 	 
C 	 13.7234 	 -27.9748 	 84.4024 	 
H 	 13.5514 	 -28.8958 	 85.0646 	 
H 	 14.4805 	 -28.3437 	 83.7038 	 
H 	 14.0868 	 -27.1723 	 84.9737 	 
S 	 7.29444 	 -24.2015 	 80.8499 	 
C 	 7.06175 	 -22.5048 	 81.0197 	 
C 	 7.58046 	 -21.9701 	 82.1927 	 
C 	 8.1843 	 -22.9814 	 82.9602 	 
C 	 8.11117 	 -24.2545 	 82.4235 	 
H 	 7.47932 	 -20.9025 	 82.3687 	 
C 	 8.64143 	 -22.636 	 84.4239 	 
H 	 9.12378 	 -21.7101 	 84.266 	 
H 	 9.48189 	 -23.2565 	 84.6818 	 
C 	 7.66455 	 -22.5185 	 85.5664 	 
H 	 8.27897 	 -22.3963 	 86.4172 	 
H 	 7.19681 	 -23.4683 	 85.7765 	 
C 	 6.58996 	 -21.3682 	 85.4949 	 
H 	 5.83487 	 -21.2944 	 86.309 	 
H 	 5.95769 	 -21.5437 	 84.6022 	 
H 	 7.08407 	 -20.3615 	 85.4018 	 
H 	 8.66582 	 -28.9627 	 83.766 	 
H 	 6.52575 	 -21.8985 	 80.3228 	 
*
