! wB97X-D3 SP def2-SVP
%pal
nprocs 16
end

* xyz 0 1
S 	 -47.1136 	 33.8304 	 93.8445 	 
C 	 -47.0065 	 33.0667 	 92.2114 	 
C 	 -48.2807 	 33.1535 	 91.5441 	 
C 	 -49.2349 	 33.7881 	 92.3677 	 
C 	 -48.7571 	 34.3442 	 93.5257 	 
H 	 -50.1709 	 34.0977 	 92.189 	 
C 	 -48.514 	 32.7876 	 90.0929 	 
H 	 -47.7535 	 33.1496 	 89.4147 	 
H 	 -49.4338 	 33.308 	 89.7912 	 
C 	 -48.664 	 31.2686 	 89.803 	 
H 	 -48.6635 	 31.0716 	 88.767 	 
H 	 -47.8149 	 30.7367 	 90.1221 	 
C 	 -49.9361 	 30.5399 	 90.3529 	 
H 	 -49.6257 	 30.0989 	 91.292 	 
H 	 -50.7966 	 31.1605 	 90.5448 	 
H 	 -50.2891 	 29.8211 	 89.7011 	 
S 	 -48.6464 	 36.257 	 95.5175 	 
C 	 -50.1338 	 36.7366 	 96.3784 	 
C 	 -51.18 	 35.9098 	 96.0216 	 
C 	 -50.908 	 35.0254 	 94.8928 	 
C 	 -49.567 	 35.1727 	 94.4847 	 
H 	 -52.0454 	 36.0553 	 96.5851 	 
C 	 -51.9248 	 34.0059 	 94.3877 	 
H 	 -51.3058 	 33.0346 	 94.1926 	 
H 	 -52.2515 	 34.3407 	 93.4181 	 
C 	 -53.1374 	 33.5034 	 95.2785 	 
H 	 -53.9 	 34.2324 	 95.504 	 
H 	 -52.8631 	 33.297 	 96.3193 	 
C 	 -53.7905 	 32.2217 	 94.7229 	 
H 	 -53.9703 	 32.3523 	 93.6113 	 
H 	 -54.6738 	 31.9536 	 95.3362 	 
H 	 -53.1114 	 31.4532 	 94.8743 	 
H 	 -46.085 	 32.6562 	 91.8016 	 
H 	 -50.2531 	 37.4908 	 97.1646 	 
*
