! wB97X-D3 SP def2-SVP
%pal
nprocs 16
end

* xyz 0 1
S 	 13.1664 	 0.733299 	 82.9288 	 
C 	 14.3802 	 1.34759 	 81.8349 	 
C 	 14.7803 	 2.65335 	 82.1766 	 
C 	 14.3306 	 2.94113 	 83.5037 	 
C 	 13.6181 	 1.95458 	 84.0712 	 
H 	 14.4412 	 3.8107 	 84.149 	 
C 	 15.5758 	 3.57155 	 81.3068 	 
H 	 15.9223 	 3.04824 	 80.3652 	 
H 	 16.5223 	 3.97635 	 81.8564 	 
C 	 14.7575 	 4.81417 	 80.8868 	 
H 	 14.1479 	 5.03029 	 81.7348 	 
H 	 15.3466 	 5.6666 	 80.4858 	 
C 	 13.6762 	 4.55019 	 79.8404 	 
H 	 14.173 	 4.39946 	 78.9048 	 
H 	 13.0829 	 3.64906 	 80.0861 	 
H 	 13.0377 	 5.44911 	 79.6603 	 
S 	 14.2045 	 1.69203 	 86.6926 	 
C 	 13.0113 	 1.82518 	 87.9446 	 
C 	 11.7638 	 2.04201 	 87.4293 	 
C 	 11.7348 	 1.9204 	 85.992 	 
C 	 13.0314 	 1.9964 	 85.4573 	 
H 	 10.9248 	 2.21065 	 88.0959 	 
C 	 10.4749 	 2.23292 	 85.2249 	 
H 	 9.94851 	 1.31468 	 85.1386 	 
H 	 10.8058 	 2.33947 	 84.1634 	 
C 	 9.69231 	 3.48364 	 85.5119 	 
H 	 10.3355 	 4.36972 	 85.3541 	 
H 	 9.30391 	 3.61414 	 86.5469 	 
C 	 8.49887 	 3.61964 	 84.6245 	 
H 	 8.30886 	 4.67577 	 84.3667 	 
H 	 7.52409 	 3.16431 	 85.0022 	 
H 	 8.56842 	 3.03237 	 83.6846 	 
H 	 14.3981 	 0.906097 	 80.8637 	 
H 	 13.2245 	 1.82991 	 88.9646 	 
*
