! wB97X-D3 SP def2-SVP
%pal
nprocs 16
end

* xyz 0 1
S 	 -43.421 	 41.7788 	 80.2647 	 
C 	 -42.8008 	 40.3597 	 79.4308 	 
C 	 -42.8277 	 39.2442 	 80.2696 	 
C 	 -43.5437 	 39.527 	 81.4682 	 
C 	 -43.9819 	 40.8235 	 81.6001 	 
H 	 -43.7213 	 38.8187 	 82.3114 	 
C 	 -42.295 	 37.8746 	 79.9643 	 
H 	 -41.8082 	 37.497 	 80.8343 	 
H 	 -41.4411 	 37.9695 	 79.3623 	 
C 	 -43.2919 	 36.8012 	 79.5201 	 
H 	 -42.6928 	 35.9077 	 79.4765 	 
H 	 -44.0326 	 36.5521 	 80.2293 	 
C 	 -43.7934 	 37.0914 	 78.0789 	 
H 	 -44.512 	 37.9066 	 78.1143 	 
H 	 -42.9778 	 37.3744 	 77.3911 	 
H 	 -44.2649 	 36.2252 	 77.7126 	 
S 	 -46.2511 	 42.279 	 82.2087 	 
C 	 -46.7408 	 42.4956 	 83.8175 	 
C 	 -45.8976 	 41.8686 	 84.7097 	 
C 	 -44.7606 	 41.2546 	 84.0289 	 
C 	 -44.789 	 41.411 	 82.6393 	 
H 	 -46.1728 	 41.9435 	 85.7607 	 
C 	 -43.6039 	 40.5932 	 84.7959 	 
H 	 -43.3946 	 39.6685 	 84.2017 	 
H 	 -43.9338 	 40.2525 	 85.7157 	 
C 	 -42.3599 	 41.5148 	 85.0264 	 
H 	 -41.8564 	 41.7456 	 84.1083 	 
H 	 -41.7365 	 41.0649 	 85.8287 	 
C 	 -42.7884 	 42.8185 	 85.6113 	 
H 	 -43.3526 	 42.7411 	 86.5839 	 
H 	 -43.2782 	 43.5267 	 84.8863 	 
H 	 -41.8579 	 43.2365 	 85.9071 	 
H 	 -42.2702 	 40.264 	 78.4951 	 
H 	 -47.6802 	 42.8487 	 84.206 	 
*
