! wB97X-D3 SP def2-SVP
%pal
nprocs 16
end

* xyz 0 1
S 	 -109.053 	 56.5159 	 121.12 	 
C 	 -108.158 	 57.7947 	 121.701 	 
C 	 -106.768 	 57.5357 	 121.771 	 
C 	 -106.431 	 56.3709 	 121 	 
C 	 -107.549 	 55.7956 	 120.446 	 
H 	 -105.42 	 55.9498 	 120.98 	 
C 	 -105.691 	 58.2875 	 122.459 	 
H 	 -104.844 	 57.5472 	 122.523 	 
H 	 -106.039 	 58.4152 	 123.465 	 
C 	 -105.381 	 59.6607 	 121.773 	 
H 	 -104.652 	 60.15 	 122.405 	 
H 	 -104.972 	 59.4334 	 120.746 	 
C 	 -106.586 	 60.5452 	 121.661 	 
H 	 -106.304 	 61.573 	 121.658 	 
H 	 -107.198 	 60.2276 	 120.79 	 
H 	 -107.241 	 60.4339 	 122.599 	 
S 	 -108.656 	 53.2672 	 120.208 	 
C 	 -108.429 	 52.328 	 118.769 	 
C 	 -107.612 	 53.0059 	 117.95 	 
C 	 -106.926 	 54.1181 	 118.556 	 
C 	 -107.522 	 54.5304 	 119.724 	 
H 	 -107.437 	 52.6902 	 116.937 	 
C 	 -105.923 	 54.9517 	 117.718 	 
H 	 -104.997 	 54.3273 	 117.612 	 
H 	 -105.655 	 55.8968 	 118.204 	 
C 	 -106.153 	 55.1939 	 116.263 	 
H 	 -107.207 	 55.5004 	 116.134 	 
H 	 -105.902 	 54.3112 	 115.648 	 
C 	 -105.377 	 56.3795 	 115.627 	 
H 	 -104.314 	 56.2143 	 115.601 	 
H 	 -105.623 	 57.312 	 116.22 	 
H 	 -105.752 	 56.5202 	 114.618 	 
H 	 -108.566 	 58.63 	 122.259 	 
H 	 -109.057 	 51.5226 	 118.53 	 
*
