! wB97X-D3 SP def2-SVP
%pal
nprocs 16
end

* xyz 0 1
S 	 -30.5865 	 63.6254 	 104.007 	 
C 	 -31.3689 	 65.0483 	 104.672 	 
C 	 -30.9283 	 66.2048 	 104.01 	 
C 	 -29.8366 	 65.9887 	 103.128 	 
C 	 -29.568 	 64.6408 	 102.964 	 
H 	 -29.355 	 66.8271 	 102.513 	 
C 	 -31.3781 	 67.6597 	 104.33 	 
H 	 -31.7029 	 67.6624 	 105.32 	 
H 	 -32.3345 	 67.8256 	 103.927 	 
C 	 -30.3459 	 68.8479 	 104.154 	 
H 	 -29.8191 	 68.7979 	 103.206 	 
H 	 -30.8731 	 69.8838 	 104.24 	 
C 	 -29.4305 	 68.7613 	 105.412 	 
H 	 -28.705 	 69.5545 	 105.408 	 
H 	 -29.856 	 68.7387 	 106.36 	 
H 	 -28.9666 	 67.8069 	 105.448 	 
S 	 -28.9591 	 62.7727 	 100.994 	 
C 	 -27.5091 	 62.8984 	 100.067 	 
C 	 -26.6356 	 63.6207 	 100.83 	 
C 	 -27.1574 	 64.346 	 101.946 	 
C 	 -28.5341 	 64.0623 	 102.104 	 
H 	 -25.5644 	 63.7149 	 100.577 	 
C 	 -26.3689 	 65.402 	 102.68 	 
H 	 -27.0795 	 65.9836 	 103.203 	 
H 	 -25.7962 	 66.0691 	 102.162 	 
C 	 -25.5166 	 64.8705 	 103.861 	 
H 	 -25.0128 	 65.6989 	 104.347 	 
H 	 -24.6924 	 64.234 	 103.512 	 
C 	 -26.2825 	 64.1236 	 105.017 	 
H 	 -26.5663 	 63.1384 	 104.663 	 
H 	 -27.2396 	 64.5638 	 105.265 	 
H 	 -25.6776 	 63.9434 	 105.893 	 
H 	 -32.0856 	 65.0954 	 105.491 	 
H 	 -27.2361 	 62.164 	 99.3677 	 
*
