! wB97X-D3 SP def2-SVP
%pal
nprocs 16
end

* xyz 0 1
S 	 0.924517 	 -20.5575 	 85.0478 	 
C 	 1.03749 	 -22.246 	 85.4825 	 
C 	 2.31247 	 -22.5457 	 85.8367 	 
C 	 3.23108 	 -21.4325 	 85.7334 	 
C 	 2.62604 	 -20.2408 	 85.4503 	 
H 	 4.27719 	 -21.4231 	 85.9995 	 
C 	 2.80606 	 -23.9968 	 86.0533 	 
H 	 3.60337 	 -24.1373 	 85.2892 	 
H 	 2.05005 	 -24.7187 	 85.765 	 
C 	 3.40081 	 -24.3601 	 87.3886 	 
H 	 3.70793 	 -25.4163 	 87.4385 	 
H 	 4.36829 	 -23.8486 	 87.4543 	 
C 	 2.63564 	 -24.1525 	 88.7101 	 
H 	 3.30363 	 -24.1566 	 89.6268 	 
H 	 2.01089 	 -23.2254 	 88.7177 	 
H 	 1.89218 	 -24.9149 	 88.8377 	 
S 	 2.60466 	 -17.9504 	 84.0412 	 
C 	 3.97514 	 -16.8366 	 84.1939 	 
C 	 4.70291 	 -17.079 	 85.3173 	 
C 	 4.30945 	 -18.2964 	 85.9251 	 
C 	 3.25208 	 -18.9114 	 85.3051 	 
H 	 5.44479 	 -16.3868 	 85.6642 	 
C 	 4.88699 	 -18.7875 	 87.2305 	 
H 	 5.62901 	 -18.1195 	 87.5849 	 
H 	 5.39563 	 -19.7483 	 87.0013 	 
C 	 3.95833 	 -18.8445 	 88.4136 	 
H 	 3.13503 	 -19.5246 	 88.1469 	 
H 	 3.50178 	 -17.8703 	 88.6525 	 
C 	 4.68474 	 -19.4598 	 89.675 	 
H 	 3.96419 	 -19.7576 	 90.442 	 
H 	 5.38802 	 -18.6793 	 90.0754 	 
H 	 5.0802 	 -20.4684 	 89.533 	 
H 	 0.223965 	 -22.9391 	 85.3788 	 
H 	 4.15064 	 -16.0666 	 83.4005 	 
*
