! wB97X-D3 SP def2-SVP
%pal
nprocs 16
end

* xyz 0 1
S 	 -4.45365 	 10.1886 	 82.7051 	 
C 	 -3.87039 	 8.53693 	 82.9835 	 
C 	 -3.52448 	 7.80246 	 81.7899 	 
C 	 -3.68093 	 8.70235 	 80.6636 	 
C 	 -4.10546 	 10.0026 	 80.9647 	 
H 	 -3.46546 	 8.5437 	 79.5925 	 
C 	 -3.12968 	 6.37753 	 81.8343 	 
H 	 -2.51104 	 6.32825 	 82.7223 	 
H 	 -2.45076 	 6.14594 	 80.9925 	 
C 	 -4.28198 	 5.35152 	 81.8854 	 
H 	 -4.89638 	 5.55553 	 82.7167 	 
H 	 -4.92892 	 5.53652 	 81.0467 	 
C 	 -3.63259 	 3.94661 	 81.8326 	 
H 	 -2.93295 	 3.90364 	 82.6715 	 
H 	 -4.34139 	 3.15653 	 81.9074 	 
H 	 -3.08653 	 3.77423 	 80.9444 	 
S 	 -5.85178 	 11.7606 	 79.7791 	 
C 	 -5.22543 	 12.8233 	 78.4577 	 
C 	 -3.85257 	 12.6851 	 78.3758 	 
C 	 -3.28669 	 11.7616 	 79.2723 	 
C 	 -4.26039 	 11.1147 	 80.0209 	 
H 	 -3.47673 	 13.2987 	 77.5859 	 
C 	 -1.8825 	 11.6437 	 79.5816 	 
H 	 -1.76623 	 10.7772 	 80.2575 	 
H 	 -1.62672 	 12.4537 	 80.2136 	 
C 	 -0.921826 	 11.5274 	 78.4378 	 
H 	 -1.04912 	 12.2666 	 77.7404 	 
H 	 -1.01201 	 10.6214 	 77.8869 	 
C 	 0.551271 	 11.6635 	 78.8114 	 
H 	 1.02191 	 12.435 	 78.1687 	 
H 	 1.09295 	 10.6771 	 78.6565 	 
H 	 0.650735 	 11.9388 	 79.87 	 
H 	 -3.78828 	 8.08693 	 83.9567 	 
H 	 -5.8022 	 13.5982 	 77.9457 	 
*
