! wB97X-D3 SP def2-SVP
%pal
nprocs 16
end

* xyz 0 1
S 	 -1.73803 	 -10.9599 	 84.952 	 
C 	 -1.29826 	 -10.9209 	 86.6494 	 
C 	 -2.15018 	 -11.6728 	 87.4543 	 
C 	 -3.08933 	 -12.4411 	 86.666 	 
C 	 -2.99695 	 -12.1245 	 85.3177 	 
H 	 -3.85497 	 -13.1413 	 87.0359 	 
C 	 -2.16335 	 -11.7076 	 88.9421 	 
H 	 -1.1994 	 -11.3334 	 89.2487 	 
H 	 -2.3898 	 -12.6997 	 89.3873 	 
C 	 -3.16329 	 -10.8135 	 89.6408 	 
H 	 -3.10528 	 -9.75292 	 89.3144 	 
H 	 -4.11441 	 -11.1054 	 89.2687 	 
C 	 -3.16818 	 -10.8219 	 91.1699 	 
H 	 -3.92451 	 -10.0477 	 91.4549 	 
H 	 -3.50335 	 -11.7973 	 91.6104 	 
H 	 -2.17371 	 -10.5895 	 91.4917 	 
S 	 -4.56684 	 -11.0488 	 83.4433 	 
C 	 -5.90337 	 -11.9852 	 82.8289 	 
C 	 -5.97447 	 -13.2588 	 83.3686 	 
C 	 -4.89604 	 -13.5199 	 84.2964 	 
C 	 -4.03149 	 -12.4641 	 84.355 	 
H 	 -6.69395 	 -13.9639 	 83.0383 	 
C 	 -4.83316 	 -14.8395 	 85.0752 	 
H 	 -5.81827 	 -15.2659 	 84.8925 	 
H 	 -4.79129 	 -14.7602 	 86.1883 	 
C 	 -3.76075 	 -15.7941 	 84.4853 	 
H 	 -2.73916 	 -15.3637 	 84.4899 	 
H 	 -4.0289 	 -16.0747 	 83.4501 	 
C 	 -3.69077 	 -17.1012 	 85.2335 	 
H 	 -4.66189 	 -17.697 	 85.1834 	 
H 	 -3.46704 	 -16.9082 	 86.2858 	 
H 	 -2.82908 	 -17.6235 	 84.9427 	 
H 	 -0.606696 	 -10.1474 	 86.9837 	 
H 	 -6.47211 	 -11.6949 	 81.9762 	 
*
