! wB97X-D3 SP def2-SVP
%pal
nprocs 16
end

* xyz 0 1
S 	 0.0912303 	 -22.9855 	 54.9985 	 
C 	 -0.0110426 	 -24.6962 	 55.1708 	 
C 	 1.21955 	 -25.346 	 55.0433 	 
C 	 2.24844 	 -24.3382 	 54.9681 	 
C 	 1.74202 	 -23.048 	 54.9276 	 
H 	 3.30775 	 -24.4933 	 54.8112 	 
C 	 1.35987 	 -26.8624 	 54.8913 	 
H 	 2.11525 	 -26.9458 	 54.1387 	 
H 	 0.550363 	 -27.282 	 54.2896 	 
C 	 1.69353 	 -27.61 	 56.0877 	 
H 	 1.82838 	 -28.5686 	 55.6936 	 
H 	 2.66405 	 -27.3183 	 56.4288 	 
C 	 0.629386 	 -27.3167 	 57.2838 	 
H 	 -0.299138 	 -27.7882 	 57.0997 	 
H 	 1.03087 	 -27.7959 	 58.1739 	 
H 	 0.493674 	 -26.1937 	 57.621 	 
S 	 2.12519 	 -21.1183 	 53.0894 	 
C 	 3.40036 	 -19.885 	 53.405 	 
C 	 4.11152 	 -20.1873 	 54.5472 	 
C 	 3.67649 	 -21.3386 	 55.2444 	 
C 	 2.60293 	 -21.9186 	 54.6017 	 
H 	 4.87253 	 -19.5117 	 54.8309 	 
C 	 4.40366 	 -21.953 	 56.4595 	 
H 	 4.08229 	 -22.9689 	 56.542 	 
H 	 4.06083 	 -21.5102 	 57.3847 	 
C 	 5.92481 	 -21.8835 	 56.4403 	 
H 	 6.28337 	 -22.2699 	 57.3158 	 
H 	 6.20537 	 -20.7924 	 56.4242 	 
C 	 6.54232 	 -22.7115 	 55.2628 	 
H 	 6.12202 	 -22.4094 	 54.3068 	 
H 	 6.36124 	 -23.8446 	 55.3922 	 
H 	 7.61484 	 -22.6202 	 55.2412 	 
H 	 -0.889748 	 -25.3169 	 55.3158 	 
H 	 3.60429 	 -19.0788 	 52.7914 	 
*
