! wB97X-D3 SP def2-SVP
%pal
nprocs 16
end

* xyz 0 1
S 	 -54.6563 	 45.0873 	 106.144 	 
C 	 -53.7941 	 46.6044 	 106.311 	 
C 	 -54.0911 	 47.2593 	 107.459 	 
C 	 -55.0214 	 46.4619 	 108.239 	 
C 	 -55.4096 	 45.2758 	 107.688 	 
H 	 -55.4133 	 46.7177 	 109.166 	 
C 	 -53.6011 	 48.6136 	 107.865 	 
H 	 -54.352 	 49.4764 	 107.753 	 
H 	 -52.9811 	 49.0918 	 107.083 	 
C 	 -52.9439 	 48.7438 	 109.262 	 
H 	 -53.5567 	 48.0076 	 109.837 	 
H 	 -51.961 	 48.346 	 109.191 	 
C 	 -52.9067 	 50.094 	 109.924 	 
H 	 -52.6171 	 50.8903 	 109.228 	 
H 	 -53.8517 	 50.4886 	 110.328 	 
H 	 -52.0565 	 50.1972 	 110.688 	 
S 	 -57.6708 	 43.7994 	 107.023 	 
C 	 -58.3578 	 42.62 	 108.149 	 
C 	 -57.7945 	 42.8652 	 109.361 	 
C 	 -56.8134 	 43.8805 	 109.394 	 
C 	 -56.4199 	 44.2833 	 108.141 	 
H 	 -58.1817 	 42.2964 	 110.159 	 
C 	 -56.2498 	 44.3633 	 110.723 	 
H 	 -56.985 	 44.2841 	 111.556 	 
H 	 -56.0028 	 45.4423 	 110.631 	 
C 	 -54.8794 	 43.7604 	 111.122 	 
H 	 -54.2015 	 43.7999 	 110.297 	 
H 	 -54.9814 	 42.6882 	 111.342 	 
C 	 -54.1757 	 44.5631 	 112.21 	 
H 	 -53.5623 	 43.9278 	 112.792 	 
H 	 -54.9154 	 44.9775 	 112.847 	 
H 	 -53.7062 	 45.4332 	 111.794 	 
H 	 -53.163 	 47.0161 	 105.489 	 
H 	 -59.2683 	 42.053 	 107.993 	 
*
