! wB97X-D3 SP def2-SVP
%pal
nprocs 16
end

* xyz 0 1
S 	 -29.0382 	 -1.16778 	 101.507 	 
C 	 -28.8006 	 -2.32744 	 102.819 	 
C 	 -28.5757 	 -1.64657 	 103.972 	 
C 	 -28.8259 	 -0.230523 	 103.913 	 
C 	 -29.1453 	 0.190258 	 102.579 	 
H 	 -28.5772 	 0.435922 	 104.697 	 
C 	 -28.0805 	 -2.35977 	 105.243 	 
H 	 -28.2114 	 -3.45896 	 105.128 	 
H 	 -28.7718 	 -2.21286 	 106.089 	 
C 	 -26.7163 	 -1.82671 	 105.753 	 
H 	 -26.6372 	 -0.716376 	 105.832 	 
H 	 -26.4862 	 -2.20561 	 106.791 	 
C 	 -25.5866 	 -2.23674 	 104.781 	 
H 	 -25.8226 	 -1.95629 	 103.733 	 
H 	 -24.6626 	 -1.89953 	 105.192 	 
H 	 -25.5072 	 -3.3311 	 104.789 	 
S 	 -27.6901 	 2.10338 	 101.339 	 
C 	 -28.2467 	 3.77937 	 101.3 	 
C 	 -29.418 	 3.87375 	 102.033 	 
C 	 -29.9541 	 2.62988 	 102.349 	 
C 	 -29.1686 	 1.55704 	 102.025 	 
H 	 -29.7694 	 4.90939 	 102.315 	 
C 	 -31.0745 	 2.55277 	 103.319 	 
H 	 -31.5749 	 1.56091 	 103.305 	 
H 	 -31.8162 	 3.35026 	 103.077 	 
C 	 -30.7276 	 2.8106 	 104.802 	 
H 	 -30.3083 	 3.7501 	 104.796 	 
H 	 -30.0683 	 2.11262 	 105.34 	 
C 	 -31.9669 	 2.91121 	 105.601 	 
H 	 -32.6901 	 2.03297 	 105.373 	 
H 	 -32.5436 	 3.8061 	 105.457 	 
H 	 -31.738 	 2.80283 	 106.621 	 
H 	 -28.5132 	 -3.36954 	 102.612 	 
H 	 -27.6768 	 4.66901 	 101.055 	 
*
