! wB97X-D3 SP def2-SVP
%pal
nprocs 16
end

* xyz 0 1
S 	 12.3638 	 -0.604948 	 64.96 	 
C 	 11.3368 	 -1.51039 	 63.859 	 
C 	 11.797 	 -1.38299 	 62.5002 	 
C 	 12.8826 	 -0.45504 	 62.4224 	 
C 	 13.3019 	 0.077399 	 63.6698 	 
H 	 13.3472 	 -0.0941005 	 61.5156 	 
C 	 11.0812 	 -1.91699 	 61.2585 	 
H 	 11.7779 	 -2.15983 	 60.4333 	 
H 	 10.4605 	 -1.10739 	 60.9563 	 
C 	 10.1826 	 -3.11842 	 61.4212 	 
H 	 10.7009 	 -3.87519 	 62.0524 	 
H 	 9.24374 	 -2.85769 	 61.914 	 
C 	 9.78629 	 -3.58363 	 59.9451 	 
H 	 9.17801 	 -4.43239 	 59.9037 	 
H 	 9.25846 	 -2.75278 	 59.4992 	 
H 	 10.6072 	 -3.69857 	 59.2208 	 
S 	 15.4476 	 0.774193 	 65.252 	 
C 	 16.4518 	 2.07355 	 64.7636 	 
C 	 15.954 	 2.64434 	 63.5917 	 
C 	 14.7639 	 2.12958 	 63.0864 	 
C 	 14.2775 	 1.10166 	 63.9214 	 
H 	 16.5424 	 3.45223 	 63.086 	 
C 	 14.2668 	 2.53834 	 61.7057 	 
H 	 13.3085 	 2.09907 	 61.5416 	 
H 	 14.9085 	 2.19779 	 60.868 	 
C 	 13.9973 	 4.03439 	 61.5272 	 
H 	 14.8177 	 4.59166 	 62.0336 	 
H 	 13.0593 	 4.22531 	 62.0161 	 
C 	 13.8719 	 4.40107 	 60.0187 	 
H 	 13.232 	 3.69533 	 59.4969 	 
H 	 14.8765 	 4.56794 	 59.565 	 
H 	 13.4778 	 5.42402 	 59.8784 	 
H 	 10.396 	 -1.98012 	 64.1375 	 
H 	 17.3905 	 2.30623 	 65.197 	 
*
