! wB97X-D3 SP def2-SVP
%pal
nprocs 16
end

* xyz 0 1
S 	 7.92276 	 -10.7399 	 69.6349 	 
C 	 6.28827 	 -10.0721 	 69.3775 	 
C 	 5.7517 	 -10.7513 	 68.301 	 
C 	 6.58539 	 -11.7765 	 67.7639 	 
C 	 7.85359 	 -11.9077 	 68.3405 	 
H 	 6.44876 	 -12.4247 	 66.9564 	 
C 	 4.37451 	 -10.4003 	 67.7166 	 
H 	 3.92391 	 -9.55236 	 68.2683 	 
H 	 3.66889 	 -11.2376 	 67.8561 	 
C 	 4.52775 	 -9.99686 	 66.2785 	 
H 	 4.78288 	 -10.9454 	 65.7412 	 
H 	 3.57821 	 -9.79084 	 65.9102 	 
C 	 5.41739 	 -8.77893 	 65.9435 	 
H 	 6.40466 	 -8.87966 	 66.3935 	 
H 	 5.51644 	 -8.64239 	 64.8617 	 
H 	 4.94667 	 -7.87882 	 66.3808 	 
S 	 10.3963 	 -11.9313 	 67.5282 	 
C 	 11.1884 	 -13.404 	 67.0228 	 
C 	 10.3973 	 -14.5147 	 67.2559 	 
C 	 9.09462 	 -14.1576 	 67.7443 	 
C 	 8.99614 	 -12.8054 	 67.9955 	 
H 	 10.828 	 -15.4501 	 66.9524 	 
C 	 7.96264 	 -15.1293 	 67.9252 	 
H 	 7.08817 	 -14.5108 	 68.155 	 
H 	 8.10694 	 -15.8018 	 68.8245 	 
C 	 7.39621 	 -15.8989 	 66.6808 	 
H 	 7.14086 	 -15.2675 	 65.8018 	 
H 	 6.53405 	 -16.3337 	 67.1089 	 
C 	 8.36024 	 -16.8776 	 66.0703 	 
H 	 9.31161 	 -16.496 	 65.7042 	 
H 	 8.11738 	 -17.4499 	 65.1436 	 
H 	 8.42976 	 -17.6547 	 66.8442 	 
H 	 5.89201 	 -9.3084 	 70.0053 	 
H 	 12.1626 	 -13.5044 	 66.5128 	 
*
