! wB97X-D3 SP def2-SVP
%pal
nprocs 16
end

* xyz 0 1
S 	 43.2171 	 21.5585 	 46.2001 	 
C 	 42.2008 	 20.3225 	 45.3953 	 
C 	 41.3701 	 19.6521 	 46.3143 	 
C 	 41.5681 	 20.1849 	 47.6587 	 
C 	 42.4725 	 21.221 	 47.752 	 
H 	 41.0811 	 19.7023 	 48.5103 	 
C 	 40.4472 	 18.4844 	 45.8709 	 
H 	 40.7275 	 17.9675 	 44.9602 	 
H 	 39.4798 	 19.0466 	 45.6081 	 
C 	 39.9899 	 17.4216 	 46.9161 	 
H 	 39.5923 	 17.8557 	 47.8537 	 
H 	 39.0988 	 16.9785 	 46.5743 	 
C 	 41.0207 	 16.3648 	 47.3231 	 
H 	 41.7629 	 16.7627 	 47.9573 	 
H 	 40.5996 	 15.5772 	 47.9444 	 
H 	 41.5692 	 16.0175 	 46.4682 	 
S 	 43.7417 	 23.4805 	 48.7608 	 
C 	 43.646 	 23.8671 	 50.4687 	 
C 	 43.0149 	 22.8453 	 51.1702 	 
C 	 42.5064 	 21.7967 	 50.2921 	 
C 	 42.7341 	 22.0276 	 48.9332 	 
H 	 42.9676 	 22.7675 	 52.2196 	 
C 	 41.7849 	 20.5543 	 50.8282 	 
H 	 40.6749 	 20.4806 	 50.6987 	 
H 	 41.8181 	 20.6402 	 51.8875 	 
C 	 42.3935 	 19.1861 	 50.7622 	 
H 	 43.3308 	 19.1488 	 51.3702 	 
H 	 42.8384 	 18.9285 	 49.7633 	 
C 	 41.5276 	 18.006 	 51.3031 	 
H 	 42.1512 	 17.105 	 51.1828 	 
H 	 40.5834 	 17.8823 	 50.754 	 
H 	 41.2587 	 18.1113 	 52.4432 	 
H 	 42.3428 	 20.0004 	 44.3488 	 
H 	 44.0287 	 24.734 	 51.009 	 
*
