! wB97X-D3 SP def2-SVP
%pal
nprocs 16
end

* xyz 0 1
S 	 -34.4246 	 50.7244 	 110.902 	 
C 	 -36.0317 	 50.5478 	 111.59 	 
C 	 -37.0187 	 50.4883 	 110.609 	 
C 	 -36.444 	 50.2969 	 109.279 	 
C 	 -35.0967 	 50.5506 	 109.328 	 
H 	 -36.9566 	 50.0957 	 108.339 	 
C 	 -38.4917 	 50.3275 	 110.953 	 
H 	 -38.8071 	 51.1584 	 111.565 	 
H 	 -38.5466 	 49.3451 	 111.471 	 
C 	 -39.4232 	 50.3262 	 109.707 	 
H 	 -39.483 	 51.2606 	 109.234 	 
H 	 -39.1651 	 49.5903 	 108.944 	 
C 	 -40.8318 	 49.8456 	 110.162 	 
H 	 -41.606 	 49.7198 	 109.401 	 
H 	 -40.8337 	 49.0105 	 110.862 	 
H 	 -41.2801 	 50.5395 	 110.867 	 
S 	 -33.1986 	 49.0354 	 108.064 	 
C 	 -32.386 	 49.6748 	 106.696 	 
C 	 -32.9986 	 50.8026 	 106.167 	 
C 	 -34.0972 	 51.2157 	 107.057 	 
C 	 -34.1872 	 50.4395 	 108.193 	 
H 	 -32.6449 	 51.3514 	 105.333 	 
C 	 -34.9767 	 52.4589 	 106.823 	 
H 	 -34.3169 	 53.165 	 106.26 	 
H 	 -35.3303 	 52.7406 	 107.812 	 
C 	 -36.2939 	 52.1819 	 106.007 	 
H 	 -36.9787 	 53.0282 	 106.16 	 
H 	 -36.7701 	 51.3274 	 106.402 	 
C 	 -36.0383 	 51.9317 	 104.52 	 
H 	 -37.0095 	 51.8611 	 104.075 	 
H 	 -35.555 	 50.9679 	 104.238 	 
H 	 -35.4167 	 52.6477 	 104.022 	 
H 	 -36.2917 	 50.742 	 112.649 	 
H 	 -31.6339 	 49.2162 	 106.177 	 
*
