! wB97X-D3 SP def2-SVP
%pal
nprocs 16
end

* xyz 0 1
S 	 -56.9012 	 53.4868 	 136.666 	 
C 	 -56.5135 	 55.2105 	 136.432 	 
C 	 -57.2567 	 56.0014 	 137.328 	 
C 	 -57.9493 	 55.242 	 138.306 	 
C 	 -57.8491 	 53.8631 	 138.174 	 
H 	 -58.571 	 55.663 	 139.076 	 
C 	 -57.3084 	 57.4893 	 137.23 	 
H 	 -56.4046 	 57.7376 	 136.777 	 
H 	 -57.3037 	 57.9816 	 138.187 	 
C 	 -58.4879 	 57.9227 	 136.373 	 
H 	 -58.5822 	 57.3755 	 135.372 	 
H 	 -59.3901 	 57.7049 	 136.869 	 
C 	 -58.3927 	 59.449 	 136.03 	 
H 	 -57.5524 	 59.5916 	 135.353 	 
H 	 -59.4132 	 59.7691 	 135.65 	 
H 	 -58.2475 	 60.13 	 136.915 	 
S 	 -57.7915 	 52.7357 	 140.457 	 
C 	 -58.9971 	 51.5643 	 141.039 	 
C 	 -59.9185 	 51.2962 	 140.013 	 
C 	 -59.6048 	 51.9588 	 138.755 	 
C 	 -58.5398 	 52.861 	 138.962 	 
H 	 -60.7365 	 50.6016 	 140.184 	 
C 	 -60.3143 	 51.7301 	 137.464 	 
H 	 -60.8438 	 50.7778 	 137.341 	 
H 	 -59.581 	 51.6854 	 136.732 	 
C 	 -61.227 	 52.8476 	 137.027 	 
H 	 -61.6637 	 52.4475 	 136.064 	 
H 	 -60.5733 	 53.7027 	 136.624 	 
C 	 -62.3404 	 53.2013 	 138.085 	 
H 	 -63.154 	 52.4667 	 138.021 	 
H 	 -62.6851 	 54.1844 	 137.758 	 
H 	 -61.9877 	 53.2067 	 139.115 	 
H 	 -55.8201 	 55.6094 	 135.735 	 
H 	 -59.0175 	 51.0926 	 142.014 	 
*
