! wB97X-D3 SP def2-SVP
%pal
nprocs 16
end

* xyz 0 1
S 	 -41.7009 	 28.7219 	 77.7444 	 
C 	 -40.3173 	 29.8405 	 77.9179 	 
C 	 -39.0939 	 29.2438 	 77.9211 	 
C 	 -39.2292 	 27.8662 	 77.734 	 
C 	 -40.5119 	 27.4641 	 77.5563 	 
H 	 -38.4149 	 27.1073 	 77.7685 	 
C 	 -37.7119 	 29.8866 	 77.9857 	 
H 	 -37.4706 	 30.2356 	 76.942 	 
H 	 -37.0239 	 29.1456 	 78.2599 	 
C 	 -37.5508 	 31.1895 	 78.8241 	 
H 	 -38.125 	 31.8774 	 78.3458 	 
H 	 -38.0407 	 31.0559 	 79.7667 	 
C 	 -36.1839 	 31.769 	 78.7955 	 
H 	 -35.9359 	 31.9372 	 77.7577 	 
H 	 -36.2335 	 32.7288 	 79.265 	 
H 	 -35.3991 	 31.1351 	 79.2391 	 
S 	 -42.1843 	 25.2919 	 78.4233 	 
C 	 -42.0404 	 23.8617 	 77.4794 	 
C 	 -41.0412 	 23.8581 	 76.5399 	 
C 	 -40.4251 	 25.1542 	 76.4661 	 
C 	 -40.9406 	 26.0476 	 77.3826 	 
H 	 -40.7465 	 22.9663 	 76.0567 	 
C 	 -39.3959 	 25.5146 	 75.4153 	 
H 	 -38.4998 	 25.2854 	 76.0908 	 
H 	 -39.3289 	 26.5768 	 75.2177 	 
C 	 -39.2114 	 24.6245 	 74.149 	 
H 	 -39.2583 	 23.5847 	 74.5017 	 
H 	 -38.2412 	 24.847 	 73.7142 	 
C 	 -40.3455 	 24.6845 	 73.1094 	 
H 	 -40.059 	 24.0146 	 72.2161 	 
H 	 -40.5013 	 25.7003 	 72.8247 	 
H 	 -41.2686 	 24.2928 	 73.5022 	 
H 	 -40.495 	 30.8381 	 78.2954 	 
H 	 -42.8207 	 23.1005 	 77.4692 	 
*
