! wB97X-D3 SP def2-SVP
%pal
nprocs 16
end

* xyz 0 1
S 	 5.83807 	 21.8563 	 56.3365 	 
C 	 6.44557 	 20.9548 	 54.9523 	 
C 	 6.55774 	 19.5883 	 55.1884 	 
C 	 6.02061 	 19.2358 	 56.4343 	 
C 	 5.64497 	 20.3593 	 57.2222 	 
H 	 5.99713 	 18.3158 	 56.9677 	 
C 	 7.12329 	 18.5714 	 54.2194 	 
H 	 6.53284 	 18.5014 	 53.2903 	 
H 	 7.15838 	 17.624 	 54.7344 	 
C 	 8.45414 	 18.9582 	 53.7372 	 
H 	 8.83714 	 18.1928 	 53.0694 	 
H 	 8.56682 	 19.8419 	 53.0544 	 
C 	 9.45388 	 18.9562 	 54.8644 	 
H 	 9.63664 	 17.9424 	 55.1901 	 
H 	 10.4263 	 19.3219 	 54.4256 	 
H 	 9.24098 	 19.6377 	 55.7063 	 
S 	 5.95896 	 19.5383 	 59.8541 	 
C 	 4.59032 	 19.6154 	 60.9391 	 
C 	 3.47113 	 20.1539 	 60.2821 	 
C 	 3.66471 	 20.4145 	 58.9324 	 
C 	 5.02379 	 20.2616 	 58.5606 	 
H 	 2.6208 	 20.2547 	 60.9063 	 
C 	 2.59648 	 20.9032 	 58.0263 	 
H 	 2.81576 	 20.9593 	 57.0008 	 
H 	 2.42757 	 21.935 	 58.2646 	 
C 	 1.2446 	 20.1671 	 58.1639 	 
H 	 0.509825 	 20.7164 	 57.5554 	 
H 	 0.925329 	 20.1877 	 59.2293 	 
C 	 1.44906 	 18.7243 	 57.7195 	 
H 	 0.505168 	 18.1898 	 57.6441 	 
H 	 2.22987 	 18.2428 	 58.3784 	 
H 	 1.77693 	 18.6688 	 56.6765 	 
H 	 6.71101 	 21.352 	 54.0029 	 
H 	 4.59286 	 19.2375 	 61.9521 	 
*
