! wB97X-D3 SP def2-SVP
%pal
nprocs 16
end

* xyz 0 1
S 	 40.6684 	 29.5455 	 82.4566 	 
C 	 39.5763 	 29.4315 	 83.8068 	 
C 	 39.8275 	 28.318 	 84.5611 	 
C 	 41.0911 	 27.723 	 84.2401 	 
C 	 41.7438 	 28.3492 	 83.1741 	 
H 	 41.6506 	 26.9175 	 84.6893 	 
C 	 38.9448 	 27.877 	 85.7038 	 
H 	 39.0266 	 28.5255 	 86.545 	 
H 	 39.2825 	 26.8804 	 85.9916 	 
C 	 37.4315 	 27.7395 	 85.3631 	 
H 	 37.1232 	 28.7874 	 85.1163 	 
H 	 37.3647 	 27.2629 	 84.4094 	 
C 	 36.5841 	 27.0566 	 86.4162 	 
H 	 36.8313 	 25.9941 	 86.5699 	 
H 	 36.6457 	 27.5418 	 87.4251 	 
H 	 35.564 	 26.9024 	 86.0813 	 
S 	 44.0833 	 29.448 	 82.1332 	 
C 	 45.4116 	 28.4827 	 81.6823 	 
C 	 45.0809 	 27.1604 	 81.8536 	 
C 	 43.728 	 26.8962 	 82.3256 	 
C 	 43.0701 	 28.0533 	 82.6166 	 
H 	 45.8884 	 26.4953 	 81.599 	 
C 	 43.0543 	 25.5349 	 82.3488 	 
H 	 43.0334 	 25.2052 	 81.3009 	 
H 	 42.0718 	 25.5614 	 82.7001 	 
C 	 43.7738 	 24.3501 	 83.068 	 
H 	 44.0921 	 24.6495 	 84.0043 	 
H 	 44.783 	 24.2334 	 82.6216 	 
C 	 43.036 	 23.0288 	 83.0459 	 
H 	 43.5463 	 22.1567 	 82.697 	 
H 	 42.1815 	 23.1894 	 82.3464 	 
H 	 42.6567 	 22.8326 	 84.1184 	 
H 	 38.7322 	 30.0064 	 83.9196 	 
H 	 46.4198 	 28.7836 	 81.3897 	 
*
