! wB97X-D3 SP def2-SVP
%pal
nprocs 16
end

* xyz 0 1
S 	 -72.9497 	 45.232 	 124.416 	 
C 	 -73.6788 	 43.8099 	 125.17 	 
C 	 -72.9174 	 43.324 	 126.24 	 
C 	 -71.777 	 44.194 	 126.475 	 
C 	 -71.762 	 45.2454 	 125.636 	 
H 	 -71.0031 	 44.135 	 127.216 	 
C 	 -73.2974 	 42.1128 	 127.147 	 
H 	 -74.3972 	 42.0276 	 127.111 	 
H 	 -73.1287 	 42.3881 	 128.201 	 
C 	 -72.5807 	 40.844 	 126.828 	 
H 	 -71.4988 	 41.0119 	 126.85 	 
H 	 -72.759 	 40.3428 	 127.752 	 
C 	 -72.9803 	 40.1935 	 125.576 	 
H 	 -72.8792 	 40.9234 	 124.762 	 
H 	 -72.5062 	 39.2156 	 125.367 	 
H 	 -74.0704 	 39.951 	 125.576 	 
S 	 -69.8311 	 46.5827 	 124.072 	 
C 	 -68.7688 	 47.6347 	 124.906 	 
C 	 -69.0644 	 47.8366 	 126.229 	 
C 	 -70.1215 	 46.9532 	 126.631 	 
C 	 -70.6936 	 46.2489 	 125.589 	 
H 	 -68.6004 	 48.6575 	 126.822 	 
C 	 -70.5632 	 46.8712 	 128.098 	 
H 	 -69.5904 	 46.8196 	 128.53 	 
H 	 -71.1134 	 45.939 	 128.244 	 
C 	 -71.3498 	 48.0076 	 128.612 	 
H 	 -70.8178 	 48.9373 	 128.215 	 
H 	 -71.3844 	 48.1615 	 129.699 	 
C 	 -72.7432 	 48.0556 	 128.11 	 
H 	 -73.2671 	 48.9746 	 128.419 	 
H 	 -73.3745 	 47.2561 	 128.501 	 
H 	 -72.9118 	 47.9565 	 127.026 	 
H 	 -74.6272 	 43.3715 	 124.87 	 
H 	 -68.043 	 48.1661 	 124.428 	 
*
