! wB97X-D3 SP def2-SVP
%pal
nprocs 16
end

* xyz 0 1
S 	 -44.491 	 23.7331 	 92.1745 	 
C 	 -44.779 	 22.0333 	 92.0751 	 
C 	 -43.9852 	 21.351 	 91.1603 	 
C 	 -43.1948 	 22.3648 	 90.4239 	 
C 	 -43.2854 	 23.6545 	 90.9027 	 
H 	 -42.5667 	 22.2053 	 89.6354 	 
C 	 -43.7208 	 19.8731 	 91.0895 	 
H 	 -44.1084 	 19.304 	 91.9991 	 
H 	 -42.5987 	 19.8396 	 91.1533 	 
C 	 -44.2775 	 19.0855 	 89.9191 	 
H 	 -43.9287 	 18.0924 	 89.9529 	 
H 	 -45.3883 	 19.1164 	 90.0534 	 
C 	 -43.9492 	 19.753 	 88.5787 	 
H 	 -44.4264 	 20.7267 	 88.5553 	 
H 	 -42.8353 	 19.9206 	 88.5819 	 
H 	 -44.2249 	 19.1796 	 87.7135 	 
S 	 -43.0475 	 25.4932 	 88.8309 	 
C 	 -41.9346 	 26.7641 	 88.966 	 
C 	 -41.2119 	 26.7284 	 90.0998 	 
C 	 -41.6777 	 25.7151 	 90.9884 	 
C 	 -42.6269 	 24.8311 	 90.4008 	 
H 	 -40.4341 	 27.494 	 90.3526 	 
C 	 -41.1983 	 25.597 	 92.384 	 
H 	 -42.0494 	 25.235 	 92.9818 	 
H 	 -40.9003 	 26.5296 	 92.854 	 
C 	 -40.0041 	 24.6299 	 92.5661 	 
H 	 -39.5196 	 24.8603 	 93.5361 	 
H 	 -39.235 	 24.7716 	 91.8152 	 
C 	 -40.3792 	 23.1272 	 92.5455 	 
H 	 -41.3196 	 22.9156 	 93.0961 	 
H 	 -39.6007 	 22.5258 	 93.0505 	 
H 	 -40.637 	 22.717 	 91.6015 	 
H 	 -45.2507 	 21.4393 	 92.8408 	 
H 	 -41.5745 	 27.4496 	 88.1893 	 
*
