! wB97X-D3 SP def2-SVP
%pal
nprocs 16
end

* xyz 0 1
S 	 5.28477 	 24.2968 	 37.0116 	 
C 	 3.72327 	 25.0249 	 36.7395 	 
C 	 2.82238 	 24.7101 	 37.7538 	 
C 	 3.40666 	 23.8764 	 38.7704 	 
C 	 4.72335 	 23.5452 	 38.4703 	 
H 	 2.90589 	 23.3935 	 39.6336 	 
C 	 1.40203 	 25.1081 	 37.7144 	 
H 	 1.10319 	 25.5341 	 36.8234 	 
H 	 1.23652 	 25.8558 	 38.5015 	 
C 	 0.471796 	 23.9048 	 37.8661 	 
H 	 0.568667 	 23.2274 	 37.0257 	 
H 	 0.80527 	 23.4202 	 38.7314 	 
C 	 -1.04155 	 24.2327 	 38.2364 	 
H 	 -1.40852 	 25.1293 	 37.6841 	 
H 	 -1.66426 	 23.3797 	 37.9295 	 
H 	 -1.26373 	 24.3372 	 39.2512 	 
S 	 6.13132 	 22.9913 	 40.7234 	 
C 	 7.15841 	 21.5386 	 40.7445 	 
C 	 6.93314 	 20.7031 	 39.6665 	 
C 	 6.03564 	 21.2933 	 38.6971 	 
C 	 5.54846 	 22.5565 	 39.1109 	 
H 	 7.49238 	 19.7939 	 39.4133 	 
C 	 5.49807 	 20.4398 	 37.5358 	 
H 	 6.26082 	 20.1499 	 36.7601 	 
H 	 4.91895 	 21.111 	 36.9495 	 
C 	 4.65032 	 19.2871 	 37.9245 	 
H 	 3.83668 	 19.5224 	 38.637 	 
H 	 5.17948 	 18.5718 	 38.5384 	 
C 	 4.20508 	 18.4998 	 36.6453 	 
H 	 3.65551 	 19.0854 	 35.953 	 
H 	 3.47082 	 17.8046 	 36.9338 	 
H 	 5.07688 	 18.1226 	 36.0813 	 
H 	 3.46156 	 25.6236 	 35.9295 	 
H 	 7.8502 	 21.0307 	 41.4987 	 
*
