! wB97X-D3 SP def2-SVP
%pal
nprocs 16
end

* xyz 0 1
S 	 45.6466 	 20.7391 	 88.3694 	 
C 	 47.2771 	 21.3325 	 88.4395 	 
C 	 48.1945 	 20.258 	 88.2828 	 
C 	 47.4991 	 19.0427 	 88.3367 	 
C 	 46.151 	 19.0892 	 88.3885 	 
H 	 48.064 	 18.1102 	 88.4482 	 
C 	 49.6764 	 20.2176 	 88.2771 	 
H 	 49.9678 	 19.1944 	 88.3482 	 
H 	 49.9986 	 20.7231 	 89.1595 	 
C 	 50.3987 	 20.9765 	 87.1451 	 
H 	 49.8861 	 20.7259 	 86.202 	 
H 	 50.3206 	 22.0823 	 87.2125 	 
C 	 51.8818 	 20.6019 	 86.9889 	 
H 	 52.4533 	 21.0308 	 87.7587 	 
H 	 52.1727 	 19.5431 	 87.0541 	 
H 	 52.2689 	 20.9743 	 86.0086 	 
S 	 43.909 	 18.1268 	 89.6257 	 
C 	 43.894 	 16.399 	 89.957 	 
C 	 44.6866 	 15.7454 	 89.0727 	 
C 	 45.5669 	 16.5664 	 88.2904 	 
C 	 45.3403 	 17.9152 	 88.5847 	 
H 	 44.7453 	 14.682 	 89.0387 	 
C 	 46.5176 	 15.9827 	 87.2552 	 
H 	 47.059 	 16.8156 	 86.7989 	 
H 	 45.8351 	 15.4893 	 86.5697 	 
C 	 47.5779 	 15.0022 	 87.7175 	 
H 	 48.2135 	 14.5514 	 87.0342 	 
H 	 46.9722 	 14.1283 	 88.0204 	 
C 	 48.3228 	 15.3638 	 89.0357 	 
H 	 47.8151 	 15.3252 	 90.0835 	 
H 	 48.7882 	 16.3295 	 88.9022 	 
H 	 49.0462 	 14.5451 	 88.9767 	 
H 	 47.575 	 22.3438 	 88.575 	 
H 	 43.0995 	 15.7588 	 90.4302 	 
*
