! wB97X-D3 SP def2-SVP
%pal
nprocs 16
end

* xyz 0 1
S 	 1.42475 	 -17.0968 	 84.8174 	 
C 	 0.15532 	 -18.1084 	 84.2513 	 
C 	 0.596006 	 -19.3197 	 83.8999 	 
C 	 2.02689 	 -19.4421 	 83.8788 	 
C 	 2.63507 	 -18.3205 	 84.3066 	 
H 	 2.62167 	 -20.2903 	 83.5953 	 
C 	 -0.236763 	 -20.455 	 83.3087 	 
H 	 0.140451 	 -20.6364 	 82.2963 	 
H 	 -1.2403 	 -20.089 	 83.0758 	 
C 	 -0.202327 	 -21.8087 	 84.091 	 
H 	 -0.765082 	 -22.5578 	 83.5012 	 
H 	 0.812435 	 -22.1714 	 84.0739 	 
C 	 -0.889854 	 -21.6995 	 85.4861 	 
H 	 -0.278465 	 -21.215 	 86.3007 	 
H 	 -1.81097 	 -21.2176 	 85.2776 	 
H 	 -1.11642 	 -22.6659 	 85.9355 	 
S 	 4.73839 	 -18.3997 	 86.0591 	 
C 	 6.42923 	 -18.1737 	 85.4343 	 
C 	 6.40765 	 -18.006 	 84.0833 	 
C 	 5.10929 	 -17.8303 	 83.5255 	 
C 	 4.09171 	 -18.0576 	 84.4322 	 
H 	 7.23854 	 -17.9167 	 83.5461 	 
C 	 4.90312 	 -17.584 	 82.0987 	 
H 	 5.3547 	 -16.668 	 81.8829 	 
H 	 3.87163 	 -17.4613 	 81.8559 	 
C 	 5.48576 	 -18.5454 	 81.0421 	 
H 	 6.57158 	 -18.6318 	 81.27 	 
H 	 5.42517 	 -18.0679 	 80.0533 	 
C 	 4.72396 	 -19.9122 	 81.1442 	 
H 	 4.96641 	 -20.5459 	 80.2997 	 
H 	 3.60239 	 -19.6504 	 81.0746 	 
H 	 4.9645 	 -20.4597 	 82.0555 	 
H 	 -0.869811 	 -17.8521 	 84.0212 	 
H 	 7.26338 	 -18.3177 	 86.1102 	 
*
