! wB97X-D3 SP def2-SVP
%pal
nprocs 16
end

* xyz 0 1
S 	 15.7687 	 6.99354 	 85.5415 	 
C 	 16.3779 	 8.63985 	 85.4357 	 
C 	 15.4583 	 9.44364 	 84.7818 	 
C 	 14.361 	 8.66952 	 84.2785 	 
C 	 14.3183 	 7.33442 	 84.5245 	 
H 	 13.5277 	 9.00242 	 83.7712 	 
C 	 15.7554 	 10.9109 	 84.5331 	 
H 	 16.8366 	 10.9873 	 84.697 	 
H 	 15.333 	 11.4557 	 85.405 	 
C 	 15.2226 	 11.5827 	 83.264 	 
H 	 14.1207 	 11.6014 	 83.1879 	 
H 	 15.5635 	 12.6095 	 83.1114 	 
C 	 15.7792 	 10.9146 	 81.9464 	 
H 	 15.5027 	 9.88575 	 81.8031 	 
H 	 15.2953 	 11.4258 	 81.0935 	 
H 	 16.865 	 11.059 	 81.7986 	 
S 	 13.1647 	 4.9344 	 85.2663 	 
C 	 12.1895 	 4.01638 	 84.2192 	 
C 	 11.8752 	 4.7881 	 83.1136 	 
C 	 12.5284 	 6.08989 	 83.1006 	 
C 	 13.2517 	 6.32935 	 84.2701 	 
H 	 11.2716 	 4.26332 	 82.3597 	 
C 	 12.5075 	 6.95034 	 81.918 	 
H 	 12.8209 	 6.56495 	 81.0185 	 
H 	 13.2269 	 7.78388 	 82.0613 	 
C 	 11.0214 	 7.32904 	 81.7196 	 
H 	 10.4336 	 6.41065 	 81.4588 	 
H 	 10.9501 	 8.07403 	 80.8319 	 
C 	 10.3901 	 8.03258 	 82.8649 	 
H 	 9.44048 	 8.37865 	 82.6818 	 
H 	 10.8769 	 8.90982 	 83.2735 	 
H 	 10.3578 	 7.39215 	 83.7754 	 
H 	 17.323 	 8.85215 	 85.8182 	 
H 	 11.8562 	 3.03646 	 84.4336 	 
*
