! wB97X-D3 SP def2-SVP
%pal
nprocs 16
end

* xyz 0 1
S 	 8.83569 	 10.2562 	 84.1666 	 
C 	 9.50929 	 8.88498 	 83.3231 	 
C 	 10.2733 	 8.12588 	 84.1414 	 
C 	 10.4979 	 8.71978 	 85.4211 	 
C 	 9.70353 	 9.83088 	 85.7035 	 
H 	 11.2236 	 8.36739 	 86.1014 	 
C 	 11.0765 	 6.97626 	 83.6369 	 
H 	 12.138 	 7.12944 	 83.7707 	 
H 	 10.9024 	 6.99202 	 82.5322 	 
C 	 10.7049 	 5.59539 	 84.2407 	 
H 	 10.773 	 5.54866 	 85.357 	 
H 	 9.64707 	 5.45369 	 84.1944 	 
C 	 11.5696 	 4.46947 	 83.629 	 
H 	 12.5782 	 4.56555 	 83.804 	 
H 	 11.3333 	 3.54239 	 84.1348 	 
H 	 11.4773 	 4.31868 	 82.6007 	 
S 	 9.97447 	 12.3445 	 86.631 	 
C 	 10.0696 	 12.5784 	 88.3946 	 
C 	 9.84529 	 11.4162 	 89.0798 	 
C 	 9.6815 	 10.2372 	 88.2353 	 
C 	 9.67331 	 10.6131 	 86.906 	 
H 	 9.93137 	 11.4129 	 90.1491 	 
C 	 9.57961 	 8.77734 	 88.8487 	 
H 	 9.54887 	 7.94416 	 88.1394 	 
H 	 8.5794 	 8.64869 	 89.3851 	 
C 	 10.6757 	 8.32722 	 89.7566 	 
H 	 10.4324 	 7.28497 	 90.0648 	 
H 	 10.7507 	 8.94387 	 90.6431 	 
C 	 12.1649 	 8.37335 	 89.1901 	 
H 	 12.902 	 8.50734 	 89.961 	 
H 	 12.3378 	 9.28774 	 88.6423 	 
H 	 12.4625 	 7.50517 	 88.6066 	 
H 	 9.20401 	 8.64113 	 82.3036 	 
H 	 10.2192 	 13.5337 	 88.9183 	 
*
