! wB97X-D3 SP def2-SVP
%pal
nprocs 16
end

* xyz 0 1
S 	 6.82169 	 -4.09186 	 89.4226 	 
C 	 7.37452 	 -3.10309 	 90.672 	 
C 	 7.5485 	 -1.77403 	 90.3043 	 
C 	 7.13745 	 -1.59532 	 88.9243 	 
C 	 6.8197 	 -2.79972 	 88.3037 	 
H 	 7.15809 	 -0.744097 	 88.2822 	 
C 	 7.78389 	 -0.612288 	 91.2141 	 
H 	 6.92321 	 -0.651495 	 91.9004 	 
H 	 7.74954 	 0.310506 	 90.5996 	 
C 	 9.09224 	 -0.793939 	 92.0304 	 
H 	 9.17023 	 -1.88959 	 92.2925 	 
H 	 9.96099 	 -0.582858 	 91.4264 	 
C 	 9.26841 	 0.0919174 	 93.322 	 
H 	 9.15192 	 1.10921 	 93.03 	 
H 	 8.50648 	 0.0245033 	 94.0236 	 
H 	 10.2828 	 0.0639266 	 93.7783 	 
S 	 7.30168 	 -4.2805 	 85.9003 	 
C 	 6.36742 	 -3.9512 	 84.4864 	 
C 	 5.37676 	 -3.05702 	 84.8216 	 
C 	 5.44381 	 -2.52048 	 86.1491 	 
C 	 6.43809 	 -3.10422 	 86.9177 	 
H 	 4.80591 	 -2.72305 	 83.9495 	 
C 	 4.46623 	 -1.45355 	 86.6722 	 
H 	 4.10147 	 -0.842607 	 85.8295 	 
H 	 5.02484 	 -0.698498 	 87.3082 	 
C 	 3.24111 	 -1.92806 	 87.3938 	 
H 	 3.63914 	 -2.4609 	 88.3127 	 
H 	 2.58947 	 -2.65917 	 86.8791 	 
C 	 2.40612 	 -0.703154 	 87.9154 	 
H 	 1.49983 	 -1.12809 	 88.4557 	 
H 	 2.04725 	 -0.0316193 	 87.1399 	 
H 	 3.16445 	 -0.123724 	 88.5182 	 
H 	 7.38396 	 -3.41483 	 91.6851 	 
H 	 6.70931 	 -4.34231 	 83.5316 	 
*
