! wB97X-D3 SP def2-SVP
%pal
nprocs 16
end

* xyz 0 1
S 	 -70.583 	 39.895 	 126.087 	 
C 	 -70.9733 	 40.8792 	 127.532 	 
C 	 -70.1713 	 40.5687 	 128.612 	 
C 	 -69.113 	 39.6982 	 128.182 	 
C 	 -69.1327 	 39.3284 	 126.874 	 
H 	 -68.3472 	 39.4361 	 128.902 	 
C 	 -70.2759 	 41.0015 	 130.02 	 
H 	 -69.8155 	 40.1753 	 130.514 	 
H 	 -71.2652 	 41.084 	 130.384 	 
C 	 -69.4673 	 42.2834 	 130.293 	 
H 	 -68.4998 	 42.2951 	 129.764 	 
H 	 -70.0207 	 43.1154 	 129.821 	 
C 	 -69.1192 	 42.3583 	 131.767 	 
H 	 -68.3599 	 41.673 	 132.066 	 
H 	 -68.6321 	 43.3027 	 132.014 	 
H 	 -69.9947 	 42.0704 	 132.407 	 
S 	 -69.0311 	 37.0888 	 125.265 	 
C 	 -67.5182 	 36.2847 	 124.894 	 
C 	 -66.4706 	 36.8918 	 125.54 	 
C 	 -66.9046 	 38.0983 	 126.271 	 
C 	 -68.2856 	 38.3149 	 126.227 	 
H 	 -65.4778 	 36.4453 	 125.404 	 
C 	 -65.8633 	 38.9255 	 127.02 	 
H 	 -65.009 	 38.2298 	 127.337 	 
H 	 -66.2613 	 39.0649 	 127.998 	 
C 	 -65.5441 	 40.2884 	 126.387 	 
H 	 -66.4478 	 40.9049 	 126.335 	 
H 	 -65.1298 	 40.2016 	 125.366 	 
C 	 -64.5025 	 40.9467 	 127.358 	 
H 	 -63.5501 	 40.4955 	 127.125 	 
H 	 -64.7042 	 40.7991 	 128.455 	 
H 	 -64.4005 	 41.9657 	 127.086 	 
H 	 -71.7844 	 41.5685 	 127.503 	 
H 	 -67.4586 	 35.4312 	 124.318 	 
*
