! wB97X-D3 SP def2-SVP
%pal
nprocs 16
end

* xyz 0 1
S 	 43.4722 	 12.8232 	 103.253 	 
C 	 44.7772 	 13.3343 	 104.344 	 
C 	 45.8715 	 12.5905 	 104.057 	 
C 	 45.6776 	 11.5976 	 102.995 	 
C 	 44.3782 	 11.5784 	 102.496 	 
H 	 46.3451 	 10.8682 	 102.685 	 
C 	 47.1759 	 12.853 	 104.619 	 
H 	 47.0486 	 13.0648 	 105.726 	 
H 	 47.542 	 13.8105 	 104.236 	 
C 	 48.2479 	 11.7494 	 104.434 	 
H 	 48.2487 	 11.418 	 103.351 	 
H 	 49.1664 	 12.3231 	 104.64 	 
C 	 48.081 	 10.6018 	 105.405 	 
H 	 47.1269 	 10.164 	 105.208 	 
H 	 48.8284 	 9.82039 	 105.358 	 
H 	 48.0097 	 11.0212 	 106.41 	 
S 	 42.7555 	 9.38801 	 102.039 	 
C 	 42.5749 	 8.74557 	 100.502 	 
C 	 43.2122 	 9.54071 	 99.5772 	 
C 	 43.9898 	 10.632 	 100.129 	 
C 	 43.8391 	 10.6843 	 101.505 	 
H 	 43.2508 	 9.29919 	 98.563 	 
C 	 44.9483 	 11.5139 	 99.3436 	 
H 	 45.9407 	 11.1497 	 99.6796 	 
H 	 44.8384 	 12.4991 	 99.6876 	 
C 	 44.9645 	 11.2767 	 97.783 	 
H 	 45.0648 	 10.2248 	 97.5791 	 
H 	 45.8194 	 11.8246 	 97.37 	 
C 	 43.6428 	 11.8689 	 97.1931 	 
H 	 43.6177 	 11.9231 	 96.0982 	 
H 	 43.5363 	 12.9422 	 97.4685 	 
H 	 42.8496 	 11.2672 	 97.6379 	 
H 	 44.7087 	 14.2258 	 104.983 	 
H 	 41.8568 	 7.98735 	 100.28 	 
*
