! wB97X-D3 SP def2-SVP
%pal
nprocs 16
end

* xyz 0 1
S 	 53.1668 	 5.52901 	 82.1952 	 
C 	 54.4156 	 4.39778 	 81.8619 	 
C 	 53.8998 	 3.17037 	 82.2799 	 
C 	 52.5416 	 3.1557 	 82.6775 	 
C 	 51.9143 	 4.35733 	 82.6433 	 
H 	 51.9987 	 2.26644 	 83.0037 	 
C 	 54.8056 	 2.0023 	 82.3309 	 
H 	 55.8769 	 2.37249 	 82.3928 	 
H 	 54.7398 	 1.57613 	 81.3525 	 
C 	 54.5249 	 0.974606 	 83.4892 	 
H 	 54.6405 	 1.61181 	 84.3749 	 
H 	 53.511 	 0.61462 	 83.5548 	 
C 	 55.4576 	 -0.262738 	 83.5815 	 
H 	 55.9133 	 -0.464151 	 82.5946 	 
H 	 56.3318 	 -0.135914 	 84.2392 	 
H 	 54.9531 	 -1.11475 	 84.0461 	 
S 	 49.7224 	 3.88924 	 84.2311 	 
C 	 48.2329 	 4.52199 	 83.8364 	 
C 	 48.2951 	 5.38706 	 82.7428 	 
C 	 49.6045 	 5.48864 	 82.2203 	 
C 	 50.5201 	 4.66703 	 82.892 	 
H 	 47.3702 	 5.91289 	 82.3896 	 
C 	 49.9133 	 6.21843 	 80.9404 	 
H 	 50.9182 	 6.02992 	 80.6748 	 
H 	 49.9421 	 7.25689 	 81.0731 	 
C 	 49.0013 	 5.76762 	 79.7789 	 
H 	 47.9347 	 5.92843 	 80.0187 	 
H 	 49.1011 	 4.70171 	 79.5899 	 
C 	 49.4323 	 6.55398 	 78.5051 	 
H 	 50.4469 	 6.42529 	 78.2663 	 
H 	 49.2438 	 7.63207 	 78.7941 	 
H 	 48.8004 	 6.35112 	 77.6381 	 
H 	 55.4583 	 4.5624 	 81.5135 	 
H 	 47.2916 	 4.36181 	 84.379 	 
*
