! wB97X-D3 SP def2-SVP
%pal
nprocs 16
end

* xyz 0 1
S 	 38.8301 	 11.5571 	 77.8096 	 
C 	 38.5304 	 10.5603 	 79.261 	 
C 	 38.3512 	 11.3487 	 80.3703 	 
C 	 38.1199 	 12.7285 	 80.059 	 
C 	 38.3529 	 12.9741 	 78.6855 	 
H 	 37.773 	 13.3859 	 80.7982 	 
C 	 38.302 	 10.8202 	 81.8191 	 
H 	 37.2886 	 10.586 	 82.1557 	 
H 	 38.5758 	 11.6396 	 82.4907 	 
C 	 39.2613 	 9.53951 	 82.1037 	 
H 	 39.1589 	 9.26788 	 83.0949 	 
H 	 38.9168 	 8.6464 	 81.5766 	 
C 	 40.7455 	 9.80258 	 81.8225 	 
H 	 41.2175 	 10.2104 	 82.7128 	 
H 	 41.3464 	 8.95873 	 81.6118 	 
H 	 40.9997 	 10.5192 	 81.0001 	 
S 	 37.7651 	 14.2892 	 76.3656 	 
C 	 37.8589 	 16.0923 	 76.3022 	 
C 	 38.4795 	 16.5489 	 77.4687 	 
C 	 38.6672 	 15.5776 	 78.429 	 
C 	 38.2413 	 14.2987 	 78.0466 	 
H 	 38.5819 	 17.5869 	 77.6228 	 
C 	 39.1806 	 16.0009 	 79.7863 	 
H 	 38.8362 	 15.3846 	 80.6905 	 
H 	 38.774 	 17.01 	 80.0413 	 
C 	 40.6465 	 15.9621 	 79.8 	 
H 	 40.8062 	 16.5802 	 80.6347 	 
H 	 41.0515 	 16.4539 	 78.8859 	 
C 	 41.2911 	 14.5861 	 79.9617 	 
H 	 40.9449 	 13.9451 	 80.8322 	 
H 	 42.4061 	 14.7789 	 80.095 	 
H 	 41.1717 	 14.0464 	 79.02 	 
H 	 38.7776 	 9.48679 	 79.3619 	 
H 	 37.5711 	 16.741 	 75.5427 	 
*
