! wB97X-D3 SP def2-SVP
%pal
nprocs 16
end

* xyz 0 1
S 	 -43.718 	 51.4871 	 102.195 	 
C 	 -42.6493 	 50.8625 	 103.516 	 
C 	 -42.0243 	 51.9355 	 104.116 	 
C 	 -42.2033 	 53.1379 	 103.443 	 
C 	 -43.0896 	 53.1146 	 102.363 	 
H 	 -41.7718 	 54.1055 	 103.818 	 
C 	 -41.0348 	 51.8895 	 105.324 	 
H 	 -39.9832 	 52.1394 	 105.048 	 
H 	 -41.0259 	 50.841 	 105.671 	 
C 	 -41.4207 	 52.6628 	 106.577 	 
H 	 -40.6047 	 52.6303 	 107.251 	 
H 	 -41.6449 	 53.7018 	 106.296 	 
C 	 -42.6373 	 52.0171 	 107.272 	 
H 	 -42.4667 	 50.9809 	 107.655 	 
H 	 -43.0065 	 52.6708 	 108.043 	 
H 	 -43.4587 	 51.9723 	 106.581 	 
S 	 -45.2119 	 53.866 	 100.826 	 
C 	 -45.1436 	 55.4209 	 99.9398 	 
C 	 -43.9558 	 56.1518 	 100.187 	 
C 	 -43.1172 	 55.458 	 101.098 	 
C 	 -43.6528 	 54.2066 	 101.512 	 
H 	 -43.7965 	 57.1001 	 99.716 	 
C 	 -41.9002 	 56.0788 	 101.701 	 
H 	 -41.3813 	 56.5993 	 100.858 	 
H 	 -41.1852 	 55.3818 	 101.997 	 
C 	 -42.1377 	 57.0356 	 102.902 	 
H 	 -42.6454 	 56.4922 	 103.635 	 
H 	 -42.9413 	 57.6549 	 102.609 	 
C 	 -40.9858 	 57.875 	 103.484 	 
H 	 -40.3845 	 58.1502 	 102.629 	 
H 	 -40.2723 	 57.2343 	 103.962 	 
H 	 -41.0876 	 58.7505 	 104.155 	 
H 	 -42.6329 	 49.866 	 103.96 	 
H 	 -45.9004 	 55.787 	 99.2038 	 
*
