! wB97X-D3 SP def2-SVP
%pal
nprocs 16
end

* xyz 0 1
S 	 40.6125 	 26.0866 	 95.7014 	 
C 	 39.9279 	 26.0959 	 94.1327 	 
C 	 40.5017 	 25.0539 	 93.3561 	 
C 	 41.2738 	 24.1398 	 94.1256 	 
C 	 41.333 	 24.5696 	 95.469 	 
H 	 41.8341 	 23.2732 	 93.77 	 
C 	 40.2879 	 24.7066 	 91.9236 	 
H 	 40.7218 	 23.7477 	 91.6632 	 
H 	 40.917 	 25.3616 	 91.3564 	 
C 	 38.8778 	 24.7579 	 91.3185 	 
H 	 38.4283 	 25.7773 	 91.3092 	 
H 	 38.9168 	 24.473 	 90.2509 	 
C 	 37.8798 	 23.7759 	 92.0546 	 
H 	 37.885 	 24.0127 	 93.1146 	 
H 	 36.8798 	 23.9634 	 91.681 	 
H 	 38.3045 	 22.7794 	 91.9727 	 
S 	 42.9432 	 25.1077 	 97.6182 	 
C 	 43.7097 	 23.7647 	 98.4473 	 
C 	 43.0247 	 22.5648 	 98.2387 	 
C 	 42.1435 	 22.6327 	 97.1298 	 
C 	 42.0324 	 23.9709 	 96.6094 	 
H 	 43.3935 	 21.7372 	 98.8913 	 
C 	 41.3186 	 21.446 	 96.6499 	 
H 	 41.5368 	 20.6311 	 97.2609 	 
H 	 41.6632 	 21.1073 	 95.6702 	 
C 	 39.84 	 21.5737 	 96.3774 	 
H 	 39.3436 	 20.7048 	 95.9649 	 
H 	 39.5587 	 22.3344 	 95.6327 	 
C 	 39.2173 	 21.938 	 97.6971 	 
H 	 39.2549 	 21.1107 	 98.483 	 
H 	 38.1117 	 21.9759 	 97.4925 	 
H 	 39.5246 	 22.8826 	 98.1858 	 
H 	 39.4462 	 26.9403 	 93.6757 	 
H 	 44.4889 	 23.9502 	 99.1225 	 
*
