! wB97X-D3 SP def2-SVP
%pal
nprocs 16
end

* xyz 0 1
S 	 -23.1863 	 -5.74649 	 95.6567 	 
C 	 -23.8374 	 -4.18133 	 96.1348 	 
C 	 -23.4457 	 -3.18632 	 95.3174 	 
C 	 -22.4031 	 -3.57721 	 94.357 	 
C 	 -22.1609 	 -4.93564 	 94.4588 	 
H 	 -21.8914 	 -2.90219 	 93.6909 	 
C 	 -23.8857 	 -1.72129 	 95.3376 	 
H 	 -23.0042 	 -1.05309 	 95.3911 	 
H 	 -24.4149 	 -1.50431 	 96.3066 	 
C 	 -24.7942 	 -1.43956 	 94.1927 	 
H 	 -25.3434 	 -2.40258 	 93.8015 	 
H 	 -25.5993 	 -0.764565 	 94.4001 	 
C 	 -24.112 	 -0.842844 	 92.9541 	 
H 	 -24.802 	 -0.619528 	 92.1298 	 
H 	 -23.7407 	 0.15413 	 93.1765 	 
H 	 -23.3134 	 -1.41719 	 92.6118 	 
S 	 -19.6987 	 -6.14165 	 94.551 	 
C 	 -18.9619 	 -6.62406 	 93.0753 	 
C 	 -19.8396 	 -6.61626 	 92.0113 	 
C 	 -21.0842 	 -6.06536 	 92.3603 	 
C 	 -21.1872 	 -5.71765 	 93.6942 	 
H 	 -19.6083 	 -7.04672 	 91.0829 	 
C 	 -22.0984 	 -5.83583 	 91.2914 	 
H 	 -23.0406 	 -5.45523 	 91.747 	 
H 	 -22.303 	 -6.74936 	 90.7241 	 
C 	 -21.6873 	 -4.73348 	 90.2438 	 
H 	 -20.7296 	 -4.99565 	 89.7928 	 
H 	 -21.7407 	 -3.77046 	 90.8372 	 
C 	 -22.6548 	 -4.42286 	 89.0805 	 
H 	 -23.4802 	 -3.7848 	 89.3472 	 
H 	 -23.1635 	 -5.30597 	 88.6548 	 
H 	 -22.0408 	 -3.92904 	 88.2824 	 
H 	 -24.5068 	 -3.92464 	 96.9473 	 
H 	 -17.9573 	 -7.05695 	 92.9331 	 
*
