! wB97X-D3 SP def2-SVP
%pal
nprocs 16
end

* xyz 0 1
S 	 -107.8 	 44.5591 	 129.596 	 
C 	 -106.545 	 45.1867 	 130.674 	 
C 	 -105.387 	 45.4962 	 129.931 	 
C 	 -105.635 	 45.3706 	 128.54 	 
C 	 -106.894 	 44.9095 	 128.193 	 
H 	 -104.83 	 45.4684 	 127.753 	 
C 	 -104.086 	 46.0869 	 130.399 	 
H 	 -104.075 	 47.1465 	 130.314 	 
H 	 -103.256 	 45.7373 	 129.792 	 
C 	 -103.523 	 45.6215 	 131.766 	 
H 	 -104.188 	 45.8707 	 132.52 	 
H 	 -103.473 	 44.5071 	 131.765 	 
C 	 -102.157 	 46.3033 	 132.115 	 
H 	 -102.46 	 47.2415 	 132.631 	 
H 	 -101.574 	 45.6826 	 132.807 	 
H 	 -101.549 	 46.4956 	 131.223 	 
S 	 -107.516 	 42.8405 	 126.5 	 
C 	 -107.867 	 43.2086 	 124.803 	 
C 	 -107.564 	 44.4999 	 124.519 	 
C 	 -107.204 	 45.2691 	 125.642 	 
C 	 -107.195 	 44.5628 	 126.833 	 
H 	 -107.603 	 44.9143 	 123.468 	 
C 	 -106.929 	 46.7531 	 125.572 	 
H 	 -105.805 	 46.8314 	 125.58 	 
H 	 -107.223 	 47.186 	 126.518 	 
C 	 -107.477 	 47.6116 	 124.383 	 
H 	 -108.525 	 47.3272 	 124.324 	 
H 	 -106.97 	 47.45 	 123.485 	 
C 	 -107.305 	 49.1016 	 124.719 	 
H 	 -107.638 	 49.7237 	 123.896 	 
H 	 -106.225 	 49.2877 	 124.723 	 
H 	 -107.694 	 49.4532 	 125.666 	 
H 	 -106.445 	 45.1892 	 131.795 	 
H 	 -108.193 	 42.4807 	 124.051 	 
*
