! wB97X-D3 SP def2-SVP
%pal
nprocs 16
end

* xyz 0 1
S 	 -73.7681 	 49.819 	 137.227 	 
C 	 -74.7096 	 48.496 	 137.891 	 
C 	 -76.035 	 48.6407 	 137.642 	 
C 	 -76.3301 	 49.8822 	 137.063 	 
C 	 -75.2793 	 50.7237 	 136.926 	 
H 	 -77.2283 	 50.2483 	 136.773 	 
C 	 -77.1379 	 47.6723 	 137.895 	 
H 	 -76.7716 	 46.6807 	 138.193 	 
H 	 -77.867 	 47.5135 	 137.103 	 
C 	 -77.9961 	 48.1345 	 139.134 	 
H 	 -77.3816 	 48.0118 	 139.998 	 
H 	 -78.1164 	 49.1832 	 139.067 	 
C 	 -79.3667 	 47.4254 	 139.417 	 
H 	 -79.2717 	 46.3517 	 139.275 	 
H 	 -79.798 	 47.6808 	 140.333 	 
H 	 -80.0999 	 47.7678 	 138.64 	 
S 	 -73.91 	 52.3406 	 135.258 	 
C 	 -74.373 	 53.9944 	 135.056 	 
C 	 -75.3934 	 54.3408 	 135.903 	 
C 	 -75.9544 	 53.2286 	 136.622 	 
C 	 -75.1604 	 52.0864 	 136.417 	 
H 	 -75.6517 	 55.3849 	 136.035 	 
C 	 -77.1172 	 53.2888 	 137.574 	 
H 	 -76.8352 	 54.2095 	 138.11 	 
H 	 -77.1188 	 52.5435 	 138.4 	 
C 	 -78.4946 	 53.336 	 136.873 	 
H 	 -78.543 	 52.3476 	 136.38 	 
H 	 -78.5312 	 54.0071 	 136.026 	 
C 	 -79.5422 	 53.4803 	 137.898 	 
H 	 -80.5521 	 53.4638 	 137.413 	 
H 	 -79.5082 	 54.3875 	 138.46 	 
H 	 -79.4631 	 52.6641 	 138.646 	 
H 	 -74.2199 	 47.6787 	 138.476 	 
H 	 -73.8327 	 54.695 	 134.482 	 
*
