! wB97X-D3 SP def2-SVP
%pal
nprocs 16
end

* xyz 0 1
S 	 -30.9621 	 28.2967 	 48.9765 	 
C 	 -30.8906 	 28.5093 	 50.7268 	 
C 	 -32.1141 	 28.9008 	 51.2589 	 
C 	 -33.0441 	 29.1587 	 50.2249 	 
C 	 -32.6814 	 28.6646 	 48.9562 	 
H 	 -34.0898 	 29.5686 	 50.2822 	 
C 	 -32.304 	 29.6118 	 52.578 	 
H 	 -31.4369 	 29.751 	 53.0792 	 
H 	 -32.7534 	 28.8132 	 53.1599 	 
C 	 -33.2383 	 30.9121 	 52.5582 	 
H 	 -34.1744 	 30.8347 	 52.1315 	 
H 	 -33.5641 	 31.2359 	 53.6105 	 
C 	 -32.4425 	 32.0904 	 51.9752 	 
H 	 -32.5596 	 32.0529 	 50.8589 	 
H 	 -32.9105 	 32.9992 	 52.2346 	 
H 	 -31.4042 	 32.0926 	 52.3543 	 
S 	 -32.9973 	 29.8122 	 46.4787 	 
C 	 -34.2749 	 29.3756 	 45.4027 	 
C 	 -35.1511 	 28.5444 	 46.0419 	 
C 	 -34.6329 	 27.9967 	 47.3207 	 
C 	 -33.5286 	 28.7267 	 47.7405 	 
H 	 -36.0609 	 28.2539 	 45.5802 	 
C 	 -35.4374 	 27.0235 	 48.1364 	 
H 	 -36.4936 	 27.3269 	 48.1305 	 
H 	 -35.2633 	 27.307 	 49.162 	 
C 	 -35.0661 	 25.5729 	 47.8784 	 
H 	 -34.033 	 25.4237 	 48.1767 	 
H 	 -35.064 	 25.3957 	 46.7859 	 
C 	 -35.9688 	 24.4935 	 48.5147 	 
H 	 -37.0177 	 24.7261 	 48.2784 	 
H 	 -35.872 	 24.5423 	 49.5813 	 
H 	 -35.8195 	 23.4323 	 48.1729 	 
H 	 -30.0585 	 28.6352 	 51.3148 	 
H 	 -34.3505 	 29.7707 	 44.3868 	 
*
