! wB97X-D3 SP def2-SVP
%pal
nprocs 16
end

* xyz 0 1
S 	 -24.7853 	 47.118 	 61.777 	 
C 	 -23.6746 	 48.404 	 61.3176 	 
C 	 -24.1577 	 49.6565 	 61.7823 	 
C 	 -25.3659 	 49.4931 	 62.501 	 
C 	 -25.7687 	 48.1915 	 62.643 	 
H 	 -25.9188 	 50.1888 	 63.0173 	 
C 	 -23.3778 	 50.9656 	 61.8372 	 
H 	 -23.9121 	 51.752 	 61.2423 	 
H 	 -22.4122 	 50.6819 	 61.3334 	 
C 	 -23.0457 	 51.4843 	 63.2911 	 
H 	 -22.671 	 52.5154 	 63.0476 	 
H 	 -23.9839 	 51.623 	 63.7925 	 
C 	 -22.0283 	 50.6665 	 64.1036 	 
H 	 -21.5754 	 51.3291 	 64.8328 	 
H 	 -22.3072 	 49.7721 	 64.637 	 
H 	 -21.2592 	 50.324 	 63.4198 	 
S 	 -28.4593 	 48.2244 	 63.1379 	 
C 	 -29.1326 	 47.4261 	 64.5534 	 
C 	 -28.1228 	 46.8179 	 65.2947 	 
C 	 -26.8785 	 46.8305 	 64.6067 	 
C 	 -26.8162 	 47.6864 	 63.4808 	 
H 	 -28.3329 	 46.3431 	 66.2644 	 
C 	 -25.6805 	 46.0879 	 65.2154 	 
H 	 -25.6462 	 46.3481 	 66.2327 	 
H 	 -24.7736 	 46.5807 	 64.8539 	 
C 	 -25.598 	 44.5483 	 65.1394 	 
H 	 -24.6196 	 44.2464 	 65.5536 	 
H 	 -25.7497 	 44.2948 	 64.0299 	 
C 	 -26.6934 	 43.9158 	 65.9918 	 
H 	 -27.6607 	 44.1692 	 65.6789 	 
H 	 -26.5561 	 44.3046 	 66.9815 	 
H 	 -26.6123 	 42.7925 	 65.9819 	 
H 	 -22.699 	 48.2881 	 60.8621 	 
H 	 -30.2173 	 47.632 	 64.7856 	 
*
