! wB97X-D3 SP def2-SVP
%pal
nprocs 16
end

* xyz 0 1
S 	 -0.109364 	 -14.4475 	 66.2408 	 
C 	 1.30112 	 -14.8583 	 65.2272 	 
C 	 2.15946 	 -15.6753 	 65.9114 	 
C 	 1.77768 	 -15.8617 	 67.2951 	 
C 	 0.632872 	 -15.1652 	 67.6412 	 
H 	 2.33886 	 -16.3601 	 68.0109 	 
C 	 3.5462 	 -16.1398 	 65.4033 	 
H 	 3.79959 	 -15.8459 	 64.4017 	 
H 	 3.71421 	 -17.1968 	 65.4634 	 
C 	 4.72053 	 -15.5792 	 66.2809 	 
H 	 4.66768 	 -14.5435 	 66.3505 	 
H 	 4.51839 	 -15.948 	 67.3072 	 
C 	 6.16098 	 -16.0028 	 65.976 	 
H 	 6.32405 	 -17.0947 	 66.1193 	 
H 	 6.38448 	 -15.8621 	 64.8679 	 
H 	 6.91636 	 -15.3526 	 66.4778 	 
S 	 -1.70631 	 -15.3402 	 69.0411 	 
C 	 -1.53487 	 -15.5072 	 70.7561 	 
C 	 -0.269578 	 -15.1327 	 71.2437 	 
C 	 0.610821 	 -14.8037 	 70.1888 	 
C 	 0.0384712 	 -15.0932 	 68.9635 	 
H 	 -0.0832146 	 -15.1552 	 72.304 	 
C 	 1.99472 	 -14.2837 	 70.4773 	 
H 	 2.69605 	 -14.9899 	 70.0644 	 
H 	 2.10202 	 -14.22 	 71.5118 	 
C 	 2.37135 	 -12.8136 	 70.1217 	 
H 	 1.62448 	 -12.1754 	 70.5526 	 
H 	 2.33496 	 -12.6249 	 69.0244 	 
C 	 3.70005 	 -12.2008 	 70.6818 	 
H 	 4.57291 	 -12.6988 	 70.3152 	 
H 	 3.64766 	 -12.3419 	 71.7421 	 
H 	 3.62255 	 -11.1382 	 70.416 	 
H 	 1.34024 	 -14.6362 	 64.1136 	 
H 	 -2.27099 	 -15.8754 	 71.4684 	 
*
