! wB97X-D3 SP def2-SVP
%pal
nprocs 16
end

* xyz 0 1
S 	 -70.5242 	 39.3644 	 114.205 	 
C 	 -71.1125 	 38.4685 	 115.567 	 
C 	 -71.6192 	 37.1939 	 115.238 	 
C 	 -71.4805 	 36.9516 	 113.842 	 
C 	 -71.0443 	 38.073 	 113.093 	 
H 	 -71.7435 	 36.0593 	 113.393 	 
C 	 -72.1651 	 36.1501 	 116.2 	 
H 	 -72.9856 	 35.6148 	 115.862 	 
H 	 -72.5517 	 36.7446 	 117.027 	 
C 	 -71.1159 	 35.1408 	 116.742 	 
H 	 -70.9223 	 34.3877 	 116.003 	 
H 	 -70.1407 	 35.5167 	 116.856 	 
C 	 -71.6104 	 34.5066 	 118.015 	 
H 	 -72.4928 	 33.8849 	 118.018 	 
H 	 -70.8224 	 33.7711 	 118.278 	 
H 	 -71.6774 	 35.3196 	 118.697 	 
S 	 -70.8365 	 39.5061 	 110.79 	 
C 	 -70.4207 	 38.6705 	 109.349 	 
C 	 -69.7445 	 37.4896 	 109.635 	 
C 	 -69.8193 	 37.1281 	 111.059 	 
C 	 -70.5934 	 38.0851 	 111.704 	 
H 	 -69.1916 	 36.9276 	 108.83 	 
C 	 -69.2209 	 35.8368 	 111.612 	 
H 	 -69.2465 	 35.2197 	 110.744 	 
H 	 -69.9391 	 35.423 	 112.32 	 
C 	 -67.808 	 35.9153 	 112.149 	 
H 	 -67.8668 	 36.6046 	 112.974 	 
H 	 -67.1474 	 36.2911 	 111.392 	 
C 	 -67.178 	 34.6427 	 112.733 	 
H 	 -67.2433 	 33.7432 	 112.092 	 
H 	 -67.6536 	 34.2901 	 113.677 	 
H 	 -66.103 	 34.7629 	 112.946 	 
H 	 -71.0895 	 38.7603 	 116.586 	 
H 	 -70.3871 	 39.0944 	 108.414 	 
*
