! wB97X-D3 SP def2-SVP
%pal
nprocs 16
end

* xyz 0 1
S 	 59.9468 	 6.56206 	 77.6289 	 
C 	 59.3656 	 7.41555 	 79.0102 	 
C 	 58.5469 	 8.50545 	 78.6168 	 
C 	 58.334 	 8.52182 	 77.2116 	 
C 	 58.8219 	 7.40323 	 76.554 	 
H 	 57.789 	 9.25416 	 76.5637 	 
C 	 58.0054 	 9.61901 	 79.5567 	 
H 	 57.6149 	 9.24862 	 80.5509 	 
H 	 57.0574 	 10.0633 	 79.1424 	 
C 	 58.8816 	 10.8091 	 79.8977 	 
H 	 59.699 	 10.4745 	 80.4084 	 
H 	 59.3542 	 11.2674 	 79.0657 	 
C 	 58.1486 	 11.9523 	 80.5545 	 
H 	 57.6412 	 11.6116 	 81.4951 	 
H 	 58.7868 	 12.8118 	 80.8184 	 
H 	 57.3582 	 12.3927 	 79.9741 	 
S 	 56.9685 	 7.47479 	 74.4931 	 
C 	 57.2237 	 6.51639 	 73.0259 	 
C 	 58.4366 	 5.85939 	 73.042 	 
C 	 59.2185 	 6.19501 	 74.1885 	 
C 	 58.5945 	 7.02649 	 75.1274 	 
H 	 58.6613 	 5.12948 	 72.3025 	 
C 	 60.6467 	 5.72167 	 74.3459 	 
H 	 60.97 	 5.09222 	 73.5599 	 
H 	 60.8026 	 5.21831 	 75.2701 	 
C 	 61.6228 	 6.91631 	 74.383 	 
H 	 61.2708 	 7.69285 	 75.0676 	 
H 	 61.5561 	 7.43956 	 73.4369 	 
C 	 63.0838 	 6.57611 	 74.5994 	 
H 	 63.6367 	 6.14406 	 73.7801 	 
H 	 63.2096 	 5.82949 	 75.427 	 
H 	 63.5462 	 7.47271 	 74.8409 	 
H 	 59.4181 	 7.21904 	 80.1147 	 
H 	 56.406 	 6.257 	 72.4406 	 
*
