! wB97X-D3 SP def2-SVP
%pal
nprocs 16
end

* xyz 0 1
S 	 48.1279 	 5.62542 	 87.5197 	 
C 	 48.2362 	 5.26821 	 85.8398 	 
C 	 47.6363 	 4.02797 	 85.542 	 
C 	 47.0921 	 3.35823 	 86.709 	 
C 	 47.3259 	 4.11344 	 87.9128 	 
H 	 46.5197 	 2.42909 	 86.7956 	 
C 	 47.3894 	 3.47938 	 84.196 	 
H 	 47.6327 	 4.22537 	 83.5004 	 
H 	 46.3296 	 3.31701 	 84.1327 	 
C 	 48.0408 	 2.12946 	 83.7004 	 
H 	 47.7859 	 1.36407 	 84.3618 	 
H 	 47.5141 	 1.81431 	 82.7821 	 
C 	 49.5818 	 2.26816 	 83.5215 	 
H 	 49.9756 	 1.29684 	 83.2072 	 
H 	 49.8793 	 3.11924 	 82.8566 	 
H 	 50.0069 	 2.45613 	 84.5565 	 
S 	 46.2293 	 5.13216 	 90.237 	 
C 	 45.4213 	 4.05113 	 91.3757 	 
C 	 45.7182 	 2.7555 	 91.0437 	 
C 	 46.2465 	 2.56208 	 89.7279 	 
C 	 46.7542 	 3.77776 	 89.2559 	 
H 	 45.3207 	 1.98664 	 91.6976 	 
C 	 46.441 	 1.12231 	 89.148 	 
H 	 45.8599 	 1.1117 	 88.2175 	 
H 	 45.9773 	 0.37554 	 89.7439 	 
C 	 47.8962 	 0.789023 	 88.9471 	 
H 	 48.4113 	 0.971142 	 89.9227 	 
H 	 48.401 	 1.25806 	 88.1488 	 
C 	 48.0963 	 -0.723915 	 88.6083 	 
H 	 49.1095 	 -1.11494 	 88.7933 	 
H 	 47.7938 	 -0.997023 	 87.625 	 
H 	 47.4395 	 -1.25192 	 89.3156 	 
H 	 48.7204 	 5.89899 	 85.1159 	 
H 	 44.9463 	 4.34308 	 92.3265 	 
*
