! wB97X-D3 SP def2-SVP
%pal
nprocs 16
end

* xyz 0 1
S 	 2.85014 	 -12.5331 	 75.0572 	 
C 	 3.084 	 -13.0315 	 73.3797 	 
C 	 2.39532 	 -14.1997 	 73.1427 	 
C 	 1.49819 	 -14.4784 	 74.1975 	 
C 	 1.55635 	 -13.718 	 75.35 	 
H 	 0.858884 	 -15.3581 	 74.1736 	 
C 	 2.57793 	 -15.0062 	 71.8669 	 
H 	 1.7404 	 -15.7084 	 71.9191 	 
H 	 3.48785 	 -15.562 	 71.9051 	 
C 	 2.56338 	 -14.2632 	 70.5715 	 
H 	 1.72328 	 -13.4782 	 70.6019 	 
H 	 3.507 	 -13.7309 	 70.4846 	 
C 	 2.27897 	 -15.1559 	 69.3865 	 
H 	 1.37355 	 -15.7139 	 69.5032 	 
H 	 2.2013 	 -14.6675 	 68.3927 	 
H 	 2.99145 	 -15.9309 	 69.1871 	 
S 	 -0.183136 	 -15.2629 	 76.8701 	 
C 	 -1.06486 	 -14.5793 	 78.1802 	 
C 	 -0.831225 	 -13.2604 	 78.2406 	 
C 	 0.208109 	 -12.8113 	 77.4005 	 
C 	 0.623364 	 -13.7629 	 76.5307 	 
H 	 -1.30051 	 -12.7647 	 79.0271 	 
C 	 0.511928 	 -11.3812 	 77.3188 	 
H 	 -0.426821 	 -10.9708 	 77.5797 	 
H 	 0.534931 	 -11.041 	 76.2827 	 
C 	 1.62962 	 -10.8111 	 78.2196 	 
H 	 2.61493 	 -11.1546 	 77.8816 	 
H 	 1.51519 	 -11.1498 	 79.3257 	 
C 	 1.79949 	 -9.28287 	 78.2435 	 
H 	 0.860843 	 -8.7597 	 78.36 	 
H 	 2.35941 	 -8.87672 	 77.3511 	 
H 	 2.46776 	 -8.91898 	 79.0415 	 
H 	 3.74851 	 -12.5161 	 72.7464 	 
H 	 -1.87435 	 -15.1152 	 78.7886 	 
*
