! wB97X-D3 SP def2-SVP
%pal
nprocs 16
end

* xyz 0 1
S 	 -13.327 	 30.9525 	 32.8088 	 
C 	 -11.9278 	 31.5723 	 32.0377 	 
C 	 -11.9586 	 32.9197 	 31.9641 	 
C 	 -13.1289 	 33.4908 	 32.5873 	 
C 	 -13.9481 	 32.5413 	 33.1412 	 
H 	 -13.2709 	 34.5391 	 32.6856 	 
C 	 -10.8693 	 33.8663 	 31.4439 	 
H 	 -10.1171 	 33.2449 	 30.9508 	 
H 	 -10.4713 	 34.4053 	 32.288 	 
C 	 -11.3226 	 34.8392 	 30.2903 	 
H 	 -11.8905 	 34.1771 	 29.618 	 
H 	 -12.0549 	 35.516 	 30.757 	 
C 	 -10.1501 	 35.6589 	 29.6559 	 
H 	 -10.5135 	 36.1735 	 28.7928 	 
H 	 -9.73558 	 36.4589 	 30.3859 	 
H 	 -9.35209 	 34.9349 	 29.2913 	 
S 	 -15.4584 	 34.4122 	 34.5787 	 
C 	 -17.0684 	 34.0001 	 35.0367 	 
C 	 -17.2441 	 32.6349 	 35.0657 	 
C 	 -16.2001 	 31.9386 	 34.4037 	 
C 	 -15.2009 	 32.7806 	 33.8894 	 
H 	 -18.1938 	 32.2692 	 35.3947 	 
C 	 -16.2788 	 30.4727 	 34.09 	 
H 	 -16.9623 	 30.0471 	 34.8388 	 
H 	 -15.2672 	 30.0425 	 34.3489 	 
C 	 -16.9038 	 30.1101 	 32.7466 	 
H 	 -16.8427 	 28.9858 	 32.5445 	 
H 	 -16.4203 	 30.589 	 31.8679 	 
C 	 -18.4177 	 30.4162 	 32.6728 	 
H 	 -19.0379 	 30.06 	 33.4458 	 
H 	 -18.7351 	 30.0513 	 31.7231 	 
H 	 -18.5442 	 31.5055 	 32.6627 	 
H 	 -11.0969 	 30.9911 	 31.8863 	 
H 	 -17.8684 	 34.6084 	 35.3382 	 
*
