! wB97X-D3 SP def2-SVP
%pal
nprocs 16
end

* xyz 0 1
S 	 -0.801715 	 77.2369 	 50.296 	 
C 	 -0.520602 	 78.8981 	 50.8501 	 
C 	 0.437833 	 79.4911 	 50.0756 	 
C 	 0.814463 	 78.7265 	 48.9296 	 
C 	 0.48228 	 77.4036 	 49.0703 	 
H 	 1.51041 	 78.9668 	 48.1244 	 
C 	 0.79052 	 80.9113 	 50.2147 	 
H 	 0.262949 	 81.2954 	 51.1111 	 
H 	 0.137031 	 81.4441 	 49.5033 	 
C 	 2.27273 	 81.3304 	 50.1006 	 
H 	 2.96892 	 80.7628 	 50.7555 	 
H 	 2.67617 	 81.0563 	 49.1135 	 
C 	 2.54684 	 82.8423 	 50.2647 	 
H 	 2.14643 	 83.0803 	 51.2645 	 
H 	 3.65004 	 83.0636 	 50.2941 	 
H 	 2.10586 	 83.4792 	 49.5735 	 
S 	 2.55895 	 76.24 	 47.6898 	 
C 	 2.06362 	 75.1381 	 46.3471 	 
C 	 0.707424 	 74.7479 	 46.3707 	 
C 	 -0.0149517 	 75.4926 	 47.3488 	 
C 	 0.823093 	 76.3422 	 48.0906 	 
H 	 0.310882 	 74.0789 	 45.6406 	 
C 	 -1.50579 	 75.4412 	 47.3176 	 
H 	 -1.89805 	 75.6314 	 46.3424 	 
H 	 -1.95599 	 76.2518 	 47.9138 	 
C 	 -2.20618 	 74.1578 	 47.7221 	 
H 	 -1.90209 	 73.9565 	 48.7325 	 
H 	 -1.99515 	 73.3173 	 47.0521 	 
C 	 -3.75697 	 74.359 	 47.6756 	 
H 	 -3.95654 	 75.3178 	 48.0875 	 
H 	 -4.43207 	 73.6134 	 48.1798 	 
H 	 -4.2089 	 74.3968 	 46.6558 	 
H 	 -1.13526 	 79.3406 	 51.6477 	 
H 	 2.70823 	 74.8126 	 45.5612 	 
*
