! wB97X-D3 SP def2-SVP
%pal
nprocs 16
end

* xyz 0 1
S 	 16.2948 	 1.52901 	 65.9288 	 
C 	 15.1704 	 1.29952 	 64.6033 	 
C 	 15.6123 	 1.9287 	 63.4553 	 
C 	 16.8873 	 2.4974 	 63.5975 	 
C 	 17.4799 	 2.18025 	 64.8076 	 
H 	 17.3481 	 3.21047 	 62.9298 	 
C 	 14.7266 	 2.2137 	 62.2655 	 
H 	 13.9639 	 1.3834 	 62.2505 	 
H 	 15.418 	 2.07726 	 61.4614 	 
C 	 13.9441 	 3.6027 	 62.2103 	 
H 	 13.1966 	 3.64498 	 61.437 	 
H 	 13.3563 	 3.65853 	 63.1252 	 
C 	 14.9339 	 4.75657 	 62.1529 	 
H 	 15.6717 	 4.5509 	 61.3468 	 
H 	 14.494 	 5.72308 	 62.1097 	 
H 	 15.4567 	 4.86348 	 63.111 	 
S 	 19.7703 	 1.34083 	 66.1303 	 
C 	 21.1489 	 2.35384 	 65.9956 	 
C 	 20.9756 	 3.53831 	 65.4019 	 
C 	 19.6464 	 3.59979 	 64.8959 	 
C 	 18.8499 	 2.52004 	 65.2198 	 
H 	 21.8107 	 4.27323 	 65.401 	 
C 	 19.1934 	 4.93372 	 64.2818 	 
H 	 18.7542 	 4.71569 	 63.2964 	 
H 	 20.0554 	 5.59369 	 64.1379 	 
C 	 18.2068 	 5.61901 	 65.2237 	 
H 	 17.306 	 5.03571 	 65.3352 	 
H 	 17.7639 	 6.55701 	 64.7197 	 
C 	 18.7276 	 5.96537 	 66.6902 	 
H 	 17.9573 	 6.29338 	 67.3787 	 
H 	 19.5565 	 6.69564 	 66.7271 	 
H 	 19.0422 	 5.05054 	 67.2164 	 
H 	 14.1233 	 0.969873 	 64.6671 	 
H 	 22.0455 	 2.04874 	 66.5732 	 
*
