! wB97X-D3 SP def2-SVP
%pal
nprocs 16
end

* xyz 0 1
S 	 -71.6298 	 41.1316 	 121.806 	 
C 	 -73.3129 	 41.0046 	 122.299 	 
C 	 -73.5079 	 39.8148 	 123.009 	 
C 	 -72.3234 	 39.0322 	 123.061 	 
C 	 -71.2918 	 39.5109 	 122.323 	 
H 	 -72.1891 	 38.1429 	 123.561 	 
C 	 -74.7561 	 39.463 	 123.796 	 
H 	 -74.6454 	 38.4749 	 124.147 	 
H 	 -75.4934 	 39.3059 	 123.005 	 
C 	 -75.1778 	 40.5014 	 124.915 	 
H 	 -74.6087 	 40.0765 	 125.756 	 
H 	 -74.6697 	 41.4968 	 124.751 	 
C 	 -76.7594 	 40.5923 	 125.214 	 
H 	 -76.889 	 40.7752 	 126.283 	 
H 	 -77.2875 	 41.408 	 124.647 	 
H 	 -77.1672 	 39.6167 	 124.928 	 
S 	 -68.5459 	 39.9362 	 122.345 	 
C 	 -67.4886 	 38.7286 	 121.689 	 
C 	 -68.2439 	 37.6536 	 121.228 	 
C 	 -69.6141 	 37.6429 	 121.587 	 
C 	 -69.9957 	 38.8841 	 122.087 	 
H 	 -67.767 	 36.7835 	 120.83 	 
C 	 -70.6057 	 36.6609 	 121.06 	 
H 	 -71.5772 	 36.7183 	 121.637 	 
H 	 -70.3507 	 35.6798 	 121.308 	 
C 	 -70.9699 	 36.6621 	 119.597 	 
H 	 -70.035 	 36.7849 	 119.063 	 
H 	 -71.5618 	 37.5242 	 119.277 	 
C 	 -71.6636 	 35.3425 	 119.112 	 
H 	 -71.0005 	 34.3975 	 119.132 	 
H 	 -71.9799 	 35.4185 	 118.043 	 
H 	 -72.592 	 35.085 	 119.572 	 
H 	 -74.1566 	 41.6702 	 122.223 	 
H 	 -66.5684 	 39.003 	 121.302 	 
*
