! wB97X-D3 SP def2-SVP
%pal
nprocs 16
end

* xyz 0 1
S 	 -70.0454 	 56.7052 	 121.521 	 
C 	 -69.128 	 57.863 	 120.513 	 
C 	 -68.4229 	 58.748 	 121.316 	 
C 	 -68.831 	 58.7124 	 122.688 	 
C 	 -69.7048 	 57.6905 	 122.967 	 
H 	 -68.4512 	 59.3409 	 123.446 	 
C 	 -67.6177 	 59.8942 	 120.843 	 
H 	 -66.7017 	 59.9559 	 121.354 	 
H 	 -68.1404 	 60.7187 	 121.23 	 
C 	 -67.5523 	 60.1092 	 119.322 	 
H 	 -66.9426 	 59.2628 	 119.04 	 
H 	 -68.4881 	 59.9432 	 118.791 	 
C 	 -66.8937 	 61.3557 	 118.8 	 
H 	 -66.0554 	 61.6428 	 119.381 	 
H 	 -66.4134 	 61.1941 	 117.853 	 
H 	 -67.572 	 62.2358 	 118.675 	 
S 	 -71.9666 	 57.2798 	 124.589 	 
C 	 -71.8016 	 56.8868 	 126.223 	 
C 	 -70.4957 	 56.7205 	 126.597 	 
C 	 -69.6044 	 56.9977 	 125.522 	 
C 	 -70.2389 	 57.3168 	 124.319 	 
H 	 -70.0752 	 56.54 	 127.61 	 
C 	 -68.1085 	 56.8972 	 125.665 	 
H 	 -67.755 	 57.4979 	 126.586 	 
H 	 -67.673 	 57.5305 	 124.892 	 
C 	 -67.4123 	 55.5492 	 125.516 	 
H 	 -67.506 	 55.0321 	 124.536 	 
H 	 -67.8184 	 54.804 	 126.188 	 
C 	 -65.8805 	 55.6931 	 125.851 	 
H 	 -65.3441 	 56.1525 	 124.996 	 
H 	 -65.3674 	 54.766 	 125.988 	 
H 	 -65.7923 	 56.3141 	 126.736 	 
H 	 -68.9692 	 57.7875 	 119.436 	 
H 	 -72.5902 	 56.7408 	 126.939 	 
*
