! wB97X-D3 SP def2-SVP
%pal
nprocs 16
end

* xyz 0 1
S 	 42.5148 	 21.205 	 45.3896 	 
C 	 40.9575 	 20.6749 	 45.9517 	 
C 	 39.9333 	 21.3437 	 45.2754 	 
C 	 40.395 	 22.2412 	 44.2797 	 
C 	 41.7667 	 22.3506 	 44.2054 	 
H 	 39.7977 	 22.7826 	 43.5119 	 
C 	 38.4748 	 21.0484 	 45.4772 	 
H 	 38.542 	 20.0246 	 45.9222 	 
H 	 37.9441 	 20.9134 	 44.5356 	 
C 	 37.7927 	 22.043 	 46.4497 	 
H 	 37.5321 	 22.9254 	 45.9574 	 
H 	 36.8711 	 21.5488 	 46.7177 	 
C 	 38.5534 	 22.4099 	 47.7283 	 
H 	 38.0831 	 23.1029 	 48.4346 	 
H 	 38.7944 	 21.4559 	 48.2146 	 
H 	 39.5899 	 22.8479 	 47.454 	 
S 	 43.6575 	 22.2253 	 42.212 	 
C 	 43.9243 	 23.585 	 41.138 	 
C 	 43.1161 	 24.6087 	 41.5793 	 
C 	 42.4597 	 24.3563 	 42.8378 	 
C 	 42.5551 	 23.069 	 43.2176 	 
H 	 43.101 	 25.5158 	 40.9873 	 
C 	 41.6944 	 25.4444 	 43.6096 	 
H 	 42.4204 	 26.047 	 44.0929 	 
H 	 41.0703 	 25.0449 	 44.3357 	 
C 	 40.778 	 26.3845 	 42.6793 	 
H 	 41.2458 	 26.6714 	 41.7573 	 
H 	 40.5033 	 27.3202 	 43.2531 	 
C 	 39.5342 	 25.6796 	 42.1057 	 
H 	 38.7001 	 25.5416 	 42.7411 	 
H 	 39.8289 	 24.6474 	 41.9074 	 
H 	 39.2268 	 26.2544 	 41.2604 	 
H 	 40.729 	 19.9696 	 46.7481 	 
H 	 44.4342 	 23.6339 	 40.2918 	 
*
