! wB97X-D3 SP def2-SVP
%pal
nprocs 16
end

* xyz 0 1
S 	 -46.5138 	 28.2538 	 88.3224 	 
C 	 -46.3143 	 28.0775 	 90.0415 	 
C 	 -47.035 	 28.9942 	 90.7673 	 
C 	 -47.6076 	 29.9981 	 89.9304 	 
C 	 -47.4932 	 29.6796 	 88.5774 	 
H 	 -48.0557 	 30.9481 	 90.2541 	 
C 	 -47.0436 	 29.1518 	 92.2385 	 
H 	 -46.6344 	 28.2732 	 92.7176 	 
H 	 -48.0527 	 29.3238 	 92.59 	 
C 	 -46.1873 	 30.3543 	 92.6577 	 
H 	 -45.3064 	 30.5425 	 92.0249 	 
H 	 -46.7807 	 31.2559 	 92.5011 	 
C 	 -45.8852 	 30.2938 	 94.1654 	 
H 	 -46.7966 	 30.0752 	 94.7224 	 
H 	 -45.3349 	 29.3912 	 94.3463 	 
H 	 -45.6919 	 31.2514 	 94.634 	 
S 	 -49.212 	 30.0586 	 86.4554 	 
C 	 -49.2079 	 31.538 	 85.5135 	 
C 	 -48.4268 	 32.5069 	 86.1023 	 
C 	 -47.6843 	 31.961 	 87.2258 	 
C 	 -47.9596 	 30.6058 	 87.5212 	 
H 	 -48.4615 	 33.4026 	 85.6153 	 
C 	 -46.6436 	 32.7753 	 88.0284 	 
H 	 -45.8746 	 33.0559 	 87.2584 	 
H 	 -46.1145 	 32.0855 	 88.714 	 
C 	 -47.0746 	 34.037 	 88.8583 	 
H 	 -46.1365 	 34.2773 	 89.4227 	 
H 	 -47.7905 	 33.6369 	 89.6329 	 
C 	 -47.7048 	 35.1843 	 88.0416 	 
H 	 -47.1333 	 35.1298 	 87.1339 	 
H 	 -47.6086 	 36.259 	 88.4304 	 
H 	 -48.7278 	 35.0604 	 87.7961 	 
H 	 -45.9863 	 27.138 	 90.4896 	 
H 	 -49.7459 	 31.7675 	 84.6687 	 
*
