! wB97X-D3 SP def2-SVP
%pal
nprocs 16
end

* xyz 0 1
S 	 -49.0088 	 63.7039 	 136.394 	 
C 	 -48.0064 	 62.7537 	 135.394 	 
C 	 -47.0255 	 61.9663 	 136.125 	 
C 	 -47.204 	 62.2871 	 137.471 	 
C 	 -48.2352 	 63.1366 	 137.866 	 
H 	 -46.6026 	 61.8581 	 138.261 	 
C 	 -45.8891 	 61.1363 	 135.617 	 
H 	 -45.5311 	 60.4817 	 136.436 	 
H 	 -45.0502 	 61.7803 	 135.425 	 
C 	 -46.079 	 60.2512 	 134.376 	 
H 	 -47.001 	 59.6989 	 134.526 	 
H 	 -46.249 	 60.8853 	 133.469 	 
C 	 -44.8636 	 59.3574 	 134.09 	 
H 	 -44.3725 	 59.0347 	 135.001 	 
H 	 -45.0622 	 58.5352 	 133.331 	 
H 	 -44.0533 	 59.8445 	 133.523 	 
S 	 -50.2094 	 63.8737 	 139.652 	 
C 	 -49.7579 	 64.2513 	 141.333 	 
C 	 -48.3732 	 64.1961 	 141.441 	 
C 	 -47.6917 	 63.8566 	 140.307 	 
C 	 -48.5311 	 63.6621 	 139.206 	 
H 	 -47.9491 	 64.3599 	 142.399 	 
C 	 -46.1704 	 63.6792 	 140.247 	 
H 	 -45.7653 	 64.5586 	 140.766 	 
H 	 -45.8762 	 63.7253 	 139.269 	 
C 	 -45.5091 	 62.3767 	 140.804 	 
H 	 -46.1628 	 61.5862 	 140.548 	 
H 	 -45.5095 	 62.4117 	 141.887 	 
C 	 -44.0343 	 62.0959 	 140.413 	 
H 	 -43.7461 	 61.0676 	 140.374 	 
H 	 -43.5325 	 62.7339 	 141.203 	 
H 	 -43.895 	 62.4544 	 139.353 	 
H 	 -48.0016 	 62.9614 	 134.341 	 
H 	 -50.537 	 64.5743 	 142.069 	 
*
