! wB97X-D3 SP def2-SVP
%pal
nprocs 16
end

* xyz 0 1
S 	 -73.2449 	 52.0594 	 125.847 	 
C 	 -73.5535 	 53.7138 	 126.281 	 
C 	 -74.2044 	 54.3841 	 125.296 	 
C 	 -74.5651 	 53.5319 	 124.218 	 
C 	 -74.3928 	 52.1542 	 124.503 	 
H 	 -74.9659 	 53.8249 	 123.224 	 
C 	 -74.4754 	 55.8709 	 125.313 	 
H 	 -75.3252 	 56.0422 	 125.95 	 
H 	 -74.7975 	 56.2449 	 124.308 	 
C 	 -73.2817 	 56.7096 	 125.791 	 
H 	 -72.9246 	 56.4185 	 126.827 	 
H 	 -72.3916 	 56.5177 	 125.143 	 
C 	 -73.5602 	 58.2135 	 125.777 	 
H 	 -72.6349 	 58.7835 	 125.821 	 
H 	 -74.0376 	 58.4495 	 124.774 	 
H 	 -74.1218 	 58.5772 	 126.623 	 
S 	 -73.1742 	 50.2511 	 123.057 	 
C 	 -74.1279 	 49.0525 	 122.281 	 
C 	 -75.4839 	 49.2573 	 122.423 	 
C 	 -75.8329 	 50.3772 	 123.22 	 
C 	 -74.6638 	 51.0237 	 123.71 	 
H 	 -76.1469 	 48.5225 	 121.969 	 
C 	 -77.1993 	 50.8211 	 123.624 	 
H 	 -77.8699 	 50.7722 	 122.771 	 
H 	 -77.1681 	 51.9082 	 123.885 	 
C 	 -77.8326 	 49.9343 	 124.753 	 
H 	 -77.0288 	 49.9698 	 125.51 	 
H 	 -78.0051 	 48.9274 	 124.322 	 
C 	 -79.1353 	 50.5322 	 125.285 	 
H 	 -79.4692 	 50.0061 	 126.16 	 
H 	 -79.9909 	 50.3152 	 124.637 	 
H 	 -79.0772 	 51.6192 	 125.411 	 
H 	 -73.0666 	 54.2483 	 127.055 	 
H 	 -73.7063 	 48.2787 	 121.72 	 
*
