! wB97X-D3 SP def2-SVP
%pal
nprocs 16
end

* xyz 0 1
S 	 -17.9211 	 54.3411 	 60.5267 	 
C 	 -16.9568 	 53.1826 	 59.6808 	 
C 	 -15.6094 	 53.1931 	 60.1024 	 
C 	 -15.4599 	 54.3675 	 60.9714 	 
C 	 -16.5978 	 55.0885 	 61.2996 	 
H 	 -14.5464 	 54.8647 	 61.3387 	 
C 	 -14.5275 	 52.2549 	 59.6256 	 
H 	 -14.9421 	 51.2598 	 59.4503 	 
H 	 -13.6988 	 52.0927 	 60.3866 	 
C 	 -13.7851 	 52.6976 	 58.2796 	 
H 	 -14.491 	 53.0427 	 57.5548 	 
H 	 -13.1609 	 53.5702 	 58.4056 	 
C 	 -12.903 	 51.5548 	 57.6102 	 
H 	 -13.3776 	 50.6462 	 57.794 	 
H 	 -12.784 	 51.6488 	 56.481 	 
H 	 -11.9478 	 51.5928 	 58.1275 	 
S 	 -16.0864 	 57.754 	 61.0765 	 
C 	 -16.4377 	 58.8674 	 62.3858 	 
C 	 -17.0555 	 58.1682 	 63.4118 	 
C 	 -17.1312 	 56.7955 	 63.2057 	 
C 	 -16.7037 	 56.379 	 61.9722 	 
H 	 -17.4709 	 58.701 	 64.3194 	 
C 	 -17.5398 	 55.8844 	 64.3183 	 
H 	 -18.1801 	 55.0801 	 63.9391 	 
H 	 -18.1027 	 56.4824 	 65.0639 	 
C 	 -16.3924 	 55.1318 	 65.0097 	 
H 	 -15.8818 	 54.5496 	 64.2563 	 
H 	 -16.8568 	 54.4527 	 65.7935 	 
C 	 -15.3247 	 56.0403 	 65.6365 	 
H 	 -14.5265 	 55.3969 	 66.0352 	 
H 	 -15.8348 	 56.4366 	 66.5425 	 
H 	 -14.8477 	 56.8627 	 65.0911 	 
H 	 -17.3018 	 52.5304 	 58.9683 	 
H 	 -16.337 	 59.9414 	 62.4749 	 
*
