! wB97X-D3 SP def2-SVP
%pal
nprocs 16
end

* xyz 0 1
S 	 1.0399 	 -26.534 	 82.5537 	 
C 	 0.403124 	 -27.9257 	 81.7608 	 
C 	 1.14317 	 -29.0123 	 82.2131 	 
C 	 2.06565 	 -28.7683 	 83.2609 	 
C 	 1.99759 	 -27.4551 	 83.735 	 
H 	 2.76191 	 -29.3975 	 83.8005 	 
C 	 0.876694 	 -30.3842 	 81.6512 	 
H 	 1.77366 	 -30.8368 	 81.2916 	 
H 	 0.202286 	 -30.403 	 80.7175 	 
C 	 0.333924 	 -31.3165 	 82.7581 	 
H 	 0.0474751 	 -32.2895 	 82.3371 	 
H 	 1.16548 	 -31.4636 	 83.3912 	 
C 	 -0.867703 	 -30.6731 	 83.3779 	 
H 	 -0.68798 	 -30.052 	 84.2247 	 
H 	 -1.52846 	 -30.1882 	 82.6326 	 
H 	 -1.5809 	 -31.3863 	 83.8669 	 
S 	 3.6583 	 -25.4224 	 84.1958 	 
C 	 4.44325 	 -25.1945 	 85.7961 	 
C 	 4.0372 	 -26.1739 	 86.7094 	 
C 	 3.14946 	 -27.1129 	 86.0682 	 
C 	 2.84079 	 -26.8286 	 84.7367 	 
H 	 4.5216 	 -26.2598 	 87.7221 	 
C 	 2.70404 	 -28.4207 	 86.7687 	 
H 	 3.3242 	 -28.3854 	 87.6657 	 
H 	 3.05102 	 -29.3152 	 86.0827 	 
C 	 1.17842 	 -28.6195 	 87.0988 	 
H 	 1.04091 	 -29.4671 	 87.707 	 
H 	 0.541653 	 -28.6576 	 86.1761 	 
C 	 0.53868 	 -27.5816 	 88.0291 	 
H 	 -0.489379 	 -27.9446 	 88.2218 	 
H 	 0.409115 	 -26.5843 	 87.5351 	 
H 	 1.03839 	 -27.4112 	 88.9841 	 
H 	 -0.396169 	 -27.8863 	 81.0537 	 
H 	 5.20895 	 -24.4358 	 85.9529 	 
*
