! wB97X-D3 SP def2-SVP
%pal
nprocs 16
end

* xyz 0 1
S 	 -43.3843 	 25.3958 	 88.205 	 
C 	 -44.8485 	 25.1409 	 89.0537 	 
C 	 -45.4735 	 23.9227 	 88.7883 	 
C 	 -44.7063 	 23.0632 	 88.0287 	 
C 	 -43.453 	 23.6869 	 87.7794 	 
H 	 -44.949 	 22.0038 	 87.7429 	 
C 	 -46.8816 	 23.462 	 89.2312 	 
H 	 -47.4184 	 22.8236 	 88.5206 	 
H 	 -47.5152 	 24.3374 	 89.37 	 
C 	 -46.9113 	 22.7237 	 90.5406 	 
H 	 -47.8528 	 22.1141 	 90.6369 	 
H 	 -46.0351 	 22.0773 	 90.3309 	 
C 	 -46.5741 	 23.5037 	 91.8047 	 
H 	 -46.3481 	 22.8853 	 92.6637 	 
H 	 -45.6896 	 24.1546 	 91.6175 	 
H 	 -47.4833 	 24.0101 	 92.0487 	 
S 	 -41.5935 	 23.466 	 85.8328 	 
C 	 -40.5849 	 22.0159 	 85.7343 	 
C 	 -40.9527 	 21.0908 	 86.7146 	 
C 	 -41.9892 	 21.6171 	 87.5514 	 
C 	 -42.3285 	 22.902 	 87.2331 	 
H 	 -40.4109 	 20.1098 	 86.8648 	 
C 	 -42.5623 	 20.6773 	 88.6108 	 
H 	 -43.0601 	 21.3245 	 89.3027 	 
H 	 -41.792 	 20.1246 	 89.1773 	 
C 	 -43.3913 	 19.4784 	 88.0329 	 
H 	 -42.6932 	 18.7253 	 87.6813 	 
H 	 -44.113 	 19.8157 	 87.3205 	 
C 	 -44.1775 	 18.7639 	 89.1036 	 
H 	 -44.8904 	 18.0436 	 88.6027 	 
H 	 -44.6198 	 19.6573 	 89.6555 	 
H 	 -43.56 	 18.1227 	 89.7628 	 
H 	 -45.4222 	 25.8452 	 89.5891 	 
H 	 -39.8891 	 21.9239 	 84.9499 	 
*
