! wB97X-D3 SP def2-SVP
%pal
nprocs 16
end

* xyz 0 1
S 	 -36.5996 	 52.4181 	 107.861 	 
C 	 -38.1101 	 53.329 	 107.823 	 
C 	 -38.8236 	 53.0358 	 106.673 	 
C 	 -38.1313 	 52.116 	 105.859 	 
C 	 -36.8084 	 51.9804 	 106.167 	 
H 	 -38.4393 	 51.6659 	 104.96 	 
C 	 -40.2236 	 53.4865 	 106.42 	 
H 	 -40.5003 	 53.1189 	 105.462 	 
H 	 -40.135 	 54.5354 	 106.285 	 
C 	 -41.2543 	 53.1033 	 107.538 	 
H 	 -41.1834 	 51.9866 	 107.672 	 
H 	 -41.0541 	 53.6019 	 108.475 	 
C 	 -42.692 	 53.3083 	 107.083 	 
H 	 -43.3708 	 53.0052 	 107.898 	 
H 	 -42.9466 	 54.3227 	 106.796 	 
H 	 -42.9006 	 52.6544 	 106.191 	 
S 	 -34.612 	 50.2512 	 106.178 	 
C 	 -33.7047 	 49.9136 	 104.695 	 
C 	 -34.3795 	 50.5328 	 103.603 	 
C 	 -35.4788 	 51.383 	 103.925 	 
C 	 -35.736 	 51.3585 	 105.345 	 
H 	 -34.1153 	 50.3258 	 102.611 	 
C 	 -36.1885 	 52.1174 	 102.783 	 
H 	 -37.2088 	 51.8456 	 102.878 	 
H 	 -35.7876 	 51.6414 	 101.904 	 
C 	 -36.2011 	 53.6744 	 102.704 	 
H 	 -35.1372 	 54.075 	 102.572 	 
H 	 -36.601 	 54.0598 	 103.671 	 
C 	 -37.1417 	 54.3274 	 101.708 	 
H 	 -36.74 	 55.3202 	 101.515 	 
H 	 -38.219 	 54.3709 	 101.872 	 
H 	 -36.8537 	 53.9761 	 100.77 	 
H 	 -38.6025 	 53.8492 	 108.636 	 
H 	 -32.9799 	 49.2655 	 104.608 	 
*
