! wB97X-D3 SP def2-SVP
%pal
nprocs 16
end

* xyz 0 1
S 	 -32.7705 	 29.0598 	 44.741 	 
C 	 -31.4692 	 27.9616 	 44.5249 	 
C 	 -30.2377 	 28.6323 	 44.4285 	 
C 	 -30.4076 	 30.0217 	 44.4041 	 
C 	 -31.7348 	 30.4413 	 44.5247 	 
H 	 -29.7258 	 30.8383 	 44.3351 	 
C 	 -28.85 	 27.9482 	 44.4398 	 
H 	 -28.7411 	 27.0275 	 45.0612 	 
H 	 -28.183 	 28.7515 	 44.8105 	 
C 	 -28.3671 	 27.5557 	 42.9434 	 
H 	 -29.0886 	 26.8384 	 42.482 	 
H 	 -28.4608 	 28.4342 	 42.225 	 
C 	 -26.9201 	 26.9476 	 42.9148 	 
H 	 -26.9825 	 26.0349 	 43.5088 	 
H 	 -26.6153 	 26.8378 	 41.8675 	 
H 	 -26.124 	 27.4806 	 43.3926 	 
S 	 -32.9517 	 32.1731 	 46.2235 	 
C 	 -33.2652 	 33.8132 	 45.7957 	 
C 	 -32.5813 	 34.1328 	 44.6363 	 
C 	 -31.9478 	 33.0138 	 44.0173 	 
C 	 -32.1681 	 31.8587 	 44.7195 	 
H 	 -32.4094 	 35.1788 	 44.3278 	 
C 	 -31.1448 	 33.1567 	 42.7564 	 
H 	 -31.8774 	 33.3525 	 41.945 	 
H 	 -30.7508 	 32.1875 	 42.448 	 
C 	 -29.9555 	 34.1225 	 42.7883 	 
H 	 -30.3873 	 35.1612 	 42.917 	 
H 	 -29.3531 	 34.0656 	 41.8539 	 
C 	 -29.0111 	 34.1013 	 44.0806 	 
H 	 -28.9208 	 33.0994 	 44.4169 	 
H 	 -29.5622 	 34.5132 	 44.9152 	 
H 	 -28.0685 	 34.6419 	 43.9919 	 
H 	 -31.5549 	 26.8374 	 44.6729 	 
H 	 -33.9038 	 34.472 	 46.4221 	 
*
