! wB97X-D3 SP def2-SVP
%pal
nprocs 16
end

* xyz 0 1
S 	 44.0269 	 12.9909 	 88.4535 	 
C 	 45.1194 	 11.7326 	 87.8628 	 
C 	 44.3387 	 10.6439 	 87.434 	 
C 	 43.0009 	 11.0603 	 87.1674 	 
C 	 42.7228 	 12.4023 	 87.4858 	 
H 	 42.2166 	 10.5038 	 86.6426 	 
C 	 44.8749 	 9.28334 	 87.0302 	 
H 	 45.9354 	 9.13817 	 86.8549 	 
H 	 44.359 	 9.11951 	 86.074 	 
C 	 44.4799 	 8.19628 	 88.0197 	 
H 	 43.3981 	 8.22532 	 88.2072 	 
H 	 44.6157 	 7.23451 	 87.437 	 
C 	 45.3501 	 8.10176 	 89.232 	 
H 	 45.1867 	 8.87598 	 89.9165 	 
H 	 45.1916 	 7.27085 	 89.9272 	 
H 	 46.4227 	 8.09028 	 89.0267 	 
S 	 41.1807 	 14.1199 	 86.0208 	 
C 	 39.5048 	 14.3516 	 86.4015 	 
C 	 39.2237 	 13.7802 	 87.6464 	 
C 	 40.3007 	 12.9292 	 88.0853 	 
C 	 41.4629 	 13.1222 	 87.3906 	 
H 	 38.2856 	 13.8863 	 88.0783 	 
C 	 40.1788 	 11.9451 	 89.2319 	 
H 	 40.846 	 11.1139 	 89.0741 	 
H 	 39.1263 	 11.5441 	 89.3006 	 
C 	 40.5582 	 12.4963 	 90.6094 	 
H 	 39.9893 	 13.3499 	 91.0188 	 
H 	 41.5351 	 12.9159 	 90.7148 	 
C 	 40.5379 	 11.275 	 91.588 	 
H 	 39.5612 	 10.8052 	 91.8129 	 
H 	 40.8721 	 11.6555 	 92.5628 	 
H 	 41.2756 	 10.485 	 91.379 	 
H 	 46.1844 	 11.7553 	 87.9363 	 
H 	 38.8669 	 15.0808 	 86.0016 	 
*
