! wB97X-D3 SP def2-SVP
%pal
nprocs 16
end

* xyz 0 1
S 	 3.67711 	 -4.66207 	 69.9088 	 
C 	 2.05868 	 -5.05304 	 69.7091 	 
C 	 1.34247 	 -4.83654 	 70.8883 	 
C 	 2.16957 	 -4.64252 	 72.0449 	 
C 	 3.50933 	 -4.53371 	 71.6696 	 
H 	 1.88009 	 -4.61118 	 73.1157 	 
C 	 -0.119269 	 -4.95096 	 71.0504 	 
H 	 -0.628604 	 -4.80537 	 70.1076 	 
H 	 -0.478555 	 -4.18648 	 71.6852 	 
C 	 -0.792001 	 -6.29383 	 71.4794 	 
H 	 -0.336673 	 -6.65072 	 72.4986 	 
H 	 -1.81706 	 -5.84782 	 71.7168 	 
C 	 -0.954821 	 -7.37077 	 70.391 	 
H 	 -1.48885 	 -8.21237 	 70.6793 	 
H 	 -1.49322 	 -6.98503 	 69.5481 	 
H 	 0.0172401 	 -7.72805 	 70.1139 	 
S 	 5.03655 	 -5.63221 	 73.6786 	 
C 	 6.49429 	 -4.96449 	 74.149 	 
C 	 6.82683 	 -3.99899 	 73.2359 	 
C 	 5.84515 	 -3.58751 	 72.3383 	 
C 	 4.68847 	 -4.40319 	 72.4728 	 
H 	 7.79597 	 -3.55597 	 73.3401 	 
C 	 5.93637 	 -2.46179 	 71.2771 	 
H 	 4.91213 	 -2.36906 	 70.9204 	 
H 	 6.26498 	 -3.0361 	 70.428 	 
C 	 6.69719 	 -1.2603 	 71.5169 	 
H 	 6.81394 	 -0.639761 	 70.6165 	 
H 	 7.66122 	 -1.59431 	 71.7924 	 
C 	 6.14913 	 -0.309357 	 72.5675 	 
H 	 6.09302 	 -0.516748 	 73.6255 	 
H 	 5.16122 	 -0.0431464 	 72.2307 	 
H 	 6.71217 	 0.571629 	 72.6528 	 
H 	 1.50297 	 -5.26233 	 68.7987 	 
H 	 7.32047 	 -5.31422 	 74.707 	 
*
