! wB97X-D3 SP def2-SVP
%pal
nprocs 16
end

* xyz 0 1
S 	 -51.9769 	 33.1053 	 90.2457 	 
C 	 -53.0712 	 31.7191 	 90.1229 	 
C 	 -54.3796 	 32.1507 	 90.2777 	 
C 	 -54.5493 	 33.5701 	 90.4362 	 
C 	 -53.3014 	 34.2229 	 90.6393 	 
H 	 -55.5531 	 33.9539 	 90.6869 	 
C 	 -55.4976 	 31.1468 	 90.3598 	 
H 	 -55.0487 	 30.2157 	 90.6949 	 
H 	 -55.5493 	 30.7419 	 89.38 	 
C 	 -56.8423 	 31.5221 	 90.9691 	 
H 	 -57.1906 	 32.4528 	 90.5243 	 
H 	 -57.62 	 30.7525 	 90.7895 	 
C 	 -56.953 	 31.7152 	 92.52 	 
H 	 -57.8589 	 32.1735 	 92.9433 	 
H 	 -56.8029 	 30.7206 	 92.9306 	 
H 	 -56.162 	 32.2853 	 92.9283 	 
S 	 -51.4865 	 36.0037 	 91.5835 	 
C 	 -51.6716 	 37.6874 	 91.2996 	 
C 	 -52.8163 	 37.9627 	 90.653 	 
C 	 -53.7129 	 36.8558 	 90.4465 	 
C 	 -53.0447 	 35.6362 	 90.8021 	 
H 	 -53.1596 	 39.0152 	 90.3395 	 
C 	 -54.9907 	 37.0853 	 89.6723 	 
H 	 -55.6919 	 37.7588 	 90.2568 	 
H 	 -55.5939 	 36.1388 	 89.673 	 
C 	 -54.7894 	 37.5147 	 88.2476 	 
H 	 -54.4339 	 36.6744 	 87.7136 	 
H 	 -54.0573 	 38.319 	 87.9864 	 
C 	 -56.0669 	 37.7802 	 87.5252 	 
H 	 -55.6885 	 37.9407 	 86.5236 	 
H 	 -56.5414 	 38.674 	 87.9296 	 
H 	 -56.6747 	 36.8531 	 87.5078 	 
H 	 -52.8663 	 30.772 	 90.2407 	 
H 	 -50.8965 	 38.4087 	 91.4838 	 
*
