! wB97X-D3 SP def2-SVP
%pal
nprocs 16
end

* xyz 0 1
S 	 -35.1046 	 68.7508 	 171.449 	 
C 	 -34.2539 	 68.5499 	 172.958 	 
C 	 -34.8644 	 69.3238 	 173.977 	 
C 	 -35.9767 	 70.0442 	 173.537 	 
C 	 -36.2762 	 69.8413 	 172.175 	 
H 	 -36.5617 	 70.695 	 174.118 	 
C 	 -34.5045 	 69.2763 	 175.415 	 
H 	 -33.9141 	 68.3854 	 175.604 	 
H 	 -35.4695 	 69.1719 	 175.855 	 
C 	 -33.9088 	 70.5841 	 175.86 	 
H 	 -32.8738 	 70.7145 	 175.456 	 
H 	 -34.6074 	 71.3811 	 175.527 	 
C 	 -33.9322 	 70.7323 	 177.431 	 
H 	 -34.9407 	 70.5271 	 177.764 	 
H 	 -33.2561 	 70.0186 	 177.939 	 
H 	 -33.6068 	 71.7435 	 177.687 	 
S 	 -36.8751 	 71.3772 	 170.08 	 
C 	 -38.5583 	 71.7956 	 169.702 	 
C 	 -39.4568 	 71.1206 	 170.514 	 
C 	 -38.7505 	 70.4364 	 171.565 	 
C 	 -37.3866 	 70.3688 	 171.381 	 
H 	 -40.5029 	 71.238 	 170.274 	 
C 	 -39.4757 	 69.7014 	 172.667 	 
H 	 -38.7046 	 69.4186 	 173.454 	 
H 	 -39.8153 	 68.7841 	 172.151 	 
C 	 -40.6859 	 70.3821 	 173.292 	 
H 	 -41.2636 	 69.6084 	 173.729 	 
H 	 -41.3564 	 70.7639 	 172.529 	 
C 	 -40.4234 	 71.5071 	 174.274 	 
H 	 -39.991 	 72.4408 	 173.807 	 
H 	 -39.7481 	 71.3426 	 175.18 	 
H 	 -41.3495 	 71.793 	 174.647 	 
H 	 -33.5504 	 67.8116 	 173.036 	 
H 	 -38.8778 	 72.4884 	 168.995 	 
*
