! wB97X-D3 SP def2-SVP
%pal
nprocs 16
end

* xyz 0 1
S 	 -48.9111 	 8.40432 	 82.5759 	 
C 	 -48.6839 	 10.0451 	 83.0879 	 
C 	 -49.4853 	 10.3664 	 84.1904 	 
C 	 -50.4735 	 9.35316 	 84.3877 	 
C 	 -50.3602 	 8.29044 	 83.516 	 
H 	 -51.2349 	 9.506 	 85.1382 	 
C 	 -49.3486 	 11.6177 	 85.0499 	 
H 	 -50.0531 	 12.2844 	 84.7017 	 
H 	 -48.3725 	 11.9163 	 84.6813 	 
C 	 -49.4594 	 11.449 	 86.5921 	 
H 	 -49.6732 	 12.4875 	 86.9947 	 
H 	 -50.3819 	 10.8578 	 86.8867 	 
C 	 -48.2318 	 10.8413 	 87.2129 	 
H 	 -47.2891 	 11.2918 	 86.9114 	 
H 	 -48.2304 	 10.8188 	 88.2788 	 
H 	 -48.1901 	 9.81335 	 86.9207 	 
S 	 -50.8219 	 5.69893 	 84.192 	 
C 	 -52.4303 	 5.02679 	 84.1037 	 
C 	 -53.2343 	 5.83549 	 83.2829 	 
C 	 -52.5953 	 7.04649 	 82.8368 	 
C 	 -51.3148 	 7.20696 	 83.388 	 
H 	 -54.2224 	 5.5072 	 82.9029 	 
C 	 -53.3459 	 8.1872 	 82.2024 	 
H 	 -52.8054 	 8.55325 	 81.3583 	 
H 	 -53.2322 	 9.03331 	 82.8357 	 
C 	 -54.7657 	 7.85951 	 81.8545 	 
H 	 -55.1514 	 7.42839 	 82.7763 	 
H 	 -54.851 	 7.04047 	 81.1384 	 
C 	 -55.6369 	 9.10867 	 81.4438 	 
H 	 -55.7424 	 9.84709 	 82.2709 	 
H 	 -56.6666 	 8.78705 	 81.2764 	 
H 	 -55.3861 	 9.66191 	 80.5275 	 
H 	 -47.8349 	 10.6488 	 82.8259 	 
H 	 -52.7404 	 4.03979 	 84.4274 	 
*
