! wB97X-D3 SP def2-SVP
%pal
nprocs 16
end

* xyz 0 1
S 	 -17.8989 	 56.4145 	 61.7637 	 
C 	 -16.9413 	 54.9396 	 61.5218 	 
C 	 -15.7313 	 55.0643 	 62.1691 	 
C 	 -15.6356 	 56.3481 	 62.8384 	 
C 	 -16.7158 	 57.149 	 62.8186 	 
H 	 -14.7233 	 56.735 	 63.3172 	 
C 	 -14.522 	 54.1298 	 62.1323 	 
H 	 -14.8719 	 53.0854 	 62.1088 	 
H 	 -14.1166 	 54.4371 	 63.0946 	 
C 	 -13.5094 	 54.4734 	 61.0458 	 
H 	 -13.9587 	 54.1857 	 60.0732 	 
H 	 -13.1814 	 55.5253 	 61.0827 	 
C 	 -12.1976 	 53.6809 	 61.3874 	 
H 	 -12.031 	 53.6123 	 62.4402 	 
H 	 -12.1949 	 52.6531 	 60.9853 	 
H 	 -11.3651 	 54.1929 	 60.866 	 
S 	 -17.4325 	 59.7239 	 62.0904 	 
C 	 -16.8629 	 61.1231 	 63.008 	 
C 	 -16.2777 	 60.6048 	 64.1245 	 
C 	 -16.2047 	 59.1909 	 64.2331 	 
C 	 -16.7931 	 58.5615 	 63.1845 	 
H 	 -15.7977 	 61.3862 	 64.8076 	 
C 	 -15.5434 	 58.5087 	 65.377 	 
H 	 -14.4113 	 58.3976 	 65.2367 	 
H 	 -15.9205 	 57.4391 	 65.4836 	 
C 	 -15.7467 	 59.1753 	 66.7525 	 
H 	 -15.2068 	 60.146 	 66.7445 	 
H 	 -15.2763 	 58.5897 	 67.5811 	 
C 	 -17.2032 	 59.401 	 67.0547 	 
H 	 -17.2389 	 60.0062 	 67.9616 	 
H 	 -17.8046 	 58.4739 	 67.1833 	 
H 	 -17.7094 	 59.9896 	 66.236 	 
H 	 -17.273 	 54.0271 	 60.9796 	 
H 	 -17.0026 	 62.1211 	 62.6778 	 
*
