! wB97X-D3 SP def2-SVP
%pal
nprocs 16
end

* xyz 0 1
S 	 -110.489 	 54.9757 	 115.282 	 
C 	 -110.528 	 54.788 	 113.508 	 
C 	 -109.257 	 54.586 	 113.032 	 
C 	 -108.275 	 54.8819 	 114.028 	 
C 	 -108.748 	 55.0164 	 115.267 	 
H 	 -107.274 	 54.8337 	 113.871 	 
C 	 -108.915 	 54.4603 	 111.527 	 
H 	 -108.434 	 55.3345 	 111.113 	 
H 	 -109.793 	 54.4707 	 110.899 	 
C 	 -108.154 	 53.251 	 111.093 	 
H 	 -108.172 	 53.0588 	 110.016 	 
H 	 -107.08 	 53.3454 	 111.293 	 
C 	 -108.514 	 51.9307 	 111.898 	 
H 	 -108.347 	 52.2118 	 112.904 	 
H 	 -109.577 	 51.6853 	 111.792 	 
H 	 -107.911 	 51.0561 	 111.671 	 
S 	 -108.508 	 56.9213 	 117.274 	 
C 	 -107.305 	 56.6728 	 118.54 	 
C 	 -106.568 	 55.5367 	 118.338 	 
C 	 -106.845 	 54.9328 	 117.074 	 
C 	 -107.991 	 55.4692 	 116.442 	 
H 	 -105.764 	 55.2573 	 119.01 	 
C 	 -106.131 	 53.6758 	 116.593 	 
H 	 -105.066 	 53.761 	 116.733 	 
H 	 -106.135 	 53.726 	 115.549 	 
C 	 -106.497 	 52.2804 	 117.133 	 
H 	 -106.31 	 52.3508 	 118.259 	 
H 	 -105.831 	 51.4616 	 116.731 	 
C 	 -107.905 	 51.7515 	 116.648 	 
H 	 -107.932 	 51.6434 	 115.554 	 
H 	 -108.818 	 52.2782 	 116.926 	 
H 	 -108.079 	 50.7969 	 117.167 	 
H 	 -111.442 	 54.9053 	 112.978 	 
H 	 -107.303 	 57.2154 	 119.47 	 
*
