! wB97X-D3 SP def2-SVP
%pal
nprocs 16
end

* xyz 0 1
S 	 9.94764 	 -7.08161 	 73.6327 	 
C 	 9.09147 	 -5.64535 	 74.2285 	 
C 	 8.1998 	 -5.23034 	 73.2611 	 
C 	 7.8874 	 -6.27302 	 72.3194 	 
C 	 8.73306 	 -7.409 	 72.4227 	 
H 	 7.23964 	 -6.1957 	 71.5335 	 
C 	 7.73915 	 -3.78104 	 73.1612 	 
H 	 8.46963 	 -3.15328 	 73.6723 	 
H 	 6.78921 	 -3.63101 	 73.6769 	 
C 	 7.51895 	 -3.24551 	 71.7374 	 
H 	 6.75143 	 -3.8541 	 71.3047 	 
H 	 7.28097 	 -2.14243 	 71.6811 	 
C 	 8.81891 	 -3.36224 	 70.8742 	 
H 	 8.8131 	 -2.88299 	 69.8999 	 
H 	 9.58859 	 -2.78537 	 71.3726 	 
H 	 9.10021 	 -4.45405 	 70.7749 	 
S 	 10.3378 	 -9.25616 	 71.3348 	 
C 	 9.69065 	 -10.4305 	 70.2894 	 
C 	 8.29138 	 -10.342 	 70.2307 	 
C 	 7.78827 	 -9.17147 	 70.8595 	 
C 	 8.78417 	 -8.518 	 71.5084 	 
H 	 7.72749 	 -11.0828 	 69.6841 	 
C 	 6.2447 	 -8.9965 	 71.12 	 
H 	 5.75759 	 -9.13753 	 70.241 	 
H 	 6.0412 	 -7.91812 	 71.382 	 
C 	 5.65452 	 -9.95881 	 72.1977 	 
H 	 6.37808 	 -10.0724 	 73.0526 	 
H 	 5.45868 	 -11.0292 	 71.7784 	 
C 	 4.43157 	 -9.32173 	 72.9238 	 
H 	 4.74588 	 -8.59878 	 73.6372 	 
H 	 3.98525 	 -10.0132 	 73.5919 	 
H 	 3.65892 	 -8.96529 	 72.3006 	 
H 	 9.52235 	 -5.0536 	 74.9666 	 
H 	 10.2291 	 -11.2528 	 69.8439 	 
*
