! wB97X-D3 SP def2-SVP
%pal
nprocs 16
end

* xyz 0 1
S 	 -2.00742 	 -9.37779 	 85.2472 	 
C 	 -1.30476 	 -10.9005 	 85.7531 	 
C 	 -1.90974 	 -11.348 	 86.8979 	 
C 	 -2.64027 	 -10.3029 	 87.5508 	 
C 	 -2.76412 	 -9.14061 	 86.7832 	 
H 	 -3.11723 	 -10.2838 	 88.5 	 
C 	 -1.75562 	 -12.7025 	 87.537 	 
H 	 -0.762731 	 -13.059 	 87.1806 	 
H 	 -2.5188 	 -13.3247 	 87.1422 	 
C 	 -1.68935 	 -12.6612 	 89.0832 	 
H 	 -0.779513 	 -12.0486 	 89.4461 	 
H 	 -2.68258 	 -12.3248 	 89.5227 	 
C 	 -1.51875 	 -14.0589 	 89.6124 	 
H 	 -1.06977 	 -14.1717 	 90.54 	 
H 	 -2.52814 	 -14.5224 	 89.7372 	 
H 	 -0.912508 	 -14.7652 	 88.9048 	 
S 	 -4.65546 	 -7.18343 	 85.9158 	 
C 	 -5.23866 	 -6.13766 	 87.1583 	 
C 	 -4.38147 	 -6.05841 	 88.2987 	 
C 	 -3.34997 	 -7.07825 	 88.1637 	 
C 	 -3.43065 	 -7.87744 	 87.0335 	 
H 	 -4.52039 	 -5.36972 	 89.0523 	 
C 	 -2.21565 	 -7.25912 	 89.2252 	 
H 	 -1.83917 	 -6.1931 	 89.2981 	 
H 	 -1.3498 	 -7.73097 	 88.7429 	 
C 	 -2.72213 	 -7.81149 	 90.5703 	 
H 	 -3.19766 	 -8.79651 	 90.3954 	 
H 	 -3.48693 	 -7.04226 	 90.8772 	 
C 	 -1.58581 	 -7.99666 	 91.5935 	 
H 	 -0.732022 	 -8.49201 	 91.2829 	 
H 	 -1.84626 	 -8.4485 	 92.5828 	 
H 	 -1.2959 	 -7.00158 	 91.8588 	 
H 	 -0.66886 	 -11.5416 	 85.1558 	 
H 	 -6.14203 	 -5.62177 	 87.0606 	 
*
