! wB97X-D3 SP def2-SVP
%pal
nprocs 16
end

* xyz 0 1
S 	 -75.287 	 48.6682 	 137.383 	 
C 	 -73.9614 	 49.4211 	 138.378 	 
C 	 -74.4733 	 50.3256 	 139.23 	 
C 	 -75.9164 	 50.3819 	 139.136 	 
C 	 -76.5169 	 49.5648 	 138.181 	 
H 	 -76.446 	 51.0586 	 139.793 	 
C 	 -73.6598 	 51.3269 	 139.961 	 
H 	 -73.8654 	 52.3317 	 139.628 	 
H 	 -72.6504 	 51.1662 	 139.598 	 
C 	 -73.5524 	 51.3109 	 141.482 	 
H 	 -74.5242 	 51.3565 	 141.949 	 
H 	 -73.1747 	 50.3441 	 141.865 	 
C 	 -72.7805 	 52.4858 	 142.059 	 
H 	 -73.3623 	 53.375 	 142.028 	 
H 	 -72.6514 	 52.2926 	 143.166 	 
H 	 -71.8291 	 52.6221 	 141.631 	 
S 	 -78.325 	 50.1909 	 136.264 	 
C 	 -80.0197 	 50.1378 	 136.66 	 
C 	 -80.2561 	 49.8443 	 137.997 	 
C 	 -79.0389 	 49.5541 	 138.701 	 
C 	 -77.9562 	 49.6348 	 137.876 	 
H 	 -81.1972 	 49.8864 	 138.424 	 
C 	 -79.1323 	 49.2004 	 140.11 	 
H 	 -80.1416 	 49.3781 	 140.506 	 
H 	 -78.6099 	 50.005 	 140.623 	 
C 	 -78.686 	 47.8565 	 140.678 	 
H 	 -78.5896 	 47.9485 	 141.79 	 
H 	 -77.6355 	 47.6968 	 140.407 	 
C 	 -79.6086 	 46.6455 	 140.343 	 
H 	 -79.3327 	 45.7594 	 141.006 	 
H 	 -79.5234 	 46.3975 	 139.316 	 
H 	 -80.6815 	 46.7929 	 140.535 	 
H 	 -72.8882 	 49.3589 	 138.244 	 
H 	 -80.9388 	 50.3037 	 136.006 	 
*
