! wB97X-D3 SP def2-SVP
%pal
nprocs 16
end

* xyz 0 1
S 	 45.5153 	 4.21347 	 85.9014 	 
C 	 45.5091 	 4.481 	 84.16 	 
C 	 46.6589 	 5.20519 	 83.7745 	 
C 	 47.4497 	 5.56011 	 84.9054 	 
C 	 47.1166 	 4.93143 	 86.1063 	 
H 	 48.3957 	 6.12642 	 84.7886 	 
C 	 46.9201 	 5.80227 	 82.375 	 
H 	 46.5525 	 5.14688 	 81.5318 	 
H 	 47.9608 	 5.91107 	 82.2118 	 
C 	 46.2237 	 7.18608 	 82.2226 	 
H 	 45.1087 	 7.15415 	 82.178 	 
H 	 46.4274 	 7.6979 	 83.1734 	 
C 	 46.602 	 7.93112 	 80.9232 	 
H 	 45.9085 	 8.6929 	 80.7936 	 
H 	 47.5851 	 8.33818 	 81.0439 	 
H 	 46.6418 	 7.38135 	 79.9784 	 
S 	 46.8612 	 4.63348 	 88.8765 	 
C 	 48.3095 	 4.80777 	 89.8873 	 
C 	 49.4333 	 4.74036 	 89.0526 	 
C 	 49.1981 	 4.86447 	 87.6642 	 
C 	 47.8544 	 4.89664 	 87.3722 	 
H 	 50.3863 	 4.49795 	 89.6159 	 
C 	 50.3675 	 4.74713 	 86.706 	 
H 	 51.2824 	 4.97508 	 87.2239 	 
H 	 50.2434 	 5.50936 	 85.9589 	 
C 	 50.6077 	 3.46531 	 85.9798 	 
H 	 49.7864 	 3.24563 	 85.3745 	 
H 	 50.542 	 2.63988 	 86.7311 	 
C 	 51.8674 	 3.59761 	 85.0801 	 
H 	 52.6177 	 4.23111 	 85.515 	 
H 	 51.707 	 4.05716 	 84.0845 	 
H 	 52.3921 	 2.62794 	 84.8803 	 
H 	 44.6165 	 4.31356 	 83.6223 	 
H 	 48.3349 	 4.54012 	 90.9383 	 
*
