! wB97X-D3 SP def2-SVP
%pal
nprocs 16
end

* xyz 0 1
S 	 -5.69701 	 18.5301 	 53.5886 	 
C 	 -4.78513 	 18.854 	 52.1266 	 
C 	 -3.65021 	 19.6551 	 52.3804 	 
C 	 -3.53133 	 19.9547 	 53.8018 	 
C 	 -4.48752 	 19.3689 	 54.596 	 
H 	 -2.76271 	 20.4826 	 54.3101 	 
C 	 -2.81285 	 20.156 	 51.2929 	 
H 	 -2.44273 	 21.1748 	 51.532 	 
H 	 -3.42841 	 20.0055 	 50.4266 	 
C 	 -1.5562 	 19.2613 	 51.0784 	 
H 	 -0.947167 	 19.4893 	 51.9681 	 
H 	 -1.75862 	 18.1411 	 51.0986 	 
C 	 -0.982228 	 19.4821 	 49.6399 	 
H 	 -0.784505 	 20.5032 	 49.4959 	 
H 	 -0.068064 	 18.9125 	 49.4878 	 
H 	 -1.64094 	 19.0898 	 48.8722 	 
S 	 -4.92844 	 18.0339 	 56.9289 	 
C 	 -4.99065 	 18.8782 	 58.4842 	 
C 	 -4.53088 	 20.1814 	 58.2517 	 
C 	 -4.28397 	 20.5214 	 56.9116 	 
C 	 -4.60311 	 19.487 	 56.03 	 
H 	 -4.47717 	 20.948 	 59.1174 	 
C 	 -3.97098 	 22.0135 	 56.6861 	 
H 	 -4.892 	 22.5794 	 56.8203 	 
H 	 -3.83901 	 22.1255 	 55.7269 	 
C 	 -2.76186 	 22.5154 	 57.4589 	 
H 	 -3.06747 	 22.7589 	 58.5538 	 
H 	 -2.57952 	 23.5454 	 57.1496 	 
C 	 -1.45669 	 21.8188 	 57.2549 	 
H 	 -1.41124 	 20.8043 	 57.7416 	 
H 	 -0.600514 	 22.1867 	 57.8476 	 
H 	 -1.01972 	 21.8591 	 56.2631 	 
H 	 -5.10095 	 18.5781 	 51.1317 	 
H 	 -5.33216 	 18.4487 	 59.4409 	 
*
