! wB97X-D3 SP def2-SVP
%pal
nprocs 16
end

* xyz 0 1
S 	 -4.285 	 -22.4267 	 57.2713 	 
C 	 -3.93822 	 -22.8959 	 55.6252 	 
C 	 -3.09316 	 -21.9957 	 55.0074 	 
C 	 -2.74004 	 -20.9196 	 55.8564 	 
C 	 -3.25722 	 -21.0294 	 57.164 	 
H 	 -2.14913 	 -20.1198 	 55.5539 	 
C 	 -2.58255 	 -22.1084 	 53.5579 	 
H 	 -2.94809 	 -23.0254 	 53.2172 	 
H 	 -1.54216 	 -22.2015 	 53.5937 	 
C 	 -3.0473 	 -21.0089 	 52.5862 	 
H 	 -2.69968 	 -21.3764 	 51.5559 	 
H 	 -4.08583 	 -21.0639 	 52.5521 	 
C 	 -2.55395 	 -19.6113 	 52.8543 	 
H 	 -1.44744 	 -19.7168 	 52.8084 	 
H 	 -2.78766 	 -18.9967 	 52.0741 	 
H 	 -2.80483 	 -19.2232 	 53.8357 	 
S 	 -4.8862 	 -19.5735 	 58.7628 	 
C 	 -4.32899 	 -18.0993 	 59.5876 	 
C 	 -2.99513 	 -17.8989 	 59.2608 	 
C 	 -2.33842 	 -18.9399 	 58.4736 	 
C 	 -3.33948 	 -19.9197 	 58.0946 	 
H 	 -2.57861 	 -16.9867 	 59.6415 	 
C 	 -0.848997 	 -18.8293 	 58.1374 	 
H 	 -0.694753 	 -19.6206 	 57.4111 	 
H 	 -0.477593 	 -19.1864 	 59.0629 	 
C 	 -0.167686 	 -17.3882 	 57.8777 	 
H 	 0.893487 	 -17.6185 	 57.5558 	 
H 	 -0.253022 	 -16.8441 	 58.8406 	 
C 	 -0.83912 	 -16.6219 	 56.7791 	 
H 	 -1.84928 	 -16.4442 	 56.9927 	 
H 	 -0.829732 	 -17.2944 	 55.8798 	 
H 	 -0.335413 	 -15.7128 	 56.5057 	 
H 	 -4.17174 	 -23.8627 	 55.2297 	 
H 	 -4.92691 	 -17.4668 	 60.3176 	 
*
