! wB97X-D3 SP def2-SVP
%pal
nprocs 16
end

* xyz 0 1
S 	 -95.4037 	 43.8293 	 115.931 	 
C 	 -95.3195 	 45.2295 	 116.899 	 
C 	 -95.3002 	 44.8055 	 118.23 	 
C 	 -95.1552 	 43.4073 	 118.476 	 
C 	 -95.1627 	 42.6923 	 117.255 	 
H 	 -95.1046 	 42.917 	 119.423 	 
C 	 -95.3473 	 45.7513 	 119.404 	 
H 	 -95.636 	 45.1427 	 120.207 	 
H 	 -96.0638 	 46.4954 	 119.193 	 
C 	 -94.0163 	 46.3682 	 119.865 	 
H 	 -93.1818 	 45.7038 	 119.86 	 
H 	 -93.7615 	 47.0999 	 119.146 	 
C 	 -94.0823 	 47.0644 	 121.217 	 
H 	 -94.917 	 47.6921 	 121.169 	 
H 	 -94.3038 	 46.3264 	 121.997 	 
H 	 -93.2192 	 47.5858 	 121.537 	 
S 	 -96.1254 	 40.2801 	 118.222 	 
C 	 -95.4157 	 38.8306 	 117.645 	 
C 	 -94.288 	 39.0029 	 116.912 	 
C 	 -94.2147 	 40.3889 	 116.428 	 
C 	 -95.0886 	 41.2297 	 117.125 	 
H 	 -93.6257 	 38.2234 	 116.544 	 
C 	 -93.1177 	 40.7779 	 115.474 	 
H 	 -93.5638 	 41.4858 	 114.761 	 
H 	 -92.7522 	 39.8684 	 115.014 	 
C 	 -91.8749 	 41.5838 	 116.13 	 
H 	 -92.2732 	 42.5891 	 116.52 	 
H 	 -91.1182 	 41.9033 	 115.453 	 
C 	 -91.0974 	 40.822 	 117.168 	 
H 	 -90.8899 	 39.8906 	 116.829 	 
H 	 -91.7586 	 40.7634 	 118.057 	 
H 	 -90.1536 	 41.283 	 117.424 	 
H 	 -95.3984 	 46.3143 	 116.577 	 
H 	 -95.837 	 37.8096 	 117.811 	 
*
