! wB97X-D3 SP def2-SVP
%pal
nprocs 16
end

* xyz 0 1
S 	 38.2418 	 -8.68712 	 71.6427 	 
C 	 38.6826 	 -7.00199 	 72.0014 	 
C 	 39.4345 	 -6.43341 	 70.9649 	 
C 	 39.9592 	 -7.41309 	 70.074 	 
C 	 39.341 	 -8.64849 	 70.2123 	 
H 	 40.6222 	 -7.21111 	 69.282 	 
C 	 39.8747 	 -5.00871 	 70.9171 	 
H 	 39.0306 	 -4.50042 	 71.3605 	 
H 	 39.9353 	 -4.6464 	 69.8449 	 
C 	 41.0588 	 -4.72333 	 71.8214 	 
H 	 40.7915 	 -5.01268 	 72.8452 	 
H 	 41.896 	 -5.29293 	 71.4448 	 
C 	 41.5601 	 -3.23285 	 71.9401 	 
H 	 41.9568 	 -2.90801 	 70.9521 	 
H 	 40.7064 	 -2.56795 	 72.2332 	 
H 	 42.243 	 -3.08629 	 72.7574 	 
S 	 40.2496 	 -11.2272 	 70.0879 	 
C 	 40.6175 	 -11.9144 	 68.5176 	 
C 	 40.0457 	 -11.0707 	 67.5269 	 
C 	 39.5067 	 -9.79739 	 67.9982 	 
C 	 39.6033 	 -9.72829 	 69.3425 	 
H 	 40.263 	 -11.3016 	 66.4919 	 
C 	 38.9586 	 -8.75418 	 67.0451 	 
H 	 39.6861 	 -8.0133 	 67.0005 	 
H 	 38.1927 	 -8.26666 	 67.645 	 
C 	 38.305 	 -9.17031 	 65.7125 	 
H 	 37.5254 	 -9.86602 	 65.9735 	 
H 	 39.0586 	 -9.72401 	 65.1383 	 
C 	 37.5262 	 -8.07845 	 64.9098 	 
H 	 36.787 	 -7.60257 	 65.6041 	 
H 	 37.0472 	 -8.41431 	 63.9709 	 
H 	 38.2161 	 -7.3224 	 64.6638 	 
H 	 38.3474 	 -6.52359 	 72.9092 	 
H 	 40.9376 	 -12.84 	 68.1833 	 
*
