! wB97X-D3 SP def2-SVP
%pal
nprocs 16
end

* xyz 0 1
S 	 50.2009 	 14.3858 	 78.4536 	 
C 	 51.5522 	 14.1021 	 79.5628 	 
C 	 51.7347 	 15.2082 	 80.4158 	 
C 	 50.8889 	 16.3227 	 79.992 	 
C 	 49.9909 	 16.0254 	 78.9955 	 
H 	 50.8532 	 17.2817 	 80.3895 	 
C 	 52.8441 	 15.4276 	 81.3833 	 
H 	 53.5387 	 16.1823 	 80.9375 	 
H 	 53.3422 	 14.52 	 81.4828 	 
C 	 52.33 	 15.8267 	 82.7487 	 
H 	 51.9472 	 16.871 	 82.6939 	 
H 	 51.5219 	 15.2444 	 83.1687 	 
C 	 53.2953 	 15.634 	 83.9279 	 
H 	 54.1726 	 16.2211 	 83.8357 	 
H 	 52.7425 	 15.8394 	 84.8949 	 
H 	 53.5813 	 14.6253 	 84.0835 	 
S 	 47.554 	 16.134 	 77.6401 	 
C 	 46.9734 	 17.5775 	 76.866 	 
C 	 47.9074 	 18.5579 	 77.106 	 
C 	 48.9441 	 18.2179 	 78.0466 	 
C 	 48.9688 	 16.8572 	 78.2628 	 
H 	 47.6235 	 19.5694 	 76.7448 	 
C 	 49.9822 	 19.1866 	 78.5798 	 
H 	 50.1923 	 19.0756 	 79.6645 	 
H 	 49.5954 	 20.1621 	 78.529 	 
C 	 51.2984 	 19.2477 	 77.8424 	 
H 	 51.1727 	 19.6104 	 76.7999 	 
H 	 51.6949 	 18.233 	 77.7266 	 
C 	 52.3382 	 20.1296 	 78.6017 	 
H 	 52.0087 	 21.1155 	 78.6056 	 
H 	 53.2574 	 20.2265 	 78.099 	 
H 	 52.6664 	 19.7822 	 79.622 	 
H 	 52.2209 	 13.2218 	 79.529 	 
H 	 46.0767 	 17.6054 	 76.2366 	 
*
