! wB97X-D3 SP def2-SVP
%pal
nprocs 16
end

* xyz 0 1
S 	 -6.32787 	 20.4265 	 53.6866 	 
C 	 -5.53764 	 21.2389 	 52.3533 	 
C 	 -4.12726 	 21.18 	 52.575 	 
C 	 -3.74805 	 20.8029 	 53.95 	 
C 	 -4.91094 	 20.3571 	 54.5987 	 
H 	 -2.75968 	 20.7585 	 54.2982 	 
C 	 -3.04417 	 21.5475 	 51.5799 	 
H 	 -3.26118 	 21.0299 	 50.6384 	 
H 	 -2.15334 	 21.0147 	 52.0031 	 
C 	 -2.78063 	 23.0437 	 51.3437 	 
H 	 -3.74189 	 23.446 	 50.9116 	 
H 	 -2.67532 	 23.5252 	 52.3199 	 
C 	 -1.58054 	 23.428 	 50.3617 	 
H 	 -0.648702 	 23.0151 	 50.7101 	 
H 	 -1.61606 	 23.0179 	 49.3576 	 
H 	 -1.4401 	 24.5118 	 50.3701 	 
S 	 -5.13122 	 18.0692 	 56.1472 	 
C 	 -5.19034 	 18.319 	 57.9023 	 
C 	 -5.26817 	 19.6411 	 58.327 	 
C 	 -5.15693 	 20.5316 	 57.2052 	 
C 	 -4.98636 	 19.8275 	 55.975 	 
H 	 -5.57795 	 19.8868 	 59.2969 	 
C 	 -5.21838 	 22.082 	 57.267 	 
H 	 -6.04856 	 22.542 	 57.8533 	 
H 	 -5.38025 	 22.5175 	 56.2309 	 
C 	 -3.9379 	 22.8259 	 57.7596 	 
H 	 -3.74344 	 22.5521 	 58.8048 	 
H 	 -4.17209 	 23.8749 	 57.7352 	 
C 	 -2.69564 	 22.652 	 56.8951 	 
H 	 -2.43986 	 21.6311 	 56.7903 	 
H 	 -1.75327 	 23.1986 	 57.2363 	 
H 	 -2.92014 	 23.126 	 55.9539 	 
H 	 -6.08206 	 21.4214 	 51.4216 	 
H 	 -5.26729 	 17.4412 	 58.5606 	 
*
