! wB97X-D3 SP def2-SVP
%pal
nprocs 16
end

* xyz 0 1
S 	 38.3067 	 11.8862 	 79.8252 	 
C 	 39.0339 	 13.4022 	 79.1709 	 
C 	 39.4908 	 14.2538 	 80.1928 	 
C 	 39.4086 	 13.5433 	 81.4517 	 
C 	 38.8229 	 12.2942 	 81.3992 	 
H 	 39.6861 	 13.9114 	 82.3717 	 
C 	 40.2298 	 15.5745 	 79.9249 	 
H 	 40.4042 	 16.101 	 80.8642 	 
H 	 39.488 	 16.1515 	 79.3224 	 
C 	 41.5743 	 15.3315 	 79.164 	 
H 	 41.2385 	 14.9939 	 78.1704 	 
H 	 41.9092 	 16.3397 	 78.9469 	 
C 	 42.5429 	 14.4596 	 79.8718 	 
H 	 43.4713 	 14.3092 	 79.3335 	 
H 	 42.8805 	 14.8705 	 80.7513 	 
H 	 42.053 	 13.5352 	 80.2135 	 
S 	 36.6533 	 11.3706 	 82.7814 	 
C 	 36.9296 	 10.6769 	 84.3219 	 
C 	 38.2585 	 10.5851 	 84.7177 	 
C 	 39.1232 	 11.1267 	 83.7056 	 
C 	 38.442 	 11.5506 	 82.5866 	 
H 	 38.6026 	 10.1901 	 85.6711 	 
C 	 40.6151 	 11.164 	 83.8056 	 
H 	 41.1463 	 10.989 	 82.8749 	 
H 	 40.9544 	 10.2237 	 84.3811 	 
C 	 41.1916 	 12.417 	 84.5203 	 
H 	 40.7491 	 13.4255 	 84.2811 	 
H 	 42.2048 	 12.4834 	 84.0426 	 
C 	 41.3894 	 12.1687 	 86.0125 	 
H 	 40.573 	 11.5956 	 86.4759 	 
H 	 41.5658 	 13.1398 	 86.5148 	 
H 	 42.2961 	 11.5814 	 86.3009 	 
H 	 39.0227 	 13.6118 	 78.142 	 
H 	 36.1934 	 10.1979 	 84.9178 	 
*
