! wB97X-D3 SP def2-SVP
%pal
nprocs 16
end

* xyz 0 1
S 	 -2.92099 	 -21.1338 	 85.1488 	 
C 	 -1.36997 	 -21.1455 	 84.3259 	 
C 	 -0.560775 	 -20.1629 	 84.8254 	 
C 	 -1.1674 	 -19.2334 	 85.7505 	 
C 	 -2.46913 	 -19.6174 	 85.9653 	 
H 	 -0.677038 	 -18.3843 	 86.2093 	 
C 	 0.953258 	 -20.0925 	 84.5184 	 
H 	 1.36751 	 -19.1744 	 84.9862 	 
H 	 1.19813 	 -20.0743 	 83.403 	 
C 	 1.75902 	 -21.2392 	 85.2479 	 
H 	 1.20983 	 -21.6246 	 86.0564 	 
H 	 1.78646 	 -22.0326 	 84.5252 	 
C 	 3.15341 	 -20.8106 	 85.6055 	 
H 	 3.83377 	 -21.4671 	 86.2054 	 
H 	 3.63987 	 -20.5762 	 84.6791 	 
H 	 3.09171 	 -19.9036 	 86.2112 	 
S 	 -3.65538 	 -20.3361 	 88.3075 	 
C 	 -4.52823 	 -19.2427 	 89.3799 	 
C 	 -4.45488 	 -17.9781 	 88.7973 	 
C 	 -3.71639 	 -17.8991 	 87.5206 	 
C 	 -3.19632 	 -19.1541 	 87.122 	 
H 	 -5.00869 	 -17.1797 	 89.2634 	 
C 	 -3.75728 	 -16.591 	 86.7018 	 
H 	 -3.0798 	 -16.73 	 85.8487 	 
H 	 -3.31812 	 -15.7114 	 87.281 	 
C 	 -5.05423 	 -16.1103 	 86.1571 	 
H 	 -5.65646 	 -15.8504 	 87.0257 	 
H 	 -5.4632 	 -16.785 	 85.4373 	 
C 	 -4.73533 	 -14.8467 	 85.3302 	 
H 	 -4.67027 	 -14.0162 	 85.9857 	 
H 	 -5.5401 	 -14.5513 	 84.6606 	 
H 	 -3.76207 	 -14.9151 	 84.8084 	 
H 	 -1.09051 	 -21.938 	 83.6574 	 
H 	 -5.02125 	 -19.524 	 90.2867 	 
*
