! wB97X-D3 SP def2-SVP
%pal
nprocs 16
end

* xyz 0 1
S 	 -3.38794 	 20.2054 	 54.8053 	 
C 	 -2.90011 	 19.3311 	 53.3596 	 
C 	 -1.63632 	 19.5452 	 52.9373 	 
C 	 -0.97389 	 20.4977 	 53.819 	 
C 	 -1.8284 	 20.9944 	 54.8174 	 
H 	 0.0192658 	 20.8372 	 53.7016 	 
C 	 -0.951258 	 18.7845 	 51.8358 	 
H 	 -1.8474 	 18.2274 	 51.384 	 
H 	 -0.270734 	 18.0281 	 52.1799 	 
C 	 -0.053431 	 19.523 	 50.8288 	 
H 	 -0.435722 	 20.4956 	 50.5879 	 
H 	 0.918714 	 19.7631 	 51.2929 	 
C 	 0.213378 	 18.691 	 49.5688 	 
H 	 0.44138 	 17.599 	 49.7426 	 
H 	 -0.646967 	 18.7973 	 48.8629 	 
H 	 1.01949 	 19.1813 	 49.1072 	 
S 	 -1.76515 	 21.0659 	 57.4553 	 
C 	 -0.730545 	 22.1503 	 58.292 	 
C 	 -0.245839 	 23.0912 	 57.4579 	 
C 	 -0.644577 	 22.9261 	 56.1052 	 
C 	 -1.30627 	 21.7475 	 55.9633 	 
H 	 0.304933 	 23.8725 	 57.8351 	 
C 	 -0.356221 	 23.9026 	 54.9183 	 
H 	 -1.009 	 24.7149 	 54.9229 	 
H 	 -0.776889 	 23.3977 	 54.0177 	 
C 	 1.1969 	 24.2247 	 54.5606 	 
H 	 1.93435 	 23.7133 	 55.1666 	 
H 	 1.29823 	 25.259 	 54.7135 	 
C 	 1.63341 	 23.8066 	 53.1253 	 
H 	 1.9733 	 22.733 	 53.1345 	 
H 	 2.52145 	 24.4036 	 52.8398 	 
H 	 0.920278 	 24.0649 	 52.3087 	 
H 	 -3.61166 	 18.627 	 52.9095 	 
H 	 -0.543897 	 22.2296 	 59.2834 	 
*
