! wB97X-D3 SP def2-SVP
%pal
nprocs 16
end

* xyz 0 1
S 	 57.0369 	 4.38643 	 78.4661 	 
C 	 55.5213 	 3.96337 	 77.7075 	 
C 	 54.6961 	 3.20425 	 78.5638 	 
C 	 55.3717 	 2.93213 	 79.7997 	 
C 	 56.6014 	 3.54371 	 79.9265 	 
H 	 54.9738 	 2.29476 	 80.5624 	 
C 	 53.4019 	 2.61401 	 78.1298 	 
H 	 52.8928 	 3.25592 	 77.3849 	 
H 	 52.7918 	 2.59269 	 79.0613 	 
C 	 53.2816 	 1.10523 	 77.6513 	 
H 	 52.288 	 0.722055 	 77.7204 	 
H 	 53.7194 	 0.927842 	 76.5579 	 
C 	 54.031 	 0.151337 	 78.6211 	 
H 	 53.8854 	 -0.896681 	 78.1922 	 
H 	 55.0736 	 0.481353 	 78.6329 	 
H 	 53.6481 	 0.124885 	 79.6308 	 
S 	 57.7495 	 5.07374 	 81.9835 	 
C 	 58.8089 	 4.3556 	 83.1138 	 
C 	 58.7711 	 2.96805 	 83.0445 	 
C 	 58.1004 	 2.54384 	 81.8948 	 
C 	 57.4877 	 3.57085 	 81.1157 	 
H 	 59.2749 	 2.41917 	 83.8795 	 
C 	 57.8954 	 1.09126 	 81.7523 	 
H 	 58.8383 	 0.533726 	 81.8799 	 
H 	 57.6239 	 0.916587 	 80.6609 	 
C 	 56.8424 	 0.599606 	 82.7765 	 
H 	 55.9232 	 1.21343 	 82.8517 	 
H 	 57.2179 	 0.815651 	 83.778 	 
C 	 56.6231 	 -0.914629 	 82.5405 	 
H 	 56.2014 	 -1.23415 	 81.5999 	 
H 	 56.0837 	 -1.33969 	 83.4027 	 
H 	 57.5634 	 -1.51148 	 82.5341 	 
H 	 55.2288 	 4.23802 	 76.7182 	 
H 	 59.3005 	 4.88262 	 83.9318 	 
*
