! wB97X-D3 SP def2-SVP
%pal
nprocs 16
end

* xyz 0 1
S 	 -54.7164 	 33.4589 	 90.2119 	 
C 	 -55.9658 	 32.3853 	 89.5795 	 
C 	 -56.5585 	 32.9194 	 88.4837 	 
C 	 -55.8597 	 34.0624 	 88.0299 	 
C 	 -54.8663 	 34.5705 	 88.8864 	 
H 	 -56.0635 	 34.6765 	 87.1573 	 
C 	 -57.7542 	 32.2736 	 87.8442 	 
H 	 -57.403 	 31.311 	 87.487 	 
H 	 -57.8963 	 32.8008 	 86.8734 	 
C 	 -59.0763 	 32.3924 	 88.5823 	 
H 	 -59.055 	 33.3519 	 88.9487 	 
H 	 -59.8563 	 32.3728 	 87.8147 	 
C 	 -59.3498 	 31.4741 	 89.7685 	 
H 	 -58.6367 	 31.3658 	 90.5402 	 
H 	 -60.3105 	 31.6747 	 90.3329 	 
H 	 -59.2959 	 30.3902 	 89.3691 	 
S 	 -52.261 	 35.6164 	 89.1074 	 
C 	 -52.0133 	 37.2036 	 88.4085 	 
C 	 -53.1644 	 37.8911 	 88.1349 	 
C 	 -54.335 	 37.103 	 88.3663 	 
C 	 -54.0412 	 35.7865 	 88.7081 	 
H 	 -53.1144 	 38.8775 	 87.8111 	 
C 	 -55.7692 	 37.7555 	 88.2394 	 
H 	 -55.7997 	 38.6127 	 88.9264 	 
H 	 -56.5737 	 37.0409 	 88.6522 	 
C 	 -56.104 	 38.156 	 86.7502 	 
H 	 -55.8725 	 37.3537 	 86.0854 	 
H 	 -55.5453 	 39.0236 	 86.3475 	 
C 	 -57.5353 	 38.5703 	 86.461 	 
H 	 -57.6877 	 39.0127 	 85.5314 	 
H 	 -57.9997 	 39.2395 	 87.1701 	 
H 	 -58.2718 	 37.7562 	 86.5045 	 
H 	 -56.336 	 31.5161 	 90.0588 	 
H 	 -51.1135 	 37.6318 	 88.1266 	 
*
