! wB97X-D3 SP def2-SVP
%pal
nprocs 16
end

* xyz 0 1
S 	 -52.9435 	 39.4239 	 108.841 	 
C 	 -51.2046 	 39.5895 	 108.605 	 
C 	 -50.5623 	 38.6385 	 109.385 	 
C 	 -51.4133 	 37.7299 	 110.08 	 
C 	 -52.7192 	 37.9624 	 109.792 	 
H 	 -51.2039 	 36.8821 	 110.79 	 
C 	 -49.0785 	 38.7465 	 109.772 	 
H 	 -48.9176 	 37.9259 	 110.496 	 
H 	 -49.0179 	 39.6654 	 110.281 	 
C 	 -48.0552 	 38.7903 	 108.565 	 
H 	 -48.3365 	 38.0335 	 107.807 	 
H 	 -48.1322 	 39.7508 	 108.081 	 
C 	 -46.6922 	 38.3316 	 109.095 	 
H 	 -45.9146 	 38.6642 	 108.435 	 
H 	 -46.5655 	 38.6202 	 110.136 	 
H 	 -46.7153 	 37.2196 	 109.114 	 
S 	 -54.08 	 37.9018 	 112.197 	 
C 	 -55.2161 	 36.5335 	 112.565 	 
C 	 -55.1381 	 35.6598 	 111.514 	 
C 	 -54.2057 	 35.9822 	 110.492 	 
C 	 -53.7127 	 37.2674 	 110.591 	 
H 	 -55.7313 	 34.7157 	 111.705 	 
C 	 -53.9023 	 35.1555 	 109.299 	 
H 	 -52.8237 	 35.2877 	 109.175 	 
H 	 -54.3179 	 35.58 	 108.379 	 
C 	 -54.2914 	 33.7026 	 109.392 	 
H 	 -54.3606 	 33.2845 	 108.365 	 
H 	 -55.2927 	 33.6077 	 109.796 	 
C 	 -53.2946 	 32.7663 	 110.137 	 
H 	 -52.3332 	 32.849 	 109.707 	 
H 	 -53.5122 	 31.7105 	 110.033 	 
H 	 -53.4312 	 32.9553 	 111.265 	 
H 	 -50.6617 	 40.45 	 108.103 	 
H 	 -55.78 	 36.3871 	 113.49 	 
*
