! wB97X-D3 SP def2-SVP
%pal
nprocs 16
end

* xyz 0 1
S 	 6.61706 	 -12.3437 	 64.9998 	 
C 	 7.16817 	 -12.7082 	 66.611 	 
C 	 7.11622 	 -14.0386 	 66.8624 	 
C 	 6.67933 	 -14.7915 	 65.7629 	 
C 	 6.23076 	 -13.9796 	 64.6861 	 
H 	 6.62127 	 -15.9217 	 65.6437 	 
C 	 7.46987 	 -14.6815 	 68.241 	 
H 	 7.25143 	 -15.7372 	 68.1116 	 
H 	 6.78207 	 -14.2063 	 68.9324 	 
C 	 8.85358 	 -14.4918 	 68.8237 	 
H 	 9.32015 	 -13.4726 	 68.8487 	 
H 	 8.91745 	 -14.8286 	 69.8624 	 
C 	 9.92985 	 -15.2317 	 67.9753 	 
H 	 10.8896 	 -15.185 	 68.4678 	 
H 	 9.67887 	 -16.3191 	 67.6917 	 
H 	 9.97182 	 -14.8138 	 67.0075 	 
S 	 7.31093 	 -15.4777 	 62.6453 	 
C 	 6.57003 	 -15.5093 	 61.0805 	 
C 	 5.29731 	 -15.0094 	 61.1477 	 
C 	 4.98905 	 -14.3375 	 62.3989 	 
C 	 5.96747 	 -14.535 	 63.3433 	 
H 	 4.57191 	 -15.0547 	 60.3204 	 
C 	 3.67247 	 -13.7403 	 62.7791 	 
H 	 3.83464 	 -12.7216 	 62.7916 	 
H 	 3.54387 	 -14.0842 	 63.7453 	 
C 	 2.44906 	 -14.1485 	 61.9427 	 
H 	 2.39356 	 -15.2163 	 62.1253 	 
H 	 2.61119 	 -13.8748 	 60.8503 	 
C 	 1.23965 	 -13.374 	 62.426 	 
H 	 1.12607 	 -13.5128 	 63.5247 	 
H 	 0.268417 	 -13.6631 	 62.0136 	 
H 	 1.35925 	 -12.3454 	 62.2175 	 
H 	 7.53117 	 -11.9783 	 67.3192 	 
H 	 6.94596 	 -16.1596 	 60.2994 	 
*
