! wB97X-D3 SP def2-SVP
%pal
nprocs 16
end

* xyz 0 1
S 	 -66.5857 	 35.6915 	 142.872 	 
C 	 -67.4275 	 35.6982 	 141.341 	 
C 	 -66.8158 	 34.9251 	 140.37 	 
C 	 -65.5928 	 34.3614 	 140.814 	 
C 	 -65.2375 	 34.7627 	 142.134 	 
H 	 -65.0563 	 33.6206 	 140.322 	 
C 	 -67.4645 	 34.6963 	 139.001 	 
H 	 -67.875 	 35.6489 	 138.688 	 
H 	 -68.2786 	 33.9192 	 139.105 	 
C 	 -66.6773 	 34.1355 	 137.794 	 
H 	 -66.2318 	 33.1237 	 137.886 	 
H 	 -67.3966 	 34.2299 	 136.991 	 
C 	 -65.5344 	 34.9938 	 137.265 	 
H 	 -64.7905 	 35.0618 	 138.116 	 
H 	 -65.1376 	 34.6604 	 136.375 	 
H 	 -65.9542 	 36.0191 	 137.144 	 
S 	 -64.603 	 33.6416 	 144.528 	 
C 	 -62.9361 	 33.6126 	 145.065 	 
C 	 -62.088 	 33.9345 	 144.008 	 
C 	 -62.7891 	 34.3417 	 142.829 	 
C 	 -64.1561 	 34.2589 	 142.901 	 
H 	 -61.0303 	 33.8078 	 144.23 	 
C 	 -62.0658 	 34.9235 	 141.639 	 
H 	 -62.8457 	 35.4459 	 140.956 	 
H 	 -61.5863 	 34.0933 	 141.058 	 
C 	 -61.1806 	 36.1913 	 141.953 	 
H 	 -60.7123 	 36.4586 	 141.008 	 
H 	 -60.487 	 36.0059 	 142.776 	 
C 	 -61.9661 	 37.4556 	 142.133 	 
H 	 -61.2359 	 38.2171 	 142.436 	 
H 	 -62.6596 	 37.4242 	 142.935 	 
H 	 -62.4452 	 37.9744 	 141.251 	 
H 	 -68.3918 	 36.1635 	 141.202 	 
H 	 -62.5934 	 33.2554 	 145.993 	 
*
