! wB97X-D3 SP def2-SVP
%pal
nprocs 16
end

* xyz 0 1
S 	 -28.2275 	 30.1877 	 37.9134 	 
C 	 -27.7742 	 31.4292 	 36.7644 	 
C 	 -27.2015 	 32.4307 	 37.4892 	 
C 	 -27.3455 	 32.345 	 38.9062 	 
C 	 -27.8671 	 31.135 	 39.3259 	 
H 	 -27.0467 	 32.9964 	 39.6436 	 
C 	 -26.6579 	 33.6389 	 36.8043 	 
H 	 -26.2558 	 33.4205 	 35.7881 	 
H 	 -25.6887 	 33.9445 	 37.2087 	 
C 	 -27.5487 	 34.9385 	 36.8665 	 
H 	 -27.0117 	 35.6405 	 36.2623 	 
H 	 -28.5327 	 34.7158 	 36.329 	 
C 	 -27.795 	 35.5 	 38.2657 	 
H 	 -28.28 	 36.5084 	 38.2294 	 
H 	 -28.4629 	 34.8011 	 38.815 	 
H 	 -26.9124 	 35.6132 	 38.8943 	 
S 	 -27.3793 	 29.4976 	 41.3546 	 
C 	 -28.3222 	 29.6446 	 42.8202 	 
C 	 -29.3863 	 30.4596 	 42.6658 	 
C 	 -29.2521 	 31.2516 	 41.483 	 
C 	 -28.275 	 30.7643 	 40.6321 	 
H 	 -30.161 	 30.5248 	 43.3897 	 
C 	 -30.1576 	 32.3618 	 41.1371 	 
H 	 -31.1185 	 31.947 	 41.0994 	 
H 	 -29.864 	 32.8457 	 40.2022 	 
C 	 -30.2763 	 33.4491 	 42.2055 	 
H 	 -31.0237 	 33.179 	 42.9958 	 
H 	 -30.7196 	 34.2586 	 41.6253 	 
C 	 -29.0326 	 33.8796 	 42.9097 	 
H 	 -28.6351 	 33.2508 	 43.7653 	 
H 	 -29.199 	 34.9052 	 43.2752 	 
H 	 -28.1815 	 34.008 	 42.2234 	 
H 	 -27.7031 	 31.397 	 35.6654 	 
H 	 -28.185 	 29.022 	 43.691 	 
*
