! wB97X-D3 SP def2-SVP
%pal
nprocs 16
end

* xyz 0 1
S 	 -42.694 	 49.7665 	 104.549 	 
C 	 -42.3896 	 49.0391 	 102.933 	 
C 	 -41.6179 	 49.8873 	 102.162 	 
C 	 -41.0229 	 50.9124 	 102.921 	 
C 	 -41.5791 	 51.07 	 104.2 	 
H 	 -40.3202 	 51.5997 	 102.455 	 
C 	 -41.1448 	 49.6224 	 100.783 	 
H 	 -41.5134 	 48.6252 	 100.515 	 
H 	 -40.1045 	 49.5173 	 100.837 	 
C 	 -41.5045 	 50.63 	 99.7689 	 
H 	 -41.1886 	 51.6726 	 100.059 	 
H 	 -40.879 	 50.3253 	 98.8871 	 
C 	 -43.0952 	 50.5093 	 99.4962 	 
H 	 -43.3253 	 49.481 	 99.2644 	 
H 	 -43.7597 	 50.7372 	 100.354 	 
H 	 -43.3619 	 51.2482 	 98.7372 	 
S 	 -40.6769 	 51.4006 	 106.78 	 
C 	 -40.1283 	 52.9106 	 107.316 	 
C 	 -40.2696 	 53.8143 	 106.301 	 
C 	 -40.9872 	 53.385 	 105.146 	 
C 	 -41.2083 	 52.0083 	 105.23 	 
H 	 -39.8501 	 54.8483 	 106.386 	 
C 	 -41.2166 	 54.2492 	 103.935 	 
H 	 -40.6975 	 53.8733 	 103.079 	 
H 	 -40.9249 	 55.2665 	 104.224 	 
C 	 -42.624 	 54.3752 	 103.455 	 
H 	 -42.8486 	 53.3201 	 103.359 	 
H 	 -42.5345 	 54.7762 	 102.414 	 
C 	 -43.6744 	 55.0546 	 104.318 	 
H 	 -43.4572 	 56.0991 	 104.601 	 
H 	 -43.6938 	 54.6131 	 105.278 	 
H 	 -44.6427 	 54.874 	 103.864 	 
H 	 -42.8 	 48.161 	 102.495 	 
H 	 -39.5443 	 53.1293 	 108.238 	 
*
