! wB97X-D3 SP def2-SVP
%pal
nprocs 16
end

* xyz 0 1
S 	 -38.023 	 28.4455 	 82.5534 	 
C 	 -38.7763 	 27.314 	 81.4548 	 
C 	 -37.9575 	 26.1695 	 81.2929 	 
C 	 -36.7969 	 26.2146 	 82.1434 	 
C 	 -36.7397 	 27.266 	 83.0068 	 
H 	 -36.0126 	 25.4453 	 82.207 	 
C 	 -38.3539 	 25.0384 	 80.4705 	 
H 	 -37.6439 	 24.904 	 79.6227 	 
H 	 -39.3176 	 25.3702 	 79.9888 	 
C 	 -38.6048 	 23.78 	 81.3314 	 
H 	 -37.95 	 23.0289 	 80.9794 	 
H 	 -38.3724 	 24.1012 	 82.3294 	 
C 	 -40.0246 	 23.3028 	 81.2467 	 
H 	 -40.6606 	 24.1031 	 81.4946 	 
H 	 -40.2511 	 22.9161 	 80.2258 	 
H 	 -40.3027 	 22.4749 	 81.9081 	 
S 	 -36.5611 	 27.6636 	 85.5814 	 
C 	 -34.967 	 27.8817 	 86.2833 	 
C 	 -33.9398 	 28.0157 	 85.336 	 
C 	 -34.446 	 27.8103 	 84.0255 	 
C 	 -35.7932 	 27.5433 	 84.0173 	 
H 	 -32.9093 	 28.2407 	 85.721 	 
C 	 -33.6217 	 27.852 	 82.7858 	 
H 	 -33.801 	 26.9373 	 82.2716 	 
H 	 -32.578 	 27.9826 	 83.0877 	 
C 	 -34.1106 	 28.9353 	 81.7861 	 
H 	 -35.1763 	 28.6806 	 81.5233 	 
H 	 -33.5055 	 28.703 	 80.8769 	 
C 	 -33.8525 	 30.4081 	 82.1396 	 
H 	 -34.5385 	 31.0916 	 81.6753 	 
H 	 -32.8147 	 30.6782 	 82.0434 	 
H 	 -34.0899 	 30.5965 	 83.1355 	 
H 	 -39.6236 	 27.7037 	 80.9119 	 
H 	 -34.8213 	 28.0923 	 87.3155 	 
*
