! wB97X-D3 SP def2-SVP
%pal
nprocs 16
end

* xyz 0 1
S 	 21.7399 	 -8.50346 	 81.2887 	 
C 	 20.8903 	 -7.02196 	 81.7906 	 
C 	 19.5279 	 -7.03608 	 81.4925 	 
C 	 19.1713 	 -8.30614 	 80.961 	 
C 	 20.216 	 -9.17154 	 80.7183 	 
H 	 18.1737 	 -8.63172 	 80.7824 	 
C 	 18.4936 	 -6.04687 	 81.9017 	 
H 	 19.0678 	 -5.17592 	 82.1703 	 
H 	 17.9898 	 -6.52121 	 82.7611 	 
C 	 17.4513 	 -5.72954 	 80.8613 	 
H 	 18.0336 	 -5.29216 	 80.029 	 
H 	 17.0116 	 -6.62398 	 80.4967 	 
C 	 16.4305 	 -4.78596 	 81.3815 	 
H 	 15.8234 	 -4.44609 	 80.526 	 
H 	 15.8559 	 -5.24693 	 82.1261 	 
H 	 16.7807 	 -3.85096 	 81.818 	 
S 	 20.1994 	 -11.8178 	 81.5586 	 
C 	 19.8077 	 -13.0202 	 80.4141 	 
C 	 19.7416 	 -12.5807 	 79.1377 	 
C 	 19.8726 	 -11.1317 	 78.9991 	 
C 	 20.0562 	 -10.5692 	 80.2745 	 
H 	 19.7712 	 -13.214 	 78.261 	 
C 	 19.9147 	 -10.4582 	 77.6321 	 
H 	 20.1907 	 -11.3011 	 76.9899 	 
H 	 20.7799 	 -9.77772 	 77.5726 	 
C 	 18.611 	 -9.86781 	 77.2023 	 
H 	 18.7083 	 -9.35515 	 76.2474 	 
H 	 18.4768 	 -9.10462 	 77.9451 	 
C 	 17.3686 	 -10.8347 	 77.2736 	 
H 	 17.234 	 -11.2813 	 78.1987 	 
H 	 17.4903 	 -11.5997 	 76.498 	 
H 	 16.4058 	 -10.4443 	 76.9525 	 
H 	 21.4335 	 -6.17201 	 82.3206 	 
H 	 19.9036 	 -14.0384 	 80.6291 	 
*
