! wB97X-D3 SP def2-SVP
%pal
nprocs 16
end

* xyz 0 1
S 	 -38.418 	 26.2439 	 76.5067 	 
C 	 -37.256 	 26.429 	 75.2397 	 
C 	 -36.4146 	 27.4488 	 75.554 	 
C 	 -36.6542 	 28.0093 	 76.8864 	 
C 	 -37.6582 	 27.3683 	 77.5802 	 
H 	 -36.1488 	 28.7592 	 77.419 	 
C 	 -35.428 	 28.0283 	 74.6382 	 
H 	 -34.9749 	 27.1579 	 74.1955 	 
H 	 -34.6549 	 28.4993 	 75.2037 	 
C 	 -35.941 	 28.8853 	 73.5417 	 
H 	 -36.1951 	 28.1794 	 72.7223 	 
H 	 -36.9271 	 29.3111 	 73.8768 	 
C 	 -35.1167 	 29.9578 	 72.8651 	 
H 	 -34.7404 	 30.6061 	 73.6691 	 
H 	 -34.3011 	 29.4199 	 72.3598 	 
H 	 -35.665 	 30.5688 	 72.1529 	 
S 	 -38.3893 	 26.1819 	 79.9401 	 
C 	 -39.11 	 27.1692 	 81.1815 	 
C 	 -39.1241 	 28.5062 	 80.8854 	 
C 	 -38.4999 	 28.7497 	 79.6244 	 
C 	 -38.1839 	 27.6061 	 78.9067 	 
H 	 -39.6141 	 29.2227 	 81.4371 	 
C 	 -38.4166 	 30.1742 	 79.0668 	 
H 	 -39.3361 	 30.6569 	 79.1359 	 
H 	 -38.3961 	 30.1422 	 77.9482 	 
C 	 -37.3833 	 31.1913 	 79.5979 	 
H 	 -37.548 	 31.4922 	 80.5719 	 
H 	 -37.645 	 32.095 	 79.0478 	 
C 	 -35.9452 	 30.8206 	 79.4135 	 
H 	 -35.6834 	 30.8158 	 78.3465 	 
H 	 -35.6693 	 29.8588 	 79.9367 	 
H 	 -35.361 	 31.5742 	 79.8399 	 
H 	 -37.2193 	 25.982 	 74.2999 	 
H 	 -39.5148 	 26.9032 	 82.1689 	 
*
