! wB97X-D3 SP def2-SVP
%pal
nprocs 16
end

* xyz 0 1
S 	 39.5744 	 13.1185 	 70.3415 	 
C 	 37.9136 	 12.7592 	 70.2596 	 
C 	 37.2574 	 13.6409 	 69.4848 	 
C 	 38.1396 	 14.5574 	 68.85 	 
C 	 39.4113 	 14.5141 	 69.2517 	 
H 	 37.7912 	 15.2561 	 68.1329 	 
C 	 35.7326 	 13.6817 	 69.3065 	 
H 	 35.56 	 14.631 	 68.8485 	 
H 	 35.2462 	 13.8129 	 70.3631 	 
C 	 35.1363 	 12.6179 	 68.4207 	 
H 	 35.8461 	 12.3467 	 67.6481 	 
H 	 34.925 	 11.7846 	 68.981 	 
C 	 33.8489 	 13.0745 	 67.8 	 
H 	 33.6863 	 12.4675 	 66.8452 	 
H 	 32.9875 	 12.9924 	 68.5063 	 
H 	 33.8918 	 14.1379 	 67.5144 	 
S 	 40.4133 	 16.0347 	 67.0603 	 
C 	 42.1491 	 16.4937 	 67.1236 	 
C 	 42.5557 	 16.5251 	 68.4652 	 
C 	 41.6951 	 15.7828 	 69.3156 	 
C 	 40.5112 	 15.3899 	 68.6988 	 
H 	 43.5056 	 16.928 	 68.7831 	 
C 	 42.1652 	 15.4492 	 70.76 	 
H 	 43.2326 	 15.7393 	 70.9458 	 
H 	 42.056 	 14.3407 	 70.9021 	 
C 	 41.486 	 16.2902 	 71.8966 	 
H 	 40.449 	 16.1343 	 71.7702 	 
H 	 41.6391 	 17.3664 	 71.6968 	 
C 	 41.9174 	 15.8911 	 73.3616 	 
H 	 41.6031 	 16.6822 	 74.0694 	 
H 	 42.9476 	 15.9201 	 73.3612 	 
H 	 41.5284 	 14.9246 	 73.6959 	 
H 	 37.3295 	 11.9099 	 70.6701 	 
H 	 42.6312 	 17.0333 	 66.3297 	 
*
