! wB97X-D3 SP def2-SVP
%pal
nprocs 16
end

* xyz 0 1
S 	 47.6705 	 3.05644 	 87.9392 	 
C 	 46.8059 	 4.21762 	 87.0027 	 
C 	 45.514 	 4.35987 	 87.3363 	 
C 	 45.2295 	 3.54321 	 88.4549 	 
C 	 46.2917 	 2.71725 	 88.8669 	 
H 	 44.3418 	 3.64059 	 89.0966 	 
C 	 44.5134 	 5.41111 	 86.7987 	 
H 	 45.1694 	 6.20664 	 86.5348 	 
H 	 43.8789 	 5.74638 	 87.6441 	 
C 	 43.7115 	 5.00351 	 85.597 	 
H 	 44.388 	 4.45064 	 84.9278 	 
H 	 43.0348 	 4.28072 	 86.0002 	 
C 	 43.1086 	 6.23948 	 84.894 	 
H 	 43.874 	 6.96578 	 84.6979 	 
H 	 42.4061 	 6.00053 	 84.0415 	 
H 	 42.5062 	 6.67923 	 85.6432 	 
S 	 45.0819 	 1.86897 	 91.1525 	 
C 	 45.446 	 0.312037 	 91.88 	 
C 	 46.6103 	 -0.189578 	 91.2996 	 
C 	 47.0726 	 0.541372 	 90.1353 	 
C 	 46.2302 	 1.63321 	 89.8792 	 
H 	 47.0493 	 -1.1146 	 91.6799 	 
C 	 48.1968 	 0.0843172 	 89.2837 	 
H 	 48.0516 	 0.489502 	 88.2956 	 
H 	 48.033 	 -0.98037 	 89.3841 	 
C 	 49.57 	 0.497901 	 89.7732 	 
H 	 49.6677 	 -0.139938 	 90.608 	 
H 	 49.5499 	 1.49637 	 90.2301 	 
C 	 50.6069 	 0.273479 	 88.7457 	 
H 	 50.5242 	 -0.765353 	 88.3467 	 
H 	 51.5972 	 0.205727 	 89.1947 	 
H 	 50.6033 	 0.971448 	 87.8826 	 
H 	 47.371 	 4.81454 	 86.3423 	 
H 	 45.1127 	 -0.13585 	 92.7779 	 
*
