! wB97X-D3 SP def2-SVP
%pal
nprocs 16
end

* xyz 0 1
S 	 0.152472 	 -1.99551 	 78.4019 	 
C 	 -1.37765 	 -2.51816 	 79.0988 	 
C 	 -1.9918 	 -1.56187 	 79.8735 	 
C 	 -1.13314 	 -0.420279 	 79.9366 	 
C 	 0.00973462 	 -0.410306 	 79.2383 	 
H 	 -1.35173 	 0.434549 	 80.4998 	 
C 	 -3.26659 	 -1.73647 	 80.6659 	 
H 	 -3.15852 	 -1.28063 	 81.6878 	 
H 	 -3.34445 	 -2.78373 	 80.9594 	 
C 	 -4.64998 	 -1.19518 	 80.0959 	 
H 	 -5.36586 	 -1.57431 	 80.8272 	 
H 	 -4.68301 	 -0.0636186 	 80.0997 	 
C 	 -5.17842 	 -1.83127 	 78.78 	 
H 	 -6.14875 	 -1.44749 	 78.5369 	 
H 	 -4.39583 	 -1.59224 	 77.9875 	 
H 	 -5.19804 	 -2.90734 	 78.9124 	 
S 	 2.40451 	 0.0704917 	 80.2296 	 
C 	 3.24903 	 1.56936 	 79.961 	 
C 	 2.40331 	 2.44339 	 79.3056 	 
C 	 1.16189 	 1.91411 	 78.8586 	 
C 	 1.07258 	 0.597873 	 79.2739 	 
H 	 2.7614 	 3.51238 	 79.0864 	 
C 	 0.0961906 	 2.67652 	 78.0218 	 
H 	 -0.792245 	 2.06619 	 78.0163 	 
H 	 0.494447 	 2.63907 	 76.9632 	 
C 	 -0.284553 	 4.10981 	 78.4792 	 
H 	 -1.17662 	 4.38341 	 77.9074 	 
H 	 0.461773 	 4.8566 	 78.2173 	 
C 	 -0.649866 	 4.24403 	 79.9413 	 
H 	 0.11133 	 3.85184 	 80.5804 	 
H 	 -1.57246 	 3.66199 	 80.189 	 
H 	 -0.652109 	 5.2635 	 80.2209 	 
H 	 -1.81073 	 -3.40761 	 78.8993 	 
H 	 4.23363 	 1.83421 	 80.41 	 
*
