! wB97X-D3 SP def2-SVP
%pal
nprocs 16
end

* xyz 0 1
S 	 50.4587 	 7.74935 	 95.2025 	 
C 	 50.527 	 8.71602 	 93.7206 	 
C 	 49.533 	 8.3375 	 92.8252 	 
C 	 48.7401 	 7.25578 	 93.3404 	 
C 	 49.1316 	 6.74389 	 94.5698 	 
H 	 47.8463 	 6.86736 	 92.8514 	 
C 	 49.2397 	 9.11646 	 91.5221 	 
H 	 48.644 	 8.42669 	 90.9285 	 
H 	 50.1175 	 9.29382 	 90.9096 	 
C 	 48.4752 	 10.4847 	 91.7669 	 
H 	 47.5084 	 10.3348 	 92.2468 	 
H 	 49.0294 	 10.9874 	 92.4703 	 
C 	 48.2551 	 11.3365 	 90.5117 	 
H 	 47.3529 	 10.9937 	 90.0245 	 
H 	 48.1118 	 12.3203 	 90.9289 	 
H 	 49.0914 	 11.4559 	 89.8703 	 
S 	 48.4701 	 4.18411 	 94.3261 	 
C 	 47.7381 	 3.35263 	 95.6269 	 
C 	 47.6535 	 4.07669 	 96.7898 	 
C 	 48.1537 	 5.44302 	 96.6018 	 
C 	 48.4846 	 5.66065 	 95.2532 	 
H 	 47.1123 	 3.64241 	 97.5821 	 
C 	 48.1051 	 6.50777 	 97.7786 	 
H 	 47.3198 	 7.20191 	 97.5284 	 
H 	 49.0385 	 7.11944 	 97.871 	 
C 	 47.7387 	 6.01129 	 99.242 	 
H 	 46.8165 	 5.58032 	 99.2454 	 
H 	 47.5899 	 6.89254 	 99.8597 	 
C 	 48.7981 	 5.12638 	 99.9466 	 
H 	 48.4635 	 4.86521 	 100.96 	 
H 	 49.7575 	 5.60752 	 100.03 	 
H 	 48.9544 	 4.224 	 99.3942 	 
H 	 51.0974 	 9.57267 	 93.7118 	 
H 	 47.4022 	 2.29477 	 95.5301 	 
*
