! wB97X-D3 SP def2-SVP
%pal
nprocs 16
end

* xyz 0 1
S 	 -108.293 	 43.9363 	 128.416 	 
C 	 -107.556 	 44.6374 	 129.765 	 
C 	 -106.635 	 45.5662 	 129.384 	 
C 	 -106.351 	 45.4686 	 127.939 	 
C 	 -107.05 	 44.514 	 127.249 	 
H 	 -105.675 	 46.1029 	 127.407 	 
C 	 -105.94 	 46.6164 	 130.215 	 
H 	 -106.623 	 47.4671 	 130.176 	 
H 	 -104.993 	 46.8285 	 129.752 	 
C 	 -105.516 	 46.0701 	 131.613 	 
H 	 -106.285 	 45.8188 	 132.307 	 
H 	 -105.01 	 45.0815 	 131.369 	 
C 	 -104.437 	 46.9244 	 132.356 	 
H 	 -104.838 	 47.8692 	 132.738 	 
H 	 -103.961 	 46.4196 	 133.206 	 
H 	 -103.741 	 47.3348 	 131.629 	 
S 	 -106.83 	 42.5627 	 125.245 	 
C 	 -107.296 	 43.0099 	 123.66 	 
C 	 -107.556 	 44.3894 	 123.55 	 
C 	 -107.335 	 45.1067 	 124.742 	 
C 	 -107.075 	 44.2664 	 125.807 	 
H 	 -107.922 	 44.7485 	 122.594 	 
C 	 -107.642 	 46.5729 	 124.761 	 
H 	 -106.72 	 47.0235 	 124.448 	 
H 	 -107.925 	 46.8703 	 125.796 	 
C 	 -108.708 	 47.1636 	 123.846 	 
H 	 -109.553 	 46.4686 	 123.768 	 
H 	 -108.456 	 47.0297 	 122.826 	 
C 	 -109.074 	 48.6449 	 124.15 	 
H 	 -109.92 	 48.802 	 123.52 	 
H 	 -108.342 	 49.3807 	 123.868 	 
H 	 -109.509 	 48.8038 	 125.125 	 
H 	 -107.901 	 44.6181 	 130.798 	 
H 	 -107.414 	 42.2397 	 122.904 	 
*
