! wB97X-D3 SP def2-SVP
%pal
nprocs 16
end

* xyz 0 1
S 	 -11.3273 	 -11.6658 	 85.671 	 
C 	 -12.7596 	 -12.4921 	 86.1236 	 
C 	 -13.8253 	 -11.6479 	 86.2015 	 
C 	 -13.5535 	 -10.3283 	 85.8753 	 
C 	 -12.2116 	 -10.1322 	 85.565 	 
H 	 -14.2203 	 -9.52265 	 85.877 	 
C 	 -15.226 	 -12.2029 	 86.5298 	 
H 	 -15.9054 	 -11.3707 	 86.7305 	 
H 	 -15.2023 	 -12.8959 	 87.3266 	 
C 	 -15.9929 	 -12.7448 	 85.3156 	 
H 	 -15.8994 	 -12.1291 	 84.3599 	 
H 	 -15.5538 	 -13.6579 	 85.159 	 
C 	 -17.4503 	 -12.9696 	 85.6895 	 
H 	 -17.4091 	 -13.7365 	 86.4067 	 
H 	 -17.9891 	 -12.1387 	 86.1387 	 
H 	 -18.1973 	 -13.4489 	 84.9643 	 
S 	 -10.6283 	 -8.74036 	 83.8279 	 
C 	 -10.5772 	 -6.99538 	 83.8258 	 
C 	 -11.0663 	 -6.5047 	 85.0019 	 
C 	 -11.6349 	 -7.53868 	 85.7785 	 
C 	 -11.6007 	 -8.84613 	 85.2461 	 
H 	 -11.0234 	 -5.41744 	 85.2135 	 
C 	 -12.1822 	 -7.31461 	 87.1375 	 
H 	 -11.2731 	 -7.02433 	 87.8279 	 
H 	 -12.5514 	 -8.30045 	 87.4682 	 
C 	 -13.309 	 -6.2156 	 87.3334 	 
H 	 -14.0958 	 -6.38987 	 86.6152 	 
H 	 -12.8701 	 -5.2123 	 87.2816 	 
C 	 -13.8839 	 -6.25077 	 88.7224 	 
H 	 -14.8333 	 -5.61673 	 88.6379 	 
H 	 -13.1226 	 -5.99391 	 89.4717 	 
H 	 -14.3392 	 -7.17992 	 89.033 	 
H 	 -12.8442 	 -13.524 	 86.2551 	 
H 	 -9.98935 	 -6.36552 	 83.1432 	 
*
