! wB97X-D3 SP def2-SVP
%pal
nprocs 16
end

* xyz 0 1
S 	 -8.32015 	 39.7638 	 37.4868 	 
C 	 -7.71386 	 38.2976 	 36.6665 	 
C 	 -7.16764 	 38.5568 	 35.4704 	 
C 	 -7.05223 	 39.9534 	 35.2361 	 
C 	 -7.47302 	 40.7411 	 36.2797 	 
H 	 -6.53259 	 40.2281 	 34.3194 	 
C 	 -6.71925 	 37.5912 	 34.3925 	 
H 	 -6.54991 	 38.0761 	 33.3914 	 
H 	 -7.43675 	 36.7848 	 34.102 	 
C 	 -5.37028 	 36.9407 	 34.6928 	 
H 	 -4.65704 	 37.7044 	 34.6525 	 
H 	 -5.31875 	 36.4906 	 35.6995 	 
C 	 -4.90276 	 35.9005 	 33.6516 	 
H 	 -5.70606 	 35.1189 	 33.5017 	 
H 	 -4.73607 	 36.2253 	 32.6373 	 
H 	 -3.92907 	 35.4843 	 34.0391 	 
S 	 -8.98364 	 43.0639 	 36.451 	 
C 	 -8.17619 	 44.6309 	 36.5188 	 
C 	 -6.85009 	 44.4371 	 36.2808 	 
C 	 -6.44177 	 43.0491 	 36.1995 	 
C 	 -7.50692 	 42.1711 	 36.3485 	 
H 	 -6.22079 	 45.3282 	 36.172 	 
C 	 -5.00952 	 42.7872 	 36.122 	 
H 	 -4.51238 	 43.6913 	 35.7666 	 
H 	 -4.7726 	 42.0839 	 35.3536 	 
C 	 -4.35697 	 42.3831 	 37.4341 	 
H 	 -4.52196 	 41.3052 	 37.5787 	 
H 	 -4.80088 	 42.869 	 38.3708 	 
C 	 -2.81209 	 42.6451 	 37.4685 	 
H 	 -2.49149 	 42.0475 	 38.3125 	 
H 	 -2.53043 	 43.7265 	 37.6018 	 
H 	 -2.28633 	 42.3154 	 36.5807 	 
H 	 -8.01596 	 37.3044 	 37.0132 	 
H 	 -8.64451 	 45.6374 	 36.5678 	 
*
