! wB97X-D3 SP def2-SVP
%pal
nprocs 16
end

* xyz 0 1
S 	 43.2171 	 8.15471 	 87.2666 	 
C 	 44.3759 	 9.34109 	 87.9013 	 
C 	 44.9171 	 8.79955 	 89.0501 	 
C 	 44.4509 	 7.47853 	 89.3114 	 
C 	 43.5127 	 6.94876 	 88.4172 	 
H 	 44.6738 	 6.9037 	 90.2184 	 
C 	 46.1157 	 9.28954 	 89.8037 	 
H 	 46.1812 	 8.7066 	 90.7657 	 
H 	 45.9335 	 10.3256 	 90.0495 	 
C 	 47.4657 	 9.11711 	 89.0703 	 
H 	 47.5922 	 9.8132 	 88.2299 	 
H 	 48.3018 	 9.3963 	 89.7356 	 
C 	 47.7705 	 7.84284 	 88.5032 	 
H 	 47.7714 	 7.113 	 89.2537 	 
H 	 47.0214 	 7.48875 	 87.822 	 
H 	 48.5892 	 7.84548 	 87.8302 	 
S 	 41.1122 	 5.48317 	 88.3395 	 
C 	 41.1233 	 3.8246 	 88.5825 	 
C 	 42.3221 	 3.3746 	 89.0607 	 
C 	 43.3417 	 4.4066 	 89.0032 	 
C 	 42.8881 	 5.61029 	 88.5528 	 
H 	 42.4926 	 2.28035 	 89.1739 	 
C 	 44.697 	 4.11396 	 89.5591 	 
H 	 45.4325 	 4.85693 	 89.2384 	 
H 	 45.1004 	 3.1309 	 89.2019 	 
C 	 44.7928 	 4.08206 	 91.0868 	 
H 	 44.1316 	 3.35624 	 91.5746 	 
H 	 44.2921 	 5.01794 	 91.4098 	 
C 	 46.236 	 3.99095 	 91.6519 	 
H 	 46.7345 	 3.15695 	 91.2003 	 
H 	 46.2152 	 3.8301 	 92.7952 	 
H 	 46.8094 	 4.90815 	 91.3971 	 
H 	 44.7241 	 10.2963 	 87.5283 	 
H 	 40.2351 	 3.14348 	 88.5255 	 
*
