! wB97X-D3 SP def2-SVP
%pal
nprocs 16
end

* xyz 0 1
S 	 -103.53 	 47.0447 	 123.985 	 
C 	 -105.131 	 46.8337 	 124.844 	 
C 	 -106.154 	 46.762 	 123.897 	 
C 	 -105.686 	 46.5579 	 122.539 	 
C 	 -104.326 	 46.7761 	 122.442 	 
H 	 -106.377 	 46.3573 	 121.719 	 
C 	 -107.61 	 46.5673 	 124.204 	 
H 	 -108.244 	 47.1309 	 123.472 	 
H 	 -107.777 	 47.0446 	 125.175 	 
C 	 -108.071 	 45.0724 	 124.415 	 
H 	 -107.719 	 44.5381 	 123.568 	 
H 	 -107.426 	 44.7892 	 125.259 	 
C 	 -109.595 	 44.825 	 124.419 	 
H 	 -110.117 	 45.1561 	 125.279 	 
H 	 -110.026 	 45.3705 	 123.542 	 
H 	 -109.837 	 43.7719 	 124.315 	 
S 	 -104.016 	 47.8384 	 119.835 	 
C 	 -102.935 	 47.071 	 118.751 	 
C 	 -102.275 	 46.0338 	 119.367 	 
C 	 -102.644 	 45.8409 	 120.747 	 
C 	 -103.606 	 46.7063 	 121.168 	 
H 	 -101.638 	 45.54 	 118.699 	 
C 	 -101.899 	 44.7451 	 121.488 	 
H 	 -102.056 	 44.753 	 122.583 	 
H 	 -100.798 	 44.8576 	 121.346 	 
C 	 -102.212 	 43.266 	 121.023 	 
H 	 -101.518 	 42.625 	 121.468 	 
H 	 -102.359 	 43.2249 	 119.945 	 
C 	 -103.544 	 42.9487 	 121.752 	 
H 	 -103.672 	 43.2564 	 122.789 	 
H 	 -103.718 	 41.9085 	 121.521 	 
H 	 -104.245 	 43.5992 	 121.287 	 
H 	 -105.234 	 47.0766 	 125.879 	 
H 	 -102.742 	 47.3979 	 117.741 	 
*
