! wB97X-D3 SP def2-SVP
%pal
nprocs 16
end

* xyz 0 1
S 	 -30.532 	 58.6764 	 116.813 	 
C 	 -31.8212 	 57.4364 	 116.858 	 
C 	 -33.0285 	 57.9424 	 117.15 	 
C 	 -32.9237 	 59.3289 	 117.459 	 
C 	 -31.6356 	 59.8526 	 117.464 	 
H 	 -33.7396 	 59.9545 	 117.627 	 
C 	 -34.3807 	 57.1542 	 117.2 	 
H 	 -34.5757 	 56.6772 	 118.127 	 
H 	 -34.3079 	 56.3903 	 116.525 	 
C 	 -35.6472 	 57.9337 	 116.918 	 
H 	 -36.5026 	 57.27 	 116.983 	 
H 	 -35.9411 	 58.6988 	 117.707 	 
C 	 -35.6441 	 58.5731 	 115.523 	 
H 	 -36.6479 	 58.8729 	 115.27 	 
H 	 -35.156 	 59.5073 	 115.502 	 
H 	 -35.123 	 58.0116 	 114.801 	 
S 	 -30.6432 	 62.0311 	 116.083 	 
C 	 -30.4372 	 63.5218 	 116.929 	 
C 	 -31.1217 	 63.5409 	 118.099 	 
C 	 -31.605 	 62.249 	 118.457 	 
C 	 -31.2833 	 61.3145 	 117.557 	 
H 	 -31.0828 	 64.4863 	 118.7 	 
C 	 -32.2578 	 62.0032 	 119.79 	 
H 	 -31.497 	 62.1809 	 120.596 	 
H 	 -32.5008 	 60.9404 	 119.854 	 
C 	 -33.5227 	 62.8237 	 120.06 	 
H 	 -34.3686 	 62.4758 	 119.394 	 
H 	 -33.3506 	 63.91 	 119.756 	 
C 	 -34.0283 	 62.6855 	 121.509 	 
H 	 -34.0355 	 61.6151 	 121.749 	 
H 	 -35.0243 	 63.0733 	 121.814 	 
H 	 -33.3026 	 63.1747 	 122.167 	 
H 	 -31.7233 	 56.355 	 116.61 	 
H 	 -29.8089 	 64.2652 	 116.576 	 
*
