! wB97X-D3 SP def2-SVP
%pal
nprocs 16
end

* xyz 0 1
S 	 2.94195 	 11.1562 	 86.195 	 
C 	 1.85025 	 11.248 	 84.8387 	 
C 	 2.50007 	 11.6867 	 83.7343 	 
C 	 3.80619 	 12.2109 	 84.0766 	 
C 	 4.2342 	 11.904 	 85.3775 	 
H 	 4.5838 	 12.6655 	 83.4047 	 
C 	 1.99041 	 11.6769 	 82.2983 	 
H 	 0.882823 	 11.6058 	 82.3358 	 
H 	 2.4479 	 10.7903 	 81.8698 	 
C 	 2.25869 	 12.899 	 81.3702 	 
H 	 1.91305 	 13.8059 	 81.9364 	 
H 	 3.31184 	 13.0869 	 81.1828 	 
C 	 1.545 	 12.7301 	 79.9793 	 
H 	 1.62309 	 13.6619 	 79.4466 	 
H 	 1.94375 	 11.908 	 79.3592 	 
H 	 0.455274 	 12.6483 	 80.1687 	 
S 	 5.42123 	 13.0012 	 87.5979 	 
C 	 7.15996 	 13.2306 	 87.7251 	 
C 	 7.76741 	 12.9328 	 86.5236 	 
C 	 6.82075 	 12.3226 	 85.5618 	 
C 	 5.47835 	 12.3925 	 85.9892 	 
H 	 8.81736 	 13.0745 	 86.4102 	 
C 	 7.34007 	 11.686 	 84.2719 	 
H 	 6.49073 	 11.0792 	 83.9548 	 
H 	 8.22545 	 11.1128 	 84.6163 	 
C 	 7.75487 	 12.6089 	 83.167 	 
H 	 8.40671 	 13.3437 	 83.6541 	 
H 	 6.86152 	 13.1664 	 82.8111 	 
C 	 8.37626 	 11.8194 	 82.0054 	 
H 	 9.26938 	 11.3623 	 82.4163 	 
H 	 8.67499 	 12.5293 	 81.1806 	 
H 	 7.7144 	 11.0626 	 81.5728 	 
H 	 0.843096 	 10.8638 	 84.8592 	 
H 	 7.61142 	 13.5872 	 88.6271 	 
*
