! wB97X-D3 SP def2-SVP
%pal
nprocs 16
end

* xyz 0 1
S 	 -34.3854 	 46.3239 	 96.5606 	 
C 	 -33.2205 	 45.2186 	 95.8126 	 
C 	 -32.7227 	 45.7603 	 94.5925 	 
C 	 -33.24 	 47.0505 	 94.3467 	 
C 	 -34.2993 	 47.4414 	 95.2115 	 
H 	 -32.9155 	 47.6217 	 93.5192 	 
C 	 -31.688 	 45.0631 	 93.7302 	 
H 	 -31.991 	 45.3193 	 92.6867 	 
H 	 -31.6091 	 44.0219 	 93.9027 	 
C 	 -30.2187 	 45.4681 	 94.1004 	 
H 	 -30.2798 	 46.5552 	 94.155 	 
H 	 -30.1054 	 45.2042 	 95.1171 	 
C 	 -29.104 	 45.0579 	 93.1058 	 
H 	 -28.2811 	 45.5143 	 93.4855 	 
H 	 -29.021 	 43.9573 	 93.1483 	 
H 	 -29.3757 	 45.4177 	 92.142 	 
S 	 -36.9418 	 48.1475 	 95.0941 	 
C 	 -37.3684 	 49.8042 	 94.8813 	 
C 	 -36.239 	 50.6396 	 94.7447 	 
C 	 -35.0411 	 49.9195 	 94.9421 	 
C 	 -35.2384 	 48.5351 	 95.1215 	 
H 	 -36.3973 	 51.6423 	 94.3774 	 
C 	 -33.6612 	 50.5244 	 94.737 	 
H 	 -33.7841 	 51.538 	 94.3999 	 
H 	 -33.1831 	 49.9635 	 93.8625 	 
C 	 -32.696 	 50.4967 	 95.969 	 
H 	 -32.6548 	 49.5241 	 96.4806 	 
H 	 -33.0683 	 51.0803 	 96.8371 	 
C 	 -31.207 	 50.8929 	 95.8396 	 
H 	 -30.8285 	 50.8233 	 96.8326 	 
H 	 -31.088 	 51.8529 	 95.6189 	 
H 	 -30.6089 	 50.2064 	 95.1868 	 
H 	 -32.6631 	 44.3965 	 96.2339 	 
H 	 -38.3382 	 50.2379 	 94.9416 	 
*
