! wB97X-D3 SP def2-SVP
%pal
nprocs 16
end

* xyz 0 1
S 	 -14.3425 	 34.0875 	 34.489 	 
C 	 -14.1612 	 35.8136 	 34.7305 	 
C 	 -15.3715 	 36.4076 	 34.8848 	 
C 	 -16.4233 	 35.4709 	 34.6394 	 
C 	 -16.05 	 34.1912 	 34.2981 	 
H 	 -17.4407 	 35.7682 	 34.7916 	 
C 	 -15.6417 	 37.9228 	 35.2377 	 
H 	 -15.6926 	 37.9781 	 36.3041 	 
H 	 -16.6102 	 38.2669 	 34.8008 	 
C 	 -14.5275 	 38.8274 	 34.6899 	 
H 	 -13.573 	 38.5002 	 35.1962 	 
H 	 -14.4383 	 38.5222 	 33.6681 	 
C 	 -14.9791 	 40.2706 	 34.7553 	 
H 	 -16.0711 	 40.2791 	 34.4522 	 
H 	 -14.7922 	 40.7443 	 35.7537 	 
H 	 -14.453 	 40.8536 	 33.9614 	 
S 	 -17.3426 	 32.2989 	 35.8426 	 
C 	 -18.2473 	 31.0995 	 35.0357 	 
C 	 -18.1616 	 31.2642 	 33.6473 	 
C 	 -17.4941 	 32.4141 	 33.1536 	 
C 	 -16.8882 	 33.0601 	 34.2733 	 
H 	 -18.6583 	 30.4546 	 33.1236 	 
C 	 -17.2017 	 32.4233 	 31.6667 	 
H 	 -16.7322 	 31.5032 	 31.4862 	 
H 	 -16.4931 	 33.1976 	 31.4587 	 
C 	 -18.3764 	 32.5002 	 30.7198 	 
H 	 -19.0977 	 31.7131 	 31.0437 	 
H 	 -18.0342 	 32.3314 	 29.7439 	 
C 	 -19.0856 	 33.833 	 30.7355 	 
H 	 -18.367 	 34.6743 	 30.6482 	 
H 	 -19.6054 	 33.8967 	 31.6708 	 
H 	 -19.8499 	 33.8465 	 29.9176 	 
H 	 -13.2106 	 36.3706 	 34.7293 	 
H 	 -18.9178 	 30.3954 	 35.5144 	 
*
