! wB97X-D3 SP def2-SVP
%pal
nprocs 16
end

* xyz 0 1
S 	 48.0258 	 23.1273 	 89.6715 	 
C 	 46.8263 	 23.9966 	 90.5873 	 
C 	 45.9924 	 24.8051 	 89.8193 	 
C 	 46.4574 	 24.745 	 88.4426 	 
C 	 47.6067 	 23.9682 	 88.2271 	 
H 	 45.8939 	 25.0927 	 87.5763 	 
C 	 44.7598 	 25.5122 	 90.2476 	 
H 	 44.5337 	 26.258 	 89.5076 	 
H 	 44.8957 	 26.0106 	 91.1676 	 
C 	 43.4259 	 24.6706 	 90.3828 	 
H 	 42.563 	 25.3684 	 90.1334 	 
H 	 43.4164 	 23.8656 	 89.6728 	 
C 	 43.2387 	 24.1201 	 91.8462 	 
H 	 42.2928 	 23.441 	 91.8101 	 
H 	 44.0603 	 23.404 	 92.0396 	 
H 	 43.1649 	 24.8668 	 92.5905 	 
S 	 48.237 	 21.8644 	 86.5815 	 
C 	 48.7343 	 22.2472 	 84.887 	 
C 	 48.8243 	 23.6162 	 84.6712 	 
C 	 48.5201 	 24.3672 	 85.846 	 
C 	 48.1114 	 23.5899 	 86.9352 	 
H 	 49.169 	 24.0334 	 83.7177 	 
C 	 48.5248 	 25.8672 	 85.792 	 
H 	 47.4942 	 26.1751 	 85.6686 	 
H 	 48.9838 	 26.1839 	 84.8083 	 
C 	 49.1602 	 26.7521 	 86.9283 	 
H 	 50.107 	 26.3533 	 87.0901 	 
H 	 48.62 	 26.4953 	 87.8482 	 
C 	 49.2344 	 28.1892 	 86.5953 	 
H 	 49.7504 	 28.8254 	 87.375 	 
H 	 48.2243 	 28.481 	 86.4004 	 
H 	 49.684 	 28.3383 	 85.5967 	 
H 	 46.6756 	 23.8405 	 91.7323 	 
H 	 49.0111 	 21.617 	 84.0863 	 
*
