! wB97X-D3 SP def2-SVP
%pal
nprocs 16
end

* xyz 0 1
S 	 13.4454 	 -14.175 	 76.693 	 
C 	 12.7886 	 -15.2519 	 77.8534 	 
C 	 11.4229 	 -15.4159 	 77.712 	 
C 	 10.9598 	 -14.4931 	 76.7118 	 
C 	 11.8977 	 -13.7019 	 76.127 	 
H 	 9.91951 	 -14.3922 	 76.3866 	 
C 	 10.5222 	 -16.3748 	 78.4109 	 
H 	 9.45406 	 -16.0972 	 78.2791 	 
H 	 10.6838 	 -16.3115 	 79.505 	 
C 	 10.6745 	 -17.8094 	 77.7618 	 
H 	 10.63 	 -17.6163 	 76.7407 	 
H 	 11.6947 	 -18.1743 	 77.8866 	 
C 	 9.69341 	 -18.9034 	 78.1935 	 
H 	 8.75139 	 -18.9052 	 77.6529 	 
H 	 10.0599 	 -19.8729 	 77.8945 	 
H 	 9.35901 	 -18.8423 	 79.1962 	 
S 	 11.0385 	 -11.3717 	 75.0522 	 
C 	 10.894 	 -11.1651 	 73.3492 	 
C 	 11.4447 	 -12.2126 	 72.6312 	 
C 	 11.8521 	 -13.2923 	 73.4946 	 
C 	 11.724 	 -12.9441 	 74.8736 	 
H 	 11.5638 	 -12.2756 	 71.5763 	 
C 	 12.2698 	 -14.6698 	 73.0487 	 
H 	 11.4893 	 -15.3945 	 73.0962 	 
H 	 12.7927 	 -15.0247 	 73.9331 	 
C 	 13.1653 	 -14.8979 	 71.8188 	 
H 	 13.8622 	 -14.0576 	 71.8193 	 
H 	 12.6699 	 -15.0009 	 70.8237 	 
C 	 14.1258 	 -16.1268 	 72.1075 	 
H 	 14.6779 	 -16.065 	 73.0177 	 
H 	 14.8914 	 -16.3037 	 71.3353 	 
H 	 13.5655 	 -17.094 	 72.2543 	 
H 	 13.4349 	 -15.82 	 78.4687 	 
H 	 10.5979 	 -10.1733 	 72.8942 	 
*
