! wB97X-D3 SP def2-SVP
%pal
nprocs 16
end

* xyz 0 1
S 	 -6.07229 	 -5.73962 	 83.2388 	 
C 	 -6.75667 	 -7.31387 	 82.7294 	 
C 	 -5.8612 	 -8.36192 	 82.8654 	 
C 	 -4.56954 	 -7.821 	 83.2034 	 
C 	 -4.4616 	 -6.42618 	 83.4169 	 
H 	 -3.69512 	 -8.36907 	 83.3531 	 
C 	 -6.12496 	 -9.77294 	 82.5113 	 
H 	 -6.473 	 -9.76522 	 81.4428 	 
H 	 -6.97663 	 -10.0666 	 83.0223 	 
C 	 -5.04861 	 -10.8153 	 82.7251 	 
H 	 -5.39709 	 -11.7996 	 82.4584 	 
H 	 -4.13416 	 -10.6794 	 82.0945 	 
C 	 -4.6243 	 -10.9449 	 84.166 	 
H 	 -5.48491 	 -11.2146 	 84.7246 	 
H 	 -3.95225 	 -11.807 	 84.2399 	 
H 	 -4.18029 	 -9.99135 	 84.5735 	 
S 	 -2.83203 	 -4.19669 	 83.0011 	 
C 	 -1.55016 	 -3.85133 	 84.1162 	 
C 	 -1.64102 	 -4.70752 	 85.198 	 
C 	 -2.62298 	 -5.72088 	 85.1025 	 
C 	 -3.32073 	 -5.66191 	 83.8948 	 
H 	 -0.840067 	 -4.66958 	 85.9325 	 
C 	 -2.82725 	 -6.79335 	 86.1851 	 
H 	 -1.81888 	 -7.16003 	 86.4278 	 
H 	 -3.4964 	 -7.60291 	 85.8393 	 
C 	 -3.57513 	 -6.27113 	 87.4237 	 
H 	 -3.95854 	 -7.21185 	 87.9709 	 
H 	 -4.44518 	 -5.68376 	 87.1484 	 
C 	 -2.75082 	 -5.38393 	 88.3913 	 
H 	 -3.27073 	 -5.19501 	 89.2991 	 
H 	 -2.76078 	 -4.38815 	 88.0605 	 
H 	 -1.69833 	 -5.67787 	 88.5787 	 
H 	 -7.75232 	 -7.36651 	 82.3373 	 
H 	 -0.618866 	 -3.26463 	 83.8991 	 
*
