! wB97X-D3 SP def2-SVP
%pal
nprocs 16
end

* xyz 0 1
S 	 -78.244 	 42.4533 	 121.638 	 
C 	 -78.4701 	 40.766 	 121.447 	 
C 	 -77.7598 	 40.2735 	 120.39 	 
C 	 -76.8632 	 41.2321 	 119.894 	 
C 	 -76.9833 	 42.4832 	 120.466 	 
H 	 -76.1448 	 41.1123 	 119.164 	 
C 	 -77.4819 	 38.8379 	 120.038 	 
H 	 -77.8354 	 38.121 	 120.772 	 
H 	 -76.398 	 38.7038 	 120.115 	 
C 	 -78.0402 	 38.3002 	 118.677 	 
H 	 -77.4628 	 37.5478 	 118.198 	 
H 	 -79.0412 	 37.7233 	 118.934 	 
C 	 -78.4893 	 39.2714 	 117.666 	 
H 	 -79.3947 	 39.803 	 118.007 	 
H 	 -77.7248 	 40.0395 	 117.517 	 
H 	 -78.6237 	 38.8717 	 116.681 	 
S 	 -76.6432 	 44.9047 	 119.049 	 
C 	 -75.1146 	 45.7031 	 119.215 	 
C 	 -74.4538 	 45.2044 	 120.346 	 
C 	 -75.1099 	 44.1214 	 120.95 	 
C 	 -76.1665 	 43.6862 	 120.155 	 
H 	 -73.5287 	 45.6942 	 120.536 	 
C 	 -74.5814 	 43.3918 	 122.168 	 
H 	 -75.5124 	 42.933 	 122.688 	 
H 	 -74.1721 	 44.1426 	 122.915 	 
C 	 -73.5884 	 42.2609 	 121.873 	 
H 	 -74.1329 	 41.4078 	 121.427 	 
H 	 -73.2689 	 42.0249 	 122.89 	 
C 	 -72.4862 	 42.7669 	 120.99 	 
H 	 -71.8129 	 41.9494 	 120.966 	 
H 	 -71.8898 	 43.5733 	 121.447 	 
H 	 -72.7047 	 42.8743 	 119.932 	 
H 	 -79.2549 	 40.1467 	 121.899 	 
H 	 -74.8755 	 46.5937 	 118.778 	 
*
