! wB97X-D3 SP def2-SVP
%pal
nprocs 16
end

* xyz 0 1
S 	 -36.5552 	 51.1403 	 102.203 	 
C 	 -35.0478 	 50.5029 	 101.487 	 
C 	 -34.757 	 51.2212 	 100.367 	 
C 	 -35.6807 	 52.2499 	 100.074 	 
C 	 -36.8061 	 52.2251 	 100.89 	 
H 	 -35.6304 	 53.082 	 99.3978 	 
C 	 -33.5898 	 50.9679 	 99.5166 	 
H 	 -32.6724 	 51.1032 	 100.163 	 
H 	 -33.5223 	 51.7099 	 98.7287 	 
C 	 -33.655 	 49.6784 	 98.6546 	 
H 	 -32.6659 	 49.3855 	 98.3207 	 
H 	 -34.0153 	 48.8356 	 99.1987 	 
C 	 -34.7194 	 49.7838 	 97.5427 	 
H 	 -34.9507 	 48.775 	 97.0908 	 
H 	 -35.6522 	 50.1772 	 98.0108 	 
H 	 -34.4733 	 50.4979 	 96.7552 	 
S 	 -38.6268 	 53.7785 	 102.299 	 
C 	 -40.159 	 54.1978 	 101.39 	 
C 	 -40.1219 	 53.7219 	 100.109 	 
C 	 -38.9096 	 53.0676 	 99.7826 	 
C 	 -38.0521 	 53.0041 	 100.844 	 
H 	 -40.9297 	 53.7407 	 99.4745 	 
C 	 -38.5902 	 52.519 	 98.3578 	 
H 	 -39.4974 	 52.1236 	 98.0316 	 
H 	 -37.8684 	 51.7574 	 98.3284 	 
C 	 -38.0459 	 53.7018 	 97.4337 	 
H 	 -36.9587 	 53.8388 	 97.5546 	 
H 	 -38.4759 	 54.5774 	 97.7674 	 
C 	 -38.301 	 53.5385 	 95.9355 	 
H 	 -37.8499 	 54.3401 	 95.365 	 
H 	 -39.3342 	 53.5997 	 95.6188 	 
H 	 -37.8326 	 52.6516 	 95.5063 	 
H 	 -34.488 	 49.7021 	 101.904 	 
H 	 -41.0645 	 54.4897 	 101.836 	 
*
