! wB97X-D3 SP def2-SVP
%pal
nprocs 16
end

* xyz 0 1
S 	 -15.4053 	 -8.6114 	 91.2752 	 
C 	 -16.8025 	 -8.83858 	 90.3603 	 
C 	 -16.6186 	 -9.70583 	 89.2861 	 
C 	 -15.326 	 -10.2964 	 89.292 	 
C 	 -14.5659 	 -9.87164 	 90.3594 	 
H 	 -15.029 	 -11.0417 	 88.5526 	 
C 	 -17.6855 	 -10.0965 	 88.2707 	 
H 	 -18.6264 	 -10.015 	 88.7324 	 
H 	 -17.5519 	 -11.1359 	 88.0787 	 
C 	 -17.7332 	 -9.13447 	 87.0322 	 
H 	 -17.8312 	 -8.0514 	 87.3499 	 
H 	 -16.7381 	 -9.19245 	 86.6403 	 
C 	 -18.9136 	 -9.61302 	 86.0804 	 
H 	 -18.5247 	 -9.56623 	 85.0848 	 
H 	 -19.0258 	 -10.7119 	 86.2335 	 
H 	 -19.8649 	 -9.04887 	 86.0577 	 
S 	 -12.0352 	 -8.85269 	 90.4978 	 
C 	 -10.7148 	 -9.87337 	 91.0757 	 
C 	 -11.0858 	 -11.1971 	 91.1941 	 
C 	 -12.4793 	 -11.3926 	 90.8104 	 
C 	 -13.1815 	 -10.1669 	 90.6541 	 
H 	 -10.3669 	 -11.957 	 91.5353 	 
C 	 -13.2342 	 -12.7112 	 90.752 	 
H 	 -13.6722 	 -12.6847 	 89.78 	 
H 	 -13.9981 	 -12.6761 	 91.4866 	 
C 	 -12.3757 	 -13.9845 	 90.8647 	 
H 	 -11.8484 	 -14.0408 	 91.7767 	 
H 	 -11.6404 	 -13.9131 	 90.0413 	 
C 	 -13.1083 	 -15.3551 	 90.7269 	 
H 	 -12.3924 	 -16.2761 	 90.8169 	 
H 	 -13.5488 	 -15.5235 	 89.7444 	 
H 	 -13.8015 	 -15.3325 	 91.4879 	 
H 	 -17.726 	 -8.34452 	 90.5379 	 
H 	 -9.77316 	 -9.52219 	 91.3686 	 
*
