! wB97X-D3 SP def2-SVP
%pal
nprocs 16
end

* xyz 0 1
S 	 34.5624 	 -7.95971 	 72.1654 	 
C 	 34.8634 	 -6.76781 	 73.4012 	 
C 	 35.4673 	 -5.59329 	 72.9792 	 
C 	 35.7981 	 -5.76129 	 71.6175 	 
C 	 35.3637 	 -6.92146 	 71.0393 	 
H 	 36.3359 	 -5.07625 	 71.0124 	 
C 	 35.7281 	 -4.23627 	 73.6272 	 
H 	 36.7267 	 -4.24873 	 74.0928 	 
H 	 35.0311 	 -4.14596 	 74.4303 	 
C 	 35.69 	 -3.03398 	 72.7682 	 
H 	 36.5915 	 -3.11912 	 72.0228 	 
H 	 34.7777 	 -3.07749 	 72.134 	 
C 	 35.7934 	 -1.71174 	 73.5231 	 
H 	 35.6343 	 -1.00839 	 72.715 	 
H 	 35.098 	 -1.7811 	 74.2717 	 
H 	 36.7953 	 -1.50833 	 74.0016 	 
S 	 34.594 	 -8.7597 	 69.0788 	 
C 	 34.9 	 -8.48094 	 67.4323 	 
C 	 35.7096 	 -7.35355 	 67.2611 	 
C 	 35.9602 	 -6.61534 	 68.4782 	 
C 	 35.4511 	 -7.29098 	 69.6098 	 
H 	 35.8035 	 -6.99372 	 66.3264 	 
C 	 36.5796 	 -5.26424 	 68.4025 	 
H 	 37.234 	 -5.16865 	 67.5958 	 
H 	 37.2393 	 -5.15865 	 69.2331 	 
C 	 35.5176 	 -4.06889 	 68.2861 	 
H 	 34.7876 	 -4.16621 	 69.0885 	 
H 	 34.86 	 -4.13259 	 67.473 	 
C 	 36.2248 	 -2.67841 	 68.2013 	 
H 	 36.702 	 -2.58964 	 67.244 	 
H 	 37.0216 	 -2.73605 	 68.9558 	 
H 	 35.6713 	 -1.83719 	 68.492 	 
H 	 34.3805 	 -6.94896 	 74.3851 	 
H 	 34.5331 	 -9.11 	 66.6617 	 
*
