! wB97X-D3 SP def2-SVP
%pal
nprocs 16
end

* xyz 0 1
S 	 -15.6904 	 38.5212 	 57.0058 	 
C 	 -15.5087 	 38.304 	 55.3053 	 
C 	 -16.5074 	 38.9237 	 54.5146 	 
C 	 -17.3264 	 39.7016 	 55.3436 	 
C 	 -17.0742 	 39.574 	 56.6986 	 
H 	 -18.183 	 40.2352 	 55.0125 	 
C 	 -16.6055 	 38.9773 	 52.9857 	 
H 	 -17.5804 	 38.6734 	 52.731 	 
H 	 -15.9943 	 38.121 	 52.6142 	 
C 	 -16.1575 	 40.3219 	 52.4068 	 
H 	 -16.4679 	 40.3426 	 51.3688 	 
H 	 -16.6927 	 41.0941 	 52.8071 	 
C 	 -14.6584 	 40.4677 	 52.5095 	 
H 	 -14.1233 	 39.6368 	 51.9721 	 
H 	 -14.3201 	 41.4006 	 51.9922 	 
H 	 -14.3964 	 40.4941 	 53.5763 	 
S 	 -16.6926 	 41.3188 	 58.747 	 
C 	 -18.024 	 42.0009 	 59.615 	 
C 	 -19.2205 	 41.5018 	 59.157 	 
C 	 -19.1066 	 40.5581 	 58.109 	 
C 	 -17.77 	 40.2964 	 57.7691 	 
H 	 -20.1253 	 41.8511 	 59.5574 	 
C 	 -20.2134 	 39.8146 	 57.3358 	 
H 	 -19.7461 	 39.0693 	 56.6531 	 
H 	 -20.8758 	 40.5762 	 56.8839 	 
C 	 -21.193 	 39.0548 	 58.3243 	 
H 	 -21.5884 	 39.7843 	 59.0309 	 
H 	 -20.5986 	 38.3899 	 58.9642 	 
C 	 -22.3304 	 38.3223 	 57.5727 	 
H 	 -22.0381 	 37.6537 	 56.7817 	 
H 	 -23.1605 	 38.9544 	 57.0877 	 
H 	 -22.8662 	 37.6549 	 58.2645 	 
H 	 -14.6259 	 37.8541 	 54.8582 	 
H 	 -18.0488 	 42.9508 	 60.1505 	 
*
