! wB97X-D3 SP def2-SVP
%pal
nprocs 16
end

* xyz 0 1
S 	 1.26683 	 -5.83822 	 78.521 	 
C 	 -0.354902 	 -5.8871 	 79.2042 	 
C 	 -0.725266 	 -4.63482 	 79.7083 	 
C 	 0.341305 	 -3.63671 	 79.3693 	 
C 	 1.39241 	 -4.13046 	 78.6116 	 
H 	 0.493353 	 -2.63248 	 79.6176 	 
C 	 -2.03621 	 -4.30214 	 80.3791 	 
H 	 -2.80912 	 -4.54041 	 79.6443 	 
H 	 -2.12866 	 -3.22688 	 80.5047 	 
C 	 -2.25453 	 -5.05716 	 81.7056 	 
H 	 -3.31671 	 -5.02766 	 81.9624 	 
H 	 -2.003 	 -6.07728 	 81.5717 	 
C 	 -1.34142 	 -4.46123 	 82.7481 	 
H 	 -0.315203 	 -4.44921 	 82.3259 	 
H 	 -1.46656 	 -3.40847 	 82.973 	 
H 	 -1.20591 	 -5.00148 	 83.6744 	 
S 	 4.05357 	 -4.02568 	 78.6982 	 
C 	 4.91177 	 -2.55033 	 78.1457 	 
C 	 4.01021 	 -1.58778 	 77.8046 	 
C 	 2.66263 	 -2.02645 	 77.8141 	 
C 	 2.55081 	 -3.38542 	 78.159 	 
H 	 4.33272 	 -0.624922 	 77.4738 	 
C 	 1.5915 	 -1.01669 	 77.5015 	 
H 	 2.03204 	 -0.132861 	 77.0167 	 
H 	 1.19266 	 -0.624227 	 78.4193 	 
C 	 0.442635 	 -1.42169 	 76.5344 	 
H 	 -0.0400383 	 -2.34397 	 76.7448 	 
H 	 0.945969 	 -1.74657 	 75.6342 	 
C 	 -0.468092 	 -0.188372 	 76.2608 	 
H 	 -0.923336 	 0.193474 	 77.1169 	 
H 	 -1.27372 	 -0.558069 	 75.5717 	 
H 	 0.0722503 	 0.560677 	 75.7394 	 
H 	 -0.790234 	 -6.8342 	 79.4126 	 
H 	 6.00315 	 -2.40667 	 78.1003 	 
*
