! wB97X-D3 SP def2-SVP
%pal
nprocs 16
end

* xyz 0 1
S 	 14.1897 	 26.2704 	 46.9283 	 
C 	 15.7122 	 25.422 	 46.9508 	 
C 	 15.5851 	 24.2557 	 46.2273 	 
C 	 14.4164 	 24.135 	 45.5387 	 
C 	 13.6358 	 25.2379 	 45.6066 	 
H 	 14.1247 	 23.3125 	 44.8463 	 
C 	 16.6542 	 23.1357 	 46.0776 	 
H 	 16.2063 	 22.1664 	 46.1877 	 
H 	 17.3521 	 23.1586 	 46.8628 	 
C 	 17.3382 	 23.175 	 44.785 	 
H 	 17.452 	 24.2292 	 44.348 	 
H 	 18.332 	 22.8384 	 44.9067 	 
C 	 16.7524 	 22.2321 	 43.6825 	 
H 	 15.7375 	 22.6397 	 43.4431 	 
H 	 17.4079 	 22.2576 	 42.8261 	 
H 	 16.8614 	 21.1094 	 43.9568 	 
S 	 12.2625 	 24.8197 	 43.269 	 
C 	 10.6436 	 25.3901 	 43.0699 	 
C 	 10.1931 	 26.0147 	 44.2065 	 
C 	 11.1404 	 25.9667 	 45.3159 	 
C 	 12.35 	 25.4011 	 44.9156 	 
H 	 9.13586 	 26.4017 	 44.2053 	 
C 	 10.89 	 26.5293 	 46.7684 	 
H 	 11.324 	 27.446 	 46.8576 	 
H 	 11.344 	 25.785 	 47.4667 	 
C 	 9.42525 	 26.7114 	 47.1973 	 
H 	 8.86612 	 25.8025 	 47.2282 	 
H 	 8.85771 	 27.3919 	 46.5085 	 
C 	 9.18481 	 27.1146 	 48.6523 	 
H 	 9.29372 	 28.2451 	 48.7888 	 
H 	 9.93655 	 26.7151 	 49.332 	 
H 	 8.20117 	 26.7979 	 49.1344 	 
H 	 16.4201 	 25.611 	 47.7112 	 
H 	 9.99785 	 25.1074 	 42.1931 	 
*
