! wB97X-D3 SP def2-SVP
%pal
nprocs 16
end

* xyz 0 1
S 	 -50.4363 	 6.5995 	 95.6743 	 
C 	 -50.4246 	 5.76872 	 97.2231 	 
C 	 -50.0845 	 4.39087 	 97.0663 	 
C 	 -49.9361 	 4.06302 	 95.6734 	 
C 	 -50.0341 	 5.15233 	 94.8264 	 
H 	 -49.7476 	 3.06 	 95.2868 	 
C 	 -49.8824 	 3.45965 	 98.1651 	 
H 	 -49.3516 	 4.03671 	 98.9133 	 
H 	 -49.2053 	 2.64265 	 97.9301 	 
C 	 -51.1496 	 2.80223 	 98.7329 	 
H 	 -50.9562 	 2.28432 	 99.6339 	 
H 	 -51.8276 	 3.60483 	 99.0147 	 
C 	 -51.9006 	 1.98273 	 97.6358 	 
H 	 -51.8662 	 2.41192 	 96.6622 	 
H 	 -51.5133 	 0.953606 	 97.6438 	 
H 	 -52.9373 	 1.84006 	 98.0432 	 
S 	 -51.1792 	 5.76239 	 92.4112 	 
C 	 -50.2473 	 5.63718 	 90.8805 	 
C 	 -49.0106 	 5.22975 	 91.2384 	 
C 	 -48.821 	 4.8499 	 92.5921 	 
C 	 -49.8538 	 5.21594 	 93.395 	 
H 	 -48.2869 	 5.18021 	 90.4225 	 
C 	 -47.6061 	 4.07947 	 93.0178 	 
H 	 -47.1778 	 3.6934 	 92.1125 	 
H 	 -47.9873 	 3.19924 	 93.6289 	 
C 	 -46.5888 	 4.7215 	 93.9391 	 
H 	 -45.7839 	 3.97885 	 94.062 	 
H 	 -47.0313 	 4.87427 	 94.9544 	 
C 	 -46.0911 	 6.03353 	 93.3873 	 
H 	 -46.8291 	 6.50871 	 92.8138 	 
H 	 -45.1166 	 5.9252 	 92.8555 	 
H 	 -45.8863 	 6.73303 	 94.2015 	 
H 	 -50.6349 	 6.29171 	 98.1304 	 
H 	 -50.7309 	 5.96125 	 89.9379 	 
*
