! wB97X-D3 SP def2-SVP
%pal
nprocs 16
end

* xyz 0 1
S 	 -34.3785 	 60.4071 	 114.776 	 
C 	 -33.8627 	 59.8373 	 113.289 	 
C 	 -32.4634 	 59.617 	 113.266 	 
C 	 -31.7959 	 60.0957 	 114.454 	 
C 	 -32.6969 	 60.6337 	 115.365 	 
H 	 -30.7702 	 60.0005 	 114.678 	 
C 	 -31.6466 	 59.0935 	 112.087 	 
H 	 -30.5632 	 59.0473 	 112.375 	 
H 	 -31.7321 	 59.7138 	 111.206 	 
C 	 -31.9295 	 57.7158 	 111.811 	 
H 	 -31.8249 	 57.1219 	 112.679 	 
H 	 -32.9749 	 57.7727 	 111.437 	 
C 	 -31.0026 	 57.2779 	 110.649 	 
H 	 -31.108 	 56.2266 	 110.32 	 
H 	 -31.3442 	 57.8019 	 109.78 	 
H 	 -29.9951 	 57.6771 	 110.807 	 
S 	 -33.5935 	 60.6272 	 117.978 	 
C 	 -32.6028 	 61.3073 	 119.269 	 
C 	 -31.4244 	 61.7947 	 118.759 	 
C 	 -31.2929 	 61.6883 	 117.299 	 
C 	 -32.4485 	 61.0639 	 116.734 	 
H 	 -30.6915 	 62.2071 	 119.47 	 
C 	 -30.1016 	 62.276 	 116.499 	 
H 	 -29.5871 	 61.5982 	 115.89 	 
H 	 -29.2522 	 62.6318 	 117.183 	 
C 	 -30.5197 	 63.3618 	 115.537 	 
H 	 -30.962 	 64.1852 	 116.132 	 
H 	 -31.3096 	 63.0861 	 114.889 	 
C 	 -29.3422 	 63.911 	 114.66 	 
H 	 -29.6377 	 64.6206 	 113.864 	 
H 	 -28.6612 	 63.0905 	 114.202 	 
H 	 -28.7002 	 64.4471 	 115.366 	 
H 	 -34.6085 	 59.5393 	 112.536 	 
H 	 -32.8799 	 61.3537 	 120.269 	 
*
