! wB97X-D3 SP def2-SVP
%pal
nprocs 16
end

* xyz 0 1
S 	 -37.1764 	 53.2319 	 109.445 	 
C 	 -38.0002 	 54.5977 	 110.111 	 
C 	 -38.7926 	 54.2058 	 111.191 	 
C 	 -38.5423 	 52.8223 	 111.533 	 
C 	 -37.7281 	 52.1342 	 110.668 	 
H 	 -38.9539 	 52.1665 	 112.307 	 
C 	 -39.5223 	 55.1551 	 112.12 	 
H 	 -39.8406 	 56.0734 	 111.574 	 
H 	 -38.7535 	 55.5877 	 112.773 	 
C 	 -40.6435 	 54.6107 	 112.959 	 
H 	 -40.2218 	 53.8779 	 113.706 	 
H 	 -41.0249 	 55.4133 	 113.609 	 
C 	 -41.7862 	 54.1388 	 112.148 	 
H 	 -42.1239 	 55.0198 	 111.492 	 
H 	 -41.6217 	 53.2673 	 111.482 	 
H 	 -42.6722 	 53.8529 	 112.701 	 
S 	 -35.8039 	 50.0657 	 110.991 	 
C 	 -36.3923 	 48.3996 	 110.911 	 
C 	 -37.7579 	 48.3444 	 110.966 	 
C 	 -38.3529 	 49.6369 	 110.827 	 
C 	 -37.4603 	 50.7005 	 110.698 	 
H 	 -38.2045 	 47.4017 	 111.079 	 
C 	 -39.852 	 49.7242 	 110.92 	 
H 	 -40.2904 	 48.9541 	 110.244 	 
H 	 -39.985 	 50.6861 	 110.463 	 
C 	 -40.4955 	 49.5829 	 112.314 	 
H 	 -40.1526 	 50.3458 	 112.955 	 
H 	 -40.4408 	 48.5977 	 112.802 	 
C 	 -41.996 	 49.8775 	 112.153 	 
H 	 -42.2609 	 49.0973 	 111.382 	 
H 	 -42.1232 	 50.901 	 111.78 	 
H 	 -42.6116 	 49.7931 	 113.091 	 
H 	 -37.9585 	 55.5862 	 109.81 	 
H 	 -35.7845 	 47.521 	 110.706 	 
*
