! wB97X-D3 SP def2-SVP
%pal
nprocs 16
end

* xyz 0 1
S 	 -34.0825 	 43.2868 	 91.9015 	 
C 	 -35.4048 	 42.6166 	 92.8549 	 
C 	 -35.0008 	 42.1603 	 94.0983 	 
C 	 -33.5693 	 42.2951 	 94.2302 	 
C 	 -32.9328 	 42.8959 	 93.1462 	 
H 	 -33.0564 	 42.0283 	 95.1093 	 
C 	 -35.8449 	 41.4963 	 95.182 	 
H 	 -36.7851 	 42.1196 	 95.111 	 
H 	 -35.397 	 41.6236 	 96.1686 	 
C 	 -36.1231 	 40.0378 	 94.8692 	 
H 	 -36.5493 	 40.0018 	 93.8689 	 
H 	 -35.1856 	 39.4893 	 94.8645 	 
C 	 -37.13 	 39.3569 	 95.8032 	 
H 	 -36.7958 	 39.0049 	 96.7599 	 
H 	 -37.8787 	 40.1014 	 96.074 	 
H 	 -37.5607 	 38.5076 	 95.307 	 
S 	 -30.5444 	 42.7314 	 92.0101 	 
C 	 -29.2546 	 43.765 	 92.4287 	 
C 	 -29.6567 	 44.6533 	 93.3899 	 
C 	 -31.043 	 44.4458 	 93.7953 	 
C 	 -31.6547 	 43.5216 	 93.0714 	 
H 	 -28.9391 	 45.4196 	 93.7491 	 
C 	 -31.6569 	 45.2864 	 94.8952 	 
H 	 -30.8885 	 45.7982 	 95.4747 	 
H 	 -32.0337 	 44.5168 	 95.5956 	 
C 	 -32.6612 	 46.3383 	 94.3508 	 
H 	 -33.1812 	 46.8494 	 95.1513 	 
H 	 -33.3969 	 45.9481 	 93.6898 	 
C 	 -32.0047 	 47.3416 	 93.5032 	 
H 	 -31.6132 	 46.8241 	 92.652 	 
H 	 -31.1488 	 47.7932 	 93.9771 	 
H 	 -32.5697 	 48.1731 	 93.1139 	 
H 	 -36.4786 	 42.6604 	 92.5481 	 
H 	 -28.2656 	 43.6502 	 91.934 	 
*
