! wB97X-D3 SP def2-SVP
%pal
nprocs 16
end

* xyz 0 1
S 	 -34.7967 	 31.305 	 42.567 	 
C 	 -36.0302 	 30.2466 	 43.2563 	 
C 	 -35.7971 	 29.8957 	 44.5766 	 
C 	 -34.6549 	 30.5251 	 45.0966 	 
C 	 -34.0167 	 31.3842 	 44.1892 	 
H 	 -34.2327 	 30.4641 	 46.071 	 
C 	 -36.6056 	 29.0172 	 45.4475 	 
H 	 -36.1696 	 29.0036 	 46.4076 	 
H 	 -36.5559 	 28.0202 	 45.0424 	 
C 	 -38.1152 	 29.2816 	 45.6676 	 
H 	 -38.1383 	 30.2824 	 46.1077 	 
H 	 -38.6533 	 29.3334 	 44.754 	 
C 	 -38.8398 	 28.2747 	 46.517 	 
H 	 -38.7509 	 27.285 	 46.0896 	 
H 	 -38.5521 	 28.3047 	 47.5426 	 
H 	 -39.9026 	 28.5472 	 46.6309 	 
S 	 -32.686 	 32.8356 	 45.9674 	 
C 	 -30.9397 	 32.9785 	 45.814 	 
C 	 -30.6187 	 32.9408 	 44.4569 	 
C 	 -31.6351 	 32.2556 	 43.6735 	 
C 	 -32.7953 	 32.0817 	 44.4496 	 
H 	 -29.7649 	 33.2497 	 43.9418 	 
C 	 -31.3797 	 31.7681 	 42.2559 	 
H 	 -30.7363 	 32.4425 	 41.6969 	 
H 	 -32.3498 	 31.8263 	 41.7578 	 
C 	 -30.6268 	 30.3801 	 42.1532 	 
H 	 -29.6044 	 30.4505 	 42.5006 	 
H 	 -30.508 	 30.1356 	 41.0855 	 
C 	 -31.4232 	 29.2312 	 42.883 	 
H 	 -32.4016 	 29.2121 	 42.3908 	 
H 	 -31.4349 	 29.4125 	 43.9869 	 
H 	 -30.9426 	 28.2525 	 42.6963 	 
H 	 -36.9336 	 30.0384 	 42.7028 	 
H 	 -30.278 	 33.3098 	 46.5738 	 
*
