! wB97X-D3 SP def2-SVP
%pal
nprocs 16
end

* xyz 0 1
S 	 9.55974 	 -7.24125 	 68.5352 	 
C 	 9.56971 	 -5.54807 	 69.0719 	 
C 	 10.8512 	 -5.16154 	 69.4913 	 
C 	 11.8903 	 -6.16067 	 69.3062 	 
C 	 11.313 	 -7.31596 	 68.7439 	 
H 	 12.9215 	 -6.00954 	 69.5574 	 
C 	 11.1884 	 -3.77384 	 70.0724 	 
H 	 10.4504 	 -3.00488 	 69.741 	 
H 	 12.1461 	 -3.40542 	 69.5803 	 
C 	 11.2252 	 -3.81629 	 71.7186 	 
H 	 10.1882 	 -3.89254 	 72.082 	 
H 	 11.7375 	 -4.7417 	 72.0207 	 
C 	 11.9179 	 -2.61872 	 72.3276 	 
H 	 11.6853 	 -1.67554 	 71.9017 	 
H 	 11.6523 	 -2.33187 	 73.3848 	 
H 	 12.9766 	 -2.65044 	 72.2106 	 
S 	 11.2058 	 -10.0427 	 68.2679 	 
C 	 12.5614 	 -10.8591 	 67.5748 	 
C 	 13.6055 	 -10.0222 	 67.5004 	 
C 	 13.3466 	 -8.71989 	 67.8835 	 
C 	 12.0439 	 -8.46103 	 68.2592 	 
H 	 14.5578 	 -10.4382 	 67.2433 	 
C 	 14.4268 	 -7.66585 	 67.7566 	 
H 	 15.3528 	 -8.2033 	 68.1668 	 
H 	 14.3002 	 -6.96177 	 68.4905 	 
C 	 14.648 	 -7.08644 	 66.2796 	 
H 	 13.7696 	 -6.50271 	 66.1639 	 
H 	 14.7228 	 -7.91321 	 65.5153 	 
C 	 15.8434 	 -6.06459 	 66.1245 	 
H 	 15.6126 	 -5.45001 	 65.2822 	 
H 	 16.8071 	 -6.67103 	 66.0309 	 
H 	 15.9547 	 -5.46009 	 66.9695 	 
H 	 8.67212 	 -4.92336 	 69.254 	 
H 	 12.7962 	 -11.9281 	 67.6299 	 
*
