! wB97X-D3 SP def2-SVP
%pal
nprocs 16
end

* xyz 0 1
S 	 -32.5528 	 61.6677 	 110.018 	 
C 	 -32.2331 	 60.0039 	 109.732 	 
C 	 -31.0041 	 59.587 	 110.192 	 
C 	 -30.2098 	 60.633 	 110.747 	 
C 	 -30.8709 	 61.84 	 110.666 	 
H 	 -29.232 	 60.5456 	 111.062 	 
C 	 -30.4242 	 58.1532 	 110.15 	 
H 	 -31.227 	 57.6259 	 109.824 	 
H 	 -30.3399 	 57.8055 	 111.172 	 
C 	 -29.2519 	 57.9686 	 109.228 	 
H 	 -29.3279 	 58.4785 	 108.294 	 
H 	 -28.3868 	 58.3553 	 109.65 	 
C 	 -29.1313 	 56.5669 	 108.793 	 
H 	 -28.8447 	 55.94 	 109.578 	 
H 	 -29.989 	 56.1766 	 108.29 	 
H 	 -28.2812 	 56.4859 	 108.08 	 
S 	 -31.4241 	 63.9795 	 112.252 	 
C 	 -30.0551 	 64.9812 	 112.763 	 
C 	 -28.9209 	 64.712 	 112.046 	 
C 	 -29.0926 	 63.6399 	 111.142 	 
C 	 -30.3677 	 63.1388 	 111.109 	 
H 	 -27.9004 	 65.1184 	 112.222 	 
C 	 -27.8999 	 63.0334 	 110.497 	 
H 	 -27.3574 	 63.9012 	 109.918 	 
H 	 -28.1909 	 62.3271 	 109.712 	 
C 	 -26.9726 	 62.2316 	 111.407 	 
H 	 -27.5711 	 61.6455 	 112.158 	 
H 	 -26.4484 	 62.9283 	 112.056 	 
C 	 -25.9395 	 61.3399 	 110.627 	 
H 	 -25.2683 	 60.7935 	 111.236 	 
H 	 -25.3586 	 61.9832 	 109.977 	 
H 	 -26.4601 	 60.6791 	 109.929 	 
H 	 -32.9588 	 59.3243 	 109.303 	 
H 	 -30.0232 	 65.6715 	 113.615 	 
*
