! wB97X-D3 SP def2-SVP
%pal
nprocs 16
end

* xyz 0 1
S 	 -44.1701 	 21.0182 	 87.9835 	 
C 	 -44.5054 	 19.468 	 88.7469 	 
C 	 -43.498 	 19.0562 	 89.6288 	 
C 	 -42.464 	 20.0591 	 89.626 	 
C 	 -42.6634 	 21.1648 	 88.7772 	 
H 	 -41.503 	 20.0314 	 90.2389 	 
C 	 -43.5021 	 17.8739 	 90.654 	 
H 	 -42.8405 	 17.1333 	 90.1893 	 
H 	 -44.4256 	 17.41 	 90.4555 	 
C 	 -43.1342 	 18.3108 	 92.078 	 
H 	 -43.2683 	 17.5271 	 92.7635 	 
H 	 -42.1123 	 18.6364 	 92.1109 	 
C 	 -43.9667 	 19.4716 	 92.6852 	 
H 	 -43.7505 	 19.5238 	 93.7213 	 
H 	 -43.7797 	 20.364 	 92.1081 	 
H 	 -45.0367 	 19.27 	 92.5351 	 
S 	 -42.8814 	 23.8662 	 88.5183 	 
C 	 -41.4137 	 24.8382 	 88.4682 	 
C 	 -40.3064 	 24.0959 	 88.7854 	 
C 	 -40.5667 	 22.652 	 88.8037 	 
C 	 -41.9137 	 22.3739 	 88.5898 	 
H 	 -39.4045 	 24.6141 	 88.8782 	 
C 	 -39.5461 	 21.6263 	 89.0565 	 
H 	 -39.9042 	 20.6575 	 88.8264 	 
H 	 -39.4155 	 21.5992 	 90.0413 	 
C 	 -38.1344 	 21.7662 	 88.4164 	 
H 	 -37.4263 	 21.0196 	 88.7716 	 
H 	 -37.6277 	 22.6309 	 88.707 	 
C 	 -38.1863 	 21.5807 	 86.8226 	 
H 	 -38.8462 	 22.3326 	 86.3926 	 
H 	 -38.4884 	 20.5862 	 86.5308 	 
H 	 -37.1716 	 21.7993 	 86.4668 	 
H 	 -45.4571 	 19.0195 	 88.6551 	 
H 	 -41.3809 	 25.8775 	 88.3521 	 
*
