! wB97X-D3 SP def2-SVP
%pal
nprocs 16
end

* xyz 0 1
S 	 9.64822 	 -9.92484 	 70.1234 	 
C 	 10.7454 	 -8.79641 	 69.3336 	 
C 	 10.2866 	 -7.53284 	 69.1377 	 
C 	 8.84405 	 -7.53532 	 69.4203 	 
C 	 8.39679 	 -8.75209 	 69.9622 	 
H 	 8.30236 	 -6.60837 	 69.3599 	 
C 	 11.1265 	 -6.34608 	 68.5213 	 
H 	 11.8904 	 -6.80298 	 67.9737 	 
H 	 11.617 	 -5.82571 	 69.3607 	 
C 	 10.279 	 -5.39039 	 67.6594 	 
H 	 9.46205 	 -4.90769 	 68.233 	 
H 	 10.8469 	 -4.51102 	 67.2353 	 
C 	 9.73249 	 -6.15424 	 66.4994 	 
H 	 8.91758 	 -6.80867 	 66.9062 	 
H 	 9.29511 	 -5.49998 	 65.7145 	 
H 	 10.5543 	 -6.73777 	 65.9777 	 
S 	 6.424 	 -9.96561 	 68.6027 	 
C 	 4.80948 	 -10.3225 	 69.2409 	 
C 	 4.72154 	 -9.8997 	 70.5539 	 
C 	 5.93761 	 -9.15439 	 70.9689 	 
C 	 6.97004 	 -9.02656 	 70.0087 	 
H 	 3.88606 	 -10.2213 	 71.0969 	 
C 	 6.02401 	 -8.61367 	 72.3822 	 
H 	 5.1753 	 -8.14271 	 72.7681 	 
H 	 6.79024 	 -7.81213 	 72.3131 	 
C 	 6.57366 	 -9.55359 	 73.3879 	 
H 	 7.5126 	 -9.91912 	 72.9239 	 
H 	 5.92138 	 -10.383 	 73.5915 	 
C 	 7.0594 	 -8.89238 	 74.7213 	 
H 	 6.29823 	 -8.88188 	 75.5695 	 
H 	 7.30688 	 -7.85702 	 74.6371 	 
H 	 7.99899 	 -9.4018 	 74.9959 	 
H 	 11.7709 	 -8.93147 	 69.3289 	 
H 	 4.06667 	 -10.9464 	 68.8145 	 
*
