! wB97X-D3 SP def2-SVP
%pal
nprocs 16
end

* xyz 0 1
S 	 8.87726 	 23.5719 	 67.9782 	 
C 	 8.00567 	 22.6593 	 66.8938 	 
C 	 7.57993 	 23.3634 	 65.7937 	 
C 	 8.15536 	 24.7187 	 65.8238 	 
C 	 9.08638 	 24.8567 	 66.847 	 
H 	 7.99886 	 25.5014 	 65.1247 	 
C 	 6.62644 	 22.9867 	 64.6227 	 
H 	 6.68364 	 21.9276 	 64.3319 	 
H 	 7.10715 	 23.5614 	 63.8134 	 
C 	 5.13035 	 23.3233 	 64.8485 	 
H 	 4.53742 	 22.8269 	 64 	 
H 	 4.75074 	 22.834 	 65.8052 	 
C 	 4.93674 	 24.8302 	 64.8373 	 
H 	 3.85862 	 25.1245 	 64.8861 	 
H 	 5.35822 	 25.3115 	 65.7109 	 
H 	 5.41909 	 25.2106 	 63.9666 	 
S 	 9.33435 	 27.6188 	 66.6588 	 
C 	 10.7185 	 28.3787 	 67.3827 	 
C 	 11.5828 	 27.4242 	 67.9104 	 
C 	 11.1419 	 26.0938 	 67.7891 	 
C 	 9.87548 	 26.03 	 67.2462 	 
H 	 12.4546 	 27.8698 	 68.474 	 
C 	 12.0559 	 24.9437 	 68.2156 	 
H 	 13.0122 	 25.1008 	 67.6961 	 
H 	 11.7499 	 23.8795 	 67.8926 	 
C 	 12.1712 	 24.7912 	 69.795 	 
H 	 11.1725 	 24.5204 	 70.1662 	 
H 	 12.489 	 25.6092 	 70.3969 	 
C 	 13.036 	 23.5275 	 70.1197 	 
H 	 14.1349 	 23.674 	 69.9146 	 
H 	 12.5014 	 22.6521 	 69.7098 	 
H 	 13.0156 	 23.2899 	 71.1708 	 
H 	 7.6693 	 21.6219 	 66.9291 	 
H 	 10.8795 	 29.4859 	 67.371 	 
*
