! wB97X-D3 SP def2-SVP
%pal
nprocs 16
end

* xyz 0 1
S 	 -53.5559 	 14.093 	 89.2074 	 
C 	 -52.3257 	 15.3901 	 89.199 	 
C 	 -51.4034 	 15.2286 	 88.1874 	 
C 	 -51.8356 	 14.2294 	 87.2451 	 
C 	 -52.8855 	 13.5055 	 87.6576 	 
H 	 -51.3274 	 13.8588 	 86.3705 	 
C 	 -50.2053 	 16.1176 	 87.9946 	 
H 	 -49.7521 	 15.7837 	 87.0213 	 
H 	 -49.4814 	 15.8491 	 88.6631 	 
C 	 -50.6117 	 17.637 	 87.9773 	 
H 	 -51.5083 	 17.7663 	 87.4171 	 
H 	 -50.6651 	 17.9532 	 89.0309 	 
C 	 -49.5281 	 18.4124 	 87.2506 	 
H 	 -48.6604 	 18.383 	 87.8607 	 
H 	 -49.3237 	 18.1118 	 86.2219 	 
H 	 -49.836 	 19.4533 	 87.153 	 
S 	 -53.2109 	 10.788 	 87.6971 	 
C 	 -54.0257 	 10.0398 	 86.4106 	 
C 	 -54.4262 	 10.9479 	 85.4374 	 
C 	 -54.1883 	 12.3048 	 85.7654 	 
C 	 -53.4828 	 12.3817 	 86.9706 	 
H 	 -54.9021 	 10.5417 	 84.557 	 
C 	 -54.5824 	 13.4794 	 84.8678 	 
H 	 -54.3478 	 14.4609 	 85.3535 	 
H 	 -55.6856 	 13.2868 	 84.8942 	 
C 	 -54.0893 	 13.3273 	 83.4426 	 
H 	 -54.3994 	 14.1642 	 82.8407 	 
H 	 -54.5342 	 12.5052 	 82.8996 	 
C 	 -52.5973 	 13.5278 	 83.3117 	 
H 	 -52.0356 	 12.8001 	 83.9805 	 
H 	 -52.2978 	 14.5851 	 83.5966 	 
H 	 -52.3055 	 13.2107 	 82.3427 	 
H 	 -52.2509 	 16.1307 	 89.9793 	 
H 	 -54.1722 	 8.92086 	 86.2471 	 
*
