! wB97X-D3 SP def2-SVP
%pal
nprocs 16
end

* xyz 0 1
S 	 29.9116 	 18.2065 	 72.4921 	 
C 	 28.8427 	 16.9337 	 73.0351 	 
C 	 29.5577 	 15.7586 	 72.8441 	 
C 	 30.8059 	 15.9336 	 72.1606 	 
C 	 31.1076 	 17.2091 	 71.8708 	 
H 	 31.3921 	 15.1297 	 71.7403 	 
C 	 29.0392 	 14.3618 	 73.2629 	 
H 	 28.9157 	 14.4386 	 74.3118 	 
H 	 29.7998 	 13.5449 	 72.858 	 
C 	 27.6179 	 13.939 	 72.7537 	 
H 	 26.9798 	 14.7349 	 72.9714 	 
H 	 27.5251 	 13.8927 	 71.6034 	 
C 	 27.275 	 12.5921 	 73.436 	 
H 	 26.2138 	 12.4419 	 73.5736 	 
H 	 27.6071 	 11.7572 	 72.837 	 
H 	 27.6511 	 12.5078 	 74.4527 	 
S 	 32.2665 	 18.4221 	 69.6753 	 
C 	 33.9846 	 18.605 	 69.7302 	 
C 	 34.5599 	 18.2297 	 70.8754 	 
C 	 33.6581 	 17.6413 	 71.7991 	 
C 	 32.3662 	 17.6449 	 71.2456 	 
H 	 35.6245 	 18.4791 	 71.0457 	 
C 	 34.0843 	 17.0132 	 73.1289 	 
H 	 33.2414 	 17.2287 	 73.8466 	 
H 	 34.8484 	 17.5526 	 73.5318 	 
C 	 34.4623 	 15.5051 	 73.1302 	 
H 	 35.2605 	 15.5192 	 72.3861 	 
H 	 33.6988 	 14.7761 	 72.7691 	 
C 	 34.9045 	 14.8908 	 74.4774 	 
H 	 34.3828 	 15.3638 	 75.3097 	 
H 	 36.0131 	 15.0058 	 74.6076 	 
H 	 34.7256 	 13.7753 	 74.45 	 
H 	 27.8806 	 17.0676 	 73.2898 	 
H 	 34.4945 	 18.9592 	 68.8894 	 
*
