! wB97X-D3 SP def2-SVP
%pal
nprocs 16
end

* xyz 0 1
S 	 -0.676385 	 27.5946 	 33.3446 	 
C 	 -1.57899 	 27.9075 	 31.8181 	 
C 	 -2.11966 	 26.7421 	 31.2788 	 
C 	 -1.61984 	 25.6018 	 31.9488 	 
C 	 -0.91195 	 25.8459 	 33.1396 	 
H 	 -1.80626 	 24.6031 	 31.7388 	 
C 	 -2.99797 	 26.7796 	 30.0254 	 
H 	 -2.41403 	 26.4055 	 29.228 	 
H 	 -3.29788 	 27.8546 	 29.869 	 
C 	 -4.30668 	 26.0476 	 30.0692 	 
H 	 -4.18095 	 24.981 	 30.2641 	 
H 	 -4.74626 	 26.4858 	 30.9796 	 
C 	 -5.21645 	 26.1974 	 28.7721 	 
H 	 -5.07809 	 25.3514 	 28.0285 	 
H 	 -6.25437 	 26.2825 	 29.0678 	 
H 	 -5.10223 	 27.1102 	 28.2465 	 
S 	 -0.0891755 	 25.4399 	 35.6919 	 
C 	 0.792564 	 24.0321 	 36.14 	 
C 	 0.689812 	 23.0823 	 35.1353 	 
C 	 0.136503 	 23.5485 	 33.9304 	 
C 	 -0.2839 	 24.852 	 34.0549 	 
H 	 1.17744 	 22.1035 	 35.2423 	 
C 	 0.108287 	 22.6747 	 32.7359 	 
H 	 0.995673 	 22.1085 	 32.6935 	 
H 	 0.277967 	 23.3841 	 31.9115 	 
C 	 -1.10642 	 21.8714 	 32.4252 	 
H 	 -0.894457 	 21.3082 	 31.479 	 
H 	 -1.95692 	 22.5355 	 32.2623 	 
C 	 -1.50641 	 20.9511 	 33.5971 	 
H 	 -0.836059 	 20.1101 	 33.8096 	 
H 	 -2.49221 	 20.4529 	 33.4921 	 
H 	 -1.58246 	 21.5007 	 34.5409 	 
H 	 -2.00711 	 28.8616 	 31.4261 	 
H 	 1.16741 	 23.8513 	 37.1386 	 
*
