! wB97X-D3 SP def2-SVP
%pal
nprocs 16
end

* xyz 0 1
S 	 -52.7999 	 22.8644 	 91.243 	 
C 	 -51.2794 	 22.9859 	 90.4115 	 
C 	 -51.3605 	 23.7839 	 89.3069 	 
C 	 -52.7122 	 24.1664 	 89.028 	 
C 	 -53.622 	 23.919 	 90.0377 	 
H 	 -53.1451 	 24.7134 	 88.1841 	 
C 	 -50.1944 	 24.095 	 88.2887 	 
H 	 -49.3625 	 24.7699 	 88.6358 	 
H 	 -50.6996 	 24.7061 	 87.5522 	 
C 	 -49.3797 	 22.8567 	 87.6457 	 
H 	 -48.9236 	 22.2758 	 88.4517 	 
H 	 -50.1451 	 22.2112 	 87.1874 	 
C 	 -48.2799 	 23.2718 	 86.5801 	 
H 	 -48.5676 	 24.2053 	 86.121 	 
H 	 -47.3072 	 23.3859 	 87.0541 	 
H 	 -48.3031 	 22.5102 	 85.7901 	 
S 	 -55.4718 	 25.6674 	 89.2199 	 
C 	 -57.1919 	 25.302 	 89.5133 	 
C 	 -57.3604 	 24.2233 	 90.4379 	 
C 	 -56.1096 	 23.686 	 90.8548 	 
C 	 -55.0439 	 24.2286 	 90.1424 	 
H 	 -58.3775 	 23.7928 	 90.6019 	 
C 	 -55.9784 	 22.4707 	 91.6832 	 
H 	 -56.8692 	 22.4874 	 92.3222 	 
H 	 -55.2199 	 22.6058 	 92.4361 	 
C 	 -55.916 	 21.1206 	 90.9955 	 
H 	 -54.9915 	 21.0929 	 90.3865 	 
H 	 -56.8376 	 21.0625 	 90.4142 	 
C 	 -55.7705 	 19.9824 	 92.0171 	 
H 	 -55.8736 	 19.0038 	 91.5207 	 
H 	 -56.4787 	 20.1379 	 92.8056 	 
H 	 -54.8034 	 20.0734 	 92.4854 	 
H 	 -50.3648 	 22.5615 	 90.9042 	 
H 	 -58.0209 	 25.7583 	 88.9976 	 
*
