! wB97X-D3 SP def2-SVP
%pal
nprocs 16
end

* xyz 0 1
S 	 -50.0557 	 31.5085 	 92.3002 	 
C 	 -50.1819 	 29.7174 	 92.4497 	 
C 	 -50.7994 	 29.0706 	 91.3924 	 
C 	 -51.096 	 30.0554 	 90.4174 	 
C 	 -50.7078 	 31.3454 	 90.6544 	 
H 	 -51.5812 	 30.0357 	 89.3906 	 
C 	 -51.191 	 27.5198 	 91.3871 	 
H 	 -51.3404 	 27.1901 	 92.4876 	 
H 	 -50.3412 	 26.9044 	 91.0015 	 
C 	 -52.4033 	 27.016 	 90.5535 	 
H 	 -52.2299 	 27.1304 	 89.5617 	 
H 	 -52.4075 	 25.9069 	 90.5541 	 
C 	 -53.8002 	 27.6212 	 91.0108 	 
H 	 -53.9767 	 28.6073 	 90.6715 	 
H 	 -54.6443 	 27.1565 	 90.4961 	 
H 	 -54.0409 	 27.7274 	 92.0197 	 
S 	 -49.3049 	 33.4622 	 89.8025 	 
C 	 -49.9349 	 34.5908 	 88.6983 	 
C 	 -51.2016 	 34.3177 	 88.3782 	 
C 	 -51.6793 	 33.0363 	 88.8757 	 
C 	 -50.7418 	 32.4826 	 89.7536 	 
H 	 -51.7308 	 34.9466 	 87.6572 	 
C 	 -52.9901 	 32.4388 	 88.4696 	 
H 	 -52.7801 	 31.3316 	 88.4475 	 
H 	 -53.1574 	 32.7461 	 87.4902 	 
C 	 -54.2143 	 32.5495 	 89.3936 	 
H 	 -54.4311 	 33.5285 	 89.7769 	 
H 	 -54.0247 	 32.0411 	 90.3341 	 
C 	 -55.4849 	 31.963 	 88.7513 	 
H 	 -55.1824 	 31.2005 	 88.0474 	 
H 	 -55.9308 	 32.7383 	 88.1206 	 
H 	 -56.2509 	 31.6312 	 89.5246 	 
H 	 -49.9968 	 29.1796 	 93.3234 	 
H 	 -49.3707 	 35.4588 	 88.4483 	 
*
