! wB97X-D3 SP def2-SVP
%pal
nprocs 16
end

* xyz 0 1
S 	 10.0108 	 -9.75085 	 95.4786 	 
C 	 11.4233 	 -9.84539 	 96.5739 	 
C 	 11.0195 	 -9.54341 	 97.865 	 
C 	 9.63003 	 -9.21273 	 97.9715 	 
C 	 8.9257 	 -9.35618 	 96.7969 	 
H 	 9.12461 	 -8.92975 	 98.8871 	 
C 	 11.9711 	 -9.64908 	 99.0942 	 
H 	 11.8176 	 -8.7354 	 99.6797 	 
H 	 13.0038 	 -9.62709 	 98.7379 	 
C 	 11.7457 	 -10.8443 	 99.9954 	 
H 	 12.5117 	 -10.9086 	 100.821 	 
H 	 10.8466 	 -10.6908 	 100.497 	 
C 	 11.8444 	 -12.1865 	 99.276 	 
H 	 12.7621 	 -12.2088 	 98.7145 	 
H 	 11.8138 	 -12.9906 	 100.005 	 
H 	 10.9813 	 -12.3364 	 98.568 	 
S 	 7.12271 	 -7.85335 	 95.3618 	 
C 	 5.39171 	 -8.22853 	 95.3586 	 
C 	 5.14671 	 -8.88568 	 96.4771 	 
C 	 6.31771 	 -9.36319 	 97.1627 	 
C 	 7.51704 	 -9.08805 	 96.5087 	 
H 	 4.07374 	 -9.04902 	 96.7567 	 
C 	 6.19571 	 -10.2986 	 98.3361 	 
H 	 6.95283 	 -11.0759 	 98.4302 	 
H 	 5.39252 	 -10.9351 	 98.0847 	 
C 	 5.83789 	 -9.59619 	 99.6653 	 
H 	 4.96391 	 -8.81777 	 99.6138 	 
H 	 6.74119 	 -9.07641 	 100.015 	 
C 	 5.44786 	 -10.7406 	 100.685 	 
H 	 4.94867 	 -11.6289 	 100.217 	 
H 	 4.7289 	 -10.3489 	 101.494 	 
H 	 6.33767 	 -11.1113 	 101.244 	 
H 	 12.3633 	 -10.3165 	 96.3424 	 
H 	 4.61472 	 -7.91835 	 94.7153 	 
*
