! wB97X-D3 SP def2-SVP
%pal
nprocs 16
end

* xyz 0 1
S 	 -40.6809 	 17.4193 	 79.2295 	 
C 	 -40.411 	 15.7557 	 79.4868 	 
C 	 -41.5391 	 14.9899 	 79.1207 	 
C 	 -42.6485 	 15.84 	 78.7662 	 
C 	 -42.3419 	 17.1824 	 78.9238 	 
H 	 -43.5806 	 15.4061 	 78.5387 	 
C 	 -41.7764 	 13.5521 	 79.5257 	 
H 	 -42.8542 	 13.3103 	 79.632 	 
H 	 -41.471 	 13.4461 	 80.5692 	 
C 	 -41.1896 	 12.578 	 78.4323 	 
H 	 -40.1006 	 12.6268 	 78.4464 	 
H 	 -41.4201 	 11.5284 	 78.7679 	 
C 	 -41.8477 	 12.6945 	 77.0335 	 
H 	 -41.596 	 13.697 	 76.6854 	 
H 	 -41.414 	 12.0747 	 76.2146 	 
H 	 -42.934 	 12.4496 	 76.9577 	 
S 	 -42.8713 	 19.4465 	 77.5035 	 
C 	 -44.3699 	 20.3673 	 77.8794 	 
C 	 -45.1021 	 19.7429 	 78.811 	 
C 	 -44.4369 	 18.6562 	 79.3385 	 
C 	 -43.2343 	 18.391 	 78.7936 	 
H 	 -46.0645 	 20.1016 	 79.0538 	 
C 	 -45.0734 	 17.7696 	 80.3921 	 
H 	 -45.1535 	 16.8292 	 79.9797 	 
H 	 -46.0226 	 18.2395 	 80.5529 	 
C 	 -44.3123 	 17.5202 	 81.753 	 
H 	 -43.371 	 16.9249 	 81.5615 	 
H 	 -44.9429 	 16.9221 	 82.4546 	 
C 	 -43.9121 	 18.8095 	 82.2921 	 
H 	 -43.1845 	 19.4124 	 81.568 	 
H 	 -43.3701 	 18.5634 	 83.1761 	 
H 	 -44.8755 	 19.3265 	 82.6097 	 
H 	 -39.5441 	 15.3199 	 79.8863 	 
H 	 -44.7819 	 21.0517 	 77.2034 	 
*
