! wB97X-D3 SP def2-SVP
%pal
nprocs 16
end

* xyz 0 1
S 	 -83.711 	 33.0585 	 134.39 	 
C 	 -82.6817 	 31.7435 	 133.794 	 
C 	 -81.4664 	 32.224 	 133.323 	 
C 	 -81.4132 	 33.6521 	 133.394 	 
C 	 -82.5645 	 34.2544 	 133.897 	 
H 	 -80.5873 	 34.2623 	 133.143 	 
C 	 -80.3195 	 31.2577 	 132.858 	 
H 	 -79.659 	 31.7147 	 132.148 	 
H 	 -80.8758 	 30.5848 	 132.189 	 
C 	 -79.3916 	 30.636 	 133.882 	 
H 	 -79.8741 	 29.868 	 134.532 	 
H 	 -78.6305 	 30.0748 	 133.276 	 
C 	 -78.7225 	 31.6853 	 134.793 	 
H 	 -77.9427 	 32.2531 	 134.182 	 
H 	 -79.4159 	 32.5118 	 135.187 	 
H 	 -78.2479 	 31.2212 	 135.711 	 
S 	 -84.1892 	 35.9283 	 132.608 	 
C 	 -84.2756 	 37.6656 	 132.954 	 
C 	 -83.2705 	 38.015 	 133.797 	 
C 	 -82.4984 	 36.8852 	 134.317 	 
C 	 -82.9878 	 35.6533 	 133.863 	 
H 	 -83.1418 	 39.1282 	 134.005 	 
C 	 -81.3108 	 37.0221 	 135.206 	 
H 	 -80.7166 	 37.7845 	 134.813 	 
H 	 -80.68 	 36.0936 	 135.278 	 
C 	 -81.6156 	 37.5565 	 136.661 	 
H 	 -81.8909 	 36.7698 	 137.407 	 
H 	 -82.5063 	 38.2223 	 136.578 	 
C 	 -80.5386 	 38.4889 	 137.228 	 
H 	 -80.218 	 39.2767 	 136.545 	 
H 	 -79.6455 	 37.8703 	 137.494 	 
H 	 -80.9229 	 38.9177 	 138.171 	 
H 	 -82.9311 	 30.7082 	 133.744 	 
H 	 -85.0263 	 38.3198 	 132.478 	 
*
