! wB97X-D3 SP def2-SVP
%pal
nprocs 16
end

* xyz 0 1
S 	 -48.2819 	 38.7934 	 82.9215 	 
C 	 -48.0811 	 37.9915 	 81.4116 	 
C 	 -48.3649 	 38.8069 	 80.3405 	 
C 	 -49.1053 	 39.9763 	 80.7495 	 
C 	 -49.3073 	 40.0469 	 82.1261 	 
H 	 -49.3725 	 40.8774 	 80.2046 	 
C 	 -47.9526 	 38.6349 	 78.8783 	 
H 	 -46.8934 	 38.9975 	 78.7486 	 
H 	 -48.3837 	 39.5012 	 78.3032 	 
C 	 -48.1658 	 37.2606 	 78.202 	 
H 	 -47.3912 	 37.3154 	 77.4392 	 
H 	 -47.7796 	 36.4144 	 78.7917 	 
C 	 -49.6 	 36.9075 	 77.6284 	 
H 	 -50.368 	 36.9372 	 78.4418 	 
H 	 -49.9139 	 37.6259 	 76.8151 	 
H 	 -49.5794 	 35.9316 	 77.2634 	 
S 	 -48.8431 	 42.0357 	 84.0196 	 
C 	 -50.1673 	 43.0873 	 84.3674 	 
C 	 -51.2028 	 43.0088 	 83.4605 	 
C 	 -51.0629 	 41.9259 	 82.5477 	 
C 	 -49.8825 	 41.23 	 82.7863 	 
H 	 -52.0491 	 43.699 	 83.496 	 
C 	 -52.106 	 41.5759 	 81.5031 	 
H 	 -51.5905 	 40.9761 	 80.744 	 
H 	 -52.3869 	 42.4761 	 80.8833 	 
C 	 -53.3012 	 40.8819 	 82.0792 	 
H 	 -52.9792 	 39.9275 	 82.5675 	 
H 	 -53.9775 	 40.661 	 81.2479 	 
C 	 -54.1897 	 41.6237 	 82.9943 	 
H 	 -54.6837 	 42.4539 	 82.4743 	 
H 	 -53.5177 	 41.9463 	 83.8143 	 
H 	 -54.8772 	 41.0287 	 83.5418 	 
H 	 -47.3863 	 37.1877 	 81.3912 	 
H 	 -50.1716 	 43.8574 	 85.0923 	 
*
