! wB97X-D3 SP def2-SVP
%pal
nprocs 16
end

* xyz 0 1
S 	 -74.6041 	 51.9599 	 137.541 	 
C 	 -73.8787 	 53.4015 	 138.09 	 
C 	 -73.3508 	 54.1941 	 137.072 	 
C 	 -73.5073 	 53.5253 	 135.809 	 
C 	 -74.1772 	 52.2613 	 135.892 	 
H 	 -73.2017 	 53.8639 	 134.768 	 
C 	 -72.7473 	 55.5861 	 137.156 	 
H 	 -72.5437 	 56.0264 	 136.134 	 
H 	 -71.7469 	 55.476 	 137.609 	 
C 	 -73.548 	 56.6647 	 138.068 	 
H 	 -73.6901 	 56.2177 	 139.096 	 
H 	 -72.9467 	 57.6459 	 138.14 	 
C 	 -74.9654 	 56.9971 	 137.486 	 
H 	 -74.8081 	 57.4907 	 136.532 	 
H 	 -75.5277 	 56.1341 	 137.193 	 
H 	 -75.5387 	 57.5897 	 138.189 	 
S 	 -73.6952 	 51.1247 	 133.245 	 
C 	 -74.9519 	 50.0586 	 132.59 	 
C 	 -75.9877 	 49.9807 	 133.475 	 
C 	 -75.8648 	 50.8282 	 134.614 	 
C 	 -74.6572 	 51.462 	 134.762 	 
H 	 -76.8034 	 49.4293 	 133.134 	 
C 	 -77.036 	 50.9484 	 135.541 	 
H 	 -77.9574 	 51.2615 	 134.983 	 
H 	 -76.792 	 51.8438 	 136.085 	 
C 	 -77.264 	 49.8172 	 136.544 	 
H 	 -77.7641 	 50.2507 	 137.446 	 
H 	 -76.2916 	 49.5338 	 136.917 	 
C 	 -78.058 	 48.6298 	 136.085 	 
H 	 -78.0956 	 47.853 	 136.809 	 
H 	 -77.6255 	 48.1441 	 135.261 	 
H 	 -79.0702 	 48.9245 	 135.783 	 
H 	 -74.0793 	 53.7556 	 139.068 	 
H 	 -74.9148 	 49.6136 	 131.607 	 
*
