! wB97X-D3 SP def2-SVP
%pal
nprocs 16
end

* xyz 0 1
S 	 -107.383 	 51.63 	 113.866 	 
C 	 -108.825 	 52.0383 	 114.662 	 
C 	 -108.569 	 53.0994 	 115.461 	 
C 	 -107.288 	 53.7095 	 115.235 	 
C 	 -106.541 	 53.0322 	 114.321 	 
H 	 -107.068 	 54.696 	 115.48 	 
C 	 -109.597 	 53.6116 	 116.422 	 
H 	 -109.158 	 54.2998 	 117.127 	 
H 	 -109.955 	 52.8261 	 117.04 	 
C 	 -110.777 	 54.3094 	 115.711 	 
H 	 -111.152 	 53.603 	 115.028 	 
H 	 -111.527 	 54.5572 	 116.466 	 
C 	 -110.299 	 55.5389 	 114.842 	 
H 	 -111.21 	 56.1364 	 114.613 	 
H 	 -109.692 	 56.2919 	 115.323 	 
H 	 -109.835 	 55.2445 	 113.86 	 
S 	 -104.055 	 52.0321 	 113.806 	 
C 	 -102.74 	 53.104 	 113.195 	 
C 	 -103.31 	 54.3136 	 112.826 	 
C 	 -104.722 	 54.4181 	 113.161 	 
C 	 -105.202 	 53.2936 	 113.784 	 
H 	 -102.687 	 55.0205 	 112.309 	 
C 	 -105.529 	 55.6246 	 112.925 	 
H 	 -105.255 	 56.3515 	 113.659 	 
H 	 -106.607 	 55.3284 	 113.089 	 
C 	 -105.461 	 56.3484 	 111.544 	 
H 	 -104.593 	 56.8913 	 111.671 	 
H 	 -106.33 	 57.0627 	 111.542 	 
C 	 -105.485 	 55.5361 	 110.269 	 
H 	 -106.511 	 55.1887 	 110.205 	 
H 	 -104.855 	 54.626 	 110.186 	 
H 	 -105.399 	 56.1424 	 109.42 	 
H 	 -109.663 	 51.3119 	 114.796 	 
H 	 -101.709 	 52.8465 	 112.94 	 
*
