! wB97X-D3 SP def2-SVP
%pal
nprocs 16
end

* xyz 0 1
S 	 -42.6499 	 37.0559 	 75.207 	 
C 	 -43.9062 	 37.3968 	 76.3585 	 
C 	 -43.3959 	 37.7451 	 77.6393 	 
C 	 -41.9563 	 37.7572 	 77.6735 	 
C 	 -41.4174 	 37.4309 	 76.408 	 
H 	 -41.2389 	 38.0425 	 78.4207 	 
C 	 -44.2136 	 37.974 	 78.855 	 
H 	 -43.5279 	 38.014 	 79.683 	 
H 	 -44.8584 	 37.1086 	 79.0106 	 
C 	 -44.9141 	 39.3186 	 78.9668 	 
H 	 -44.2365 	 40.1824 	 78.6453 	 
H 	 -45.776 	 39.2993 	 78.2856 	 
C 	 -45.6074 	 39.633 	 80.295 	 
H 	 -45.8092 	 40.6737 	 80.4176 	 
H 	 -46.4257 	 38.8884 	 80.3953 	 
H 	 -44.8966 	 39.389 	 81.0593 	 
S 	 -39.276 	 38.6408 	 75.1707 	 
C 	 -37.7949 	 37.8405 	 75.1753 	 
C 	 -37.7986 	 36.663 	 75.9025 	 
C 	 -39.0982 	 36.409 	 76.4597 	 
C 	 -40.0548 	 37.346 	 76.0516 	 
H 	 -37.0029 	 36.0752 	 75.952 	 
C 	 -39.3023 	 35.0765 	 77.2562 	 
H 	 -39.2081 	 35.3802 	 78.3398 	 
H 	 -38.421 	 34.4049 	 77.2094 	 
C 	 -40.6731 	 34.3066 	 77.0498 	 
H 	 -41.4626 	 35.0307 	 77.3718 	 
H 	 -40.6957 	 33.4906 	 77.7578 	 
C 	 -41.0866 	 33.9214 	 75.6499 	 
H 	 -41.442 	 34.7626 	 75.0092 	 
H 	 -41.9562 	 33.3006 	 75.7758 	 
H 	 -40.291 	 33.5044 	 75.0475 	 
H 	 -44.945 	 37.331 	 76.1873 	 
H 	 -36.9087 	 38.1728 	 74.6868 	 
*
