! wB97X-D3 SP def2-SVP
%pal
nprocs 16
end

* xyz 0 1
S 	 45.4831 	 19.303 	 87.353 	 
C 	 44.8767 	 20.9606 	 87.3518 	 
C 	 45.0705 	 21.5731 	 86.0777 	 
C 	 45.5405 	 20.5912 	 85.1386 	 
C 	 45.9193 	 19.3964 	 85.7278 	 
H 	 45.583 	 20.7979 	 84.0781 	 
C 	 44.654 	 22.951 	 85.5668 	 
H 	 45.4494 	 23.4788 	 85.0671 	 
H 	 44.4186 	 23.5514 	 86.4967 	 
C 	 43.5642 	 22.9427 	 84.5841 	 
H 	 43.9818 	 22.8728 	 83.5346 	 
H 	 42.8411 	 22.1283 	 84.867 	 
C 	 42.7898 	 24.277 	 84.6383 	 
H 	 42.0886 	 24.2615 	 85.5186 	 
H 	 43.4632 	 25.1336 	 84.7555 	 
H 	 42.1326 	 24.4989 	 83.7678 	 
S 	 47.8901 	 17.5931 	 85.254 	 
C 	 47.7178 	 16.3283 	 84.0203 	 
C 	 46.5341 	 16.4114 	 83.3926 	 
C 	 45.731 	 17.5291 	 83.8864 	 
C 	 46.2742 	 18.1652 	 84.9849 	 
H 	 46.2606 	 15.6969 	 82.6451 	 
C 	 44.3738 	 17.9003 	 83.249 	 
H 	 44.2063 	 17.3021 	 82.3635 	 
H 	 44.5188 	 18.8935 	 82.9886 	 
C 	 43.2051 	 17.9062 	 84.3265 	 
H 	 43.4968 	 18.4299 	 85.2539 	 
H 	 43.0968 	 16.8612 	 84.6014 	 
C 	 41.8072 	 18.5141 	 83.8125 	 
H 	 41.9574 	 19.532 	 83.473 	 
H 	 41.078 	 18.6423 	 84.6023 	 
H 	 41.4619 	 17.9222 	 82.9886 	 
H 	 44.4052 	 21.421 	 88.219 	 
H 	 48.5057 	 15.6537 	 83.753 	 
*
