! wB97X-D3 SP def2-SVP
%pal
nprocs 16
end

* xyz 0 1
S 	 -43.9655 	 36.3782 	 81.6788 	 
C 	 -42.7257 	 36.484 	 80.4116 	 
C 	 -42.4398 	 37.8055 	 80.1644 	 
C 	 -43.0222 	 38.6863 	 81.1516 	 
C 	 -43.8032 	 38.0188 	 82.1072 	 
H 	 -42.979 	 39.7878 	 81.0998 	 
C 	 -41.7487 	 38.257 	 78.9144 	 
H 	 -42.4765 	 38.5903 	 78.1535 	 
H 	 -41.1707 	 37.3633 	 78.4728 	 
C 	 -40.7695 	 39.4321 	 79.0456 	 
H 	 -40.7557 	 40.045 	 78.106 	 
H 	 -41.2754 	 40.0663 	 79.7133 	 
C 	 -39.3278 	 39.0064 	 79.6984 	 
H 	 -39.5315 	 38.4638 	 80.6356 	 
H 	 -38.8108 	 38.3412 	 79.0593 	 
H 	 -38.6722 	 39.8869 	 79.8839 	 
S 	 -46.3194 	 39.1309 	 82.6627 	 
C 	 -46.4868 	 40.243 	 84.0084 	 
C 	 -45.3448 	 40.0897 	 84.8637 	 
C 	 -44.4031 	 39.0918 	 84.3646 	 
C 	 -44.6861 	 38.6317 	 83.0752 	 
H 	 -45.2285 	 40.6745 	 85.7711 	 
C 	 -43.0592 	 38.8647 	 85.0113 	 
H 	 -42.845 	 37.7809 	 84.8676 	 
H 	 -43.2636 	 38.8276 	 86.0686 	 
C 	 -41.9047 	 39.8599 	 84.803 	 
H 	 -41.7208 	 39.9647 	 83.7068 	 
H 	 -40.9999 	 39.3662 	 85.2221 	 
C 	 -42.1372 	 41.2272 	 85.4607 	 
H 	 -42.6056 	 41.2623 	 86.4603 	 
H 	 -42.7088 	 41.851 	 84.7381 	 
H 	 -41.1733 	 41.7023 	 85.6768 	 
H 	 -42.4708 	 35.6896 	 79.6941 	 
H 	 -47.1877 	 41.0791 	 84.0163 	 
*
