! wB97X-D3 SP def2-SVP
%pal
nprocs 16
end

* xyz 0 1
S 	 -32.3509 	 74.411 	 164.929 	 
C 	 -31.6636 	 74.1257 	 163.356 	 
C 	 -32.1404 	 75.0313 	 162.397 	 
C 	 -33.0781 	 75.9221 	 163.038 	 
C 	 -33.2648 	 75.7525 	 164.407 	 
H 	 -33.5396 	 76.6924 	 162.459 	 
C 	 -31.99 	 75.073 	 160.85 	 
H 	 -33.024 	 75.0935 	 160.483 	 
H 	 -31.688 	 74.0865 	 160.596 	 
C 	 -31.0709 	 76.1944 	 160.294 	 
H 	 -31.1129 	 76.256 	 159.185 	 
H 	 -31.442 	 77.1638 	 160.651 	 
C 	 -29.5846 	 76.0629 	 160.673 	 
H 	 -29.4909 	 75.9527 	 161.731 	 
H 	 -29.2528 	 75.1714 	 160.107 	 
H 	 -29.0386 	 76.944 	 160.321 	 
S 	 -33.4365 	 76.6866 	 167.033 	 
C 	 -34.8653 	 77.5509 	 167.407 	 
C 	 -35.7149 	 77.6674 	 166.371 	 
C 	 -35.3412 	 77.0189 	 165.175 	 
C 	 -34.0823 	 76.4477 	 165.339 	 
H 	 -36.5524 	 78.345 	 166.526 	 
C 	 -36.1897 	 76.977 	 163.9 	 
H 	 -36.0566 	 76.0292 	 163.434 	 
H 	 -35.707 	 77.6505 	 163.181 	 
C 	 -37.7091 	 77.2683 	 164.002 	 
H 	 -38.0499 	 77.3778 	 163 	 
H 	 -38.0333 	 78.1379 	 164.57 	 
C 	 -38.5209 	 76.0417 	 164.501 	 
H 	 -39.5864 	 76.3577 	 164.548 	 
H 	 -38.3525 	 75.8176 	 165.541 	 
H 	 -38.3829 	 75.2184 	 163.857 	 
H 	 -30.9635 	 73.294 	 163.085 	 
H 	 -35.0018 	 78.1458 	 168.255 	 
*
