! wB97X-D3 SP def2-SVP
%pal
nprocs 16
end

* xyz 0 1
S 	 -32.8133 	 69.336 	 145.942 	 
C 	 -31.7929 	 68.5951 	 144.687 	 
C 	 -31.1407 	 67.5119 	 145.19 	 
C 	 -31.6051 	 67.1535 	 146.493 	 
C 	 -32.5047 	 68.0397 	 147.022 	 
H 	 -31.2719 	 66.3492 	 147.139 	 
C 	 -30.2592 	 66.6006 	 144.405 	 
H 	 -30.1577 	 65.6726 	 144.922 	 
H 	 -29.1988 	 66.98 	 144.279 	 
C 	 -30.8227 	 66.1005 	 143.039 	 
H 	 -31.0256 	 67.0082 	 142.516 	 
H 	 -30.1134 	 65.5316 	 142.353 	 
C 	 -32.157 	 65.2723 	 143.128 	 
H 	 -32.5268 	 65.0496 	 142.103 	 
H 	 -32.0145 	 64.3958 	 143.741 	 
H 	 -32.9976 	 65.7752 	 143.579 	 
S 	 -34.1694 	 66.6085 	 148.666 	 
C 	 -34.6787 	 67.156 	 150.2 	 
C 	 -34.398 	 68.4937 	 150.327 	 
C 	 -33.5083 	 68.9313 	 149.294 	 
C 	 -33.1621 	 67.9818 	 148.335 	 
H 	 -34.8147 	 69.0986 	 151.175 	 
C 	 -32.9924 	 70.3433 	 149.296 	 
H 	 -33.8268 	 70.9792 	 148.887 	 
H 	 -32.215 	 70.3238 	 148.639 	 
C 	 -32.4684 	 70.8649 	 150.615 	 
H 	 -33.3547 	 71.1975 	 151.249 	 
H 	 -32.0475 	 71.8477 	 150.457 	 
C 	 -31.4525 	 70.0472 	 151.403 	 
H 	 -31.6952 	 69.0122 	 151.699 	 
H 	 -31.2686 	 70.5431 	 152.342 	 
H 	 -30.4773 	 69.9817 	 150.915 	 
H 	 -31.5556 	 68.9937 	 143.672 	 
H 	 -35.4201 	 66.5505 	 150.812 	 
*
