! wB97X-D3 SP def2-SVP
%pal
nprocs 16
end

* xyz 0 1
S 	 -44.3661 	 27.6346 	 86.0867 	 
C 	 -45.4638 	 28.9626 	 86.4088 	 
C 	 -44.9902 	 30.1689 	 85.9048 	 
C 	 -43.663 	 30.0428 	 85.4243 	 
C 	 -43.2052 	 28.7383 	 85.433 	 
H 	 -43.0075 	 30.8133 	 85.0516 	 
C 	 -45.6524 	 31.5375 	 85.8612 	 
H 	 -46.6647 	 31.3327 	 85.7195 	 
H 	 -45.276 	 31.9844 	 84.8771 	 
C 	 -45.2162 	 32.4175 	 87.0623 	 
H 	 -45.0513 	 31.9277 	 88.0091 	 
H 	 -44.2526 	 32.9115 	 86.8881 	 
C 	 -46.306 	 33.4746 	 87.3181 	 
H 	 -47.221 	 33.0326 	 87.7129 	 
H 	 -45.8938 	 34.1411 	 88.0962 	 
H 	 -46.4286 	 34.132 	 86.4308 	 
S 	 -42.0623 	 26.3933 	 84.4662 	 
C 	 -40.3438 	 26.3445 	 84.1261 	 
C 	 -39.8262 	 27.6201 	 84.0606 	 
C 	 -40.7758 	 28.6342 	 84.3981 	 
C 	 -42.0373 	 28.1204 	 84.8264 	 
H 	 -38.8188 	 27.7771 	 83.5906 	 
C 	 -40.4505 	 30.149 	 84.3309 	 
H 	 -39.4148 	 30.3387 	 84.6085 	 
H 	 -40.9502 	 30.6272 	 85.2121 	 
C 	 -40.7899 	 30.8484 	 83.0185 	 
H 	 -40.6895 	 31.8866 	 83.0967 	 
H 	 -41.7685 	 30.7306 	 82.747 	 
C 	 -39.8302 	 30.3524 	 81.9001 	 
H 	 -40.3701 	 30.1478 	 81.0224 	 
H 	 -39.2472 	 29.4181 	 82.0644 	 
H 	 -39.1517 	 31.1684 	 81.5703 	 
H 	 -46.4637 	 28.9349 	 86.8032 	 
H 	 -39.7933 	 25.5159 	 83.9517 	 
*
