! wB97X-D3 SP def2-SVP
%pal
nprocs 16
end

* xyz 0 1
S 	 39.0472 	 16.0255 	 81.1652 	 
C 	 37.3087 	 16.2946 	 81.1549 	 
C 	 36.7164 	 15.5457 	 80.1567 	 
C 	 37.6552 	 14.7734 	 79.432 	 
C 	 38.9666 	 14.893 	 79.8295 	 
H 	 37.4002 	 14.118 	 78.6774 	 
C 	 35.1873 	 15.4397 	 79.8956 	 
H 	 34.7706 	 14.5154 	 80.192 	 
H 	 35.1317 	 15.4154 	 78.82 	 
C 	 34.3426 	 16.6621 	 80.3254 	 
H 	 34.3798 	 16.8872 	 81.3736 	 
H 	 34.7943 	 17.4893 	 79.7418 	 
C 	 32.9146 	 16.4858 	 79.823 	 
H 	 32.2084 	 17.3063 	 80.1352 	 
H 	 32.8051 	 16.1052 	 78.7275 	 
H 	 32.5054 	 15.7553 	 80.5556 	 
S 	 41.3228 	 13.4831 	 80.5342 	 
C 	 42.1943 	 12.6709 	 79.3354 	 
C 	 41.6949 	 12.8954 	 78.1038 	 
C 	 40.5238 	 13.7194 	 78.0603 	 
C 	 40.1306 	 14.1667 	 79.3485 	 
H 	 42.2787 	 12.5462 	 77.2512 	 
C 	 39.906 	 14.0083 	 76.7111 	 
H 	 38.9257 	 14.2867 	 76.6887 	 
H 	 39.8507 	 13.0487 	 76.1209 	 
C 	 40.712 	 14.9812 	 75.829 	 
H 	 40.2775 	 14.9878 	 74.8243 	 
H 	 41.7003 	 14.6052 	 75.6458 	 
C 	 40.696 	 16.4167 	 76.3427 	 
H 	 41.3259 	 16.4998 	 77.2372 	 
H 	 39.6136 	 16.6271 	 76.7164 	 
H 	 40.9709 	 17.0726 	 75.3927 	 
H 	 36.7199 	 16.885 	 81.8346 	 
H 	 43.0324 	 12.0825 	 79.5034 	 
*
