! wB97X-D3 SP def2-SVP
%pal
nprocs 16
end

* xyz 0 1
S 	 39.8527 	 10.0546 	 90.5236 	 
C 	 40.9654 	 10.306 	 89.2166 	 
C 	 40.4258 	 9.79171 	 88.0264 	 
C 	 39.1509 	 9.1081 	 88.2861 	 
C 	 38.7556 	 9.12304 	 89.5826 	 
H 	 38.5479 	 8.5803 	 87.6035 	 
C 	 40.9283 	 9.98979 	 86.6188 	 
H 	 40.3231 	 9.27387 	 86.0318 	 
H 	 41.9912 	 9.76591 	 86.67 	 
C 	 40.6255 	 11.3477 	 86.0397 	 
H 	 41.1235 	 12.0744 	 86.6054 	 
H 	 40.9603 	 11.3705 	 84.9874 	 
C 	 39.1435 	 11.7032 	 86.0744 	 
H 	 38.7023 	 11.9486 	 87.0204 	 
H 	 38.99 	 12.4362 	 85.3752 	 
H 	 38.648 	 10.8221 	 85.6714 	 
S 	 38.078 	 6.91342 	 90.9523 	 
C 	 36.341 	 6.69139 	 91.3852 	 
C 	 35.5212 	 7.54018 	 90.6383 	 
C 	 36.2825 	 8.56156 	 89.9215 	 
C 	 37.6465 	 8.42704 	 90.1359 	 
H 	 34.4462 	 7.47361 	 90.6775 	 
C 	 35.6095 	 9.60175 	 89.0898 	 
H 	 36.3766 	 10.3088 	 88.682 	 
H 	 35.0775 	 10.245 	 89.7876 	 
C 	 34.9345 	 9.10607 	 87.7624 	 
H 	 35.766 	 8.71213 	 87.1432 	 
H 	 34.7121 	 10.0675 	 87.2843 	 
C 	 33.724 	 8.16274 	 87.8778 	 
H 	 33.4641 	 7.77778 	 86.9349 	 
H 	 32.842 	 8.54252 	 88.3701 	 
H 	 34.08 	 7.20695 	 88.3207 	 
H 	 41.8938 	 10.859 	 89.4051 	 
H 	 35.9182 	 5.8462 	 91.9925 	 
*
