! wB97X-D3 SP def2-SVP
%pal
nprocs 16
end

* xyz 0 1
S 	 53.4076 	 2.72864 	 80.06 	 
C 	 52.3033 	 1.9875 	 81.2505 	 
C 	 52.9928 	 1.51982 	 82.3616 	 
C 	 54.3603 	 1.71524 	 82.254 	 
C 	 54.8029 	 2.24823 	 81.0072 	 
H 	 55.1677 	 1.50848 	 82.9888 	 
C 	 52.3661 	 0.894248 	 83.5873 	 
H 	 51.3203 	 1.06522 	 83.4498 	 
H 	 52.5928 	 1.49969 	 84.4377 	 
C 	 52.783 	 -0.585742 	 83.7583 	 
H 	 52.6203 	 -1.06711 	 82.8535 	 
H 	 53.8278 	 -0.55222 	 83.9752 	 
C 	 52.0915 	 -1.25269 	 84.899 	 
H 	 51.0325 	 -1.12001 	 84.8318 	 
H 	 52.4486 	 -2.32429 	 85.0088 	 
H 	 52.3212 	 -0.732199 	 85.7832 	 
S 	 56.8027 	 3.98355 	 80.4475 	 
C 	 58.4418 	 3.45161 	 80.3654 	 
C 	 58.5214 	 2.05888 	 80.5072 	 
C 	 57.218 	 1.42207 	 80.7235 	 
C 	 56.2098 	 2.3903 	 80.7341 	 
H 	 59.5279 	 1.63268 	 80.5723 	 
C 	 57.1244 	 -0.0561274 	 80.999 	 
H 	 56.6622 	 -0.229327 	 81.9282 	 
H 	 58.1776 	 -0.28482 	 81.1598 	 
C 	 56.5101 	 -1.02553 	 79.9757 	 
H 	 57.1015 	 -1.10936 	 79.1137 	 
H 	 55.5823 	 -0.661873 	 79.7199 	 
C 	 56.3885 	 -2.45557 	 80.5156 	 
H 	 55.7353 	 -2.54303 	 81.4235 	 
H 	 57.3738 	 -2.81704 	 80.8224 	 
H 	 55.9929 	 -3.13337 	 79.7448 	 
H 	 51.1957 	 1.98484 	 81.2917 	 
H 	 59.2241 	 4.16421 	 80.3767 	 
*
