! wB97X-D3 SP def2-SVP
%pal
nprocs 16
end

* xyz 0 1
S 	 -34.8271 	 35.6511 	 41.8606 	 
C 	 -35.1608 	 35.7808 	 43.5689 	 
C 	 -34.0664 	 36.1926 	 44.2852 	 
C 	 -32.9292 	 36.3397 	 43.4434 	 
C 	 -33.1565 	 35.9747 	 42.1299 	 
H 	 -31.9754 	 36.7319 	 43.7647 	 
C 	 -34.098 	 36.3749 	 45.8351 	 
H 	 -35.1192 	 36.6607 	 46.0922 	 
H 	 -33.5231 	 37.2504 	 46.0933 	 
C 	 -33.7022 	 35.153 	 46.6991 	 
H 	 -32.8545 	 34.6413 	 46.2777 	 
H 	 -33.3412 	 35.4336 	 47.7127 	 
C 	 -34.8894 	 34.1864 	 46.7798 	 
H 	 -35.2437 	 33.8755 	 45.829 	 
H 	 -34.7828 	 33.3039 	 47.3885 	 
H 	 -35.6266 	 34.7872 	 47.2788 	 
S 	 -32.0426 	 37.1135 	 39.9363 	 
C 	 -30.7979 	 36.2788 	 39.0598 	 
C 	 -30.6488 	 34.9752 	 39.4965 	 
C 	 -31.4402 	 34.7212 	 40.6774 	 
C 	 -32.1959 	 35.8255 	 41.0567 	 
H 	 -29.8493 	 34.4039 	 39.1419 	 
C 	 -31.3055 	 33.3984 	 41.4018 	 
H 	 -31.2264 	 32.764 	 40.6193 	 
H 	 -32.1184 	 33.163 	 42.0978 	 
C 	 -29.9836 	 33.3823 	 42.2735 	 
H 	 -29.1521 	 33.6079 	 41.5697 	 
H 	 -30.0419 	 32.4021 	 42.6769 	 
C 	 -29.9597 	 34.3356 	 43.4851 	 
H 	 -30.131 	 35.3396 	 43.0553 	 
H 	 -28.9973 	 34.316 	 43.9903 	 
H 	 -30.7911 	 34.1645 	 44.1227 	 
H 	 -36.108 	 35.2923 	 43.9632 	 
H 	 -30.2927 	 36.6689 	 38.2202 	 
*
