! wB97X-D3 SP def2-SVP
%pal
nprocs 16
end

* xyz 0 1
S 	 -61.9622 	 51.9335 	 123.186 	 
C 	 -62.3608 	 51.2105 	 124.759 	 
C 	 -62.9617 	 52.138 	 125.57 	 
C 	 -63.2951 	 53.3777 	 124.911 	 
C 	 -62.9936 	 53.3598 	 123.548 	 
H 	 -63.8009 	 54.2212 	 125.344 	 
C 	 -63.2758 	 51.9334 	 127.006 	 
H 	 -63.7092 	 52.8879 	 127.388 	 
H 	 -62.2845 	 51.7435 	 127.444 	 
C 	 -64.0871 	 50.6647 	 127.296 	 
H 	 -63.7888 	 49.9207 	 126.57 	 
H 	 -63.908 	 50.2433 	 128.283 	 
C 	 -65.567 	 51.1086 	 127.11 	 
H 	 -65.6383 	 51.9103 	 126.371 	 
H 	 -66.179 	 50.2875 	 126.947 	 
H 	 -65.8668 	 51.449 	 128.089 	 
S 	 -61.8414 	 54.6228 	 121.346 	 
C 	 -62.5078 	 56.0244 	 120.695 	 
C 	 -63.7081 	 56.4048 	 121.381 	 
C 	 -64.0022 	 55.6092 	 122.514 	 
C 	 -63.1014 	 54.5351 	 122.652 	 
H 	 -64.2132 	 57.2773 	 120.949 	 
C 	 -65.3048 	 55.8725 	 123.269 	 
H 	 -65.9292 	 56.6013 	 122.757 	 
H 	 -65.0857 	 56.2778 	 124.229 	 
C 	 -66.2359 	 54.6459 	 123.358 	 
H 	 -65.7107 	 53.8761 	 123.927 	 
H 	 -66.1459 	 54.2765 	 122.334 	 
C 	 -67.5872 	 54.8588 	 123.957 	 
H 	 -68.2132 	 53.9648 	 123.727 	 
H 	 -68.2318 	 55.4985 	 123.318 	 
H 	 -67.5539 	 55.2112 	 125.02 	 
H 	 -61.9483 	 50.2458 	 125.089 	 
H 	 -62.2332 	 56.5538 	 119.888 	 
*
