! wB97X-D3 SP def2-SVP
%pal
nprocs 16
end

* xyz 0 1
S 	 -75.3699 	 45.4181 	 123.043 	 
C 	 -76.5662 	 44.5852 	 124.019 	 
C 	 -77.8151 	 44.3663 	 123.316 	 
C 	 -77.6383 	 44.7563 	 121.919 	 
C 	 -76.4373 	 45.371 	 121.615 	 
H 	 -78.2966 	 44.5632 	 121.094 	 
C 	 -78.973 	 43.5543 	 123.801 	 
H 	 -79.8255 	 44.2235 	 123.519 	 
H 	 -78.8296 	 43.4724 	 124.917 	 
C 	 -79.1994 	 42.1924 	 123.092 	 
H 	 -80.0603 	 41.899 	 123.542 	 
H 	 -79.4065 	 42.4952 	 121.971 	 
C 	 -78.1043 	 40.9753 	 123.107 	 
H 	 -77.6105 	 40.7554 	 124.024 	 
H 	 -78.6883 	 40.0195 	 123.024 	 
H 	 -77.3071 	 40.886 	 122.38 	 
S 	 -75.5637 	 47.5083 	 120.234 	 
C 	 -75.4129 	 47.3287 	 118.526 	 
C 	 -75.8778 	 46.0887 	 118.093 	 
C 	 -75.9016 	 45.097 	 119.147 	 
C 	 -75.8788 	 45.7598 	 120.371 	 
H 	 -75.9155 	 45.9047 	 117 	 
C 	 -76.3172 	 43.6742 	 118.857 	 
H 	 -76.5785 	 43.6517 	 117.783 	 
H 	 -77.2514 	 43.4897 	 119.411 	 
C 	 -75.3049 	 42.5862 	 119.285 	 
H 	 -75.1807 	 42.5521 	 120.378 	 
H 	 -74.3245 	 42.9078 	 118.908 	 
C 	 -75.794 	 41.2351 	 118.854 	 
H 	 -75.1588 	 40.4654 	 119.173 	 
H 	 -75.7782 	 41.2937 	 117.803 	 
H 	 -76.8084 	 41.0349 	 119.02 	 
H 	 -76.5076 	 44.4478 	 125.091 	 
H 	 -75.1201 	 48.1645 	 117.947 	 
*
