! wB97X-D3 SP def2-SVP
%pal
nprocs 16
end

* xyz 0 1
S 	 1.68772 	 -1.3268 	 76.7997 	 
C 	 0.0702661 	 -1.98013 	 76.8412 	 
C 	 -0.691953 	 -1.44191 	 77.9038 	 
C 	 0.116956 	 -0.527438 	 78.661 	 
C 	 1.4459 	 -0.384919 	 78.2289 	 
H 	 -0.210852 	 0.014451 	 79.6054 	 
C 	 -2.10753 	 -1.86974 	 78.2996 	 
H 	 -1.96288 	 -2.48681 	 79.2115 	 
H 	 -2.42082 	 -2.6435 	 77.5593 	 
C 	 -3.22295 	 -0.737938 	 78.4177 	 
H 	 -4.03273 	 -1.18493 	 79.0599 	 
H 	 -2.72727 	 0.111291 	 78.9904 	 
C 	 -3.75238 	 -0.0135109 	 77.2521 	 
H 	 -4.5188 	 0.747652 	 77.5951 	 
H 	 -2.8922 	 0.520904 	 76.6285 	 
H 	 -4.10997 	 -0.762166 	 76.5867 	 
S 	 3.83574 	 -1.007 	 79.5721 	 
C 	 4.56113 	 0.250148 	 80.6055 	 
C 	 3.86989 	 1.44384 	 80.4828 	 
C 	 2.7881 	 1.39147 	 79.56 	 
C 	 2.55775 	 0.121036 	 79.028 	 
H 	 4.22418 	 2.19685 	 81.1107 	 
C 	 1.88812 	 2.56087 	 79.3579 	 
H 	 0.880386 	 2.11186 	 79.4023 	 
H 	 2.03469 	 2.7706 	 78.2952 	 
C 	 2.0678 	 3.8341 	 80.2426 	 
H 	 1.46976 	 4.62826 	 79.8613 	 
H 	 3.01552 	 4.29252 	 80.106 	 
C 	 1.76348 	 3.76576 	 81.7022 	 
H 	 2.40265 	 3.02169 	 82.1603 	 
H 	 0.76317 	 3.50884 	 81.8125 	 
H 	 2.00034 	 4.72201 	 82.1235 	 
H 	 -0.302179 	 -2.64951 	 76.0732 	 
H 	 5.49496 	 0.226533 	 81.1994 	 
*
