! wB97X-D3 SP def2-SVP
%pal
nprocs 16
end

* xyz 0 1
S 	 -81.5989 	 37.0711 	 134.865 	 
C 	 -80.3631 	 35.9607 	 135.353 	 
C 	 -79.7224 	 35.3065 	 134.312 	 
C 	 -80.2752 	 35.6722 	 133.052 	 
C 	 -81.1957 	 36.6945 	 133.181 	 
H 	 -80.1404 	 35.2361 	 132.094 	 
C 	 -78.6386 	 34.2947 	 134.585 	 
H 	 -78.3844 	 33.7283 	 133.73 	 
H 	 -79.1824 	 33.5708 	 135.294 	 
C 	 -77.339 	 34.8223 	 135.196 	 
H 	 -77.67 	 35.3863 	 136.088 	 
H 	 -76.7366 	 33.9768 	 135.604 	 
C 	 -76.4638 	 35.6852 	 134.288 	 
H 	 -76.9803 	 36.5032 	 133.707 	 
H 	 -75.528 	 36.0224 	 134.73 	 
H 	 -76.1378 	 34.971 	 133.449 	 
S 	 -83.7386 	 36.6958 	 132.183 	 
C 	 -84.1028 	 37.2204 	 130.568 	 
C 	 -82.9743 	 37.7145 	 129.934 	 
C 	 -81.8269 	 37.7366 	 130.79 	 
C 	 -82.0526 	 37.1821 	 132.07 	 
H 	 -83.1811 	 38.1069 	 128.957 	 
C 	 -80.4379 	 38.0392 	 130.206 	 
H 	 -80.4327 	 37.7292 	 129.168 	 
H 	 -79.6287 	 37.41 	 130.6 	 
C 	 -79.9293 	 39.5154 	 130.475 	 
H 	 -78.9328 	 39.6423 	 130.047 	 
H 	 -79.7945 	 39.6773 	 131.484 	 
C 	 -80.9103 	 40.5735 	 129.862 	 
H 	 -81.9161 	 40.4074 	 130.2 	 
H 	 -80.8914 	 40.3588 	 128.789 	 
H 	 -80.643 	 41.6063 	 129.93 	 
H 	 -79.9532 	 35.8614 	 136.337 	 
H 	 -85.0125 	 37.1311 	 130.046 	 
*
