! wB97X-D3 SP def2-SVP
%pal
nprocs 16
end

* xyz 0 1
S 	 56.0555 	 12.0175 	 76.0058 	 
C 	 57.1327 	 12.4713 	 77.3578 	 
C 	 57.6259 	 11.3203 	 77.9208 	 
C 	 56.9544 	 10.155 	 77.5024 	 
C 	 56.021 	 10.3897 	 76.4649 	 
H 	 57.0143 	 9.1486 	 77.9957 	 
C 	 58.6698 	 11.3213 	 79.0334 	 
H 	 59.2619 	 10.4066 	 78.8644 	 
H 	 58.1732 	 11.1628 	 79.9747 	 
C 	 59.6089 	 12.471 	 79.1765 	 
H 	 60.0612 	 12.5417 	 78.2255 	 
H 	 59.0446 	 13.3912 	 79.2275 	 
C 	 60.6458 	 12.5394 	 80.3372 	 
H 	 61.3439 	 11.7407 	 80.3978 	 
H 	 61.1673 	 13.4783 	 80.2817 	 
H 	 60.1184 	 12.6356 	 81.3219 	 
S 	 53.4381 	 9.6032 	 75.6223 	 
C 	 53.2172 	 8.1387 	 74.8194 	 
C 	 54.4082 	 7.43785 	 74.7725 	 
C 	 55.5343 	 8.10756 	 75.3793 	 
C 	 55.1811 	 9.358 	 75.8549 	 
H 	 54.4305 	 6.52625 	 74.1988 	 
C 	 56.9486 	 7.63352 	 75.172 	 
H 	 57.4303 	 7.85911 	 76.0706 	 
H 	 57.2668 	 8.27138 	 74.3173 	 
C 	 57.2269 	 6.21776 	 74.6625 	 
H 	 56.727 	 6.05441 	 73.7245 	 
H 	 56.7406 	 5.42072 	 75.2919 	 
C 	 58.6898 	 5.74928 	 74.4297 	 
H 	 59.2332 	 6.47688 	 73.9155 	 
H 	 58.6029 	 4.74571 	 73.8928 	 
H 	 59.1583 	 5.46577 	 75.4574 	 
H 	 57.5258 	 13.4591 	 77.57 	 
H 	 52.3873 	 7.89114 	 74.3539 	 
*
