! wB97X-D3 SP def2-SVP
%pal
nprocs 16
end

* xyz 0 1
S 	 -93.541 	 37.7556 	 124.864 	 
C 	 -92.7822 	 36.6422 	 123.762 	 
C 	 -92.7247 	 37.0862 	 122.469 	 
C 	 -93.3697 	 38.3862 	 122.353 	 
C 	 -93.6684 	 38.9416 	 123.577 	 
H 	 -93.4333 	 38.8506 	 121.431 	 
C 	 -92.3096 	 36.3401 	 121.214 	 
H 	 -93.1113 	 36.4285 	 120.493 	 
H 	 -92.198 	 35.333 	 121.548 	 
C 	 -91.0789 	 36.8966 	 120.495 	 
H 	 -90.85 	 36.4752 	 119.458 	 
H 	 -91.3991 	 37.9707 	 120.436 	 
C 	 -89.7987 	 36.8444 	 121.346 	 
H 	 -89.705 	 35.8323 	 121.664 	 
H 	 -88.8692 	 37.1644 	 120.831 	 
H 	 -89.8956 	 37.4883 	 122.269 	 
S 	 -96.095 	 40.0033 	 124.399 	 
C 	 -96.1674 	 41.7295 	 124.823 	 
C 	 -95.0907 	 42.4444 	 124.343 	 
C 	 -94.1411 	 41.5108 	 123.837 	 
C 	 -94.4356 	 40.1715 	 123.866 	 
H 	 -95.0871 	 43.5312 	 124.346 	 
C 	 -92.7047 	 42.0198 	 123.443 	 
H 	 -91.9508 	 41.2995 	 123.919 	 
H 	 -92.5445 	 43.0125 	 123.933 	 
C 	 -92.3392 	 41.9771 	 121.972 	 
H 	 -92.1773 	 40.9211 	 121.753 	 
H 	 -91.3335 	 42.4343 	 121.882 	 
C 	 -93.3691 	 42.5205 	 120.993 	 
H 	 -93.0669 	 42.3124 	 119.938 	 
H 	 -93.4616 	 43.5897 	 121.149 	 
H 	 -94.3361 	 42.1733 	 121.173 	 
H 	 -92.5305 	 35.6856 	 124.031 	 
H 	 -97.0456 	 42.2816 	 125.267 	 
*
