! wB97X-D3 SP def2-SVP
%pal
nprocs 16
end

* xyz 0 1
S 	 -30.8273 	 46.1513 	 96.7207 	 
C 	 -30.8853 	 44.6832 	 95.7173 	 
C 	 -31.7798 	 44.8547 	 94.6453 	 
C 	 -32.2379 	 46.2374 	 94.5333 	 
C 	 -31.8082 	 47.0562 	 95.574 	 
H 	 -32.9329 	 46.6712 	 93.7567 	 
C 	 -32.0982 	 43.8309 	 93.6751 	 
H 	 -32.3077 	 42.9381 	 94.2025 	 
H 	 -31.0938 	 43.7037 	 93.2788 	 
C 	 -33.1408 	 44.1588 	 92.548 	 
H 	 -32.8268 	 45.0519 	 92.0514 	 
H 	 -33.0316 	 43.4244 	 91.7171 	 
C 	 -34.5357 	 44.2311 	 93.0385 	 
H 	 -35.2335 	 44.2924 	 92.2241 	 
H 	 -34.7587 	 43.3084 	 93.5028 	 
H 	 -34.7216 	 45.1026 	 93.7246 	 
S 	 -33.6063 	 48.9732 	 95.1979 	 
C 	 -33.3519 	 50.647 	 95.5188 	 
C 	 -32.0581 	 50.812 	 95.9274 	 
C 	 -31.2254 	 49.5995 	 95.9626 	 
C 	 -32.0304 	 48.5183 	 95.628 	 
H 	 -31.7502 	 51.8449 	 95.995 	 
C 	 -29.7568 	 49.5517 	 96.3396 	 
H 	 -29.4593 	 50.5629 	 95.908 	 
H 	 -29.254 	 48.8709 	 95.7124 	 
C 	 -29.3986 	 49.546 	 97.814 	 
H 	 -28.3166 	 49.3245 	 97.9325 	 
H 	 -29.8614 	 48.7085 	 98.3645 	 
C 	 -29.7355 	 50.807 	 98.6432 	 
H 	 -29.2839 	 50.8386 	 99.6104 	 
H 	 -30.8356 	 50.8715 	 98.7499 	 
H 	 -29.4939 	 51.7616 	 98.1001 	 
H 	 -30.4941 	 43.7379 	 96.0205 	 
H 	 -34.1106 	 51.4666 	 95.3091 	 
*
