! wB97X-D3 SP def2-SVP
%pal
nprocs 16
end

* xyz 0 1
S 	 3.20617 	 -14.1491 	 57.729 	 
C 	 2.99421 	 -12.9592 	 59.0584 	 
C 	 2.35141 	 -13.5348 	 60.1714 	 
C 	 1.94638 	 -14.8674 	 59.8243 	 
C 	 2.21912 	 -15.2942 	 58.5627 	 
H 	 1.537 	 -15.553 	 60.5476 	 
C 	 2.02309 	 -12.8681 	 61.474 	 
H 	 0.979511 	 -12.5144 	 61.4408 	 
H 	 2.74674 	 -12.0899 	 61.4501 	 
C 	 2.21859 	 -13.7398 	 62.7015 	 
H 	 1.91556 	 -13.0396 	 63.5148 	 
H 	 1.53582 	 -14.6702 	 62.7787 	 
C 	 3.66031 	 -14.2568 	 62.8452 	 
H 	 4.37784 	 -13.5797 	 62.4654 	 
H 	 3.90967 	 -14.3773 	 63.9092 	 
H 	 3.71331 	 -15.1926 	 62.276 	 
S 	 0.926721 	 -16.3937 	 56.4419 	 
C 	 0.877049 	 -18.0768 	 56.3094 	 
C 	 1.2795 	 -18.7166 	 57.4536 	 
C 	 1.78663 	 -17.8058 	 58.4386 	 
C 	 1.7296 	 -16.4897 	 57.9781 	 
H 	 1.3396 	 -19.7958 	 57.5105 	 
C 	 2.30464 	 -18.2952 	 59.7555 	 
H 	 2.42357 	 -17.4599 	 60.4038 	 
H 	 3.3292 	 -18.6479 	 59.6548 	 
C 	 1.53017 	 -19.2414 	 60.4991 	 
H 	 1.55403 	 -20.2201 	 59.9804 	 
H 	 0.414218 	 -18.9996 	 60.6557 	 
C 	 2.18225 	 -19.3689 	 61.9164 	 
H 	 2.34345 	 -18.4141 	 62.4309 	 
H 	 3.13585 	 -19.9608 	 61.8531 	 
H 	 1.54025 	 -19.8846 	 62.5743 	 
H 	 3.3988 	 -11.97 	 58.9846 	 
H 	 0.603904 	 -18.4997 	 55.356 	 
*
