! wB97X-D3 SP def2-SVP
%pal
nprocs 16
end

* xyz 0 1
S 	 36.5649 	 6.46127 	 89.259 	 
C 	 36.4383 	 5.73135 	 87.6882 	 
C 	 37.5193 	 5.99077 	 86.8456 	 
C 	 38.6374 	 6.57659 	 87.5732 	 
C 	 38.2558 	 6.95504 	 88.8838 	 
H 	 39.6324 	 6.74756 	 87.2946 	 
C 	 37.6031 	 5.52943 	 85.4251 	 
H 	 38.3757 	 5.94673 	 84.8446 	 
H 	 36.676 	 5.85045 	 84.9523 	 
C 	 38.0138 	 3.99957 	 85.2539 	 
H 	 37.2409 	 3.49342 	 85.7837 	 
H 	 37.8909 	 3.76511 	 84.1914 	 
C 	 39.3146 	 3.5553 	 85.9337 	 
H 	 39.3761 	 2.5942 	 86.3648 	 
H 	 40.0115 	 3.69089 	 85.1637 	 
H 	 39.6231 	 4.13425 	 86.7673 	 
S 	 39.5772 	 6.22906 	 91.1102 	 
C 	 40.5457 	 7.39719 	 92.0018 	 
C 	 40.527 	 8.66519 	 91.441 	 
C 	 39.6469 	 8.71205 	 90.2942 	 
C 	 39.157 	 7.44659 	 89.8905 	 
H 	 41.1962 	 9.46569 	 91.8759 	 
C 	 39.3685 	 9.99344 	 89.4102 	 
H 	 38.7431 	 9.63648 	 88.5269 	 
H 	 40.3706 	 10.1182 	 88.9206 	 
C 	 38.7394 	 11.2218 	 90.0801 	 
H 	 39.4649 	 11.5875 	 90.8231 	 
H 	 37.8577 	 10.9236 	 90.5943 	 
C 	 38.3413 	 12.3326 	 89.0796 	 
H 	 37.9066 	 13.0913 	 89.6638 	 
H 	 37.5413 	 11.9653 	 88.4755 	 
H 	 39.1977 	 12.676 	 88.527 	 
H 	 35.5186 	 5.28443 	 87.3613 	 
H 	 41.0625 	 7.26515 	 92.9337 	 
*
