! wB97X-D3 SP def2-SVP
%pal
nprocs 16
end

* xyz 0 1
S 	 -100.792 	 52.3342 	 123.603 	 
C 	 -100.327 	 52.2612 	 121.992 	 
C 	 -100.958 	 53.1669 	 121.143 	 
C 	 -101.911 	 53.9087 	 121.828 	 
C 	 -101.97 	 53.5792 	 123.227 	 
H 	 -102.489 	 54.6791 	 121.362 	 
C 	 -100.69 	 53.5045 	 119.654 	 
H 	 -101.673 	 53.885 	 119.245 	 
H 	 -100.348 	 52.5877 	 119.139 	 
C 	 -99.6417 	 54.6418 	 119.497 	 
H 	 -100.102 	 55.3989 	 120.062 	 
H 	 -98.7052 	 54.2811 	 119.838 	 
C 	 -99.4007 	 55.2574 	 118.171 	 
H 	 -98.637 	 56.0105 	 118.484 	 
H 	 -99.1101 	 54.4871 	 117.463 	 
H 	 -100.244 	 55.7852 	 117.733 	 
S 	 -102.083 	 54.7155 	 125.716 	 
C 	 -103.447 	 55.6892 	 126.228 	 
C 	 -104.473 	 55.6086 	 125.259 	 
C 	 -104.113 	 54.7965 	 124.15 	 
C 	 -102.833 	 54.2248 	 124.245 	 
H 	 -105.412 	 56.1411 	 125.468 	 
C 	 -104.981 	 54.6176 	 122.97 	 
H 	 -104.443 	 55.1069 	 122.163 	 
H 	 -105.877 	 55.3193 	 122.985 	 
C 	 -105.507 	 53.188 	 122.625 	 
H 	 -104.742 	 52.5401 	 122.193 	 
H 	 -106.193 	 53.1951 	 121.729 	 
C 	 -106.234 	 52.5072 	 123.751 	 
H 	 -106.157 	 51.3524 	 123.712 	 
H 	 -107.265 	 52.7919 	 123.678 	 
H 	 -105.888 	 52.7423 	 124.793 	 
H 	 -99.5298 	 51.6297 	 121.579 	 
H 	 -103.495 	 56.2637 	 127.101 	 
*
