! wB97X-D3 SP def2-SVP
%pal
nprocs 16
end

* xyz 0 1
S 	 -65.6242 	 51.315 	 124.113 	 
C 	 -65.9492 	 49.7886 	 124.81 	 
C 	 -65.2602 	 48.8188 	 124.143 	 
C 	 -64.5271 	 49.2867 	 123.025 	 
C 	 -64.7869 	 50.5696 	 122.75 	 
H 	 -63.9756 	 48.674 	 122.316 	 
C 	 -65.2857 	 47.3086 	 124.364 	 
H 	 -65.4698 	 47.039 	 125.441 	 
H 	 -64.261 	 46.8999 	 124.231 	 
C 	 -66.2027 	 46.5751 	 123.348 	 
H 	 -67.1172 	 46.9428 	 123.679 	 
H 	 -66.1318 	 46.9454 	 122.346 	 
C 	 -66.1036 	 45.0581 	 123.46 	 
H 	 -65.1349 	 44.719 	 123.202 	 
H 	 -66.2495 	 44.8027 	 124.5 	 
H 	 -66.7554 	 44.4399 	 122.728 	 
S 	 -63.8265 	 52.9382 	 121.866 	 
C 	 -63.8763 	 53.3492 	 120.187 	 
C 	 -64.155 	 52.1998 	 119.415 	 
C 	 -64.5778 	 51.0942 	 120.186 	 
C 	 -64.4097 	 51.3655 	 121.566 	 
H 	 -64.0587 	 52.2383 	 118.37 	 
C 	 -65.0065 	 49.7963 	 119.514 	 
H 	 -65.9992 	 49.9972 	 119.071 	 
H 	 -65.132 	 49.1372 	 120.338 	 
C 	 -64.1562 	 49.1922 	 118.366 	 
H 	 -63.2882 	 48.7111 	 118.866 	 
H 	 -63.7152 	 49.9162 	 117.666 	 
C 	 -64.9631 	 48.1596 	 117.643 	 
H 	 -64.5104 	 47.6353 	 116.831 	 
H 	 -65.8721 	 48.6442 	 117.238 	 
H 	 -65.2721 	 47.319 	 118.342 	 
H 	 -66.7016 	 49.6747 	 125.583 	 
H 	 -63.3481 	 54.198 	 119.813 	 
*
