! wB97X-D3 SP def2-SVP
%pal
nprocs 16
end

* xyz 0 1
S 	 -84.5702 	 53.4146 	 136.141 	 
C 	 -85.1461 	 54.0735 	 137.623 	 
C 	 -84.2577 	 53.956 	 138.649 	 
C 	 -83.1635 	 53.1 	 138.217 	 
C 	 -83.2709 	 52.7245 	 136.913 	 
H 	 -82.3122 	 52.6966 	 138.678 	 
C 	 -84.4597 	 54.5235 	 140.078 	 
H 	 -84.7266 	 55.5651 	 139.929 	 
H 	 -83.5137 	 54.4442 	 140.526 	 
C 	 -85.4609 	 53.7065 	 140.964 	 
H 	 -86.5172 	 53.6227 	 140.549 	 
H 	 -85.0712 	 52.6887 	 141.169 	 
C 	 -85.6501 	 54.4272 	 142.306 	 
H 	 -86.3594 	 55.2595 	 142.212 	 
H 	 -86.0758 	 53.8891 	 143.092 	 
H 	 -84.7568 	 54.8321 	 142.744 	 
S 	 -81.6758 	 52.5942 	 134.693 	 
C 	 -80.4953 	 51.4174 	 134.537 	 
C 	 -80.4642 	 50.5544 	 135.581 	 
C 	 -81.3803 	 50.9647 	 136.602 	 
C 	 -82.2829 	 51.9657 	 136.178 	 
H 	 -79.7141 	 49.8342 	 135.487 	 
C 	 -81.3347 	 50.2064 	 137.924 	 
H 	 -81.4778 	 49.194 	 137.647 	 
H 	 -82.2173 	 50.5404 	 138.416 	 
C 	 -80.0757 	 50.4156 	 138.716 	 
H 	 -79.2726 	 49.8019 	 138.275 	 
H 	 -80.3531 	 50.0102 	 139.715 	 
C 	 -79.6532 	 51.8716 	 138.952 	 
H 	 -78.6413 	 51.8832 	 139.376 	 
H 	 -80.3231 	 52.4044 	 139.551 	 
H 	 -79.5217 	 52.3722 	 137.993 	 
H 	 -85.9395 	 54.7275 	 137.664 	 
H 	 -79.8107 	 51.3487 	 133.685 	 
*
