! wB97X-D3 SP def2-SVP
%pal
nprocs 16
end

* xyz 0 1
S 	 26.4392 	 -11.5977 	 79.2855 	 
C 	 26.841 	 -11.6575 	 77.6111 	 
C 	 25.7274 	 -11.5694 	 76.8252 	 
C 	 24.5094 	 -11.6961 	 77.6264 	 
C 	 24.6728 	 -11.6746 	 78.9872 	 
H 	 23.5732 	 -11.752 	 77.1872 	 
C 	 25.626 	 -11.6167 	 75.2829 	 
H 	 25.1877 	 -12.5586 	 75.0079 	 
H 	 26.6758 	 -11.5972 	 74.9991 	 
C 	 24.9892 	 -10.4475 	 74.3785 	 
H 	 25.1824 	 -10.7975 	 73.3046 	 
H 	 23.8407 	 -10.4627 	 74.4174 	 
C 	 25.5057 	 -9.02297 	 74.6671 	 
H 	 24.9838 	 -8.31777 	 74.0344 	 
H 	 25.4231 	 -8.67931 	 75.6967 	 
H 	 26.5569 	 -8.98694 	 74.428 	 
S 	 23.7462 	 -13.2644 	 81.0254 	 
C 	 22.1717 	 -12.9635 	 81.7405 	 
C 	 21.6021 	 -11.8591 	 81.1832 	 
C 	 22.3875 	 -11.2004 	 80.152 	 
C 	 23.6119 	 -11.8491 	 79.9735 	 
H 	 20.6403 	 -11.6119 	 81.5334 	 
C 	 22.0133 	 -9.98302 	 79.4788 	 
H 	 21.5015 	 -10.3059 	 78.6476 	 
H 	 22.8466 	 -9.47171 	 78.9733 	 
C 	 21.1843 	 -8.95963 	 80.2928 	 
H 	 21.7905 	 -8.64609 	 81.143 	 
H 	 20.4093 	 -9.39563 	 80.9068 	 
C 	 20.6189 	 -7.73219 	 79.4633 	 
H 	 21.1243 	 -7.61019 	 78.5507 	 
H 	 20.7225 	 -6.8123 	 80.0153 	 
H 	 19.6087 	 -7.94948 	 79.1932 	 
H 	 27.8148 	 -11.7 	 77.2341 	 
H 	 21.665 	 -13.5475 	 82.5023 	 
*
