! wB97X-D3 SP def2-SVP
%pal
nprocs 16
end

* xyz 0 1
S 	 -41.8796 	 25.1948 	 86.324 	 
C 	 -42.5683 	 23.8332 	 87.2072 	 
C 	 -43.1827 	 22.9036 	 86.3094 	 
C 	 -43.0697 	 23.3173 	 84.9557 	 
C 	 -42.3518 	 24.5206 	 84.7491 	 
H 	 -43.4155 	 22.7389 	 84.0895 	 
C 	 -43.8806 	 21.6469 	 86.7673 	 
H 	 -45.0034 	 21.9348 	 86.8829 	 
H 	 -43.5572 	 21.2226 	 87.7094 	 
C 	 -44.0316 	 20.4432 	 85.8338 	 
H 	 -44.7696 	 19.9006 	 86.3558 	 
H 	 -44.4682 	 20.7694 	 84.9347 	 
C 	 -42.6569 	 19.7074 	 85.7938 	 
H 	 -42.5534 	 18.8372 	 85.1554 	 
H 	 -41.8902 	 20.3951 	 85.3773 	 
H 	 -42.4058 	 19.4195 	 86.7881 	 
S 	 -43.3974 	 26.4965 	 83.0545 	 
C 	 -42.6827 	 26.6193 	 81.4476 	 
C 	 -41.5399 	 25.8105 	 81.3045 	 
C 	 -41.2824 	 25.0844 	 82.4852 	 
C 	 -42.1734 	 25.3146 	 83.5077 	 
H 	 -41.0218 	 25.8288 	 80.3721 	 
C 	 -40.1798 	 24.1276 	 82.595 	 
H 	 -39.5802 	 24.346 	 83.4703 	 
H 	 -39.4997 	 24.4262 	 81.8103 	 
C 	 -40.4192 	 22.5909 	 82.4993 	 
H 	 -41.0339 	 22.2926 	 83.3126 	 
H 	 -39.46 	 21.9988 	 82.5818 	 
C 	 -41.1509 	 22.1881 	 81.1698 	 
H 	 -41.5631 	 21.1515 	 81.2611 	 
H 	 -40.5609 	 22.1188 	 80.2962 	 
H 	 -42.0673 	 22.8157 	 80.87 	 
H 	 -42.585 	 23.5852 	 88.2773 	 
H 	 -43.0438 	 27.3172 	 80.676 	 
*
