! wB97X-D3 SP def2-SVP
%pal
nprocs 16
end

* xyz 0 1
S 	 51.5356 	 6.34883 	 94.8836 	 
C 	 51.3925 	 7.79926 	 94.0022 	 
C 	 50.0915 	 8.02794 	 93.6307 	 
C 	 49.1956 	 7.06777 	 94.1124 	 
C 	 49.8104 	 6.11457 	 94.8755 	 
H 	 48.112 	 7.06714 	 93.9364 	 
C 	 49.6282 	 9.25144 	 92.8441 	 
H 	 48.6093 	 8.93154 	 92.5366 	 
H 	 50.1389 	 9.42823 	 91.9516 	 
C 	 49.5572 	 10.5262 	 93.6816 	 
H 	 48.776 	 10.4359 	 94.5229 	 
H 	 50.4559 	 10.8477 	 94.1988 	 
C 	 49.1182 	 11.7283 	 92.8043 	 
H 	 48.262 	 11.5674 	 92.1806 	 
H 	 48.7038 	 12.5314 	 93.3309 	 
H 	 50.0366 	 12.0015 	 92.1788 	 
S 	 47.6986 	 4.34067 	 94.9673 	 
C 	 47.18 	 3.6788 	 96.4534 	 
C 	 48.0725 	 3.93117 	 97.4412 	 
C 	 49.2743 	 4.70284 	 97.0254 	 
C 	 49.0838 	 5.16046 	 95.7128 	 
H 	 47.8236 	 3.53307 	 98.4229 	 
C 	 50.2522 	 5.22708 	 98.1567 	 
H 	 49.7297 	 6.12511 	 98.6011 	 
H 	 51.1423 	 5.59591 	 97.6181 	 
C 	 50.6878 	 4.19865 	 99.2493 	 
H 	 49.8497 	 3.956 	 99.8638 	 
H 	 51.4849 	 4.59083 	 99.8434 	 
C 	 51.3481 	 2.9021 	 98.788 	 
H 	 51.694 	 2.34871 	 99.6005 	 
H 	 52.1994 	 3.06427 	 98.1525 	 
H 	 50.6484 	 2.26598 	 98.1888 	 
H 	 52.1913 	 8.40903 	 93.732 	 
H 	 46.1582 	 3.08191 	 96.5599 	 
*
