! wB97X-D3 SP def2-SVP
%pal
nprocs 16
end

* xyz 0 1
S 	 -112.532 	 53.9938 	 113.975 	 
C 	 -111.731 	 54.6477 	 112.576 	 
C 	 -111.6 	 56.0132 	 112.694 	 
C 	 -111.993 	 56.5055 	 113.989 	 
C 	 -112.502 	 55.5389 	 114.845 	 
H 	 -111.992 	 57.5646 	 114.269 	 
C 	 -110.922 	 56.9443 	 111.68 	 
H 	 -109.999 	 56.3957 	 111.381 	 
H 	 -110.462 	 57.7979 	 112.223 	 
C 	 -111.636 	 57.5697 	 110.533 	 
H 	 -110.898 	 57.8035 	 109.794 	 
H 	 -112.245 	 56.868 	 110.046 	 
C 	 -112.291 	 58.9575 	 110.865 	 
H 	 -111.452 	 59.6531 	 110.698 	 
H 	 -113.055 	 59.1719 	 110.205 	 
H 	 -112.592 	 59.0797 	 111.935 	 
S 	 -114.47 	 56.7085 	 116.576 	 
C 	 -114.415 	 56.3516 	 118.303 	 
C 	 -113.433 	 55.4125 	 118.502 	 
C 	 -112.673 	 55.0567 	 117.375 	 
C 	 -112.973 	 55.7738 	 116.22 	 
H 	 -113.354 	 55.1675 	 119.556 	 
C 	 -111.659 	 53.9303 	 117.538 	 
H 	 -110.859 	 54.0309 	 116.765 	 
H 	 -112.161 	 52.9842 	 117.359 	 
C 	 -110.895 	 53.8213 	 118.887 	 
H 	 -111.626 	 53.6533 	 119.717 	 
H 	 -110.49 	 54.8245 	 119.003 	 
C 	 -109.731 	 52.8507 	 118.851 	 
H 	 -109.088 	 52.8169 	 119.713 	 
H 	 -109.13 	 53.0249 	 117.875 	 
H 	 -110.113 	 51.8077 	 118.956 	 
H 	 -111.514 	 54.1656 	 111.637 	 
H 	 -115.017 	 56.8218 	 119.016 	 
*
