! wB97X-D3 SP def2-SVP
%pal
nprocs 16
end

* xyz 0 1
S 	 -17.143 	 36.8834 	 38.5507 	 
C 	 -17.4728 	 36.5196 	 36.8832 	 
C 	 -16.3501 	 36.1058 	 36.2545 	 
C 	 -15.1916 	 36.1241 	 37.1293 	 
C 	 -15.4474 	 36.6114 	 38.4296 	 
H 	 -14.1442 	 35.9841 	 36.7623 	 
C 	 -16.291 	 35.7989 	 34.7574 	 
H 	 -15.3037 	 35.7185 	 34.3131 	 
H 	 -16.757 	 36.6238 	 34.2854 	 
C 	 -17.0617 	 34.5657 	 34.303 	 
H 	 -18.0406 	 34.5639 	 34.7897 	 
H 	 -17.2736 	 34.6607 	 33.2267 	 
C 	 -16.2938 	 33.2918 	 34.5426 	 
H 	 -15.9362 	 33.3163 	 35.5542 	 
H 	 -16.9689 	 32.445 	 34.3984 	 
H 	 -15.4186 	 33.1344 	 33.8348 	 
S 	 -15.0002 	 38.2173 	 40.5773 	 
C 	 -13.4259 	 38.2477 	 41.369 	 
C 	 -12.6557 	 37.2016 	 40.9652 	 
C 	 -13.1492 	 36.4808 	 39.8355 	 
C 	 -14.4791 	 36.8746 	 39.4776 	 
H 	 -11.7444 	 36.9728 	 41.487 	 
C 	 -12.3137 	 35.38 	 39.1477 	 
H 	 -12.8447 	 35.0929 	 38.2517 	 
H 	 -12.1858 	 34.5327 	 39.8952 	 
C 	 -10.9983 	 35.971 	 38.7225 	 
H 	 -10.3669 	 36.0894 	 39.5995 	 
H 	 -11.1782 	 36.9253 	 38.2782 	 
C 	 -10.2292 	 35.0351 	 37.817 	 
H 	 -10.1481 	 34.0516 	 38.4244 	 
H 	 -9.23472 	 35.2935 	 37.583 	 
H 	 -10.8129 	 34.8174 	 36.8963 	 
H 	 -18.3632 	 36.8635 	 36.3375 	 
H 	 -13.3081 	 38.8494 	 42.2054 	 
*
