! wB97X-D3 SP def2-SVP
%pal
nprocs 16
end

* xyz 0 1
S 	 39.7255 	 7.35323 	 89.2463 	 
C 	 40.6395 	 7.64747 	 87.8101 	 
C 	 39.875 	 7.31164 	 86.6791 	 
C 	 38.6542 	 6.72685 	 86.9808 	 
C 	 38.3533 	 6.65429 	 88.3404 	 
H 	 38.0099 	 6.25416 	 86.244 	 
C 	 40.292 	 7.39744 	 85.2124 	 
H 	 41.1477 	 8.09719 	 85.1354 	 
H 	 39.4894 	 7.90729 	 84.6932 	 
C 	 40.7318 	 6.05618 	 84.5979 	 
H 	 40.0673 	 5.20651 	 84.709 	 
H 	 40.8823 	 6.15953 	 83.4882 	 
C 	 42.0476 	 5.56488 	 85.309 	 
H 	 41.9152 	 5.531 	 86.3485 	 
H 	 42.3672 	 4.57697 	 84.9993 	 
H 	 42.7984 	 6.28309 	 85.0513 	 
S 	 35.7308 	 6.10481 	 88.0741 	 
C 	 35.0252 	 4.93827 	 89.1144 	 
C 	 35.8503 	 4.5449 	 90.161 	 
C 	 37.1339 	 5.1349 	 90.0117 	 
C 	 37.2525 	 5.95002 	 88.9239 	 
H 	 35.5125 	 3.89673 	 90.9657 	 
C 	 38.2074 	 4.97554 	 91.0398 	 
H 	 37.748 	 4.43898 	 91.9384 	 
H 	 38.5468 	 5.8991 	 91.3982 	 
C 	 39.3031 	 4.00474 	 90.4977 	 
H 	 39.6539 	 4.52192 	 89.5744 	 
H 	 38.9306 	 2.94552 	 90.3179 	 
C 	 40.4169 	 3.96657 	 91.4595 	 
H 	 41.3233 	 3.6298 	 90.9924 	 
H 	 40.2598 	 3.36423 	 92.3358 	 
H 	 40.6564 	 5.03633 	 91.7235 	 
H 	 41.6289 	 8.08194 	 87.6621 	 
H 	 34.0317 	 4.51049 	 89.1706 	 
*
