! wB97X-D3 SP def2-SVP
%pal
nprocs 16
end

* xyz 0 1
S 	 3.02198 	 -5.35436 	 73.9418 	 
C 	 3.56498 	 -6.67598 	 74.9483 	 
C 	 3.41476 	 -6.33786 	 76.2971 	 
C 	 3.19911 	 -4.86412 	 76.4076 	 
C 	 2.96258 	 -4.20185 	 75.2077 	 
H 	 3.00202 	 -4.25021 	 77.3112 	 
C 	 3.62207 	 -7.31164 	 77.466 	 
H 	 4.74944 	 -7.51117 	 77.4137 	 
H 	 3.11439 	 -8.26669 	 77.409 	 
C 	 3.27628 	 -6.81785 	 78.907 	 
H 	 3.96239 	 -7.35658 	 79.5221 	 
H 	 3.62413 	 -5.7882 	 79.1213 	 
C 	 1.85919 	 -7.03606 	 79.3774 	 
H 	 1.77964 	 -6.96434 	 80.4659 	 
H 	 1.11861 	 -6.32778 	 78.8812 	 
H 	 1.57685 	 -8.07929 	 79.1703 	 
S 	 3.43628 	 -2.0537 	 73.6479 	 
C 	 2.83376 	 -0.50249 	 74.0456 	 
C 	 1.98785 	 -0.575866 	 75.2127 	 
C 	 1.86755 	 -1.91498 	 75.6684 	 
C 	 2.68821 	 -2.82561 	 75.0181 	 
H 	 1.67509 	 0.376066 	 75.6698 	 
C 	 0.994183 	 -2.18527 	 76.9165 	 
H 	 0.840988 	 -1.21811 	 77.4128 	 
H 	 1.56914 	 -2.73846 	 77.6323 	 
C 	 -0.300527 	 -2.99396 	 76.6679 	 
H 	 -0.82413 	 -3.26518 	 77.5253 	 
H 	 -0.294055 	 -3.96926 	 76.1393 	 
C 	 -1.42974 	 -2.18349 	 75.8953 	 
H 	 -1.10798 	 -1.74454 	 74.9569 	 
H 	 -1.88862 	 -1.43738 	 76.4729 	 
H 	 -2.24721 	 -2.84532 	 75.5921 	 
H 	 3.64643 	 -7.67026 	 74.6094 	 
H 	 3.10079 	 0.325175 	 73.4488 	 
*
