! wB97X-D3 SP def2-SVP
%pal
nprocs 16
end

* xyz 0 1
S 	 -34.8318 	 68.3097 	 146.087 	 
C 	 -36.177 	 68.9154 	 145.242 	 
C 	 -36.156 	 68.6554 	 143.88 	 
C 	 -35.0295 	 67.8231 	 143.536 	 
C 	 -34.1744 	 67.5986 	 144.612 	 
H 	 -34.7308 	 67.3289 	 142.576 	 
C 	 -37.0585 	 69.1266 	 142.792 	 
H 	 -36.503 	 69.2711 	 141.817 	 
H 	 -37.3874 	 70.1518 	 143.094 	 
C 	 -38.3406 	 68.2159 	 142.603 	 
H 	 -38.8189 	 68.0597 	 143.584 	 
H 	 -39.0074 	 68.7064 	 141.963 	 
C 	 -38.111 	 66.9245 	 141.847 	 
H 	 -37.6161 	 66.1898 	 142.507 	 
H 	 -38.9978 	 66.4581 	 141.448 	 
H 	 -37.4266 	 66.9546 	 141.021 	 
S 	 -31.7939 	 66.939 	 143.182 	 
C 	 -30.6582 	 65.846 	 143.851 	 
C 	 -31.0816 	 65.3648 	 145.076 	 
C 	 -32.296 	 65.929 	 145.484 	 
C 	 -32.9707 	 66.7626 	 144.566 	 
H 	 -30.5564 	 64.534 	 145.609 	 
C 	 -32.8265 	 65.4786 	 146.801 	 
H 	 -33.0859 	 66.3014 	 147.475 	 
H 	 -31.99 	 64.9895 	 147.337 	 
C 	 -33.8598 	 64.342 	 146.649 	 
H 	 -33.9141 	 63.9112 	 147.607 	 
H 	 -33.4899 	 63.6302 	 145.861 	 
C 	 -35.3209 	 64.6719 	 146.387 	 
H 	 -36.0528 	 63.8474 	 146.454 	 
H 	 -35.247 	 64.9129 	 145.352 	 
H 	 -35.7077 	 65.462 	 146.984 	 
H 	 -36.9536 	 69.4793 	 145.735 	 
H 	 -29.7606 	 65.4297 	 143.352 	 
*
