! wB97X-D3 SP def2-SVP
%pal
nprocs 16
end

* xyz 0 1
S 	 -30.6957 	 68.9066 	 106.622 	 
C 	 -29.8162 	 70.2447 	 107.202 	 
C 	 -28.9302 	 69.9403 	 108.213 	 
C 	 -28.9128 	 68.5262 	 108.464 	 
C 	 -29.8117 	 67.8057 	 107.663 	 
H 	 -28.275 	 68.0176 	 109.169 	 
C 	 -28.0917 	 71.0217 	 108.975 	 
H 	 -27.9452 	 70.5504 	 109.937 	 
H 	 -28.6189 	 71.9427 	 109.149 	 
C 	 -26.7041 	 71.3787 	 108.336 	 
H 	 -26.0749 	 71.744 	 109.063 	 
H 	 -26.2649 	 70.3766 	 108.11 	 
C 	 -26.6422 	 72.3227 	 107.136 	 
H 	 -25.5875 	 72.5165 	 106.959 	 
H 	 -27.1328 	 71.8637 	 106.24 	 
H 	 -27.1217 	 73.2983 	 107.36 	 
S 	 -30.5641 	 65.562 	 108.973 	 
C 	 -30.82 	 64.0377 	 108.235 	 
C 	 -30.6047 	 64.1384 	 106.882 	 
C 	 -30.2722 	 65.4306 	 106.477 	 
C 	 -30.001 	 66.3384 	 107.484 	 
H 	 -30.7097 	 63.231 	 106.297 	 
C 	 -30.0893 	 65.7943 	 105.044 	 
H 	 -29.5727 	 66.7521 	 104.985 	 
H 	 -31.0797 	 65.9434 	 104.831 	 
C 	 -29.3973 	 64.7681 	 104.128 	 
H 	 -29.2927 	 65.0811 	 103.089 	 
H 	 -29.946 	 63.9027 	 104.235 	 
C 	 -27.9285 	 64.4294 	 104.486 	 
H 	 -27.8102 	 64.1713 	 105.522 	 
H 	 -27.1838 	 65.2435 	 104.443 	 
H 	 -27.5841 	 63.63 	 103.867 	 
H 	 -29.9357 	 71.2745 	 106.875 	 
H 	 -31.1583 	 63.2046 	 108.799 	 
*
