! wB97X-D3 SP def2-SVP
%pal
nprocs 16
end

* xyz 0 1
S 	 48.6017 	 14.6384 	 86.4665 	 
C 	 48.3262 	 16.2523 	 86.9821 	 
C 	 48.8324 	 17.1935 	 86.046 	 
C 	 49.5254 	 16.5687 	 85.0412 	 
C 	 49.5325 	 15.1617 	 85.0887 	 
H 	 50.0893 	 17.1316 	 84.2511 	 
C 	 48.667 	 18.6657 	 86.0445 	 
H 	 49.3272 	 19.0656 	 85.3131 	 
H 	 48.9994 	 19.004 	 86.9837 	 
C 	 47.2159 	 19.1943 	 85.8531 	 
H 	 46.6615 	 18.8636 	 86.8117 	 
H 	 47.0947 	 20.3076 	 85.9724 	 
C 	 46.6588 	 18.7474 	 84.5234 	 
H 	 46.4935 	 17.6447 	 84.5563 	 
H 	 45.6591 	 19.1945 	 84.3396 	 
H 	 47.3512 	 18.9245 	 83.7196 	 
S 	 48.9723 	 13.0345 	 83.4163 	 
C 	 50.1764 	 12.5025 	 82.2603 	 
C 	 51.2323 	 13.3445 	 82.2086 	 
C 	 51.1954 	 14.3559 	 83.1848 	 
C 	 50.0318 	 14.2833 	 84.0068 	 
H 	 51.9581 	 13.1536 	 81.4369 	 
C 	 52.4191 	 15.289 	 83.2545 	 
H 	 52.0952 	 16.3342 	 83.4743 	 
H 	 52.8704 	 15.2954 	 82.2248 	 
C 	 53.3406 	 15.0427 	 84.3698 	 
H 	 54.0566 	 15.849 	 84.4757 	 
H 	 53.9275 	 14.1098 	 84.0702 	 
C 	 52.72 	 14.9208 	 85.7791 	 
H 	 51.8924 	 14.1765 	 85.8054 	 
H 	 52.2177 	 15.8692 	 86.0019 	 
H 	 53.4559 	 14.6858 	 86.4844 	 
H 	 47.6707 	 16.5881 	 87.8459 	 
H 	 49.9495 	 11.7744 	 81.4588 	 
*
