! wB97X-D3 SP def2-SVP
%pal
nprocs 16
end

* xyz 0 1
S 	 -44.6253 	 25.0693 	 86.463 	 
C 	 -45.8838 	 23.8429 	 86.6293 	 
C 	 -46.6141 	 23.7561 	 85.4689 	 
C 	 -46.0705 	 24.6056 	 84.4036 	 
C 	 -44.9047 	 25.1842 	 84.753 	 
H 	 -46.4237 	 24.7384 	 83.3789 	 
C 	 -47.8477 	 22.9883 	 85.1339 	 
H 	 -48.4606 	 23.8093 	 84.8091 	 
H 	 -48.4349 	 22.5395 	 85.9353 	 
C 	 -47.7255 	 21.9952 	 83.95 	 
H 	 -48.6844 	 21.7366 	 83.6288 	 
H 	 -47.1834 	 22.3747 	 83.0587 	 
C 	 -47.1898 	 20.6117 	 84.3804 	 
H 	 -46.2002 	 20.5678 	 84.885 	 
H 	 -47.9431 	 20.2644 	 85.1331 	 
H 	 -47.2481 	 19.8992 	 83.6195 	 
S 	 -44.0262 	 27.7361 	 84.4021 	 
C 	 -43.3784 	 28.1798 	 82.8302 	 
C 	 -43.23 	 27.1113 	 82.0291 	 
C 	 -43.81 	 25.9058 	 82.5526 	 
C 	 -44.1405 	 26.0318 	 83.9136 	 
H 	 -42.816 	 27.2597 	 81.0875 	 
C 	 -43.8853 	 24.7193 	 81.7259 	 
H 	 -43.7985 	 24.9953 	 80.636 	 
H 	 -44.8496 	 24.3363 	 81.8569 	 
C 	 -42.8562 	 23.6668 	 82.0541 	 
H 	 -42.9189 	 23.3165 	 83.1083 	 
H 	 -41.9405 	 24.1338 	 81.876 	 
C 	 -43.087 	 22.4768 	 81.1617 	 
H 	 -44.1247 	 22.1042 	 81.1148 	 
H 	 -42.4894 	 21.6438 	 81.5648 	 
H 	 -42.6918 	 22.4698 	 80.1378 	 
H 	 -46.2966 	 23.382 	 87.4959 	 
H 	 -42.8849 	 29.1089 	 82.6382 	 
*
