! wB97X-D3 SP def2-SVP
%pal
nprocs 16
end

* xyz 0 1
S 	 42.2078 	 7.89145 	 87.1788 	 
C 	 43.4646 	 9.12643 	 86.9457 	 
C 	 44.208 	 9.20802 	 88.1655 	 
C 	 43.775 	 8.29541 	 89.1979 	 
C 	 42.7082 	 7.47054 	 88.7782 	 
H 	 44.2393 	 8.13848 	 90.1161 	 
C 	 45.3373 	 10.1554 	 88.2659 	 
H 	 45.4632 	 10.4875 	 89.3593 	 
H 	 45.0494 	 11.0865 	 87.8892 	 
C 	 46.7353 	 9.85772 	 87.6823 	 
H 	 46.5227 	 9.73307 	 86.6149 	 
H 	 47.3907 	 10.7523 	 87.8543 	 
C 	 47.3115 	 8.55732 	 88.2441 	 
H 	 46.6598 	 7.69455 	 88.2094 	 
H 	 48.1357 	 8.23963 	 87.596 	 
H 	 47.5469 	 8.54017 	 89.2996 	 
S 	 40.3736 	 6.26218 	 89.3425 	 
C 	 40.3528 	 4.77174 	 90.313 	 
C 	 41.6364 	 4.38553 	 90.6302 	 
C 	 42.6525 	 5.26419 	 90.1782 	 
C 	 42.1198 	 6.35942 	 89.5121 	 
H 	 41.8635 	 3.45992 	 91.0866 	 
C 	 44.0842 	 4.8864 	 90.347 	 
H 	 44.5117 	 5.7607 	 90.8182 	 
H 	 44.5379 	 4.84566 	 89.3542 	 
C 	 44.3983 	 3.49328 	 91.1091 	 
H 	 43.9087 	 2.64774 	 90.6151 	 
H 	 44.0021 	 3.45364 	 92.13 	 
C 	 45.9179 	 3.22161 	 91.169 	 
H 	 46.0932 	 2.4601 	 91.8919 	 
H 	 46.4382 	 4.11303 	 91.3563 	 
H 	 46.217 	 2.85473 	 90.144 	 
H 	 43.6854 	 9.6952 	 86.0706 	 
H 	 39.4275 	 4.28932 	 90.5706 	 
*
