! wB97X-D3 SP def2-SVP
%pal
nprocs 16
end

* xyz 0 1
S 	 -73.2835 	 50.7704 	 138.783 	 
C 	 -73.0739 	 49.124 	 139.341 	 
C 	 -73.045 	 48.203 	 138.364 	 
C 	 -72.8687 	 48.8988 	 137.068 	 
C 	 -73.0089 	 50.2791 	 137.129 	 
H 	 -72.7967 	 48.3521 	 136.209 	 
C 	 -73.0973 	 46.6656 	 138.54 	 
H 	 -74.0102 	 46.3182 	 138.088 	 
H 	 -73.2167 	 46.3869 	 139.622 	 
C 	 -71.8341 	 45.8575 	 138.067 	 
H 	 -72.1301 	 45.4188 	 137.053 	 
H 	 -70.9847 	 46.533 	 137.851 	 
C 	 -71.3839 	 44.7053 	 139.034 	 
H 	 -70.3446 	 44.5488 	 138.907 	 
H 	 -71.4884 	 45.1079 	 140.1 	 
H 	 -72.1149 	 43.8828 	 139.053 	 
S 	 -72.5783 	 52.9309 	 136.499 	 
C 	 -72.5808 	 53.3039 	 134.789 	 
C 	 -72.961 	 52.2427 	 133.928 	 
C 	 -73.1754 	 51.0635 	 134.71 	 
C 	 -72.9975 	 51.2627 	 136.067 	 
H 	 -73.0005 	 52.3351 	 132.826 	 
C 	 -73.635 	 49.8532 	 133.915 	 
H 	 -72.9229 	 49.048 	 133.906 	 
H 	 -73.7239 	 50.1413 	 132.879 	 
C 	 -75.0059 	 49.3005 	 134.48 	 
H 	 -75.7883 	 50.0421 	 134.311 	 
H 	 -74.9691 	 49.1604 	 135.514 	 
C 	 -75.4734 	 47.9302 	 134 	 
H 	 -75.8249 	 48.0549 	 132.958 	 
H 	 -76.4187 	 47.5333 	 134.49 	 
H 	 -74.779 	 47.0777 	 133.93 	 
H 	 -72.9743 	 48.8393 	 140.356 	 
H 	 -72.5099 	 54.3208 	 134.384 	 
*
