! wB97X-D3 SP def2-SVP
%pal
nprocs 16
end

* xyz 0 1
S 	 1.49542 	 -25.7462 	 55.7363 	 
C 	 0.0585784 	 -25.5224 	 56.8002 	 
C 	 -0.265426 	 -24.1926 	 56.9586 	 
C 	 0.702631 	 -23.3414 	 56.2908 	 
C 	 1.5368 	 -24.0392 	 55.4252 	 
H 	 0.655198 	 -22.2509 	 56.3672 	 
C 	 -1.43555 	 -23.5005 	 57.7331 	 
H 	 -1.04643 	 -22.7563 	 58.4432 	 
H 	 -1.92352 	 -24.2743 	 58.3397 	 
C 	 -2.55418 	 -22.9132 	 56.8601 	 
H 	 -2.02709 	 -22.1301 	 56.3479 	 
H 	 -2.83221 	 -23.5902 	 55.9589 	 
C 	 -3.6136 	 -22.1017 	 57.555 	 
H 	 -4.31449 	 -22.7988 	 58.0629 	 
H 	 -3.14815 	 -21.3884 	 58.201 	 
H 	 -4.089 	 -21.544 	 56.782 	 
S 	 4.05175 	 -24.3999 	 54.3016 	 
C 	 4.65905 	 -23.0175 	 53.3372 	 
C 	 3.84465 	 -21.9927 	 53.1802 	 
C 	 2.58291 	 -22.2723 	 53.8768 	 
C 	 2.5642 	 -23.4656 	 54.5569 	 
H 	 4.20232 	 -21.1387 	 52.6088 	 
C 	 1.43093 	 -21.2572 	 53.7935 	 
H 	 0.870486 	 -21.1749 	 54.7258 	 
H 	 0.588166 	 -21.6783 	 53.1385 	 
C 	 1.77775 	 -19.8442 	 53.2909 	 
H 	 0.832026 	 -19.2958 	 53.2098 	 
H 	 2.07985 	 -19.8225 	 52.2329 	 
C 	 2.65835 	 -19.0357 	 54.2139 	 
H 	 2.07789 	 -19.0537 	 55.1512 	 
H 	 2.80692 	 -18.0438 	 53.7191 	 
H 	 3.57257 	 -19.5816 	 54.3822 	 
H 	 -0.492436 	 -26.3044 	 57.259 	 
H 	 5.62173 	 -23.0283 	 52.9232 	 
*
