! wB97X-D3 SP def2-SVP
%pal
nprocs 16
end

* xyz 0 1
S 	 49.7919 	 10.2982 	 93.466 	 
C 	 50.1171 	 11.9993 	 93.7938 	 
C 	 50.1114 	 12.7263 	 92.6131 	 
C 	 49.9451 	 11.8863 	 91.4538 	 
C 	 49.7193 	 10.5435 	 91.7069 	 
H 	 49.9681 	 12.192 	 90.3612 	 
C 	 50.5464 	 14.178 	 92.4634 	 
H 	 50.1369 	 14.8037 	 93.2197 	 
H 	 49.9472 	 14.5761 	 91.6029 	 
C 	 52.0223 	 14.4893 	 92.3659 	 
H 	 52.2431 	 15.5618 	 92.3811 	 
H 	 52.3977 	 14.179 	 93.3434 	 
C 	 52.7918 	 13.8051 	 91.2178 	 
H 	 52.2521 	 13.8933 	 90.2616 	 
H 	 53.7442 	 14.237 	 91.0037 	 
H 	 53.0127 	 12.7747 	 91.4442 	 
S 	 51.3526 	 8.56212 	 90.8287 	 
C 	 51.1392 	 7.73248 	 89.322 	 
C 	 49.9776 	 8.21362 	 88.775 	 
C 	 49.2636 	 9.20606 	 89.538 	 
C 	 49.9424 	 9.53945 	 90.7253 	 
H 	 49.7148 	 7.90844 	 87.7648 	 
C 	 47.8712 	 9.72222 	 89.1602 	 
H 	 47.7515 	 9.78838 	 88.0444 	 
H 	 47.8188 	 10.8171 	 89.3987 	 
C 	 46.7542 	 8.95115 	 89.9162 	 
H 	 46.915 	 9.01472 	 91.0517 	 
H 	 46.7303 	 7.8786 	 89.5716 	 
C 	 45.2659 	 9.41775 	 89.6067 	 
H 	 44.5117 	 8.98587 	 90.2539 	 
H 	 44.9368 	 9.27665 	 88.5456 	 
H 	 45.2812 	 10.5276 	 89.8005 	 
H 	 50.3842 	 12.3903 	 94.7617 	 
H 	 51.7129 	 6.96659 	 88.8243 	 
*
