! wB97X-D3 SP def2-SVP
%pal
nprocs 16
end

* xyz 0 1
S 	 39.5973 	 22.4928 	 86.2955 	 
C 	 37.965 	 22.8499 	 86.5774 	 
C 	 37.3299 	 23.6806 	 85.6283 	 
C 	 38.3373 	 24.1573 	 84.7001 	 
C 	 39.6201 	 23.7126 	 84.8946 	 
H 	 38.0448 	 24.6773 	 83.7607 	 
C 	 35.8285 	 24.0568 	 85.607 	 
H 	 35.3326 	 23.2339 	 86.1036 	 
H 	 35.4433 	 23.9513 	 84.5881 	 
C 	 35.3345 	 25.3365 	 86.3491 	 
H 	 35.5281 	 25.1212 	 87.4477 	 
H 	 35.8468 	 26.1936 	 86.0383 	 
C 	 33.8097 	 25.5887 	 86.2831 	 
H 	 33.284 	 24.7562 	 86.7177 	 
H 	 33.5452 	 26.4817 	 86.8519 	 
H 	 33.4486 	 25.6611 	 85.2372 	 
S 	 42.094 	 23.1189 	 84.553 	 
C 	 43.1334 	 23.8306 	 83.3176 	 
C 	 42.4793 	 24.8624 	 82.6776 	 
C 	 41.1108 	 25.0166 	 83.093 	 
C 	 40.7394 	 24.0054 	 84.0644 	 
H 	 43.0102 	 25.5373 	 81.9771 	 
C 	 40.1866 	 26.0779 	 82.4031 	 
H 	 39.2633 	 25.6407 	 82.1533 	 
H 	 40.5475 	 26.2472 	 81.4276 	 
C 	 40.1522 	 27.4802 	 83.1135 	 
H 	 39.9824 	 27.2864 	 84.1244 	 
H 	 39.2561 	 28.0103 	 82.7267 	 
C 	 41.3871 	 28.295 	 82.7368 	 
H 	 41.704 	 29.0938 	 83.4918 	 
H 	 41.2184 	 28.9297 	 81.832 	 
H 	 42.3296 	 27.6825 	 82.8231 	 
H 	 37.2614 	 22.2555 	 87.2009 	 
H 	 44.2437 	 23.7225 	 83.2413 	 
*
