! wB97X-D3 SP def2-SVP
%pal
nprocs 16
end

* xyz 0 1
S 	 -41.4856 	 57.5669 	 109.497 	 
C 	 -43.0539 	 58.1054 	 108.701 	 
C 	 -43.0087 	 57.7758 	 107.38 	 
C 	 -41.9994 	 56.8428 	 107.067 	 
C 	 -41.2026 	 56.5619 	 108.154 	 
H 	 -41.7796 	 56.3315 	 106.107 	 
C 	 -43.8512 	 58.4175 	 106.335 	 
H 	 -43.8974 	 59.4242 	 106.617 	 
H 	 -44.9581 	 58.0892 	 106.327 	 
C 	 -43.4131 	 58.3769 	 104.868 	 
H 	 -42.4539 	 58.8413 	 104.909 	 
H 	 -43.3464 	 57.3175 	 104.61 	 
C 	 -44.3118 	 59.1857 	 103.96 	 
H 	 -45.3047 	 58.8026 	 103.909 	 
H 	 -44.3947 	 60.2582 	 104.262 	 
H 	 -43.9136 	 59.2151 	 102.943 	 
S 	 -38.6453 	 56.3445 	 109.08 	 
C 	 -37.748 	 54.8645 	 108.914 	 
C 	 -38.3337 	 54.01 	 108.03 	 
C 	 -39.7113 	 54.4474 	 107.678 	 
C 	 -40.0558 	 55.7002 	 108.142 	 
H 	 -37.9319 	 53.0443 	 107.835 	 
C 	 -40.6991 	 53.52 	 106.98 	 
H 	 -40.6975 	 53.8615 	 105.971 	 
H 	 -41.6922 	 53.524 	 107.404 	 
C 	 -40.2967 	 52.0237 	 106.799 	 
H 	 -40.0688 	 51.6171 	 107.78 	 
H 	 -39.5153 	 51.8279 	 106.006 	 
C 	 -41.5066 	 51.2534 	 106.22 	 
H 	 -42.3429 	 51.2245 	 106.945 	 
H 	 -41.2704 	 50.2687 	 105.894 	 
H 	 -41.797 	 51.8888 	 105.346 	 
H 	 -43.7842 	 58.9001 	 108.944 	 
H 	 -36.8662 	 54.5035 	 109.455 	 
*
