! wB97X-D3 SP def2-SVP
%pal
nprocs 16
end

* xyz 0 1
S 	 -99.2512 	 51.5713 	 122.663 	 
C 	 -97.8841 	 50.9807 	 123.605 	 
C 	 -98.3357 	 50.0091 	 124.501 	 
C 	 -99.7175 	 49.7051 	 124.324 	 
C 	 -100.388 	 50.4756 	 123.405 	 
H 	 -100.273 	 48.9208 	 124.789 	 
C 	 -97.4292 	 49.2014 	 125.442 	 
H 	 -97.9806 	 48.8291 	 126.34 	 
H 	 -96.8719 	 49.987 	 125.868 	 
C 	 -96.5356 	 48.1307 	 124.762 	 
H 	 -97.2015 	 47.4462 	 124.218 	 
H 	 -95.9719 	 48.5355 	 123.947 	 
C 	 -95.7427 	 47.3945 	 125.877 	 
H 	 -96.3598 	 47.323 	 126.738 	 
H 	 -95.588 	 46.3812 	 125.521 	 
H 	 -94.9114 	 47.8878 	 126.145 	 
S 	 -102.114 	 50.6325 	 121.326 	 
C 	 -103.816 	 50.8686 	 121.642 	 
C 	 -104.097 	 50.6401 	 122.949 	 
C 	 -102.969 	 50.3626 	 123.778 	 
C 	 -101.778 	 50.5077 	 123.078 	 
H 	 -105.094 	 50.6848 	 123.374 	 
C 	 -103.099 	 50.21 	 125.297 	 
H 	 -102.328 	 49.5635 	 125.706 	 
H 	 -104.03 	 49.6644 	 125.464 	 
C 	 -103.219 	 51.5316 	 126.086 	 
H 	 -103.936 	 52.2436 	 125.667 	 
H 	 -102.263 	 52.1092 	 126.044 	 
C 	 -103.469 	 51.2528 	 127.597 	 
H 	 -103.662 	 52.1307 	 128.244 	 
H 	 -102.584 	 50.8625 	 128.053 	 
H 	 -104.299 	 50.5611 	 127.831 	 
H 	 -96.8212 	 51.2753 	 123.558 	 
H 	 -104.584 	 51.0409 	 120.851 	 
*
