! wB97X-D3 SP def2-SVP
%pal
nprocs 16
end

* xyz 0 1
S 	 5.8056 	 11.4426 	 82.3519 	 
C 	 6.55662 	 12.6714 	 81.3662 	 
C 	 5.96883 	 13.8813 	 81.3731 	 
C 	 4.93472 	 13.9193 	 82.4188 	 
C 	 4.75093 	 12.6688 	 83.0092 	 
H 	 4.34987 	 14.79 	 82.7511 	 
C 	 6.33058 	 15.189 	 80.5873 	 
H 	 5.44652 	 15.5086 	 80.0852 	 
H 	 7.04233 	 14.9751 	 79.7291 	 
C 	 6.97209 	 16.2455 	 81.521 	 
H 	 6.35105 	 16.4772 	 82.3314 	 
H 	 7.93227 	 15.8875 	 81.9552 	 
C 	 7.07895 	 17.5785 	 80.7723 	 
H 	 6.108 	 17.9113 	 80.3763 	 
H 	 7.61486 	 18.3867 	 81.3226 	 
H 	 7.56378 	 17.2594 	 79.9276 	 
S 	 2.18193 	 12.0867 	 83.7743 	 
C 	 1.8056 	 11.4709 	 85.3943 	 
C 	 2.99127 	 11.3694 	 86.139 	 
C 	 4.18461 	 11.9089 	 85.4516 	 
C 	 3.90071 	 12.2683 	 84.0913 	 
H 	 2.90682 	 11.0175 	 87.2151 	 
C 	 5.52444 	 12.0682 	 86.0877 	 
H 	 6.31614 	 12.3594 	 85.322 	 
H 	 5.8557 	 11.1225 	 86.3852 	 
C 	 5.69762 	 13.1023 	 87.1748 	 
H 	 6.70985 	 13.075 	 87.6079 	 
H 	 4.91292 	 12.9886 	 87.8999 	 
C 	 5.44917 	 14.481 	 86.5933 	 
H 	 4.43482 	 14.5662 	 86.3128 	 
H 	 6.01063 	 14.6129 	 85.721 	 
H 	 5.71501 	 15.2483 	 87.3701 	 
H 	 7.21205 	 12.4366 	 80.5384 	 
H 	 0.837441 	 11.2186 	 85.7235 	 
*
