! wB97X-D3 SP def2-SVP
%pal
nprocs 16
end

* xyz 0 1
S 	 17.492 	 3.37178 	 85.539 	 
C 	 18.6998 	 4.70587 	 85.5638 	 
C 	 18.2341 	 5.74332 	 86.3994 	 
C 	 17.0063 	 5.43868 	 87.0403 	 
C 	 16.4899 	 4.17734 	 86.7601 	 
H 	 16.5033 	 6.12476 	 87.7086 	 
C 	 18.9756 	 6.99319 	 86.7866 	 
H 	 20.0421 	 6.865 	 86.4455 	 
H 	 19.1105 	 7.01692 	 87.8394 	 
C 	 18.2071 	 8.21613 	 86.2225 	 
H 	 18.6032 	 8.3606 	 85.2389 	 
H 	 17.0809 	 8.0845 	 86.2427 	 
C 	 18.502 	 9.5166 	 87.0591 	 
H 	 19.5424 	 9.76016 	 87.0828 	 
H 	 17.9046 	 10.3252 	 86.6312 	 
H 	 18.2569 	 9.39727 	 88.1331 	 
S 	 15.0499 	 1.96978 	 87.5935 	 
C 	 13.2797 	 2.12524 	 87.9112 	 
C 	 12.8007 	 3.32088 	 87.3023 	 
C 	 13.8855 	 4.1315 	 86.9254 	 
C 	 15.1792 	 3.62297 	 87.0848 	 
H 	 11.735 	 3.52201 	 87.3615 	 
C 	 13.7278 	 5.48647 	 86.4129 	 
H 	 14.3573 	 6.02578 	 87.0632 	 
H 	 12.8122 	 5.8513 	 86.6708 	 
C 	 14.1861 	 5.84982 	 85.0192 	 
H 	 13.5662 	 5.28575 	 84.4033 	 
H 	 15.1599 	 5.40989 	 84.9096 	 
C 	 14.1626 	 7.36578 	 84.9902 	 
H 	 14.5847 	 7.70229 	 84.0784 	 
H 	 14.7938 	 7.73509 	 85.789 	 
H 	 13.1837 	 7.7636 	 85.1581 	 
H 	 19.6257 	 4.77589 	 85.0184 	 
H 	 12.5767 	 1.36788 	 88.3253 	 
*
