! wB97X-D3 SP def2-SVP
%pal
nprocs 16
end

* xyz 0 1
S 	 34.8615 	 29.5935 	 53.423 	 
C 	 35.6269 	 31.0984 	 53.0232 	 
C 	 36.2273 	 31.6007 	 54.172 	 
C 	 36.0582 	 30.7605 	 55.3127 	 
C 	 35.3504 	 29.6044 	 55.0944 	 
H 	 36.316 	 31.0533 	 56.3851 	 
C 	 36.8271 	 33.0029 	 54.3382 	 
H 	 37.1919 	 33.4499 	 53.3708 	 
H 	 37.7582 	 32.9236 	 54.9317 	 
C 	 35.8253 	 34.1013 	 54.7864 	 
H 	 35.0889 	 34.3409 	 54.0171 	 
H 	 35.176 	 33.6792 	 55.6439 	 
C 	 36.6226 	 35.3042 	 55.2837 	 
H 	 37.3503 	 35.1901 	 56.073 	 
H 	 37.0189 	 35.9256 	 54.4932 	 
H 	 35.9267 	 35.9469 	 55.6903 	 
S 	 33.2864 	 27.9133 	 55.6648 	 
C 	 33.2715 	 26.9634 	 57.0522 	 
C 	 34.3764 	 27.2666 	 57.8828 	 
C 	 35.3073 	 28.1893 	 57.2961 	 
C 	 34.8419 	 28.6297 	 56.0636 	 
H 	 34.5472 	 26.8584 	 58.8398 	 
C 	 36.5075 	 28.7218 	 58.0705 	 
H 	 36.1525 	 29.4172 	 58.8243 	 
H 	 37.2627 	 29.0985 	 57.342 	 
C 	 37.2405 	 27.6185 	 58.9419 	 
H 	 37.7771 	 26.8989 	 58.3053 	 
H 	 36.5428 	 27.1219 	 59.5712 	 
C 	 38.2139 	 28.2212 	 59.9757 	 
H 	 38.4057 	 27.5044 	 60.8342 	 
H 	 37.8662 	 29.1408 	 60.4069 	 
H 	 39.2036 	 28.3738 	 59.4972 	 
H 	 35.4655 	 31.6569 	 52.0735 	 
H 	 32.5165 	 26.2796 	 57.3826 	 
*
