! wB97X-D3 SP def2-SVP
%pal
nprocs 16
end

* xyz 0 1
S 	 -43.4856 	 55.6461 	 107.917 	 
C 	 -44.6224 	 56.7095 	 108.838 	 
C 	 -44.0447 	 57.9816 	 109.076 	 
C 	 -42.6177 	 58.0215 	 108.705 	 
C 	 -42.1233 	 56.8003 	 108.204 	 
H 	 -41.8857 	 58.8251 	 108.744 	 
C 	 -44.8014 	 59.2115 	 109.533 	 
H 	 -44.2263 	 59.7188 	 110.29 	 
H 	 -45.7231 	 59.042 	 110.105 	 
C 	 -44.9847 	 60.2938 	 108.445 	 
H 	 -44.1141 	 60.4471 	 107.822 	 
H 	 -45.7316 	 59.9565 	 107.762 	 
C 	 -45.6409 	 61.5801 	 109.038 	 
H 	 -46.5452 	 61.2599 	 109.59 	 
H 	 -44.9067 	 62.1146 	 109.702 	 
H 	 -45.843 	 62.2457 	 108.202 	 
S 	 -40.2608 	 54.8659 	 108.92 	 
C 	 -38.6335 	 54.9323 	 108.283 	 
C 	 -38.4016 	 56.1135 	 107.643 	 
C 	 -39.5551 	 56.9566 	 107.563 	 
C 	 -40.7328 	 56.3461 	 108.044 	 
H 	 -37.4063 	 56.3066 	 107.156 	 
C 	 -39.4015 	 58.3768 	 107.047 	 
H 	 -40.3455 	 58.6618 	 106.605 	 
H 	 -38.6401 	 58.3209 	 106.243 	 
C 	 -38.9385 	 59.5074 	 107.932 	 
H 	 -38.0729 	 59.0131 	 108.34 	 
H 	 -39.8259 	 59.7495 	 108.61 	 
C 	 -38.4795 	 60.7288 	 107.099 	 
H 	 -39.2485 	 61.4203 	 106.93 	 
H 	 -38.2563 	 60.4001 	 106.099 	 
H 	 -37.6654 	 61.2184 	 107.462 	 
H 	 -45.6982 	 56.5628 	 108.917 	 
H 	 -37.8792 	 54.2397 	 108.537 	 
*
