! wB97X-D3 SP def2-SVP
%pal
nprocs 16
end

* xyz 0 1
S 	 -91.2631 	 58.3328 	 127.597 	 
C 	 -90.4882 	 57.1229 	 128.573 	 
C 	 -89.8625 	 56.2315 	 127.769 	 
C 	 -90.3879 	 56.265 	 126.458 	 
C 	 -91.2274 	 57.3019 	 126.206 	 
H 	 -90.0209 	 55.6524 	 125.654 	 
C 	 -89.0339 	 55.055 	 128.204 	 
H 	 -88.6165 	 55.4438 	 129.036 	 
H 	 -88.3265 	 54.8665 	 127.411 	 
C 	 -89.8996 	 53.7948 	 128.471 	 
H 	 -90.857 	 54.125 	 128.918 	 
H 	 -90.1953 	 53.4236 	 127.553 	 
C 	 -89.1409 	 52.7445 	 129.326 	 
H 	 -88.2263 	 52.3795 	 128.825 	 
H 	 -88.9805 	 53.2131 	 130.283 	 
H 	 -89.8105 	 51.8798 	 129.323 	 
S 	 -91.2745 	 59.4224 	 124.582 	 
C 	 -91.8618 	 59.3089 	 122.887 	 
C 	 -92.2978 	 58.0425 	 122.67 	 
C 	 -92.2075 	 57.1703 	 123.801 	 
C 	 -91.6724 	 57.7498 	 124.928 	 
H 	 -92.6874 	 57.7027 	 121.767 	 
C 	 -92.6027 	 55.6629 	 123.655 	 
H 	 -92.3412 	 55.1627 	 124.592 	 
H 	 -91.8994 	 55.1194 	 122.993 	 
C 	 -94.0702 	 55.464 	 123.166 	 
H 	 -94.1916 	 55.9515 	 122.132 	 
H 	 -94.7524 	 55.953 	 123.8 	 
C 	 -94.6046 	 54.0341 	 123.077 	 
H 	 -94.3042 	 53.4615 	 123.971 	 
H 	 -94.2897 	 53.4305 	 122.214 	 
H 	 -95.6697 	 53.8948 	 123.045 	 
H 	 -90.2423 	 57.1402 	 129.596 	 
H 	 -91.8152 	 60.1438 	 122.173 	 
*
