! wB97X-D3 SP def2-SVP
%pal
nprocs 16
end

* xyz 0 1
S 	 -32.1394 	 29.9553 	 42.2479 	 
C 	 -32.4147 	 29.5038 	 43.9542 	 
C 	 -33.6116 	 29.9439 	 44.4335 	 
C 	 -34.1784 	 30.9239 	 43.5278 	 
C 	 -33.5942 	 30.946 	 42.3122 	 
H 	 -35.1701 	 31.3844 	 43.6632 	 
C 	 -34.1291 	 29.6411 	 45.8387 	 
H 	 -33.641 	 28.745 	 46.1021 	 
H 	 -35.179 	 29.3313 	 45.8218 	 
C 	 -33.9087 	 30.6758 	 46.9629 	 
H 	 -34.4545 	 31.6318 	 46.8379 	 
H 	 -34.3157 	 30.3218 	 47.8894 	 
C 	 -32.3628 	 30.9238 	 47.3305 	 
H 	 -31.8351 	 30.0908 	 47.891 	 
H 	 -31.6284 	 31.1596 	 46.4793 	 
H 	 -32.3219 	 31.7779 	 48.0193 	 
S 	 -33.1455 	 32.9707 	 40.5433 	 
C 	 -34.3452 	 33.6525 	 39.4779 	 
C 	 -35.519 	 32.8449 	 39.592 	 
C 	 -35.3334 	 31.6907 	 40.4691 	 
C 	 -34.1134 	 31.7513 	 41.1949 	 
H 	 -36.3529 	 32.925 	 38.9251 	 
C 	 -36.3191 	 30.6182 	 40.6883 	 
H 	 -37.2747 	 30.8009 	 40.206 	 
H 	 -36.624 	 30.6631 	 41.6948 	 
C 	 -35.9526 	 29.1725 	 40.5047 	 
H 	 -35.2816 	 28.8793 	 41.3459 	 
H 	 -35.367 	 29.1405 	 39.5713 	 
C 	 -37.1659 	 28.2219 	 40.3326 	 
H 	 -36.8998 	 27.1896 	 40.0347 	 
H 	 -37.7864 	 28.4045 	 39.4587 	 
H 	 -37.9432 	 28.2915 	 41.0967 	 
H 	 -31.8129 	 28.8928 	 44.568 	 
H 	 -34.1606 	 34.5061 	 38.7867 	 
*
