! wB97X-D3 SP def2-SVP
%pal
nprocs 16
end

* xyz 0 1
S 	 55.8091 	 2.51987 	 84.2684 	 
C 	 55.3708 	 3.44133 	 82.784 	 
C 	 54.1121 	 3.04117 	 82.3192 	 
C 	 53.6948 	 1.87855 	 82.9838 	 
C 	 54.5151 	 1.41135 	 83.9923 	 
H 	 52.8222 	 1.30517 	 82.8384 	 
C 	 53.363 	 3.49613 	 81.0351 	 
H 	 53.2764 	 2.54546 	 80.472 	 
H 	 54.1395 	 4.08445 	 80.491 	 
C 	 52.1368 	 4.26463 	 81.4252 	 
H 	 51.499 	 3.58616 	 81.9565 	 
H 	 52.4743 	 5.13664 	 82.1128 	 
C 	 51.5313 	 5.01582 	 80.2154 	 
H 	 50.674 	 5.64217 	 80.5225 	 
H 	 52.2296 	 5.80866 	 79.7576 	 
H 	 51.2783 	 4.22941 	 79.4749 	 
S 	 53.5877 	 0.648349 	 86.5045 	 
C 	 53.4156 	 -0.984979 	 86.9389 	 
C 	 53.8192 	 -1.79279 	 85.8934 	 
C 	 54.2447 	 -1.08457 	 84.7552 	 
C 	 54.187 	 0.272932 	 84.9326 	 
H 	 53.7695 	 -2.88079 	 85.9922 	 
C 	 54.8121 	 -1.86479 	 83.5741 	 
H 	 54.4849 	 -2.89658 	 83.7198 	 
H 	 55.9256 	 -1.85082 	 83.4767 	 
C 	 54.1764 	 -1.59376 	 82.2253 	 
H 	 54.4655 	 -0.614498 	 81.9696 	 
H 	 53.0487 	 -1.6139 	 82.3895 	 
C 	 54.6576 	 -2.60739 	 81.1773 	 
H 	 55.7294 	 -2.35398 	 80.9239 	 
H 	 54.1432 	 -2.86669 	 80.1972 	 
H 	 54.7056 	 -3.60911 	 81.5709 	 
H 	 55.9372 	 4.25628 	 82.3554 	 
H 	 53.2906 	 -1.29817 	 87.9733 	 
*
