! wB97X-D3 SP def2-SVP
%pal
nprocs 16
end

* xyz 0 1
S 	 -37.3617 	 48.8348 	 97.0459 	 
C 	 -36.0379 	 48.6965 	 95.9408 	 
C 	 -35.7989 	 49.9026 	 95.3404 	 
C 	 -36.425 	 50.9891 	 96.0643 	 
C 	 -37.2384 	 50.5802 	 97.0491 	 
H 	 -36.3262 	 52.0243 	 95.859 	 
C 	 -34.8739 	 50.232 	 94.1528 	 
H 	 -35.2793 	 51.2259 	 93.8762 	 
H 	 -35.0419 	 49.4981 	 93.3798 	 
C 	 -33.3736 	 50.3552 	 94.3651 	 
H 	 -32.8504 	 49.3713 	 94.4634 	 
H 	 -32.9426 	 50.7654 	 93.4853 	 
C 	 -33.0373 	 51.2135 	 95.5831 	 
H 	 -31.9629 	 51.3224 	 95.6829 	 
H 	 -33.6116 	 52.1193 	 95.5335 	 
H 	 -33.2706 	 50.6427 	 96.4992 	 
S 	 -39.8226 	 51.3139 	 97.8842 	 
C 	 -40.0432 	 52.4277 	 99.2142 	 
C 	 -38.8817 	 53.1299 	 99.4055 	 
C 	 -37.7712 	 52.4123 	 98.8218 	 
C 	 -38.1073 	 51.4254 	 97.8987 	 
H 	 -38.7683 	 53.8853 	 100.131 	 
C 	 -36.3634 	 52.7518 	 99.2074 	 
H 	 -35.5706 	 51.9853 	 99.1165 	 
H 	 -36.5053 	 52.7522 	 100.283 	 
C 	 -35.667 	 53.9931 	 98.6784 	 
H 	 -36.2902 	 54.8539 	 98.8223 	 
H 	 -35.6604 	 53.9254 	 97.5741 	 
C 	 -34.1904 	 54.2489 	 99.2306 	 
H 	 -33.9052 	 53.6502 	 100.1 	 
H 	 -34.1759 	 55.2743 	 99.5926 	 
H 	 -33.5367 	 54.0173 	 98.3802 	 
H 	 -35.6354 	 47.7374 	 95.4948 	 
H 	 -40.968 	 52.6133 	 99.7513 	 
*
