! wB97X-D3 SP def2-SVP
%pal
nprocs 16
end

* xyz 0 1
S 	 -1.07613 	 43.6955 	 35.2434 	 
C 	 -2.07511 	 42.6498 	 36.2089 	 
C 	 -2.77071 	 43.3353 	 37.19 	 
C 	 -2.64547 	 44.7312 	 37.055 	 
C 	 -1.80569 	 45.0822 	 36.0268 	 
H 	 -3.06617 	 45.4307 	 37.6702 	 
C 	 -3.66449 	 42.7037 	 38.2608 	 
H 	 -3.09481 	 41.8455 	 38.5274 	 
H 	 -4.49827 	 42.394 	 37.726 	 
C 	 -4.25522 	 43.6428 	 39.2542 	 
H 	 -3.47583 	 44.2145 	 39.778 	 
H 	 -4.91224 	 44.4843 	 38.8403 	 
C 	 -4.99399 	 42.8496 	 40.3278 	 
H 	 -5.79362 	 42.3493 	 39.908 	 
H 	 -4.30223 	 42.2611 	 40.857 	 
H 	 -5.33808 	 43.5909 	 41.02 	 
S 	 0.42071 	 46.7789 	 35.9456 	 
C 	 0.0865764 	 48.5058 	 35.5532 	 
C 	 -1.24712 	 48.7255 	 35.3124 	 
C 	 -2.04446 	 47.5411 	 35.3488 	 
C 	 -1.29106 	 46.4279 	 35.7682 	 
H 	 -1.45732 	 49.7599 	 35.0556 	 
C 	 -3.56351 	 47.5035 	 35.1105 	 
H 	 -3.99244 	 48.4551 	 35.3244 	 
H 	 -4.07046 	 46.8453 	 35.8318 	 
C 	 -3.94885 	 47.0706 	 33.6817 	 
H 	 -5.07616 	 46.9567 	 33.5396 	 
H 	 -3.56672 	 46.0792 	 33.4491 	 
C 	 -3.54514 	 48.0776 	 32.671 	 
H 	 -3.88368 	 47.758 	 31.6523 	 
H 	 -2.45387 	 48.2473 	 32.6547 	 
H 	 -3.96277 	 49.0168 	 33.023 	 
H 	 -2.00182 	 41.6155 	 36.1243 	 
H 	 0.813322 	 49.3368 	 35.5969 	 
*
