! wB97X-D3 SP def2-SVP
%pal
nprocs 16
end

* xyz 0 1
S 	 -18.7892 	 -5.94409 	 81.1823 	 
C 	 -19.125 	 -7.497 	 80.3878 	 
C 	 -20.0922 	 -8.22496 	 81.0838 	 
C 	 -20.2585 	 -7.69598 	 82.3711 	 
C 	 -19.5659 	 -6.54899 	 82.616 	 
H 	 -20.8307 	 -8.19353 	 83.1195 	 
C 	 -20.7523 	 -9.5323 	 80.7357 	 
H 	 -20.2034 	 -10.4298 	 81.1951 	 
H 	 -20.6275 	 -9.74638 	 79.6702 	 
C 	 -22.2363 	 -9.72376 	 81.1362 	 
H 	 -22.2792 	 -9.74047 	 82.2099 	 
H 	 -22.7414 	 -8.88249 	 80.747 	 
C 	 -22.6848 	 -11.0242 	 80.4695 	 
H 	 -23.6847 	 -11.3397 	 80.6843 	 
H 	 -22.6048 	 -10.9724 	 79.3979 	 
H 	 -21.9612 	 -11.8288 	 80.6774 	 
S 	 -20.2685 	 -4.24477 	 84.0306 	 
C 	 -19.9699 	 -4.1387 	 85.7539 	 
C 	 -19.2061 	 -5.17981 	 86.1338 	 
C 	 -18.9511 	 -6.19748 	 85.1342 	 
C 	 -19.5115 	 -5.83705 	 83.9043 	 
H 	 -18.921 	 -5.10791 	 87.1621 	 
C 	 -18.0806 	 -7.39702 	 85.4717 	 
H 	 -18.5441 	 -8.27927 	 84.9885 	 
H 	 -18.0557 	 -7.51948 	 86.5599 	 
C 	 -16.6409 	 -7.25939 	 85.0262 	 
H 	 -16.3182 	 -6.45967 	 85.6056 	 
H 	 -16.6984 	 -6.76163 	 84.037 	 
C 	 -15.7418 	 -8.50172 	 85.043 	 
H 	 -16.137 	 -9.2544 	 84.4483 	 
H 	 -15.7126 	 -8.9472 	 86.0752 	 
H 	 -14.7193 	 -8.24369 	 84.7455 	 
H 	 -19.0484 	 -7.68193 	 79.3944 	 
H 	 -20.2291 	 -3.33527 	 86.4254 	 
*
