! wB97X-D3 SP def2-SVP
%pal
nprocs 16
end

* xyz 0 1
S 	 5.03221 	 -6.48514 	 100.418 	 
C 	 4.90428 	 -5.52366 	 98.9713 	 
C 	 5.10297 	 -6.37058 	 97.8843 	 
C 	 5.35189 	 -7.72683 	 98.2704 	 
C 	 5.59643 	 -7.92185 	 99.6253 	 
H 	 5.32867 	 -8.58718 	 97.62 	 
C 	 5.11779 	 -5.92915 	 96.4189 	 
H 	 4.7258 	 -4.93738 	 96.4827 	 
H 	 4.23651 	 -6.54366 	 96.0048 	 
C 	 6.2652 	 -6.13846 	 95.5217 	 
H 	 6.91693 	 -5.2779 	 95.549 	 
H 	 6.81607 	 -7.0759 	 95.6759 	 
C 	 5.9317 	 -6.20553 	 94.0009 	 
H 	 5.62515 	 -7.1833 	 93.6442 	 
H 	 5.22921 	 -5.4265 	 93.7886 	 
H 	 6.88126 	 -5.95888 	 93.514 	 
S 	 4.03549 	 -9.89058 	 100.894 	 
C 	 4.95132 	 -11.298 	 101.416 	 
C 	 6.30326 	 -11.2085 	 101.138 	 
C 	 6.68165 	 -10.0323 	 100.477 	 
C 	 5.56977 	 -9.1806 	 100.29 	 
H 	 7.05358 	 -11.9398 	 101.473 	 
C 	 8.08122 	 -9.77657 	 99.902 	 
H 	 7.93707 	 -9.39524 	 98.8736 	 
H 	 8.53642 	 -10.765 	 99.8186 	 
C 	 9.00827 	 -8.96416 	 100.735 	 
H 	 9.11365 	 -9.32435 	 101.751 	 
H 	 8.55275 	 -7.99846 	 100.84 	 
C 	 10.2625 	 -8.70767 	 99.9723 	 
H 	 9.96989 	 -7.9777 	 99.1935 	 
H 	 10.9077 	 -9.60823 	 99.6531 	 
H 	 10.9261 	 -8.24279 	 100.6 	 
H 	 4.60888 	 -4.45831 	 98.8745 	 
H 	 4.43121 	 -12.0724 	 101.991 	 
*
