! wB97X-D3 SP def2-SVP
%pal
nprocs 16
end

* xyz 0 1
S 	 -20.4916 	 0.97735 	 81.5543 	 
C 	 -19.1251 	 1.93799 	 81.9922 	 
C 	 -18.0668 	 1.17601 	 82.4467 	 
C 	 -18.3863 	 -0.227426 	 82.5649 	 
C 	 -19.7391 	 -0.453244 	 82.165 	 
H 	 -17.7327 	 -1.04 	 82.9131 	 
C 	 -16.6932 	 1.63122 	 82.7907 	 
H 	 -16.6532 	 1.55869 	 83.858 	 
H 	 -16.6339 	 2.72484 	 82.6393 	 
C 	 -15.6246 	 0.838325 	 82.0036 	 
H 	 -15.8386 	 -0.248934 	 82.0308 	 
H 	 -15.7728 	 1.06683 	 80.9565 	 
C 	 -14.1589 	 1.04338 	 82.2774 	 
H 	 -13.5509 	 0.725545 	 81.4872 	 
H 	 -14.0652 	 2.08631 	 82.4415 	 
H 	 -13.7625 	 0.531642 	 83.1536 	 
S 	 -20.8887 	 -2.49834 	 83.5996 	 
C 	 -21.6956 	 -3.82417 	 82.7809 	 
C 	 -21.447 	 -3.71249 	 81.3807 	 
C 	 -20.6517 	 -2.55025 	 81.0185 	 
C 	 -20.4421 	 -1.72281 	 82.1408 	 
H 	 -21.885 	 -4.41083 	 80.7129 	 
C 	 -20.1863 	 -2.3565 	 79.6306 	 
H 	 -19.3138 	 -1.72542 	 79.523 	 
H 	 -20.952 	 -1.83366 	 79.1122 	 
C 	 -19.8408 	 -3.64641 	 78.8628 	 
H 	 -20.7003 	 -4.30633 	 78.8184 	 
H 	 -19.0503 	 -4.10875 	 79.3811 	 
C 	 -19.445 	 -3.50296 	 77.4156 	 
H 	 -20.141 	 -2.90472 	 76.8791 	 
H 	 -19.3336 	 -4.40439 	 76.83 	 
H 	 -18.5408 	 -2.9449 	 77.3523 	 
H 	 -19.0352 	 2.98764 	 81.7484 	 
H 	 -22.4308 	 -4.51465 	 83.1872 	 
*
