! wB97X-D3 SP def2-SVP
%pal
nprocs 16
end

* xyz 0 1
S 	 -49.2618 	 30.7505 	 89.6914 	 
C 	 -50.0542 	 29.1837 	 89.563 	 
C 	 -50.8725 	 29.0924 	 88.4474 	 
C 	 -50.6169 	 30.1939 	 87.5895 	 
C 	 -49.7945 	 31.1792 	 88.1233 	 
H 	 -51.0831 	 30.2855 	 86.5766 	 
C 	 -51.6681 	 27.939 	 87.9634 	 
H 	 -51.3993 	 27.0019 	 88.466 	 
H 	 -51.3094 	 27.8203 	 86.9288 	 
C 	 -53.1908 	 28.1158 	 88.1392 	 
H 	 -53.2381 	 28.5193 	 89.1083 	 
H 	 -53.3797 	 28.8815 	 87.3614 	 
C 	 -53.9542 	 26.7424 	 88.032 	 
H 	 -53.5095 	 25.9628 	 88.6892 	 
H 	 -55.0308 	 26.6732 	 88.2553 	 
H 	 -53.733 	 26.3844 	 86.985 	 
S 	 -49.2008 	 32.5443 	 85.8119 	 
C 	 -48.6921 	 34.1829 	 85.8619 	 
C 	 -48.8169 	 34.71 	 87.1481 	 
C 	 -49.1468 	 33.7111 	 88.1461 	 
C 	 -49.3927 	 32.4854 	 87.5963 	 
H 	 -48.903 	 35.7747 	 87.3598 	 
C 	 -49.5073 	 34.126 	 89.5202 	 
H 	 -49.2681 	 33.3012 	 90.3602 	 
H 	 -50.6132 	 34.1128 	 89.4803 	 
C 	 -49.0661 	 35.5238 	 90.0641 	 
H 	 -49.2246 	 36.3232 	 89.3501 	 
H 	 -47.9942 	 35.4464 	 90.2169 	 
C 	 -49.6521 	 35.9789 	 91.4568 	 
H 	 -49.391 	 35.2489 	 92.1902 	 
H 	 -50.7318 	 36.179 	 91.3711 	 
H 	 -49.2543 	 36.918 	 91.6989 	 
H 	 -50.0886 	 28.378 	 90.2649 	 
H 	 -48.54 	 34.7949 	 84.9684 	 
*
