! wB97X-D3 SP def2-SVP
%pal
nprocs 16
end

* xyz 0 1
S 	 -42.1975 	 39.139 	 76.0539 	 
C 	 -42.6737 	 39.2425 	 77.6816 	 
C 	 -41.6354 	 39.5609 	 78.5083 	 
C 	 -40.3888 	 39.5331 	 77.8663 	 
C 	 -40.5541 	 39.4539 	 76.439 	 
H 	 -39.4313 	 39.611 	 78.3179 	 
C 	 -41.8179 	 39.7004 	 79.9781 	 
H 	 -42.4963 	 38.8979 	 80.1557 	 
H 	 -42.2736 	 40.6544 	 80.2819 	 
C 	 -40.5172 	 39.5576 	 80.8611 	 
H 	 -39.7469 	 40.1833 	 80.4067 	 
H 	 -40.6346 	 39.9499 	 81.9077 	 
C 	 -40.0292 	 38.1118 	 80.8424 	 
H 	 -39.1319 	 38.0152 	 81.4896 	 
H 	 -40.7541 	 37.4739 	 81.3655 	 
H 	 -39.6704 	 37.7385 	 79.8836 	 
S 	 -39.4491 	 41.1228 	 74.4652 	 
C 	 -37.8784 	 40.7195 	 73.8378 	 
C 	 -37.4418 	 39.4649 	 74.2152 	 
C 	 -38.3635 	 38.8834 	 75.1541 	 
C 	 -39.5054 	 39.6479 	 75.4447 	 
H 	 -36.5288 	 38.9946 	 73.9527 	 
C 	 -38.0938 	 37.6175 	 75.8804 	 
H 	 -38.3567 	 37.7853 	 76.9635 	 
H 	 -37.0557 	 37.4009 	 75.8685 	 
C 	 -38.8744 	 36.4197 	 75.5242 	 
H 	 -39.9418 	 36.7022 	 75.4416 	 
H 	 -38.788 	 35.7214 	 76.346 	 
C 	 -38.3426 	 35.9761 	 74.1122 	 
H 	 -38.1788 	 36.8611 	 73.4881 	 
H 	 -39.0398 	 35.3921 	 73.6404 	 
H 	 -37.3805 	 35.3926 	 74.1217 	 
H 	 -43.7273 	 39.177 	 77.9441 	 
H 	 -37.2643 	 41.3325 	 73.249 	 
*
