! wB97X-D3 SP def2-SVP
%pal
nprocs 16
end

* xyz 0 1
S 	 -23.1084 	 -3.95745 	 98.0323 	 
C 	 -23.2472 	 -5.56161 	 98.7628 	 
C 	 -24.3268 	 -5.52147 	 99.6672 	 
C 	 -25.0552 	 -4.31221 	 99.6746 	 
C 	 -24.5785 	 -3.38984 	 98.8096 	 
H 	 -26.009 	 -4.14478 	 100.137 	 
C 	 -24.7703 	 -6.72516 	 100.517 	 
H 	 -24.7211 	 -6.51789 	 101.608 	 
H 	 -24.0452 	 -7.53033 	 100.415 	 
C 	 -26.1133 	 -7.32662 	 100.212 	 
H 	 -25.9498 	 -7.74869 	 99.2678 	 
H 	 -26.2161 	 -8.13671 	 100.987 	 
C 	 -27.375 	 -6.5393 	 100.397 	 
H 	 -27.2449 	 -6.00899 	 101.298 	 
H 	 -27.5032 	 -5.76263 	 99.6083 	 
H 	 -28.2561 	 -7.16944 	 100.334 	 
S 	 -23.7651 	 -0.85695 	 98.5475 	 
C 	 -24.9582 	 0.374993 	 98.2569 	 
C 	 -26.2384 	 -0.112701 	 98.414 	 
C 	 -26.3206 	 -1.50575 	 98.6478 	 
C 	 -25.0405 	 -2.0345 	 98.7352 	 
H 	 -26.979 	 0.603778 	 98.3605 	 
C 	 -27.6492 	 -2.25192 	 98.7826 	 
H 	 -27.5916 	 -2.54182 	 99.8186 	 
H 	 -27.6968 	 -3.13367 	 98.1121 	 
C 	 -28.9664 	 -1.59424 	 98.4592 	 
H 	 -28.9896 	 -1.2815 	 97.4326 	 
H 	 -28.8793 	 -0.590615 	 98.9752 	 
C 	 -30.2422 	 -2.42288 	 98.8372 	 
H 	 -30.1514 	 -2.9466 	 99.7679 	 
H 	 -30.4077 	 -3.17589 	 98.0572 	 
H 	 -31.1266 	 -1.78424 	 98.8921 	 
H 	 -22.5625 	 -6.3876 	 98.7332 	 
H 	 -24.8213 	 1.36833 	 97.8428 	 
*
