! wB97X-D3 SP def2-SVP
%pal
nprocs 16
end

* xyz 0 1
S 	 33.493 	 12.3314 	 68.1283 	 
C 	 32.0175 	 13.1626 	 68.5706 	 
C 	 32.231 	 14.3477 	 69.1118 	 
C 	 33.5925 	 14.6798 	 69.2567 	 
C 	 34.4357 	 13.6316 	 68.7963 	 
H 	 34.0585 	 15.5952 	 69.6198 	 
C 	 31.2031 	 15.3584 	 69.55 	 
H 	 31.4062 	 15.8589 	 70.5202 	 
H 	 30.2402 	 14.785 	 69.6064 	 
C 	 31.1573 	 16.5778 	 68.6348 	 
H 	 32.1283 	 17.0463 	 68.5535 	 
H 	 30.8189 	 16.4071 	 67.6546 	 
C 	 30.3145 	 17.7621 	 69.1866 	 
H 	 30.619 	 17.9547 	 70.2288 	 
H 	 30.4584 	 18.6393 	 68.5737 	 
H 	 29.2289 	 17.4755 	 69.2957 	 
S 	 36.5543 	 14.9033 	 67.7458 	 
C 	 38.0485 	 14.1526 	 67.6091 	 
C 	 38.1614 	 12.9855 	 68.3574 	 
C 	 36.8489 	 12.6057 	 68.8663 	 
C 	 35.876 	 13.6093 	 68.7475 	 
H 	 39.0238 	 12.3961 	 68.4474 	 
C 	 36.6298 	 11.3187 	 69.5973 	 
H 	 36.5112 	 10.5331 	 68.7824 	 
H 	 35.6552 	 11.3277 	 70.0636 	 
C 	 37.6947 	 10.8524 	 70.5996 	 
H 	 37.853 	 11.7401 	 71.2887 	 
H 	 38.5716 	 10.74 	 70.022 	 
C 	 37.3011 	 9.57411 	 71.3085 	 
H 	 36.7553 	 8.90925 	 70.6589 	 
H 	 36.6825 	 9.77649 	 72.1629 	 
H 	 38.0829 	 9.01672 	 71.7347 	 
H 	 31.0581 	 12.7591 	 68.4459 	 
H 	 38.8476 	 14.6576 	 67.1107 	 
*
