! wB97X-D3 SP def2-SVP
%pal
nprocs 16
end

* xyz 0 1
S 	 -42.9202 	 26.2485 	 78.2649 	 
C 	 -42.1544 	 27.6616 	 78.9576 	 
C 	 -41.0052 	 27.2618 	 79.6839 	 
C 	 -40.8099 	 25.8485 	 79.5965 	 
C 	 -41.6529 	 25.1798 	 78.7088 	 
H 	 -39.9613 	 25.3203 	 80.0379 	 
C 	 -40.0577 	 28.1708 	 80.4469 	 
H 	 -39.981 	 29.1173 	 79.8826 	 
H 	 -39.0163 	 27.6737 	 80.46 	 
C 	 -40.4707 	 28.4696 	 81.8795 	 
H 	 -41.4362 	 28.8025 	 81.9024 	 
H 	 -40.5512 	 27.5103 	 82.3971 	 
C 	 -39.5472 	 29.2901 	 82.6831 	 
H 	 -39.2676 	 30.0658 	 81.9902 	 
H 	 -39.8876 	 29.8188 	 83.5636 	 
H 	 -38.6851 	 28.6517 	 82.9447 	 
S 	 -43.2422 	 22.9681 	 78.8045 	 
C 	 -42.6355 	 21.4787 	 78.0929 	 
C 	 -41.2801 	 21.6669 	 77.7627 	 
C 	 -40.7653 	 22.9712 	 77.9592 	 
C 	 -41.7695 	 23.8218 	 78.3608 	 
H 	 -40.7056 	 20.8161 	 77.3447 	 
C 	 -39.3804 	 23.4391 	 77.5203 	 
H 	 -38.8908 	 22.5113 	 77.3018 	 
H 	 -38.9357 	 23.9618 	 78.3976 	 
C 	 -39.2281 	 24.4575 	 76.3561 	 
H 	 -39.9959 	 25.2578 	 76.2854 	 
H 	 -39.4043 	 23.8458 	 75.518 	 
C 	 -37.8198 	 24.9581 	 76.238 	 
H 	 -37.5967 	 25.5667 	 77.109 	 
H 	 -37.524 	 25.6025 	 75.4507 	 
H 	 -37.1344 	 24.1295 	 76.1273 	 
H 	 -42.572 	 28.668 	 78.8439 	 
H 	 -43.1619 	 20.5835 	 78.086 	 
*
