! wB97X-D3 SP def2-SVP
%pal
nprocs 16
end

* xyz 0 1
S 	 -39.9552 	 35.0744 	 78.4908 	 
C 	 -38.5695 	 34.9062 	 77.3508 	 
C 	 -37.5278 	 34.3908 	 78.1086 	 
C 	 -37.825 	 34.0142 	 79.4602 	 
C 	 -39.1059 	 34.3065 	 79.8573 	 
H 	 -37.1428 	 33.7331 	 80.182 	 
C 	 -36.1676 	 34.1103 	 77.5756 	 
H 	 -36.2787 	 33.7135 	 76.5592 	 
H 	 -35.5976 	 33.3337 	 78.1559 	 
C 	 -35.3147 	 35.4207 	 77.3452 	 
H 	 -35.819 	 36.1836 	 76.7565 	 
H 	 -35.164 	 35.8129 	 78.362 	 
C 	 -33.8462 	 35.2305 	 76.7893 	 
H 	 -33.4435 	 34.6081 	 77.6204 	 
H 	 -33.8366 	 34.7935 	 75.798 	 
H 	 -33.3791 	 36.23 	 76.7146 	 
S 	 -41.4646 	 33.3877 	 81.0196 	 
C 	 -41.6638 	 33.3312 	 82.7444 	 
C 	 -40.4822 	 33.7503 	 83.2938 	 
C 	 -39.3796 	 33.9469 	 82.4031 	 
C 	 -39.835 	 34.0723 	 81.0987 	 
H 	 -40.2942 	 33.8778 	 84.3814 	 
C 	 -37.9962 	 34.3412 	 82.8799 	 
H 	 -37.289 	 33.6092 	 82.5822 	 
H 	 -37.9828 	 34.2134 	 83.8893 	 
C 	 -37.5977 	 35.8138 	 82.611 	 
H 	 -38.2463 	 36.4792 	 83.1849 	 
H 	 -37.8992 	 36.1155 	 81.6344 	 
C 	 -36.0853 	 35.9664 	 82.8218 	 
H 	 -35.9046 	 37.0631 	 82.6169 	 
H 	 -35.4377 	 35.2885 	 82.2605 	 
H 	 -35.7283 	 35.9688 	 83.8777 	 
H 	 -38.4839 	 35.2146 	 76.3293 	 
H 	 -42.5575 	 33.2221 	 83.3598 	 
*
