! wB97X-D3 SP def2-SVP
%pal
nprocs 16
end

* xyz 0 1
S 	 8.36507 	 21.902 	 39.7165 	 
C 	 8.82779 	 20.404 	 40.5707 	 
C 	 8.74548 	 20.5675 	 41.9521 	 
C 	 8.39961 	 21.9199 	 42.2627 	 
C 	 8.09781 	 22.7495 	 41.1704 	 
H 	 8.3758 	 22.3368 	 43.2638 	 
C 	 8.97919 	 19.398 	 42.9283 	 
H 	 8.93567 	 18.3956 	 42.434 	 
H 	 8.22426 	 19.5131 	 43.6289 	 
C 	 10.3279 	 19.5164 	 43.6635 	 
H 	 10.4792 	 20.5318 	 44.0026 	 
H 	 10.4495 	 18.7799 	 44.5084 	 
C 	 11.5664 	 19.2404 	 42.8022 	 
H 	 11.5764 	 20.0011 	 41.9867 	 
H 	 12.5531 	 19.3161 	 43.3076 	 
H 	 11.5431 	 18.2954 	 42.4183 	 
S 	 6.30209 	 24.545 	 42.0853 	 
C 	 6.28394 	 26.1381 	 41.4079 	 
C 	 7.29047 	 26.315 	 40.4322 	 
C 	 8.0183 	 25.1167 	 40.2148 	 
C 	 7.68235 	 24.0858 	 41.0859 	 
H 	 7.54418 	 27.2175 	 39.9093 	 
C 	 9.15456 	 25.1649 	 39.2713 	 
H 	 9.94243 	 24.5737 	 39.6975 	 
H 	 9.46638 	 26.1831 	 39.362 	 
C 	 8.94974 	 24.8258 	 37.7924 	 
H 	 8.64697 	 25.7262 	 37.2608 	 
H 	 8.07152 	 24.2269 	 37.7438 	 
C 	 10.1575 	 24.2276 	 37.207 	 
H 	 10.4904 	 23.2513 	 37.6431 	 
H 	 11.0403 	 24.8482 	 37.0786 	 
H 	 9.86852 	 24.0052 	 36.1848 	 
H 	 9.06585 	 19.4395 	 40.1022 	 
H 	 5.72406 	 26.9059 	 41.893 	 
*
