! wB97X-D3 SP def2-SVP
%pal
nprocs 16
end

* xyz 0 1
S 	 -31.4693 	 62.8392 	 115.2 	 
C 	 -30.5099 	 61.8385 	 114.217 	 
C 	 -31.2656 	 60.7743 	 113.762 	 
C 	 -32.6702 	 60.9984 	 113.96 	 
C 	 -32.9831 	 62.0756 	 114.757 	 
H 	 -33.5088 	 60.3855 	 113.602 	 
C 	 -30.7552 	 59.5549 	 112.988 	 
H 	 -30.2952 	 59.9506 	 112.046 	 
H 	 -31.5994 	 59.0031 	 112.578 	 
C 	 -29.7893 	 58.6152 	 113.69 	 
H 	 -29.008 	 59.2336 	 114.093 	 
H 	 -30.2566 	 58.2672 	 114.604 	 
C 	 -29.2541 	 57.409 	 112.953 	 
H 	 -28.2793 	 57.5258 	 112.602 	 
H 	 -29.1185 	 56.5582 	 113.619 	 
H 	 -29.9004 	 57.196 	 112.074 	 
S 	 -34.3949 	 62.5416 	 117.031 	 
C 	 -36.0671 	 62.9549 	 116.841 	 
C 	 -36.5487 	 62.7667 	 115.605 	 
C 	 -35.5471 	 62.4403 	 114.664 	 
C 	 -34.3058 	 62.3453 	 115.302 	 
H 	 -37.6443 	 62.8677 	 115.459 	 
C 	 -35.7434 	 62.3709 	 113.163 	 
H 	 -34.9421 	 61.8986 	 112.608 	 
H 	 -35.7484 	 63.3763 	 112.823 	 
C 	 -37.0407 	 61.6752 	 112.732 	 
H 	 -37.9181 	 62.0474 	 113.313 	 
H 	 -36.9339 	 60.6648 	 113.115 	 
C 	 -37.369 	 61.6724 	 111.243 	 
H 	 -37.0523 	 62.6044 	 110.683 	 
H 	 -38.4133 	 61.3843 	 111.007 	 
H 	 -36.8038 	 60.9753 	 110.71 	 
H 	 -29.418 	 61.8419 	 114.229 	 
H 	 -36.7528 	 63.0902 	 117.689 	 
*
