! wB97X-D3 SP def2-SVP
%pal
nprocs 16
end

* xyz 0 1
S 	 -33.1414 	 59.9106 	 110.996 	 
C 	 -34.7236 	 60.793 	 110.988 	 
C 	 -35.5741 	 60.2231 	 111.903 	 
C 	 -34.9263 	 59.1726 	 112.647 	 
C 	 -33.6025 	 58.9294 	 112.362 	 
H 	 -35.3597 	 58.6575 	 113.479 	 
C 	 -37.0567 	 60.5269 	 112.104 	 
H 	 -37.3114 	 60.8871 	 111.071 	 
H 	 -37.0614 	 61.4325 	 112.675 	 
C 	 -38.0122 	 59.4267 	 112.329 	 
H 	 -37.7666 	 58.672 	 111.558 	 
H 	 -37.857 	 58.8306 	 113.194 	 
C 	 -39.4721 	 59.9415 	 112.198 	 
H 	 -40.1599 	 59.177 	 111.886 	 
H 	 -39.8457 	 60.1589 	 113.134 	 
H 	 -39.5626 	 60.8028 	 111.541 	 
S 	 -32.1132 	 56.7096 	 111.694 	 
C 	 -31.1314 	 55.9002 	 112.886 	 
C 	 -31.4521 	 56.3192 	 114.152 	 
C 	 -32.2805 	 57.4484 	 114.116 	 
C 	 -32.7405 	 57.8629 	 112.832 	 
H 	 -30.9374 	 55.8203 	 115.007 	 
C 	 -32.5795 	 58.1482 	 115.385 	 
H 	 -33.1087 	 57.4381 	 116.031 	 
H 	 -33.2194 	 58.942 	 115.111 	 
C 	 -31.3764 	 58.5763 	 116.318 	 
H 	 -30.6662 	 59.2475 	 115.887 	 
H 	 -30.8045 	 57.7037 	 116.595 	 
C 	 -31.9112 	 59.3691 	 117.483 	 
H 	 -32.6418 	 58.8428 	 118.068 	 
H 	 -32.3167 	 60.4111 	 117.208 	 
H 	 -31.0672 	 59.5707 	 118.156 	 
H 	 -34.8458 	 61.7354 	 110.445 	 
H 	 -30.5031 	 55.1153 	 112.658 	 
*
