! wB97X-D3 SP def2-SVP
%pal
nprocs 16
end

* xyz 0 1
S 	 37.5806 	 30.2575 	 92.1733 	 
C 	 36.2863 	 30.776 	 91.1987 	 
C 	 35.019 	 30.6238 	 91.7129 	 
C 	 35.1433 	 30.2072 	 93.0843 	 
C 	 36.4632 	 29.8554 	 93.3876 	 
H 	 34.5016 	 30.0586 	 93.9285 	 
C 	 33.7739 	 30.986 	 90.8938 	 
H 	 33.9584 	 30.7463 	 89.8247 	 
H 	 33.839 	 32.1103 	 90.9057 	 
C 	 32.3896 	 30.6075 	 91.405 	 
H 	 32.1173 	 31.2128 	 92.2467 	 
H 	 31.7792 	 31.0697 	 90.6403 	 
C 	 32.0982 	 29.105 	 91.6106 	 
H 	 32.9144 	 28.7381 	 92.2037 	 
H 	 31.2799 	 28.99 	 92.2337 	 
H 	 31.9727 	 28.5749 	 90.6745 	 
S 	 37.68 	 30.5086 	 95.6451 	 
C 	 37.9495 	 29.3365 	 96.9691 	 
C 	 37.2743 	 28.16 	 96.648 	 
C 	 36.6282 	 28.1974 	 95.3911 	 
C 	 36.9218 	 29.3204 	 94.6556 	 
H 	 37.2372 	 27.2983 	 97.3661 	 
C 	 35.8663 	 26.9459 	 94.8156 	 
H 	 36.57 	 26.1003 	 94.8786 	 
H 	 35.7694 	 27.0438 	 93.7637 	 
C 	 34.4944 	 26.6488 	 95.4551 	 
H 	 33.7397 	 27.3809 	 95.222 	 
H 	 34.5745 	 26.7583 	 96.5138 	 
C 	 33.9717 	 25.2889 	 95.0617 	 
H 	 33.4199 	 24.867 	 95.9498 	 
H 	 34.7784 	 24.621 	 94.8844 	 
H 	 33.4565 	 25.3189 	 94.1562 	 
H 	 36.3051 	 31.1307 	 90.1774 	 
H 	 38.4788 	 29.4018 	 97.8647 	 
*
