! wB97X-D3 SP def2-SVP
%pal
nprocs 16
end

* xyz 0 1
S 	 -93.4951 	 37.6516 	 123.782 	 
C 	 -93.841 	 36.632 	 122.42 	 
C 	 -95.1514 	 36.8938 	 121.923 	 
C 	 -95.8173 	 37.972 	 122.656 	 
C 	 -95.0612 	 38.3387 	 123.73 	 
H 	 -96.814 	 38.4112 	 122.509 	 
C 	 -95.6531 	 36.2656 	 120.634 	 
H 	 -96.3268 	 35.437 	 120.921 	 
H 	 -94.9095 	 35.6824 	 120.181 	 
C 	 -96.2444 	 37.314 	 119.58 	 
H 	 -96.9648 	 36.808 	 118.919 	 
H 	 -96.8179 	 38.1038 	 120.057 	 
C 	 -95.167 	 38.036 	 118.798 	 
H 	 -94.6468 	 37.2462 	 118.226 	 
H 	 -95.4909 	 38.8011 	 118.078 	 
H 	 -94.27 	 38.4025 	 119.312 	 
S 	 -96.4383 	 39.3835 	 125.894 	 
C 	 -96.4028 	 41.0733 	 126.233 	 
C 	 -95.5185 	 41.6946 	 125.427 	 
C 	 -94.956 	 40.8311 	 124.434 	 
C 	 -95.3624 	 39.4978 	 124.558 	 
H 	 -95.343 	 42.7195 	 125.59 	 
C 	 -94.0217 	 41.2963 	 123.344 	 
H 	 -93.3396 	 40.52 	 123.007 	 
H 	 -93.3527 	 42.0346 	 123.771 	 
C 	 -94.6671 	 41.9316 	 122.114 	 
H 	 -95.6462 	 41.4262 	 121.921 	 
H 	 -94.0254 	 41.8211 	 121.218 	 
C 	 -94.887 	 43.4043 	 122.288 	 
H 	 -95.6578 	 43.8865 	 121.653 	 
H 	 -93.987 	 43.9713 	 122.124 	 
H 	 -95.2165 	 43.5307 	 123.293 	 
H 	 -93.105 	 36.0246 	 121.971 	 
H 	 -96.9346 	 41.4122 	 127.123 	 
*
