! wB97X-D3 SP def2-SVP
%pal
nprocs 16
end

* xyz 0 1
S 	 -14.1885 	 37.6159 	 57.2761 	 
C 	 -13.696 	 38.0728 	 55.7127 	 
C 	 -14.8018 	 38.3136 	 54.9522 	 
C 	 -16.0182 	 38.0907 	 55.6491 	 
C 	 -15.8561 	 37.8721 	 56.9536 	 
H 	 -16.9543 	 38.2531 	 55.1684 	 
C 	 -14.764 	 38.5332 	 53.4204 	 
H 	 -15.1753 	 37.6776 	 52.9326 	 
H 	 -13.7806 	 38.7134 	 53.0883 	 
C 	 -15.5817 	 39.7207 	 52.8134 	 
H 	 -15.7042 	 39.5815 	 51.788 	 
H 	 -16.5669 	 39.7424 	 53.1601 	 
C 	 -14.948 	 41.0441 	 53.1089 	 
H 	 -15.2281 	 41.4546 	 54.0812 	 
H 	 -13.8798 	 40.9869 	 52.999 	 
H 	 -15.1576 	 41.7272 	 52.2917 	 
S 	 -16.612 	 38.5312 	 59.5928 	 
C 	 -18.2708 	 38.3147 	 60.0591 	 
C 	 -18.8973 	 37.4553 	 59.1838 	 
C 	 -18.078 	 37.0811 	 58.0084 	 
C 	 -16.8468 	 37.7262 	 58.0147 	 
H 	 -19.8174 	 36.9544 	 59.5038 	 
C 	 -18.6084 	 36.1516 	 56.9986 	 
H 	 -18.8183 	 35.189 	 57.4588 	 
H 	 -17.8988 	 35.9608 	 56.272 	 
C 	 -19.9463 	 36.5453 	 56.2371 	 
H 	 -19.6532 	 37.4675 	 55.7836 	 
H 	 -20.7983 	 36.6752 	 56.8801 	 
C 	 -20.4394 	 35.5669 	 55.2182 	 
H 	 -20.8318 	 34.6125 	 55.6146 	 
H 	 -19.5869 	 35.2717 	 54.6053 	 
H 	 -21.2567 	 35.9423 	 54.5578 	 
H 	 -12.7114 	 38.2406 	 55.3604 	 
H 	 -18.7009 	 38.4962 	 60.9938 	 
*
