! wB97X-D3 SP def2-SVP
%pal
nprocs 16
end

* xyz 0 1
S 	 48.3101 	 12.1237 	 77.2776 	 
C 	 47.6075 	 10.7444 	 78.1624 	 
C 	 47.2217 	 11.1369 	 79.4766 	 
C 	 47.4797 	 12.545 	 79.7186 	 
C 	 48.0325 	 13.2103 	 78.64 	 
H 	 47.3176 	 13.0329 	 80.6481 	 
C 	 46.6336 	 10.2037 	 80.6013 	 
H 	 47.1996 	 10.166 	 81.536 	 
H 	 46.8948 	 9.21843 	 80.1812 	 
C 	 45.1529 	 10.2371 	 80.8667 	 
H 	 44.6009 	 10.312 	 79.8812 	 
H 	 44.8114 	 9.29448 	 81.3887 	 
C 	 44.7649 	 11.4559 	 81.7537 	 
H 	 45.2257 	 11.2429 	 82.7629 	 
H 	 45.1361 	 12.4379 	 81.4123 	 
H 	 43.69 	 11.5632 	 81.9849 	 
S 	 49.9334 	 14.9588 	 78.0542 	 
C 	 49.834 	 16.5964 	 78.5754 	 
C 	 48.6288 	 16.8545 	 79.2297 	 
C 	 47.7827 	 15.7146 	 79.2029 	 
C 	 48.4005 	 14.6229 	 78.6493 	 
H 	 48.5141 	 17.9023 	 79.5339 	 
C 	 46.3456 	 15.6753 	 79.8087 	 
H 	 46.0981 	 14.5677 	 79.6598 	 
H 	 45.8127 	 16.3249 	 79.1506 	 
C 	 46.2743 	 16.1525 	 81.2528 	 
H 	 45.1769 	 16.2452 	 81.3318 	 
H 	 46.7565 	 17.1031 	 81.5196 	 
C 	 46.9084 	 15.1245 	 82.2542 	 
H 	 47.9468 	 14.9045 	 82.0675 	 
H 	 46.3578 	 14.1793 	 82.1559 	 
H 	 46.9187 	 15.5965 	 83.2837 	 
H 	 47.4356 	 9.77806 	 77.7331 	 
H 	 50.5472 	 17.3939 	 78.5091 	 
*
