! wB97X-D3 SP def2-SVP
%pal
nprocs 16
end

* xyz 0 1
S 	 13.6132 	 -1.13188 	 63.1068 	 
C 	 13.6847 	 -2.49346 	 61.9183 	 
C 	 14.0912 	 -2.00918 	 60.6574 	 
C 	 14.345 	 -0.599135 	 60.6316 	 
C 	 14.1308 	 0.0134832 	 61.8781 	 
H 	 14.7394 	 0.0166068 	 59.8401 	 
C 	 14.1301 	 -2.85337 	 59.4289 	 
H 	 14.5476 	 -2.21006 	 58.6075 	 
H 	 13.1461 	 -3.18026 	 58.9925 	 
C 	 14.9114 	 -4.17518 	 59.6016 	 
H 	 15.8169 	 -3.91104 	 60.1744 	 
H 	 14.3132 	 -4.8437 	 60.2587 	 
C 	 15.3987 	 -4.86262 	 58.3446 	 
H 	 16.1981 	 -4.36881 	 57.8302 	 
H 	 15.7881 	 -5.83467 	 58.4764 	 
H 	 14.5748 	 -4.87769 	 57.6404 	 
S 	 15.5542 	 2.32035 	 61.7797 	 
C 	 14.9303 	 3.74838 	 62.4686 	 
C 	 13.7181 	 3.5215 	 63.0957 	 
C 	 13.2243 	 2.21946 	 63.0159 	 
C 	 14.1298 	 1.40835 	 62.2793 	 
H 	 13.2294 	 4.36614 	 63.6455 	 
C 	 11.936 	 1.80379 	 63.5858 	 
H 	 12.0093 	 1.58995 	 64.6383 	 
H 	 11.672 	 0.798621 	 63.2481 	 
C 	 10.6476 	 2.60265 	 63.1284 	 
H 	 9.92917 	 1.83205 	 63.3615 	 
H 	 10.6256 	 2.78904 	 62.044 	 
C 	 10.3036 	 3.83048 	 63.952 	 
H 	 10.9589 	 4.12382 	 64.772 	 
H 	 9.35785 	 3.53646 	 64.4301 	 
H 	 10.3053 	 4.75392 	 63.2268 	 
H 	 13.406 	 -3.46487 	 62.1467 	 
H 	 15.5247 	 4.64706 	 62.6571 	 
*
