! wB97X-D3 SP def2-SVP
%pal
nprocs 16
end

* xyz 0 1
S 	 -47.8889 	 64.2063 	 142.787 	 
C 	 -46.353 	 63.4134 	 142.524 	 
C 	 -45.6281 	 64.0943 	 141.54 	 
C 	 -46.3809 	 65.1162 	 140.937 	 
C 	 -47.6579 	 65.2913 	 141.469 	 
H 	 -46.0526 	 65.7135 	 140.11 	 
C 	 -44.222 	 63.8111 	 141.077 	 
H 	 -43.9566 	 64.4898 	 140.227 	 
H 	 -44.2271 	 62.8072 	 140.714 	 
C 	 -42.9845 	 63.953 	 142.016 	 
H 	 -42.7604 	 64.9719 	 142.292 	 
H 	 -43.1946 	 63.2642 	 142.813 	 
C 	 -41.8711 	 63.3474 	 141.175 	 
H 	 -42.2265 	 62.4585 	 140.641 	 
H 	 -41.5097 	 63.9932 	 140.401 	 
H 	 -41.0817 	 63.0186 	 141.827 	 
S 	 -49.9736 	 65.6625 	 140.068 	 
C 	 -50.7522 	 67.2435 	 139.999 	 
C 	 -49.9726 	 68.1847 	 140.604 	 
C 	 -48.7632 	 67.6346 	 141.139 	 
C 	 -48.6346 	 66.2683 	 140.962 	 
H 	 -50.2434 	 69.1997 	 140.613 	 
C 	 -47.8703 	 68.506 	 141.983 	 
H 	 -48.4815 	 69.4139 	 142.192 	 
H 	 -47.004 	 68.8043 	 141.379 	 
C 	 -47.4302 	 67.8544 	 143.279 	 
H 	 -46.5925 	 67.1089 	 143.062 	 
H 	 -48.2451 	 67.2939 	 143.725 	 
C 	 -46.9048 	 68.8013 	 144.37 	 
H 	 -47.7545 	 68.9919 	 145.063 	 
H 	 -46.5803 	 69.7203 	 143.99 	 
H 	 -46.2703 	 68.3847 	 145.108 	 
H 	 -45.9111 	 62.6945 	 143.16 	 
H 	 -51.7535 	 67.3802 	 139.589 	 
*
