! wB97X-D3 SP def2-SVP
%pal
nprocs 16
end

* xyz 0 1
S 	 -44.4938 	 55.7485 	 102.02 	 
C 	 -45.3672 	 54.4666 	 101.257 	 
C 	 -44.5745 	 53.5672 	 100.611 	 
C 	 -43.1655 	 53.9244 	 100.725 	 
C 	 -42.9452 	 55.0131 	 101.515 	 
H 	 -42.2812 	 53.4281 	 100.338 	 
C 	 -45.0087 	 52.3027 	 99.9422 	 
H 	 -45.3394 	 52.5355 	 98.9627 	 
H 	 -45.8748 	 51.9987 	 100.409 	 
C 	 -44.0612 	 51.1654 	 99.7253 	 
H 	 -44.5046 	 50.5016 	 99.0095 	 
H 	 -43.1242 	 51.6341 	 99.3351 	 
C 	 -43.4965 	 50.5859 	 101.031 	 
H 	 -43.2687 	 51.4008 	 101.716 	 
H 	 -44.2562 	 49.9295 	 101.511 	 
H 	 -42.5803 	 49.9726 	 100.956 	 
S 	 -40.2335 	 55.4659 	 100.992 	 
C 	 -39.2491 	 56.2084 	 102.224 	 
C 	 -39.9984 	 56.6023 	 103.319 	 
C 	 -41.4009 	 56.148 	 103.248 	 
C 	 -41.6705 	 55.5189 	 102.04 	 
H 	 -39.6187 	 57.2046 	 104.087 	 
C 	 -42.3819 	 56.4546 	 104.376 	 
H 	 -42.9974 	 55.5455 	 104.508 	 
H 	 -43.0784 	 57.1976 	 104.095 	 
C 	 -41.9135 	 56.6902 	 105.796 	 
H 	 -41.2152 	 57.5308 	 105.667 	 
H 	 -41.178 	 55.9582 	 106.104 	 
C 	 -43.0094 	 56.8437 	 106.863 	 
H 	 -43.8529 	 57.5307 	 106.644 	 
H 	 -42.6228 	 57.1273 	 107.85 	 
H 	 -43.4794 	 55.8901 	 107.09 	 
H 	 -46.4708 	 54.4136 	 101.423 	 
H 	 -38.183 	 56.5068 	 102.153 	 
*
