! wB97X-D3 SP def2-SVP
%pal
nprocs 16
end

* xyz 0 1
S 	 69.6486 	 18.3605 	 73.7771 	 
C 	 71.3382 	 18.2978 	 73.5631 	 
C 	 72.0915 	 18.655 	 74.6699 	 
C 	 71.2476 	 18.7405 	 75.8369 	 
C 	 69.862 	 18.5889 	 75.5673 	 
H 	 71.5548 	 18.7419 	 76.863 	 
C 	 73.6519 	 18.8858 	 74.6622 	 
H 	 73.9069 	 18.3542 	 73.7725 	 
H 	 74.0657 	 18.4858 	 75.6223 	 
C 	 74.1235 	 20.3341 	 74.7488 	 
H 	 73.7367 	 20.7654 	 75.6683 	 
H 	 75.1994 	 20.2591 	 74.8917 	 
C 	 73.8185 	 21.1108 	 73.446 	 
H 	 74.5373 	 20.8124 	 72.5824 	 
H 	 72.7653 	 21.1064 	 73.1478 	 
H 	 74.16 	 22.1246 	 73.5963 	 
S 	 67.7522 	 20.1283 	 75.8872 	 
C 	 66.6297 	 19.8902 	 77.1708 	 
C 	 67.0525 	 18.9208 	 78.0432 	 
C 	 68.2674 	 18.3142 	 77.6998 	 
C 	 68.7463 	 18.8345 	 76.4775 	 
H 	 66.4809 	 18.798 	 78.9832 	 
C 	 69.0447 	 17.3449 	 78.5799 	 
H 	 69.3025 	 17.8819 	 79.544 	 
H 	 70.0012 	 17.0247 	 78.0901 	 
C 	 68.3266 	 16.0764 	 78.8473 	 
H 	 67.8536 	 15.6466 	 77.9649 	 
H 	 67.4659 	 16.2465 	 79.5415 	 
C 	 69.126 	 14.955 	 79.3664 	 
H 	 69.7594 	 15.2391 	 80.1877 	 
H 	 69.6948 	 14.6734 	 78.5661 	 
H 	 68.5684 	 14.0812 	 79.758 	 
H 	 71.7834 	 18.2206 	 72.5682 	 
H 	 65.7608 	 20.5676 	 77.4571 	 
*
