! wB97X-D3 SP def2-SVP
%pal
nprocs 16
end

* xyz 0 1
S 	 -52.7019 	 39.946 	 110.07 	 
C 	 -52.2245 	 39.9754 	 108.384 	 
C 	 -53.0381 	 39.1206 	 107.618 	 
C 	 -53.9045 	 38.3083 	 108.496 	 
C 	 -54.0042 	 38.8021 	 109.791 	 
H 	 -54.5661 	 37.4471 	 108.251 	 
C 	 -52.768 	 38.8043 	 106.172 	 
H 	 -52.367 	 39.7222 	 105.663 	 
H 	 -53.7163 	 38.6927 	 105.574 	 
C 	 -51.9254 	 37.5973 	 105.998 	 
H 	 -50.9416 	 37.7145 	 106.419 	 
H 	 -52.3095 	 36.8498 	 106.713 	 
C 	 -51.8259 	 36.9298 	 104.639 	 
H 	 -52.7688 	 36.8173 	 104.137 	 
H 	 -51.2171 	 37.43 	 103.896 	 
H 	 -51.3105 	 35.9716 	 104.704 	 
S 	 -54.076 	 37.7858 	 112.338 	 
C 	 -55.65 	 37.5459 	 113.103 	 
C 	 -56.6881 	 37.7456 	 112.248 	 
C 	 -56.2352 	 38.1246 	 110.924 	 
C 	 -54.8555 	 38.3352 	 110.891 	 
H 	 -57.7389 	 37.6429 	 112.61 	 
C 	 -57.1848 	 38.3453 	 109.767 	 
H 	 -56.7875 	 38.8878 	 108.953 	 
H 	 -57.8919 	 39.0774 	 110.112 	 
C 	 -57.9823 	 37.1561 	 109.163 	 
H 	 -58.5864 	 36.5827 	 109.897 	 
H 	 -57.2781 	 36.4314 	 108.742 	 
C 	 -58.915 	 37.6541 	 108.03 	 
H 	 -59.5776 	 36.8432 	 107.852 	 
H 	 -58.4576 	 37.7292 	 107.065 	 
H 	 -59.4066 	 38.6165 	 108.084 	 
H 	 -51.3765 	 40.474 	 107.985 	 
H 	 -55.8342 	 37.152 	 114.103 	 
*
