! wB97X-D3 SP def2-SVP
%pal
nprocs 16
end

* xyz 0 1
S 	 -75.1747 	 49.9471 	 136.907 	 
C 	 -76.2157 	 48.6274 	 137.38 	 
C 	 -77.5807 	 49.0151 	 137.237 	 
C 	 -77.6579 	 50.3542 	 136.682 	 
C 	 -76.4938 	 51.0268 	 136.453 	 
H 	 -78.557 	 50.8303 	 136.365 	 
C 	 -78.7914 	 48.0912 	 137.409 	 
H 	 -78.4391 	 47.0755 	 137.19 	 
H 	 -79.5071 	 48.3 	 136.669 	 
C 	 -79.222 	 47.9819 	 138.845 	 
H 	 -78.4141 	 47.8059 	 139.494 	 
H 	 -79.6441 	 48.8801 	 139.258 	 
C 	 -80.2747 	 46.8635 	 138.975 	 
H 	 -80.0439 	 45.8225 	 138.788 	 
H 	 -80.7634 	 47.0163 	 139.959 	 
H 	 -81.0955 	 47.1092 	 138.223 	 
S 	 -76.7383 	 52.1443 	 134.107 	 
C 	 -76.4074 	 53.8367 	 133.851 	 
C 	 -75.8148 	 54.378 	 134.939 	 
C 	 -75.7532 	 53.4652 	 136.074 	 
C 	 -76.2726 	 52.2578 	 135.758 	 
H 	 -75.5662 	 55.4313 	 134.838 	 
C 	 -75.2739 	 53.9727 	 137.391 	 
H 	 -74.3763 	 54.5057 	 137.131 	 
H 	 -74.933 	 53.1806 	 138.112 	 
C 	 -76.0526 	 55.0276 	 138.138 	 
H 	 -76.3407 	 55.74 	 137.359 	 
H 	 -75.2643 	 55.4884 	 138.786 	 
C 	 -77.2101 	 54.4665 	 139.03 	 
H 	 -77.7966 	 55.3293 	 139.438 	 
H 	 -76.8282 	 53.7538 	 139.775 	 
H 	 -77.9038 	 53.9827 	 138.298 	 
H 	 -75.9396 	 47.6089 	 137.657 	 
H 	 -76.6107 	 54.4891 	 133.044 	 
*
