! wB97X-D3 SP def2-SVP
%pal
nprocs 16
end

* xyz 0 1
S 	 -39.9194 	 37.4667 	 76.057 	 
C 	 -41.3869 	 36.6753 	 76.6035 	 
C 	 -41.1636 	 35.6755 	 77.5158 	 
C 	 -39.7553 	 35.5098 	 77.8146 	 
C 	 -38.9939 	 36.2193 	 76.8696 	 
H 	 -39.2806 	 34.7235 	 78.4025 	 
C 	 -42.1664 	 34.901 	 78.3512 	 
H 	 -43.0411 	 34.9409 	 77.8115 	 
H 	 -42.3049 	 35.4593 	 79.3304 	 
C 	 -41.9274 	 33.4154 	 78.5687 	 
H 	 -41.0837 	 33.4567 	 79.2387 	 
H 	 -42.7641 	 32.9004 	 79.1308 	 
C 	 -41.7622 	 32.6587 	 77.2452 	 
H 	 -42.7196 	 32.6689 	 76.7111 	 
H 	 -40.9918 	 33.1065 	 76.6906 	 
H 	 -41.4855 	 31.6016 	 77.42 	 
S 	 -36.6485 	 37.503 	 75.9982 	 
C 	 -35.2065 	 36.5375 	 75.7738 	 
C 	 -35.4383 	 35.2044 	 76.1458 	 
C 	 -36.7925 	 34.9159 	 76.5543 	 
C 	 -37.5651 	 36.0886 	 76.6271 	 
H 	 -34.7348 	 34.4336 	 75.9712 	 
C 	 -37.2432 	 33.4809 	 76.8587 	 
H 	 -37.5231 	 33.307 	 77.915 	 
H 	 -36.3556 	 32.8242 	 76.7861 	 
C 	 -38.2718 	 32.8141 	 75.8796 	 
H 	 -38.963 	 33.5616 	 75.483 	 
H 	 -38.8193 	 32.0759 	 76.4967 	 
C 	 -37.5159 	 32.1373 	 74.6891 	 
H 	 -37.0488 	 32.8421 	 73.9963 	 
H 	 -38.2904 	 31.5688 	 74.1898 	 
H 	 -36.7133 	 31.4168 	 75.0711 	 
H 	 -42.282 	 36.9782 	 76.3421 	 
H 	 -34.3198 	 36.8362 	 75.1976 	 
*
