! wB97X-D3 SP def2-SVP
%pal
nprocs 16
end

* xyz 0 1
S 	 -68.2704 	 57.0696 	 120.015 	 
C 	 -67.0709 	 57.7969 	 118.93 	 
C 	 -66.5055 	 58.9668 	 119.423 	 
C 	 -66.7767 	 59.0533 	 120.833 	 
C 	 -67.6755 	 58.1099 	 121.282 	 
H 	 -66.4853 	 59.8628 	 121.469 	 
C 	 -65.7223 	 59.9671 	 118.598 	 
H 	 -65.8261 	 60.8924 	 119.093 	 
H 	 -66.3041 	 59.925 	 117.721 	 
C 	 -64.199 	 59.5853 	 118.336 	 
H 	 -63.7523 	 59.4505 	 119.334 	 
H 	 -64.2798 	 58.6468 	 117.848 	 
C 	 -63.3503 	 60.5244 	 117.542 	 
H 	 -63.1144 	 61.4809 	 117.965 	 
H 	 -62.4693 	 60.0439 	 117.083 	 
H 	 -63.8755 	 60.6905 	 116.642 	 
S 	 -70.0453 	 58.195 	 122.51 	 
C 	 -70.1574 	 58.3633 	 124.237 	 
C 	 -68.9332 	 58.5647 	 124.839 	 
C 	 -67.8683 	 58.3065 	 123.902 	 
C 	 -68.3239 	 58.1411 	 122.569 	 
H 	 -68.8282 	 58.8312 	 125.875 	 
C 	 -66.4288 	 58.4641 	 124.322 	 
H 	 -66.3723 	 59.3039 	 125.051 	 
H 	 -65.7298 	 58.831 	 123.603 	 
C 	 -65.8257 	 57.1359 	 124.848 	 
H 	 -66.155 	 56.2668 	 124.213 	 
H 	 -66.1567 	 56.9416 	 125.847 	 
C 	 -64.3082 	 57.2358 	 124.967 	 
H 	 -63.882 	 57.089 	 123.982 	 
H 	 -63.8136 	 56.7019 	 125.734 	 
H 	 -63.9469 	 58.2059 	 125.331 	 
H 	 -66.82 	 57.405 	 117.97 	 
H 	 -71.1387 	 58.4531 	 124.705 	 
*
