! wB97X-D3 SP def2-SVP
%pal
nprocs 16
end

* xyz 0 1
S 	 36.7239 	 -0.476249 	 69.2188 	 
C 	 37.0548 	 0.851997 	 70.2455 	 
C 	 38.092 	 0.561859 	 71.1303 	 
C 	 38.5321 	 -0.79655 	 70.9417 	 
C 	 37.9248 	 -1.54651 	 69.9091 	 
H 	 39.4255 	 -1.28083 	 71.4198 	 
C 	 38.8541 	 1.36487 	 72.1778 	 
H 	 39.1544 	 2.36522 	 71.8204 	 
H 	 39.7831 	 0.869661 	 72.4813 	 
C 	 38.0241 	 1.48852 	 73.5061 	 
H 	 37.1812 	 2.07863 	 73.1983 	 
H 	 37.5622 	 0.588927 	 73.7904 	 
C 	 38.8135 	 2.22056 	 74.627 	 
H 	 38.647 	 3.33196 	 74.5079 	 
H 	 38.4998 	 1.93698 	 75.5909 	 
H 	 39.8592 	 1.89615 	 74.5768 	 
S 	 38.225 	 -4.23695 	 70.0248 	 
C 	 38.8789 	 -5.14174 	 68.7349 	 
C 	 39.2134 	 -4.30345 	 67.729 	 
C 	 39.089 	 -2.91631 	 67.9745 	 
C 	 38.4391 	 -2.70655 	 69.2248 	 
H 	 39.5604 	 -4.78212 	 66.7806 	 
C 	 39.3655 	 -1.84796 	 66.9995 	 
H 	 39.562 	 -0.972912 	 67.6534 	 
H 	 38.5255 	 -1.66497 	 66.2915 	 
C 	 40.6301 	 -2.01802 	 66.1344 	 
H 	 40.595 	 -2.90942 	 65.4625 	 
H 	 41.4385 	 -2.08236 	 66.8351 	 
C 	 40.8187 	 -0.834856 	 65.2038 	 
H 	 40.1389 	 -0.898798 	 64.279 	 
H 	 41.85 	 -0.768737 	 64.885 	 
H 	 40.7457 	 0.137808 	 65.6672 	 
H 	 36.4948 	 1.76435 	 70.3052 	 
H 	 39.0596 	 -6.16212 	 68.7969 	 
*
