! wB97X-D3 SP def2-SVP
%pal
nprocs 16
end

* xyz 0 1
S 	 41.7257 	 21.5213 	 45.127 	 
C 	 40.0157 	 21.2961 	 45.3682 	 
C 	 39.5733 	 21.9191 	 46.4973 	 
C 	 40.6166 	 22.6931 	 47.1446 	 
C 	 41.8066 	 22.6323 	 46.4378 	 
H 	 40.5571 	 23.332 	 47.9656 	 
C 	 38.1607 	 21.8708 	 46.9778 	 
H 	 37.5998 	 21.2738 	 46.3326 	 
H 	 37.7606 	 22.8424 	 46.7633 	 
C 	 37.9745 	 21.504 	 48.4391 	 
H 	 38.5997 	 22.1605 	 49.1374 	 
H 	 36.8731 	 21.534 	 48.7073 	 
C 	 38.5615 	 20.1104 	 48.7926 	 
H 	 38.3041 	 19.7613 	 49.8119 	 
H 	 38.0431 	 19.4267 	 48.1559 	 
H 	 39.6748 	 20.1513 	 48.6515 	 
S 	 44.0874 	 23.6848 	 45.4948 	 
C 	 45.2218 	 24.4585 	 46.6043 	 
C 	 44.8704 	 24.33 	 47.964 	 
C 	 43.6542 	 23.6248 	 48.1214 	 
C 	 43.0919 	 23.2232 	 46.8633 	 
H 	 45.4186 	 24.7564 	 48.8056 	 
C 	 43.0315 	 23.4735 	 49.4942 	 
H 	 42.0719 	 22.9029 	 49.4738 	 
H 	 42.7545 	 24.483 	 49.8294 	 
C 	 44.0121 	 22.8384 	 50.5164 	 
H 	 45.0145 	 23.3889 	 50.439 	 
H 	 44.1683 	 21.7827 	 50.3191 	 
C 	 43.3939 	 22.9074 	 51.9522 	 
H 	 43.9972 	 22.5583 	 52.7913 	 
H 	 42.4583 	 22.4122 	 51.9756 	 
H 	 43.2176 	 23.9753 	 52.07 	 
H 	 39.4057 	 20.5218 	 44.8212 	 
H 	 46.06 	 25.1151 	 46.3702 	 
*
