! wB97X-D3 SP def2-SVP
%pal
nprocs 16
end

* xyz 0 1
S 	 44.7013 	 10.5738 	 86.2015 	 
C 	 45.6323 	 9.13697 	 86.3408 	 
C 	 46.7127 	 9.36704 	 87.1338 	 
C 	 46.7922 	 10.7291 	 87.6825 	 
C 	 45.7623 	 11.5273 	 87.2016 	 
H 	 47.5348 	 11.143 	 88.3933 	 
C 	 47.7256 	 8.32974 	 87.5905 	 
H 	 47.2496 	 7.33347 	 87.4221 	 
H 	 47.9768 	 8.38706 	 88.6487 	 
C 	 49.0663 	 8.23408 	 86.7675 	 
H 	 49.5603 	 7.29994 	 87.0203 	 
H 	 48.8462 	 8.07165 	 85.7451 	 
C 	 49.8911 	 9.52038 	 86.9071 	 
H 	 50.8325 	 9.44116 	 86.3537 	 
H 	 49.3323 	 10.3534 	 86.5141 	 
H 	 50.1144 	 9.63389 	 87.962 	 
S 	 46.5219 	 13.7041 	 85.947 	 
C 	 46.1955 	 15.2497 	 86.6568 	 
C 	 45.7068 	 15.1315 	 87.9202 	 
C 	 45.3791 	 13.7851 	 88.2958 	 
C 	 45.6864 	 12.9605 	 87.2572 	 
H 	 45.4413 	 15.9442 	 88.5487 	 
C 	 44.7517 	 13.3269 	 89.6131 	 
H 	 45.3691 	 12.4787 	 90.0812 	 
H 	 43.7586 	 12.8607 	 89.2998 	 
C 	 44.4531 	 14.4656 	 90.6496 	 
H 	 43.8379 	 15.2066 	 90.2421 	 
H 	 45.4267 	 14.9444 	 90.9314 	 
C 	 43.5757 	 13.9272 	 91.8001 	 
H 	 42.7393 	 13.4576 	 91.3867 	 
H 	 43.3834 	 14.8373 	 92.4263 	 
H 	 44.1648 	 13.1714 	 92.4288 	 
H 	 45.4286 	 8.22321 	 85.8492 	 
H 	 46.6718 	 16.141 	 86.2131 	 
*
