! wB97X-D3 SP def2-SVP
%pal
nprocs 16
end

* xyz 0 1
S 	 7.32513 	 -4.75993 	 92.8585 	 
C 	 7.8727 	 -3.2021 	 93.4782 	 
C 	 8.63315 	 -2.57372 	 92.4504 	 
C 	 8.59997 	 -3.26381 	 91.222 	 
C 	 7.83125 	 -4.38453 	 91.2719 	 
H 	 9.09945 	 -2.94274 	 90.3141 	 
C 	 9.52947 	 -1.34785 	 92.578 	 
H 	 9.96479 	 -1.32208 	 93.5912 	 
H 	 8.86861 	 -0.550585 	 92.5659 	 
C 	 10.5435 	 -0.984189 	 91.4297 	 
H 	 11.223 	 -0.203789 	 91.8163 	 
H 	 11.3328 	 -1.71729 	 91.1383 	 
C 	 10.0704 	 -0.166456 	 90.1849 	 
H 	 10.9084 	 0.0849552 	 89.5288 	 
H 	 9.40822 	 -0.680557 	 89.5555 	 
H 	 9.44088 	 0.73857 	 90.5615 	 
S 	 8.40323 	 -6.95645 	 90.3961 	 
C 	 8.01667 	 -7.45781 	 88.7835 	 
C 	 7.42725 	 -6.4217 	 88.0832 	 
C 	 7.1596 	 -5.24822 	 88.835 	 
C 	 7.74425 	 -5.36716 	 90.1556 	 
H 	 7.02148 	 -6.53072 	 87.0776 	 
C 	 6.45485 	 -3.99885 	 88.3782 	 
H 	 6.12073 	 -4.10215 	 87.3137 	 
H 	 7.12575 	 -3.14774 	 88.3646 	 
C 	 5.20423 	 -3.68265 	 89.1705 	 
H 	 5.39622 	 -3.22492 	 90.1494 	 
H 	 4.68606 	 -4.67686 	 89.2877 	 
C 	 4.1737 	 -2.71729 	 88.5151 	 
H 	 3.277 	 -2.72538 	 89.0674 	 
H 	 3.92234 	 -2.98477 	 87.4451 	 
H 	 4.61391 	 -1.72245 	 88.4816 	 
H 	 7.89235 	 -2.8651 	 94.5038 	 
H 	 8.08268 	 -8.47019 	 88.4709 	 
*
