! wB97X-D3 SP def2-SVP
%pal
nprocs 16
end

* xyz 0 1
S 	 9.11018 	 -22.3753 	 85.6258 	 
C 	 7.45439 	 -22.5299 	 85.9893 	 
C 	 6.9119 	 -23.7116 	 85.4853 	 
C 	 7.92048 	 -24.4233 	 84.786 	 
C 	 9.16047 	 -23.911 	 84.7959 	 
H 	 7.72275 	 -25.3123 	 84.2742 	 
C 	 5.5283 	 -24.138 	 85.5425 	 
H 	 5.55229 	 -25.2016 	 85.8878 	 
H 	 5.03798 	 -24.077 	 84.548 	 
C 	 4.52268 	 -23.3785 	 86.4717 	 
H 	 4.81425 	 -23.4768 	 87.5357 	 
H 	 4.59599 	 -22.338 	 86.3489 	 
C 	 3.09986 	 -23.9985 	 86.2962 	 
H 	 2.3595 	 -23.3276 	 86.6826 	 
H 	 2.82702 	 -24.2754 	 85.2144 	 
H 	 3.04134 	 -25.0197 	 86.7492 	 
S 	 10.8143 	 -25.9068 	 83.8638 	 
C 	 12.1081 	 -25.6092 	 82.798 	 
C 	 12.3276 	 -24.2766 	 82.6897 	 
C 	 11.3544 	 -23.4681 	 83.4064 	 
C 	 10.3269 	 -24.2966 	 83.9864 	 
H 	 13.2469 	 -23.8907 	 82.1572 	 
C 	 11.4971 	 -21.9364 	 83.3852 	 
H 	 12.5125 	 -21.6521 	 83.0139 	 
H 	 11.5102 	 -21.6157 	 84.4225 	 
C 	 10.4758 	 -21.0058 	 82.7301 	 
H 	 10.7608 	 -19.9891 	 82.661 	 
H 	 9.60989 	 -21.068 	 83.3817 	 
C 	 10.0412 	 -21.5185 	 81.3515 	 
H 	 9.41793 	 -20.6653 	 80.9639 	 
H 	 9.42324 	 -22.3517 	 81.5751 	 
H 	 10.8684 	 -21.6729 	 80.5252 	 
H 	 6.89643 	 -21.8142 	 86.6494 	 
H 	 12.7973 	 -26.3879 	 82.4352 	 
*
