! wB97X-D3 SP def2-SVP
%pal
nprocs 16
end

* xyz 0 1
S 	 -32.6995 	 41.9824 	 95.1251 	 
C 	 -33.9598 	 41.2911 	 96.1078 	 
C 	 -34.3805 	 42.222 	 97.0906 	 
C 	 -33.3627 	 43.2641 	 97.2406 	 
C 	 -32.3038 	 43.1391 	 96.3398 	 
H 	 -33.2264 	 43.8973 	 98.0753 	 
C 	 -35.5741 	 41.9741 	 98.0432 	 
H 	 -35.678 	 40.8924 	 97.9476 	 
H 	 -36.5184 	 42.3251 	 97.5277 	 
C 	 -35.3147 	 42.286 	 99.4781 	 
H 	 -34.2949 	 41.9449 	 99.5966 	 
H 	 -35.1996 	 43.3792 	 99.53 	 
C 	 -36.3623 	 41.8223 	 100.493 	 
H 	 -36.0014 	 41.9866 	 101.453 	 
H 	 -37.3519 	 42.3119 	 100.365 	 
H 	 -36.5199 	 40.7136 	 100.366 	 
S 	 -29.6205 	 43.2753 	 96.1225 	 
C 	 -28.7612 	 44.7995 	 96.1204 	 
C 	 -29.6733 	 45.7705 	 96.3435 	 
C 	 -31.0811 	 45.4431 	 96.4344 	 
C 	 -31.1953 	 44.0296 	 96.3132 	 
H 	 -29.2822 	 46.7416 	 96.3065 	 
C 	 -32.1045 	 46.4695 	 96.8873 	 
H 	 -31.5466 	 47.3777 	 97.0623 	 
H 	 -32.5323 	 46.2551 	 97.8937 	 
C 	 -33.1157 	 46.7681 	 95.8204 	 
H 	 -34.0411 	 47.1154 	 96.3488 	 
H 	 -33.5778 	 45.8436 	 95.3655 	 
C 	 -32.6986 	 47.8132 	 94.7911 	 
H 	 -31.7695 	 47.4894 	 94.2977 	 
H 	 -32.5337 	 48.8456 	 95.1821 	 
H 	 -33.4844 	 47.9769 	 94.0689 	 
H 	 -34.3028 	 40.2976 	 95.91 	 
H 	 -27.6803 	 44.9225 	 95.8981 	 
*
