! wB97X-D3 SP def2-SVP
%pal
nprocs 16
end

* xyz 0 1
S 	 -64.3454 	 35.2988 	 118.724 	 
C 	 -64.4725 	 34.9338 	 120.448 	 
C 	 -65.3157 	 35.748 	 121.139 	 
C 	 -65.8318 	 36.7789 	 120.265 	 
C 	 -65.4231 	 36.6005 	 118.933 	 
H 	 -66.4232 	 37.6266 	 120.532 	 
C 	 -65.6835 	 35.5887 	 122.604 	 
H 	 -64.8047 	 35.4949 	 123.185 	 
H 	 -66.2349 	 34.6662 	 122.636 	 
C 	 -66.5517 	 36.6923 	 123.231 	 
H 	 -66.5816 	 36.6587 	 124.357 	 
H 	 -66.1942 	 37.7094 	 122.922 	 
C 	 -68.0136 	 36.5624 	 122.755 	 
H 	 -68.6224 	 37.2414 	 123.207 	 
H 	 -68.0632 	 36.665 	 121.672 	 
H 	 -68.3994 	 35.5787 	 122.87 	 
S 	 -64.5931 	 37.9583 	 116.571 	 
C 	 -65.7438 	 38.6225 	 115.484 	 
C 	 -67.0279 	 38.5035 	 116.028 	 
C 	 -67.0307 	 37.9016 	 117.352 	 
C 	 -65.8228 	 37.421 	 117.76 	 
H 	 -67.94 	 38.7743 	 115.482 	 
C 	 -68.3186 	 37.737 	 118.019 	 
H 	 -68.8448 	 38.6493 	 117.759 	 
H 	 -68.127 	 37.7899 	 119.128 	 
C 	 -69.2612 	 36.5453 	 117.681 	 
H 	 -69.9208 	 36.276 	 118.523 	 
H 	 -68.7251 	 35.6282 	 117.607 	 
C 	 -70.1839 	 36.7405 	 116.494 	 
H 	 -70.6628 	 37.711 	 116.588 	 
H 	 -71.0331 	 36.1203 	 116.614 	 
H 	 -69.8397 	 36.4877 	 115.5 	 
H 	 -63.9459 	 34.2217 	 121.07 	 
H 	 -65.4148 	 39.1521 	 114.614 	 
*
