! wB97X-D3 SP def2-SVP
%pal
nprocs 16
end

* xyz 0 1
S 	 -65.5767 	 36.3225 	 144.122 	 
C 	 -66.7421 	 35.3142 	 143.477 	 
C 	 -66.8617 	 35.3056 	 142.103 	 
C 	 -65.9855 	 36.3236 	 141.628 	 
C 	 -65.0648 	 36.8168 	 142.53 	 
H 	 -65.823 	 36.5822 	 140.619 	 
C 	 -67.6693 	 34.4331 	 141.099 	 
H 	 -68.4303 	 35.1559 	 140.894 	 
H 	 -68.116 	 33.5629 	 141.518 	 
C 	 -66.914 	 33.9752 	 139.881 	 
H 	 -66.5043 	 34.8173 	 139.269 	 
H 	 -65.8829 	 33.6113 	 140.17 	 
C 	 -67.5963 	 32.8589 	 139.049 	 
H 	 -67.5302 	 31.8828 	 139.573 	 
H 	 -68.6917 	 32.9738 	 138.868 	 
H 	 -67.0796 	 32.8961 	 138.066 	 
S 	 -62.4185 	 36.4575 	 142.069 	 
C 	 -61.442 	 37.8198 	 141.629 	 
C 	 -62.1767 	 38.9741 	 141.65 	 
C 	 -63.5568 	 38.8796 	 142.019 	 
C 	 -63.8644 	 37.5113 	 142.31 	 
H 	 -61.663 	 39.9552 	 141.428 	 
C 	 -64.5354 	 40.0765 	 141.995 	 
H 	 -65.541 	 39.7728 	 142.157 	 
H 	 -64.3479 	 40.565 	 140.975 	 
C 	 -64.1334 	 41.2419 	 142.984 	 
H 	 -64.5546 	 42.1838 	 142.699 	 
H 	 -63.0735 	 41.3621 	 142.884 	 
C 	 -64.1586 	 40.9027 	 144.442 	 
H 	 -65.2254 	 40.7442 	 144.751 	 
H 	 -63.7277 	 41.6855 	 145.07 	 
H 	 -63.6158 	 39.9229 	 144.585 	 
H 	 -67.1957 	 34.6812 	 144.229 	 
H 	 -60.357 	 37.7281 	 141.555 	 
*
