! wB97X-D3 SP def2-SVP
%pal
nprocs 16
end

* xyz 0 1
S 	 -32.3554 	 73.3591 	 167.561 	 
C 	 -31.3691 	 73.1858 	 166.166 	 
C 	 -31.7064 	 74.1286 	 165.184 	 
C 	 -32.7987 	 74.9909 	 165.563 	 
C 	 -33.2922 	 74.6719 	 166.799 	 
H 	 -33.1862 	 75.8056 	 164.972 	 
C 	 -30.9875 	 74.2614 	 163.86 	 
H 	 -31.6288 	 73.9411 	 162.993 	 
H 	 -30.1378 	 73.5882 	 163.689 	 
C 	 -30.5227 	 75.6839 	 163.392 	 
H 	 -30.1459 	 75.6265 	 162.329 	 
H 	 -31.44 	 76.3531 	 163.428 	 
C 	 -29.4565 	 76.2511 	 164.279 	 
H 	 -28.4805 	 75.7045 	 164.298 	 
H 	 -29.1261 	 77.2293 	 163.987 	 
H 	 -29.9068 	 76.5813 	 165.236 	 
S 	 -34.1073 	 76.3777 	 168.873 	 
C 	 -35.8443 	 76.7245 	 168.942 	 
C 	 -36.5325 	 76.1733 	 167.929 	 
C 	 -35.706 	 75.4162 	 167.041 	 
C 	 -34.381 	 75.3763 	 167.412 	 
H 	 -37.5341 	 76.3352 	 167.865 	 
C 	 -36.2992 	 74.8825 	 165.673 	 
H 	 -35.5438 	 74.6331 	 164.89 	 
H 	 -36.6021 	 75.8642 	 165.214 	 
C 	 -37.2906 	 73.852 	 165.848 	 
H 	 -37.5728 	 73.5972 	 164.77 	 
H 	 -38.0833 	 74.3025 	 166.269 	 
C 	 -36.7685 	 72.7196 	 166.786 	 
H 	 -37.1017 	 71.7611 	 166.454 	 
H 	 -37.1311 	 72.9046 	 167.825 	 
H 	 -35.699 	 72.4929 	 166.812 	 
H 	 -30.5589 	 72.4405 	 166.141 	 
H 	 -36.1881 	 77.3052 	 169.794 	 
*
