! wB97X-D3 SP def2-SVP
%pal
nprocs 16
end

* xyz 0 1
S 	 -45.9401 	 11.9343 	 81.965 	 
C 	 -44.7182 	 10.7628 	 81.4788 	 
C 	 -43.4077 	 11.2482 	 81.6657 	 
C 	 -43.4211 	 12.5027 	 82.3403 	 
C 	 -44.6586 	 13.0062 	 82.6424 	 
H 	 -42.56 	 12.9685 	 82.7455 	 
C 	 -42.1418 	 10.5732 	 81.2573 	 
H 	 -41.6242 	 11.3559 	 80.6483 	 
H 	 -42.3385 	 9.88448 	 80.4897 	 
C 	 -41.2155 	 9.99469 	 82.3249 	 
H 	 -40.2471 	 9.70361 	 81.7741 	 
H 	 -40.9314 	 10.7204 	 82.9922 	 
C 	 -41.9158 	 8.79629 	 83.0088 	 
H 	 -42.9408 	 9.03032 	 83.3863 	 
H 	 -42.051 	 7.97444 	 82.364 	 
H 	 -41.4359 	 8.45884 	 83.9075 	 
S 	 -45.6211 	 15.6812 	 82.3572 	 
C 	 -45.7191 	 16.667 	 83.7399 	 
C 	 -45.2792 	 16.0408 	 84.8621 	 
C 	 -45.0514 	 14.6277 	 84.6461 	 
C 	 -45.0818 	 14.2687 	 83.2739 	 
H 	 -45.1399 	 16.5706 	 85.7767 	 
C 	 -44.8166 	 13.75 	 85.84 	 
H 	 -45.1906 	 12.786 	 85.5491 	 
H 	 -45.3756 	 14.1395 	 86.6329 	 
C 	 -43.3954 	 13.4934 	 86.3242 	 
H 	 -42.7315 	 13.117 	 85.5668 	 
H 	 -43.3364 	 12.7251 	 87.0818 	 
C 	 -42.783 	 14.7602 	 86.9435 	 
H 	 -41.8119 	 14.5419 	 87.342 	 
H 	 -43.2696 	 15.3441 	 87.7399 	 
H 	 -42.6801 	 15.495 	 86.1572 	 
H 	 -44.8438 	 9.82589 	 80.9619 	 
H 	 -45.9308 	 17.7284 	 83.6927 	 
*
