! wB97X-D3 SP def2-SVP
%pal
nprocs 16
end

* xyz 0 1
S 	 -20.0605 	 2.06857 	 74.0801 	 
C 	 -18.7569 	 0.927773 	 74.4255 	 
C 	 -19.205 	 -0.200966 	 75.0818 	 
C 	 -20.5221 	 0.0556222 	 75.6031 	 
C 	 -21.0754 	 1.25264 	 75.196 	 
H 	 -21.1719 	 -0.611205 	 76.0264 	 
C 	 -18.4978 	 -1.53286 	 75.1972 	 
H 	 -18.2421 	 -1.54234 	 76.3185 	 
H 	 -17.5197 	 -1.32504 	 74.7132 	 
C 	 -19.2894 	 -2.78858 	 74.8355 	 
H 	 -19.9954 	 -2.59198 	 74.0463 	 
H 	 -18.6953 	 -3.59586 	 74.491 	 
C 	 -20.0912 	 -3.40261 	 75.9859 	 
H 	 -21.0216 	 -2.83148 	 76.1236 	 
H 	 -20.385 	 -4.48065 	 75.8332 	 
H 	 -19.5549 	 -3.41805 	 76.8692 	 
S 	 -22.2626 	 3.26824 	 76.6484 	 
C 	 -24.001 	 3.32418 	 76.5694 	 
C 	 -24.5714 	 2.20661 	 76.0616 	 
C 	 -23.6019 	 1.34146 	 75.4712 	 
C 	 -22.3094 	 1.79915 	 75.707 	 
H 	 -25.6299 	 2.21092 	 75.9795 	 
C 	 -23.9843 	 0.334726 	 74.3915 	 
H 	 -23.2093 	 -0.0441216 	 73.7733 	 
H 	 -24.7483 	 0.677791 	 73.7017 	 
C 	 -24.3829 	 -0.933446 	 75.1373 	 
H 	 -25.2364 	 -0.810049 	 75.7591 	 
H 	 -23.5629 	 -1.21537 	 75.8522 	 
C 	 -24.5689 	 -2.09956 	 74.1912 	 
H 	 -25.1666 	 -2.02909 	 73.2693 	 
H 	 -25.0337 	 -2.87256 	 74.745 	 
H 	 -23.5648 	 -2.50318 	 73.952 	 
H 	 -17.7751 	 0.980211 	 73.986 	 
H 	 -24.6054 	 4.05601 	 77.0085 	 
*
