! wB97X-D3 SP def2-SVP
%pal
nprocs 16
end

* xyz 0 1
S 	 16.4906 	 37.1725 	 63.2185 	 
C 	 17.2579 	 38.1223 	 62.0172 	 
C 	 17.2781 	 37.4797 	 60.7675 	 
C 	 16.8042 	 36.1287 	 60.8757 	 
C 	 16.1698 	 35.8456 	 62.08 	 
H 	 16.7889 	 35.463 	 59.9481 	 
C 	 17.6424 	 38.1015 	 59.4285 	 
H 	 18.0325 	 37.2737 	 58.8502 	 
H 	 18.3708 	 38.9287 	 59.5566 	 
C 	 16.4224 	 38.4759 	 58.5535 	 
H 	 15.7597 	 39.0781 	 59.2115 	 
H 	 16.6405 	 39.175 	 57.7494 	 
C 	 15.6134 	 37.2638 	 57.8611 	 
H 	 15.2896 	 36.5404 	 58.5849 	 
H 	 14.7825 	 37.7481 	 57.295 	 
H 	 16.39 	 36.7368 	 57.2368 	 
S 	 13.9023 	 34.464 	 61.8559 	 
C 	 13.738 	 32.8786 	 62.3418 	 
C 	 14.9261 	 32.3322 	 62.7477 	 
C 	 16.0008 	 33.2969 	 62.7504 	 
C 	 15.5651 	 34.5404 	 62.3571 	 
H 	 14.856 	 31.3092 	 63.0165 	 
C 	 17.3946 	 32.9309 	 63.1467 	 
H 	 17.7332 	 33.718 	 63.8259 	 
H 	 17.9817 	 33.0668 	 62.1994 	 
C 	 17.6168 	 31.5891 	 63.8902 	 
H 	 18.6339 	 31.3496 	 63.9655 	 
H 	 17.1629 	 30.751 	 63.2939 	 
C 	 16.8926 	 31.5165 	 65.2083 	 
H 	 15.8252 	 31.6842 	 65.2249 	 
H 	 17.3968 	 32.0444 	 66.0442 	 
H 	 16.9332 	 30.5219 	 65.633 	 
H 	 17.6302 	 39.0955 	 62.221 	 
H 	 12.8368 	 32.3745 	 62.4574 	 
*
