! wB97X-D3 SP def2-SVP
%pal
nprocs 16
end

* xyz 0 1
S 	 6.11285 	 8.63863 	 81.1108 	 
C 	 7.33664 	 9.34538 	 80.1071 	 
C 	 7.34892 	 10.73 	 80.126 	 
C 	 6.35732 	 11.2241 	 81.04 	 
C 	 5.62901 	 10.2636 	 81.6622 	 
H 	 6.11214 	 12.2613 	 81.2462 	 
C 	 8.1108 	 11.6894 	 79.2418 	 
H 	 8.25358 	 11.2152 	 78.244 	 
H 	 9.11147 	 11.6716 	 79.6439 	 
C 	 7.75069 	 13.1701 	 79.1507 	 
H 	 6.73897 	 13.1204 	 78.7951 	 
H 	 7.89718 	 13.5533 	 80.1424 	 
C 	 8.73511 	 13.8053 	 78.1775 	 
H 	 9.74569 	 13.6925 	 78.7278 	 
H 	 8.75807 	 13.1915 	 77.2268 	 
H 	 8.58188 	 14.8284 	 77.9623 	 
S 	 3.06268 	 10.7532 	 82.1385 	 
C 	 2.38021 	 10.8267 	 83.8033 	 
C 	 3.41303 	 10.7805 	 84.7233 	 
C 	 4.73862 	 10.5403 	 84.1525 	 
C 	 4.66694 	 10.5254 	 82.7379 	 
H 	 3.1098 	 10.9206 	 85.7426 	 
C 	 6.0046 	 10.32 	 84.9315 	 
H 	 6.83633 	 10.0068 	 84.2745 	 
H 	 5.8272 	 9.56233 	 85.6783 	 
C 	 6.37636 	 11.5898 	 85.7039 	 
H 	 7.15738 	 11.3639 	 86.4838 	 
H 	 5.53207 	 11.8722 	 86.3528 	 
C 	 6.855 	 12.7419 	 84.7894 	 
H 	 7.63216 	 12.5013 	 84.0928 	 
H 	 7.09738 	 13.5954 	 85.3459 	 
H 	 5.96915 	 12.984 	 84.2324 	 
H 	 8.05527 	 8.84267 	 79.4173 	 
H 	 1.31107 	 10.9022 	 84.03 	 
*
