! wB97X-D3 SP def2-SVP
%pal
nprocs 16
end

* xyz 0 1
S 	 -3.37671 	 76.6077 	 55.9811 	 
C 	 -3.57347 	 75.255 	 56.9993 	 
C 	 -2.3756 	 74.5954 	 57.2222 	 
C 	 -1.33549 	 75.2682 	 56.5274 	 
C 	 -1.58784 	 76.5076 	 56.0073 	 
H 	 -0.30474 	 74.9415 	 56.4535 	 
C 	 -2.11672 	 73.4401 	 58.2113 	 
H 	 -2.93897 	 73.5058 	 58.9936 	 
H 	 -1.21075 	 73.6734 	 58.7909 	 
C 	 -2.01411 	 72.0781 	 57.5452 	 
H 	 -2.9013 	 71.8068 	 57.0632 	 
H 	 -1.34617 	 72.2575 	 56.6833 	 
C 	 -1.53156 	 70.8984 	 58.4478 	 
H 	 -1.53057 	 69.9167 	 57.8999 	 
H 	 -0.462175 	 71.1304 	 58.6928 	 
H 	 -2.21919 	 70.7195 	 59.3115 	 
S 	 -1.21215 	 77.9695 	 53.5989 	 
C 	 0.368534 	 78.108 	 53.0608 	 
C 	 1.28594 	 78.05 	 54.1144 	 
C 	 0.703527 	 77.505 	 55.2784 	 
C 	 -0.6796 	 77.3518 	 55.1859 	 
H 	 2.38757 	 78.1815 	 53.9719 	 
C 	 1.58946 	 77.1772 	 56.4924 	 
H 	 1.81602 	 76.0567 	 56.4676 	 
H 	 0.902577 	 77.2106 	 57.3917 	 
C 	 2.87278 	 78.0272 	 56.7034 	 
H 	 3.4112 	 77.9745 	 55.809 	 
H 	 3.51307 	 77.5958 	 57.4846 	 
C 	 2.495 	 79.466 	 57.08 	 
H 	 3.30803 	 80.0524 	 57.5384 	 
H 	 1.74509 	 79.4296 	 57.9463 	 
H 	 1.88628 	 80.0037 	 56.3065 	 
H 	 -4.55357 	 74.8952 	 57.2938 	 
H 	 0.558974 	 78.2607 	 52.0555 	 
*
