! wB97X-D3 SP def2-SVP
%pal
nprocs 16
end

* xyz 0 1
S 	 -32.1298 	 63.3115 	 121.49 	 
C 	 -33.8713 	 63.1427 	 121.37 	 
C 	 -34.3094 	 62.8334 	 120.108 	 
C 	 -33.2138 	 62.9442 	 119.181 	 
C 	 -31.9167 	 63.2694 	 119.7 	 
H 	 -33.2642 	 62.7277 	 118.159 	 
C 	 -35.6797 	 62.3984 	 119.728 	 
H 	 -35.9651 	 63.0009 	 118.852 	 
H 	 -36.4253 	 62.6416 	 120.486 	 
C 	 -35.9323 	 60.9673 	 119.189 	 
H 	 -37.0156 	 60.7718 	 119.057 	 
H 	 -35.6034 	 60.7942 	 118.139 	 
C 	 -35.4247 	 59.8567 	 120.077 	 
H 	 -35.8732 	 58.8648 	 119.704 	 
H 	 -34.3286 	 59.813 	 119.957 	 
H 	 -35.7119 	 59.9591 	 121.116 	 
S 	 -30.1982 	 61.8002 	 118.114 	 
C 	 -28.7097 	 62.5878 	 117.523 	 
C 	 -28.6739 	 63.9337 	 117.906 	 
C 	 -29.8561 	 64.3224 	 118.593 	 
C 	 -30.6692 	 63.2799 	 118.907 	 
H 	 -27.8229 	 64.5749 	 117.582 	 
C 	 -30.1907 	 65.8235 	 118.841 	 
H 	 -29.2518 	 66.388 	 119.043 	 
H 	 -30.6889 	 65.7648 	 119.781 	 
C 	 -30.9262 	 66.5034 	 117.704 	 
H 	 -31.9083 	 66.0008 	 117.581 	 
H 	 -30.3596 	 66.4271 	 116.784 	 
C 	 -31.3985 	 67.9843 	 117.944 	 
H 	 -30.6018 	 68.5563 	 118.441 	 
H 	 -32.1636 	 68.0683 	 118.643 	 
H 	 -31.8505 	 68.3756 	 116.991 	 
H 	 -34.4821 	 62.9829 	 122.257 	 
H 	 -27.8936 	 62.1055 	 116.983 	 
*
