! wB97X-D3 SP def2-SVP
%pal
nprocs 16
end

* xyz 0 1
S 	 1.71167 	 -28.2207 	 83.6705 	 
C 	 0.452942 	 -29.5209 	 83.377 	 
C 	 -0.294908 	 -29.6587 	 84.5352 	 
C 	 0.00198244 	 -28.7077 	 85.5442 	 
C 	 0.912496 	 -27.7967 	 85.1156 	 
H 	 -0.366964 	 -28.7418 	 86.5343 	 
C 	 -1.22624 	 -30.7975 	 84.6814 	 
H 	 -2.05127 	 -30.6637 	 83.9952 	 
H 	 -1.81272 	 -30.8005 	 85.6454 	 
C 	 -0.58997 	 -32.1636 	 84.5214 	 
H 	 -1.40265 	 -32.9206 	 84.5065 	 
H 	 -0.163978 	 -32.1589 	 83.5185 	 
C 	 0.300907 	 -32.4268 	 85.7314 	 
H 	 1.19313 	 -31.7637 	 85.6933 	 
H 	 -0.29059 	 -32.3482 	 86.6592 	 
H 	 0.592603 	 -33.4568 	 85.7374 	 
S 	 3.04575 	 -26.264 	 85.9484 	 
C 	 2.76069 	 -25.0498 	 87.2069 	 
C 	 1.51345 	 -25.201 	 87.8066 	 
C 	 0.633459 	 -25.9937 	 87.009 	 
C 	 1.31899 	 -26.7042 	 85.9675 	 
H 	 1.25282 	 -24.5859 	 88.689 	 
C 	 -0.909352 	 -26.0934 	 87.3231 	 
H 	 -0.987279 	 -26.4197 	 88.3442 	 
H 	 -1.48733 	 -26.7062 	 86.6224 	 
C 	 -1.59981 	 -24.7214 	 87.1869 	 
H 	 -1.73692 	 -24.6019 	 86.0985 	 
H 	 -0.920316 	 -23.9911 	 87.6946 	 
C 	 -2.9269 	 -24.6093 	 87.8655 	 
H 	 -3.4929 	 -23.6986 	 87.6366 	 
H 	 -2.89878 	 -24.6415 	 88.9593 	 
H 	 -3.6379 	 -25.3431 	 87.3854 	 
H 	 0.44938 	 -30.1102 	 82.5231 	 
H 	 3.56498 	 -24.5266 	 87.7108 	 
*
