! wB97X-D3 SP def2-SVP
%pal
nprocs 16
end

* xyz 0 1
S 	 2.79481 	 23.1182 	 57.7469 	 
C 	 4.43208 	 23.4906 	 57.2872 	 
C 	 5.1916 	 22.3173 	 57.1567 	 
C 	 4.42504 	 21.121 	 57.4427 	 
C 	 3.13327 	 21.4387 	 57.7577 	 
H 	 4.75844 	 20.0695 	 57.3425 	 
C 	 6.69366 	 22.2231 	 56.7956 	 
H 	 6.71086 	 22.3367 	 55.7323 	 
H 	 7.0015 	 21.2503 	 56.8916 	 
C 	 7.5951 	 23.1916 	 57.5081 	 
H 	 8.59342 	 23.1507 	 57.0825 	 
H 	 7.20573 	 24.194 	 57.3065 	 
C 	 7.8028 	 22.9081 	 58.9689 	 
H 	 7.60177 	 21.8072 	 59.1203 	 
H 	 8.88092 	 22.9654 	 59.1992 	 
H 	 7.1437 	 23.4591 	 59.5942 	 
S 	 1.41566 	 19.3684 	 57.1709 	 
C 	 0.818417 	 18.3703 	 58.4908 	 
C 	 1.08952 	 18.95 	 59.7019 	 
C 	 1.83568 	 20.1384 	 59.5348 	 
C 	 2.19479 	 20.4584 	 58.2455 	 
H 	 0.775316 	 18.5725 	 60.6445 	 
C 	 2.2512 	 21.0351 	 60.6387 	 
H 	 1.72581 	 21.9968 	 60.5446 	 
H 	 3.33109 	 21.2484 	 60.4637 	 
C 	 1.9609 	 20.656 	 62.1303 	 
H 	 0.879118 	 20.371 	 62.2751 	 
H 	 2.23079 	 21.4739 	 62.8089 	 
C 	 2.95246 	 19.525 	 62.6022 	 
H 	 2.51309 	 19.0928 	 63.4406 	 
H 	 3.95564 	 19.8963 	 62.7059 	 
H 	 3.05458 	 18.6656 	 61.962 	 
H 	 4.81074 	 24.4791 	 57.1131 	 
H 	 0.160118 	 17.4873 	 58.4867 	 
*
