! wB97X-D3 SP def2-SVP
%pal
nprocs 16
end

* xyz 0 1
S 	 -10.1528 	 -13.0848 	 86.6672 	 
C 	 -11.7789 	 -13.4815 	 86.1355 	 
C 	 -12.6386 	 -13.4949 	 87.1694 	 
C 	 -11.9583 	 -13.3258 	 88.4438 	 
C 	 -10.5739 	 -13.0844 	 88.353 	 
H 	 -12.4487 	 -13.3383 	 89.4244 	 
C 	 -14.1509 	 -13.7311 	 86.9386 	 
H 	 -14.4623 	 -14.7633 	 87.2992 	 
H 	 -14.2274 	 -13.8091 	 85.7841 	 
C 	 -15.0433 	 -12.5417 	 87.3339 	 
H 	 -14.732 	 -12.1995 	 88.3512 	 
H 	 -14.8971 	 -11.7248 	 86.6651 	 
C 	 -16.5542 	 -12.8537 	 87.4735 	 
H 	 -16.9593 	 -13.3424 	 88.3712 	 
H 	 -17.0859 	 -11.9074 	 87.3983 	 
H 	 -17.0161 	 -13.2938 	 86.5781 	 
S 	 -8.78038 	 -11.0758 	 89.229 	 
C 	 -7.79178 	 -11.3048 	 90.6488 	 
C 	 -8.09031 	 -12.5567 	 91.1862 	 
C 	 -9.11258 	 -13.3019 	 90.5098 	 
C 	 -9.63849 	 -12.6137 	 89.4106 	 
H 	 -7.553 	 -12.8395 	 92.0821 	 
C 	 -9.49629 	 -14.6584 	 90.9524 	 
H 	 -10.5513 	 -14.6417 	 90.7555 	 
H 	 -9.37123 	 -14.6654 	 92.0797 	 
C 	 -8.86811 	 -15.9101 	 90.2475 	 
H 	 -8.99429 	 -15.8015 	 89.1765 	 
H 	 -9.55328 	 -16.6978 	 90.4892 	 
C 	 -7.43236 	 -16.2534 	 90.6811 	 
H 	 -6.92745 	 -17.0723 	 90.1434 	 
H 	 -7.51914 	 -16.5704 	 91.6767 	 
H 	 -6.84852 	 -15.3417 	 90.6682 	 
H 	 -11.9523 	 -13.663 	 85.0595 	 
H 	 -7.0169 	 -10.6173 	 90.9468 	 
*
