! wB97X-D3 SP def2-SVP
%pal
nprocs 16
end

* xyz 0 1
S 	 -94.3697 	 57.4698 	 124.111 	 
C 	 -95.1204 	 57.0576 	 122.588 	 
C 	 -95.8932 	 55.9167 	 122.615 	 
C 	 -95.8878 	 55.3466 	 123.886 	 
C 	 -94.9733 	 55.9006 	 124.76 	 
H 	 -96.3433 	 54.501 	 124.185 	 
C 	 -96.6366 	 55.4173 	 121.435 	 
H 	 -96.1161 	 54.4293 	 121.196 	 
H 	 -96.3774 	 56.0112 	 120.545 	 
C 	 -98.1411 	 55.0717 	 121.567 	 
H 	 -98.3167 	 54.5599 	 122.544 	 
H 	 -98.5665 	 56.0557 	 121.511 	 
C 	 -98.757 	 54.135 	 120.504 	 
H 	 -98.5895 	 54.2988 	 119.427 	 
H 	 -98.408 	 53.1029 	 120.719 	 
H 	 -99.8342 	 54.0934 	 120.677 	 
S 	 -94.6075 	 56.5908 	 127.417 	 
C 	 -94.1083 	 55.4283 	 128.603 	 
C 	 -93.9697 	 54.1761 	 128.022 	 
C 	 -94.3639 	 54.1337 	 126.632 	 
C 	 -94.5982 	 55.4264 	 126.121 	 
H 	 -93.6233 	 53.2916 	 128.556 	 
C 	 -94.3157 	 52.8308 	 125.839 	 
H 	 -94.986 	 52.7969 	 124.97 	 
H 	 -94.8513 	 52.0084 	 126.413 	 
C 	 -92.8926 	 52.3657 	 125.438 	 
H 	 -92.2858 	 52.3 	 126.367 	 
H 	 -92.3278 	 53.0451 	 124.851 	 
C 	 -92.9168 	 51.0877 	 124.669 	 
H 	 -91.9575 	 50.5558 	 124.594 	 
H 	 -93.3369 	 51.1859 	 123.764 	 
H 	 -93.5229 	 50.3927 	 125.195 	 
H 	 -95.0721 	 57.7287 	 121.691 	 
H 	 -94.058 	 55.5985 	 129.676 	 
*
