! wB97X-D3 SP def2-SVP
%pal
nprocs 16
end

* xyz 0 1
S 	 46.849 	 4.01027 	 86.6495 	 
C 	 46.1686 	 3.77073 	 85.1235 	 
C 	 46.0821 	 4.94804 	 84.4037 	 
C 	 46.3054 	 6.07622 	 85.2305 	 
C 	 46.811 	 5.74659 	 86.4936 	 
H 	 46.16 	 7.15552 	 85.013 	 
C 	 45.7008 	 5.03161 	 82.9855 	 
H 	 46.0342 	 4.07201 	 82.4614 	 
H 	 46.3594 	 5.85384 	 82.6041 	 
C 	 44.2304 	 5.20499 	 82.6189 	 
H 	 43.7219 	 4.34469 	 83.0977 	 
H 	 43.7421 	 6.08859 	 83.1029 	 
C 	 43.9495 	 5.25622 	 81.1535 	 
H 	 44.0815 	 4.25699 	 80.7354 	 
H 	 42.8414 	 5.36715 	 80.9168 	 
H 	 44.5738 	 6.04543 	 80.7151 	 
S 	 46.381 	 6.65178 	 89.0739 	 
C 	 47.3664 	 8.04701 	 89.527 	 
C 	 48.3372 	 8.42005 	 88.624 	 
C 	 48.3026 	 7.57716 	 87.4565 	 
C 	 47.236 	 6.66018 	 87.568 	 
H 	 48.9503 	 9.25463 	 88.8494 	 
C 	 49.2479 	 7.78245 	 86.3235 	 
H 	 49.9652 	 8.55179 	 86.5356 	 
H 	 48.5858 	 8.16715 	 85.5437 	 
C 	 50.16 	 6.62011 	 85.8836 	 
H 	 49.6901 	 5.65676 	 85.7689 	 
H 	 50.7743 	 6.4534 	 86.7725 	 
C 	 51.0999 	 6.8474 	 84.762 	 
H 	 51.6338 	 7.79265 	 84.7649 	 
H 	 50.4726 	 6.66079 	 83.8505 	 
H 	 51.7685 	 6.06733 	 84.8164 	 
H 	 45.9055 	 2.77714 	 84.7602 	 
H 	 47.311 	 8.51763 	 90.5282 	 
*
