! wB97X-D3 SP def2-SVP
%pal
nprocs 16
end

* xyz 0 1
S 	 -40.9258 	 -0.597721 	 98.355 	 
C 	 -39.9398 	 0.581798 	 99.1498 	 
C 	 -39.6009 	 1.60069 	 98.2516 	 
C 	 -40.2269 	 1.49226 	 96.9441 	 
C 	 -41.0115 	 0.378005 	 96.8589 	 
H 	 -40.0581 	 2.18781 	 96.1182 	 
C 	 -38.6504 	 2.73729 	 98.6226 	 
H 	 -38.107 	 2.56241 	 99.5732 	 
H 	 -39.3525 	 3.60282 	 98.7921 	 
C 	 -37.5429 	 3.00979 	 97.5986 	 
H 	 -37.0703 	 2.05787 	 97.2983 	 
H 	 -38.0281 	 3.31469 	 96.6863 	 
C 	 -36.5486 	 4.04867 	 98.0914 	 
H 	 -36.9292 	 5.12277 	 98.0375 	 
H 	 -36.1774 	 3.96293 	 99.1166 	 
H 	 -35.694 	 4.00927 	 97.3801 	 
S 	 -43.499 	 -0.360546 	 96.0136 	 
C 	 -43.9291 	 -0.0658135 	 94.3436 	 
C 	 -42.7839 	 0.195827 	 93.6024 	 
C 	 -41.5802 	 0.174587 	 94.3509 	 
C 	 -41.8351 	 0.0593051 	 95.7225 	 
H 	 -42.8408 	 0.506334 	 92.5704 	 
C 	 -40.2153 	 0.366713 	 93.7097 	 
H 	 -39.8901 	 1.49812 	 93.9909 	 
H 	 -40.2754 	 0.21442 	 92.6068 	 
C 	 -39.0048 	 -0.523342 	 94.0583 	 
H 	 -39.1052 	 -1.5433 	 93.6566 	 
H 	 -38.9272 	 -0.603303 	 95.2023 	 
C 	 -37.6974 	 0.0885457 	 93.6243 	 
H 	 -37.6207 	 0.370583 	 92.5715 	 
H 	 -36.833 	 -0.578577 	 93.856 	 
H 	 -37.5265 	 0.956092 	 94.3152 	 
H 	 -39.6217 	 0.507344 	 100.209 	 
H 	 -44.9513 	 0.124565 	 93.9189 	 
*
