! wB97X-D3 SP def2-SVP
%pal
nprocs 16
end

* xyz 0 1
S 	 43.3033 	 12.7984 	 88.6134 	 
C 	 44.505 	 12.1526 	 87.5204 	 
C 	 44.0247 	 11.9565 	 86.2356 	 
C 	 42.7397 	 12.6037 	 86.0792 	 
C 	 42.1194 	 12.8897 	 87.2965 	 
H 	 42.123 	 12.5554 	 85.18 	 
C 	 44.6803 	 11.1894 	 85.1231 	 
H 	 44.7127 	 10.1897 	 85.4197 	 
H 	 45.6534 	 11.5501 	 84.9854 	 
C 	 43.9104 	 11.2415 	 83.7741 	 
H 	 42.9535 	 10.8564 	 83.942 	 
H 	 43.9105 	 12.2209 	 83.341 	 
C 	 44.5699 	 10.2477 	 82.7814 	 
H 	 45.5678 	 10.4802 	 82.4904 	 
H 	 44.5237 	 9.23083 	 83.1985 	 
H 	 43.9449 	 10.134 	 81.9178 	 
S 	 40.531 	 14.8384 	 88.3023 	 
C 	 38.7996 	 14.8586 	 87.9516 	 
C 	 38.4405 	 13.6805 	 87.2822 	 
C 	 39.5055 	 12.7571 	 87 	 
C 	 40.6958 	 13.2281 	 87.5685 	 
H 	 37.4214 	 13.5935 	 86.9508 	 
C 	 39.1329 	 11.636 	 86.0163 	 
H 	 40.0786 	 11.0696 	 85.9299 	 
H 	 38.8729 	 12.1646 	 85.0865 	 
C 	 37.9812 	 10.7138 	 86.5229 	 
H 	 37.1406 	 11.3824 	 86.7227 	 
H 	 38.1826 	 10.2521 	 87.4874 	 
C 	 37.779 	 9.49487 	 85.595 	 
H 	 37.387 	 9.7545 	 84.5604 	 
H 	 37.0488 	 8.81966 	 86.0663 	 
H 	 38.6841 	 9.0152 	 85.215 	 
H 	 45.4616 	 11.7568 	 87.7341 	 
H 	 38.1024 	 15.718 	 88.1022 	 
*
