! wB97X-D3 SP def2-SVP
%pal
nprocs 16
end

* xyz 0 1
S 	 -66.2661 	 37.2851 	 139.107 	 
C 	 -66.1637 	 36.1139 	 140.397 	 
C 	 -66.6345 	 34.8631 	 139.994 	 
C 	 -66.9273 	 34.8075 	 138.609 	 
C 	 -66.7335 	 36.049 	 137.988 	 
H 	 -67.2991 	 33.9525 	 138.063 	 
C 	 -66.8067 	 33.621 	 140.898 	 
H 	 -67.7278 	 33.5968 	 141.41 	 
H 	 -66.0678 	 33.7494 	 141.672 	 
C 	 -66.4933 	 32.3151 	 140.303 	 
H 	 -65.7461 	 32.2878 	 139.555 	 
H 	 -65.9671 	 31.7843 	 141.177 	 
C 	 -67.6482 	 31.4162 	 139.878 	 
H 	 -68.3986 	 31.1943 	 140.652 	 
H 	 -68.0126 	 31.7304 	 138.881 	 
H 	 -67.2196 	 30.4125 	 139.794 	 
S 	 -65.6153 	 35.0933 	 135.78 	 
C 	 -65.6847 	 35.9723 	 134.256 	 
C 	 -66.672 	 36.9212 	 134.4 	 
C 	 -67.1499 	 37.2343 	 135.663 	 
C 	 -66.6338 	 36.3231 	 136.581 	 
H 	 -67.0192 	 37.3518 	 133.49 	 
C 	 -68.1005 	 38.3773 	 135.916 	 
H 	 -68.4018 	 38.2522 	 136.955 	 
H 	 -68.9677 	 38.3947 	 135.238 	 
C 	 -67.5478 	 39.8064 	 135.778 	 
H 	 -68.3583 	 40.493 	 136.045 	 
H 	 -67.4609 	 40.0258 	 134.702 	 
C 	 -66.3108 	 40.0146 	 136.596 	 
H 	 -66.4707 	 39.8877 	 137.681 	 
H 	 -65.9908 	 41.0179 	 136.545 	 
H 	 -65.5042 	 39.3392 	 136.296 	 
H 	 -65.8774 	 36.221 	 141.429 	 
H 	 -65.31 	 35.5098 	 133.367 	 
*
