! wB97X-D3 SP def2-SVP
%pal
nprocs 16
end

* xyz 0 1
S 	 -41.8669 	 63.5861 	 146.197 	 
C 	 -41.4216 	 63.7959 	 144.541 	 
C 	 -41.7692 	 65.0073 	 143.954 	 
C 	 -42.331 	 65.8602 	 144.915 	 
C 	 -42.4217 	 65.3041 	 146.16 	 
H 	 -42.8903 	 66.724 	 144.712 	 
C 	 -41.636 	 65.3148 	 142.485 	 
H 	 -42.5051 	 66.0005 	 142.277 	 
H 	 -41.8668 	 64.3614 	 141.984 	 
C 	 -40.2664 	 65.9238 	 141.976 	 
H 	 -39.3997 	 65.2705 	 142.204 	 
H 	 -40.294 	 65.8906 	 140.87 	 
C 	 -40.0394 	 67.3482 	 142.557 	 
H 	 -39.8316 	 67.3219 	 143.631 	 
H 	 -39.019 	 67.6763 	 142.115 	 
H 	 -40.7456 	 68.0642 	 142.219 	 
S 	 -44.657 	 65.1945 	 147.86 	 
C 	 -44.7528 	 66.2905 	 149.188 	 
C 	 -43.9079 	 67.3282 	 149.038 	 
C 	 -42.9542 	 67.0589 	 148.027 	 
C 	 -43.1976 	 65.944 	 147.258 	 
H 	 -43.9456 	 68.1261 	 149.717 	 
C 	 -41.8155 	 68.0656 	 147.734 	 
H 	 -42.2028 	 69.0917 	 147.833 	 
H 	 -41.3566 	 67.9017 	 146.841 	 
C 	 -40.6811 	 68.0346 	 148.801 	 
H 	 -40.2984 	 67.0871 	 148.717 	 
H 	 -41.1978 	 68.2852 	 149.775 	 
C 	 -39.5776 	 69.0074 	 148.565 	 
H 	 -38.9346 	 68.588 	 147.737 	 
H 	 -38.9397 	 69.0527 	 149.437 	 
H 	 -39.8706 	 70.0071 	 148.277 	 
H 	 -40.9535 	 62.9957 	 143.977 	 
H 	 -45.5651 	 66.3046 	 149.863 	 
*
