! wB97X-D3 SP def2-SVP
%pal
nprocs 16
end

* xyz 0 1
S 	 -12.4098 	 48.5193 	 32.3145 	 
C 	 -12.04 	 47.2778 	 33.4879 	 
C 	 -10.7508 	 47.4169 	 33.9154 	 
C 	 -10.0565 	 48.5338 	 33.3928 	 
C 	 -10.8473 	 49.2592 	 32.5759 	 
H 	 -9.08405 	 48.8923 	 33.5919 	 
C 	 -10.0716 	 46.4947 	 35.0249 	 
H 	 -9.03051 	 46.8665 	 35.0151 	 
H 	 -10.2444 	 45.4705 	 34.7307 	 
C 	 -10.7555 	 46.6448 	 36.4023 	 
H 	 -10.5899 	 47.7185 	 36.6998 	 
H 	 -11.7785 	 46.3684 	 36.363 	 
C 	 -10.0126 	 45.8055 	 37.4833 	 
H 	 -9.77794 	 44.8393 	 36.9639 	 
H 	 -9.08194 	 46.2547 	 37.7206 	 
H 	 -10.5631 	 45.5434 	 38.4064 	 
S 	 -10.5046 	 50.5392 	 30.1924 	 
C 	 -9.80495 	 52.1947 	 30.2006 	 
C 	 -9.82088 	 52.7684 	 31.4283 	 
C 	 -10.103 	 51.7948 	 32.4267 	 
C 	 -10.5549 	 50.5483 	 31.9569 	 
H 	 -9.5629 	 53.7906 	 31.5938 	 
C 	 -9.93205 	 52.2548 	 33.8933 	 
H 	 -9.22627 	 53.1576 	 33.8995 	 
H 	 -9.19481 	 51.4777 	 34.2822 	 
C 	 -11.2071 	 52.2038 	 34.8473 	 
H 	 -10.9372 	 52.6861 	 35.7483 	 
H 	 -11.4692 	 51.1772 	 35.0914 	 
C 	 -12.4866 	 52.8203 	 34.1732 	 
H 	 -13.3749 	 52.7092 	 34.801 	 
H 	 -12.6565 	 52.4356 	 33.171 	 
H 	 -12.4428 	 53.8779 	 34.0132 	 
H 	 -12.6196 	 46.3606 	 33.8599 	 
H 	 -9.55318 	 52.7262 	 29.3984 	 
*
