! wB97X-D3 SP def2-SVP
%pal
nprocs 16
end

* xyz 0 1
S 	 53.2124 	 15.071 	 50.8384 	 
C 	 52.4369 	 16.5581 	 50.3434 	 
C 	 52.2023 	 17.3863 	 51.4337 	 
C 	 52.6442 	 16.7548 	 52.667 	 
C 	 53.2 	 15.5073 	 52.5171 	 
H 	 52.5893 	 17.1337 	 53.7085 	 
C 	 51.4745 	 18.7576 	 51.5233 	 
H 	 50.8658 	 18.6021 	 52.4233 	 
H 	 50.8001 	 18.9119 	 50.6968 	 
C 	 52.4886 	 19.9117 	 51.6845 	 
H 	 53.0598 	 19.9887 	 50.7909 	 
H 	 51.9225 	 20.8706 	 51.7073 	 
C 	 53.3496 	 19.9021 	 52.9935 	 
H 	 54.0951 	 19.1029 	 53.0627 	 
H 	 53.8602 	 20.81 	 53.0509 	 
H 	 52.7017 	 19.8966 	 53.9321 	 
S 	 55.5575 	 14.1635 	 53.1818 	 
C 	 55.4141 	 12.8337 	 54.3666 	 
C 	 54.2804 	 13.0223 	 55.1679 	 
C 	 53.4219 	 14.144 	 54.7481 	 
C 	 53.8654 	 14.651 	 53.515 	 
H 	 54.0502 	 12.3101 	 55.9207 	 
C 	 52.1187 	 14.3288 	 55.3709 	 
H 	 51.3985 	 13.7128 	 54.8377 	 
H 	 51.8205 	 15.4039 	 55.218 	 
C 	 52.0039 	 13.9711 	 56.8538 	 
H 	 52.8007 	 14.392 	 57.453 	 
H 	 52.023 	 12.8836 	 56.9596 	 
C 	 50.578 	 14.3146 	 57.4025 	 
H 	 49.845 	 13.7331 	 56.8864 	 
H 	 50.3393 	 15.3871 	 57.2428 	 
H 	 50.638 	 14.0879 	 58.4458 	 
H 	 52.0928 	 16.7884 	 49.3609 	 
H 	 56.192 	 12.1143 	 54.6073 	 
*
