! wB97X-D3 SP def2-SVP
%pal
nprocs 16
end

* xyz 0 1
S 	 12.8881 	 -14.5378 	 79.4069 	 
C 	 13.441 	 -13.1422 	 80.3602 	 
C 	 14.4728 	 -12.5112 	 79.6961 	 
C 	 14.6839 	 -12.968 	 78.3904 	 
C 	 13.9854 	 -14.121 	 78.0954 	 
H 	 15.4259 	 -12.5716 	 77.7287 	 
C 	 15.2112 	 -11.3754 	 80.3434 	 
H 	 15.1764 	 -11.4818 	 81.4137 	 
H 	 14.6016 	 -10.4883 	 80.1811 	 
C 	 16.7032 	 -11.0238 	 79.9751 	 
H 	 17.2018 	 -11.9969 	 80.0369 	 
H 	 16.8106 	 -10.6362 	 78.9893 	 
C 	 17.328 	 -9.95436 	 80.9069 	 
H 	 16.8095 	 -8.97041 	 80.8295 	 
H 	 17.6762 	 -10.1386 	 81.8753 	 
H 	 18.2313 	 -9.62644 	 80.3176 	 
S 	 14.1907 	 -16.5603 	 76.9843 	 
C 	 14.4253 	 -16.819 	 75.2552 	 
C 	 14.1331 	 -15.6051 	 74.6497 	 
C 	 13.9982 	 -14.4711 	 75.4936 	 
C 	 13.9847 	 -14.867 	 76.8436 	 
H 	 14.0359 	 -15.5955 	 73.5824 	 
C 	 13.8744 	 -13.0431 	 74.9666 	 
H 	 14.693 	 -12.8476 	 74.2654 	 
H 	 13.7527 	 -12.3176 	 75.7715 	 
C 	 12.6577 	 -12.8588 	 74.0733 	 
H 	 11.8191 	 -13.2217 	 74.6618 	 
H 	 12.7504 	 -13.6081 	 73.3074 	 
C 	 12.3061 	 -11.4327 	 73.5856 	 
H 	 12.3426 	 -10.6328 	 74.2647 	 
H 	 11.3912 	 -11.4118 	 73.1011 	 
H 	 13.1571 	 -11.2121 	 72.8679 	 
H 	 13.0779 	 -12.7141 	 81.2945 	 
H 	 14.5493 	 -17.7605 	 74.8016 	 
*
