! wB97X-D3 SP def2-SVP
%pal
nprocs 16
end

* xyz 0 1
S 	 -3.28698 	 -7.73634 	 84.4887 	 
C 	 -2.38609 	 -9.22572 	 84.4489 	 
C 	 -2.96758 	 -10.2105 	 85.2265 	 
C 	 -4.02203 	 -9.68743 	 86.0665 	 
C 	 -4.33351 	 -8.38332 	 85.7169 	 
H 	 -4.64197 	 -10.2708 	 86.8404 	 
C 	 -2.56287 	 -11.6441 	 85.3503 	 
H 	 -3.51723 	 -12.1762 	 85.5558 	 
H 	 -1.95519 	 -11.7003 	 86.2576 	 
C 	 -1.89471 	 -12.2297 	 84.0956 	 
H 	 -2.39427 	 -11.8533 	 83.2097 	 
H 	 -0.887828 	 -11.8886 	 84.0727 	 
C 	 -1.92535 	 -13.7881 	 84.1977 	 
H 	 -2.81715 	 -14.2474 	 84.5181 	 
H 	 -1.61899 	 -14.2596 	 83.2337 	 
H 	 -1.25544 	 -14.1948 	 84.9433 	 
S 	 -6.52165 	 -7.14843 	 84.7824 	 
C 	 -7.77703 	 -6.66764 	 85.8347 	 
C 	 -7.54343 	 -7.11826 	 87.1277 	 
C 	 -6.26051 	 -7.70553 	 87.2766 	 
C 	 -5.49354 	 -7.62491 	 86.1329 	 
H 	 -8.27303 	 -7.02435 	 87.9302 	 
C 	 -5.85085 	 -8.26916 	 88.6346 	 
H 	 -6.12703 	 -7.56911 	 89.4344 	 
H 	 -4.74518 	 -8.33723 	 88.7268 	 
C 	 -6.62224 	 -9.54547 	 88.9615 	 
H 	 -6.53293 	 -10.2772 	 88.1169 	 
H 	 -7.69352 	 -9.33889 	 89.0618 	 
C 	 -5.89452 	 -10.2024 	 90.1682 	 
H 	 -6.33389 	 -11.1213 	 90.6597 	 
H 	 -5.83024 	 -9.3565 	 90.8608 	 
H 	 -4.92165 	 -10.6169 	 89.868 	 
H 	 -1.40437 	 -9.3694 	 83.8843 	 
H 	 -8.76494 	 -6.32511 	 85.5185 	 
*
