! wB97X-D3 SP def2-SVP
%pal
nprocs 16
end

* xyz 0 1
S 	 -14.9202 	 33.5484 	 36.2315 	 
C 	 -15.0033 	 33.7049 	 37.9316 	 
C 	 -13.7523 	 33.5887 	 38.577 	 
C 	 -12.7545 	 33.2341 	 37.5985 	 
C 	 -13.1818 	 33.3956 	 36.269 	 
H 	 -11.7159 	 33.0766 	 37.9444 	 
C 	 -13.5711 	 33.6287 	 40.0872 	 
H 	 -12.7287 	 33.0042 	 40.2993 	 
H 	 -14.4859 	 33.3877 	 40.527 	 
C 	 -13.3283 	 34.9724 	 40.8077 	 
H 	 -14.3352 	 35.4103 	 41.0229 	 
H 	 -12.8686 	 34.8313 	 41.8031 	 
C 	 -12.4488 	 35.958 	 39.9207 	 
H 	 -12.2465 	 36.8846 	 40.4927 	 
H 	 -11.4007 	 35.6466 	 39.7591 	 
H 	 -12.97 	 36.1231 	 38.9477 	 
S 	 -12.7434 	 31.8053 	 34.2233 	 
C 	 -11.7237 	 32.2965 	 32.9043 	 
C 	 -10.8624 	 33.3291 	 33.2754 	 
C 	 -11.3128 	 33.9259 	 34.5235 	 
C 	 -12.466 	 33.2669 	 35.0771 	 
H 	 -10.0573 	 33.6108 	 32.5635 	 
C 	 -10.5303 	 35.0718 	 35.0454 	 
H 	 -11.1523 	 35.9436 	 35.277 	 
H 	 -9.92374 	 35.5261 	 34.234 	 
C 	 -9.70862 	 34.7217 	 36.2628 	 
H 	 -9.0904 	 33.8231 	 36.086 	 
H 	 -10.3817 	 34.4395 	 37.0208 	 
C 	 -8.92852 	 35.9804 	 36.7811 	 
H 	 -9.56093 	 36.7333 	 37.277 	 
H 	 -8.26699 	 36.3969 	 35.9716 	 
H 	 -8.18351 	 35.8361 	 37.5019 	 
H 	 -15.9153 	 33.9681 	 38.4624 	 
H 	 -11.5452 	 31.6358 	 32.0968 	 
*
