! wB97X-D3 SP def2-SVP
%pal
nprocs 16
end

* xyz 0 1
S 	 -36.7233 	 74.4199 	 167.626 	 
C 	 -36.0121 	 74.7559 	 166.071 	 
C 	 -36.9594 	 75.0181 	 165.069 	 
C 	 -38.2809 	 74.7662 	 165.556 	 
C 	 -38.2962 	 74.465 	 166.898 	 
H 	 -39.2134 	 74.8484 	 165.014 	 
C 	 -36.6366 	 75.4173 	 163.642 	 
H 	 -37.377 	 76.1135 	 163.38 	 
H 	 -36.718 	 74.4837 	 163.097 	 
C 	 -35.2697 	 76.1276 	 163.446 	 
H 	 -35.2288 	 77.0826 	 164.047 	 
H 	 -34.459 	 75.5548 	 163.895 	 
C 	 -34.9751 	 76.3504 	 161.982 	 
H 	 -35.0899 	 75.4657 	 161.375 	 
H 	 -35.6775 	 77.0943 	 161.552 	 
H 	 -33.9637 	 76.9088 	 161.893 	 
S 	 -39.5165 	 72.5126 	 168.387 	 
C 	 -41.1032 	 72.7669 	 169.034 	 
C 	 -41.6213 	 74.0062 	 168.706 	 
C 	 -40.6801 	 74.8071 	 167.943 	 
C 	 -39.4646 	 74.1556 	 167.698 	 
H 	 -42.6294 	 74.2018 	 168.995 	 
C 	 -41.0303 	 76.2376 	 167.539 	 
H 	 -42.0696 	 76.2928 	 167.321 	 
H 	 -40.5394 	 76.3162 	 166.56 	 
C 	 -40.6493 	 77.3522 	 168.562 	 
H 	 -40.6784 	 78.3078 	 168.085 	 
H 	 -39.59 	 77.3002 	 168.867 	 
C 	 -41.3736 	 77.3627 	 169.927 	 
H 	 -41.0511 	 76.5641 	 170.532 	 
H 	 -42.4826 	 77.3023 	 169.867 	 
H 	 -41.0841 	 78.305 	 170.405 	 
H 	 -34.9508 	 74.8299 	 165.931 	 
H 	 -41.5759 	 72.075 	 169.696 	 
*
