! wB97X-D3 SP def2-SVP
%pal
nprocs 16
end

* xyz 0 1
S 	 -0.0784146 	 25.6024 	 36.756 	 
C 	 -0.29596 	 24.6304 	 35.2677 	 
C 	 -0.931303 	 25.3843 	 34.2422 	 
C 	 -1.27237 	 26.6944 	 34.7472 	 
C 	 -1.03274 	 26.9038 	 36.0958 	 
H 	 -1.71526 	 27.5376 	 34.1287 	 
C 	 -1.1154 	 25.0447 	 32.8387 	 
H 	 -2.08543 	 25.5955 	 32.6056 	 
H 	 -1.3824 	 23.9939 	 32.8447 	 
C 	 0.0779533 	 25.3752 	 31.9793 	 
H 	 0.398567 	 26.3846 	 32.0338 	 
H 	 0.993302 	 24.8415 	 32.3378 	 
C 	 -0.211611 	 24.9985 	 30.4953 	 
H 	 -0.928881 	 25.6482 	 30.0231 	 
H 	 0.792941 	 24.9348 	 29.969 	 
H 	 -0.647759 	 24.0218 	 30.3874 	 
S 	 -2.73791 	 27.7219 	 38.0733 	 
C 	 -2.61712 	 29.4427 	 38.703 	 
C 	 -1.79041 	 30.2417 	 37.879 	 
C 	 -1.08827 	 29.3896 	 36.9447 	 
C 	 -1.46287 	 28.0164 	 36.9098 	 
H 	 -1.65075 	 31.265 	 38.0789 	 
C 	 0.0580228 	 29.9503 	 36.1614 	 
H 	 -0.385527 	 30.8281 	 35.7268 	 
H 	 0.390543 	 29.2863 	 35.4037 	 
C 	 1.30409 	 30.3168 	 37.0043 	 
H 	 1.05518 	 31.0767 	 37.8102 	 
H 	 2.07864 	 30.8862 	 36.5497 	 
C 	 1.85925 	 29.0341 	 37.6706 	 
H 	 1.07588 	 28.5149 	 38.243 	 
H 	 2.63967 	 29.3153 	 38.3522 	 
H 	 2.23452 	 28.4116 	 36.8774 	 
H 	 0.141374 	 23.6721 	 35.1472 	 
H 	 -3.32751 	 29.9136 	 39.3551 	 
*
