! wB97X-D3 SP def2-SVP
%pal
nprocs 16
end

* xyz 0 1
S 	 61.1095 	 6.08431 	 79.3787 	 
C 	 59.3871 	 6.33576 	 79.8435 	 
C 	 58.5373 	 5.80691 	 78.8328 	 
C 	 59.2355 	 5.13139 	 77.7641 	 
C 	 60.602 	 5.39135 	 77.844 	 
H 	 58.7498 	 4.60528 	 76.9427 	 
C 	 57.047 	 5.74683 	 78.8501 	 
H 	 56.7697 	 6.15784 	 79.8191 	 
H 	 56.9163 	 4.66371 	 78.9119 	 
C 	 56.4432 	 6.38215 	 77.6059 	 
H 	 56.5188 	 7.45686 	 77.6897 	 
H 	 56.9907 	 6.11822 	 76.7203 	 
C 	 55.0467 	 5.8882 	 77.3848 	 
H 	 54.8213 	 4.83562 	 77.5778 	 
H 	 54.4246 	 6.51524 	 78.0457 	 
H 	 54.7386 	 6.07857 	 76.3515 	 
S 	 62.2029 	 3.45872 	 76.7841 	 
C 	 63.0075 	 3.71065 	 75.2671 	 
C 	 62.914 	 5.01111 	 74.8693 	 
C 	 62.1041 	 5.80714 	 75.7369 	 
C 	 61.5961 	 5.09065 	 76.8238 	 
H 	 63.3401 	 5.45281 	 73.9544 	 
C 	 61.6148 	 7.27951 	 75.3998 	 
H 	 61.9607 	 8.10481 	 76.2155 	 
H 	 60.5599 	 7.24851 	 75.4691 	 
C 	 61.8467 	 7.7095 	 73.9561 	 
H 	 61.1586 	 7.2408 	 73.3078 	 
H 	 62.8539 	 7.33031 	 73.631 	 
C 	 61.9068 	 9.27775 	 73.8592 	 
H 	 62.108 	 9.59932 	 72.7803 	 
H 	 62.6998 	 9.72002 	 74.4664 	 
H 	 60.992 	 9.76484 	 74.0801 	 
H 	 59.0543 	 6.77536 	 80.8005 	 
H 	 63.3297 	 2.85349 	 74.658 	 
*
