! wB97X-D3 SP def2-SVP
%pal
nprocs 16
end

* xyz 0 1
S 	 -32.288 	 4.34763 	 100.52 	 
C 	 -32.3058 	 2.59211 	 100.878 	 
C 	 -31.0753 	 2.16905 	 101.335 	 
C 	 -30.1111 	 3.21944 	 101.3 	 
C 	 -30.5765 	 4.4566 	 100.9 	 
H 	 -29.0855 	 3.10325 	 101.432 	 
C 	 -30.7748 	 0.723519 	 101.73 	 
H 	 -29.9462 	 0.441909 	 101.074 	 
H 	 -31.7501 	 0.149199 	 101.587 	 
C 	 -30.4026 	 0.542376 	 103.249 	 
H 	 -31.2477 	 0.953118 	 103.867 	 
H 	 -30.2899 	 -0.524563 	 103.467 	 
C 	 -29.0084 	 1.03985 	 103.541 	 
H 	 -28.3033 	 0.672212 	 102.88 	 
H 	 -28.8972 	 2.05661 	 103.443 	 
H 	 -28.6634 	 0.757567 	 104.545 	 
S 	 -28.3128 	 5.60641 	 99.9642 	 
C 	 -27.7705 	 7.2092 	 100.45 	 
C 	 -28.7117 	 7.73409 	 101.341 	 
C 	 -29.8299 	 6.8667 	 101.58 	 
C 	 -29.7841 	 5.64912 	 100.928 	 
H 	 -28.5162 	 8.64192 	 101.967 	 
C 	 -30.8863 	 7.17997 	 102.632 	 
H 	 -31.8612 	 6.64057 	 102.436 	 
H 	 -31.1699 	 8.17783 	 102.508 	 
C 	 -30.4461 	 6.87125 	 104.026 	 
H 	 -29.6734 	 7.61541 	 104.476 	 
H 	 -29.9985 	 5.82597 	 104.034 	 
C 	 -31.5993 	 6.85217 	 104.929 	 
H 	 -32.1699 	 5.88024 	 104.896 	 
H 	 -32.3871 	 7.58132 	 104.786 	 
H 	 -31.2262 	 6.80403 	 105.969 	 
H 	 -33.1139 	 1.89755 	 100.857 	 
H 	 -26.8063 	 7.63569 	 100.286 	 
*
