! wB97X-D3 SP def2-SVP
%pal
nprocs 16
end

* xyz 0 1
S 	 37.03 	 11.8297 	 81.2179 	 
C 	 38.6636 	 11.9423 	 81.8171 	 
C 	 39.5568 	 12.1685 	 80.7598 	 
C 	 38.9515 	 12.3545 	 79.5096 	 
C 	 37.5712 	 12.4569 	 79.69 	 
H 	 39.4995 	 12.3521 	 78.5348 	 
C 	 41.0849 	 12.148 	 80.9143 	 
H 	 41.5788 	 11.479 	 80.2081 	 
H 	 41.2303 	 11.6683 	 81.8896 	 
C 	 41.6294 	 13.5859 	 80.7825 	 
H 	 41.1296 	 14.1681 	 81.6216 	 
H 	 42.722 	 13.7787 	 80.9199 	 
C 	 41.266 	 14.3139 	 79.4468 	 
H 	 41.4527 	 13.783 	 78.5006 	 
H 	 40.2118 	 14.5598 	 79.4571 	 
H 	 41.794 	 15.2186 	 79.4363 	 
S 	 35.1272 	 11.6866 	 78.5654 	 
C 	 34.5983 	 12.4197 	 77.1443 	 
C 	 35.4374 	 13.4175 	 76.7584 	 
C 	 36.6518 	 13.404 	 77.4487 	 
C 	 36.6143 	 12.5796 	 78.5836 	 
H 	 35.2317 	 13.9571 	 75.8375 	 
C 	 37.7417 	 14.3199 	 77.0721 	 
H 	 38.4787 	 14.5199 	 77.8801 	 
H 	 37.2461 	 15.2659 	 76.8498 	 
C 	 38.6145 	 13.7786 	 75.9055 	 
H 	 38.0202 	 13.6839 	 74.9772 	 
H 	 38.7017 	 12.7187 	 76.0762 	 
C 	 39.9815 	 14.4331 	 75.5654 	 
H 	 40.3521 	 13.7703 	 74.8181 	 
H 	 40.6685 	 14.5502 	 76.3821 	 
H 	 39.7995 	 15.3358 	 75.0143 	 
H 	 39.001 	 11.7918 	 82.8382 	 
H 	 33.5852 	 12.3236 	 76.7563 	 
*
