! wB97X-D3 SP def2-SVP
%pal
nprocs 16
end

* xyz 0 1
S 	 -94.0634 	 58.4254 	 126.174 	 
C 	 -92.4323 	 57.7572 	 126.247 	 
C 	 -91.9608 	 57.8102 	 127.571 	 
C 	 -92.9085 	 58.2547 	 128.524 	 
C 	 -94.1293 	 58.5564 	 127.94 	 
H 	 -92.928 	 58.227 	 129.576 	 
C 	 -90.5044 	 57.5159 	 127.953 	 
H 	 -90.2155 	 58.3743 	 128.644 	 
H 	 -90.0227 	 57.5801 	 126.938 	 
C 	 -90.1774 	 56.1184 	 128.574 	 
H 	 -91.0837 	 55.6134 	 128.97 	 
H 	 -89.7006 	 55.5229 	 127.791 	 
C 	 -89.1224 	 56.2677 	 129.705 	 
H 	 -88.7823 	 55.3501 	 130.092 	 
H 	 -88.2656 	 56.8533 	 129.308 	 
H 	 -89.5839 	 56.7962 	 130.476 	 
S 	 -96.8509 	 58.4817 	 127.985 	 
C 	 -97.6794 	 59.5099 	 129.074 	 
C 	 -96.8431 	 60.1201 	 129.999 	 
C 	 -95.4532 	 59.8069 	 129.754 	 
C 	 -95.3247 	 58.9859 	 128.646 	 
H 	 -97.2248 	 60.8092 	 130.76 	 
C 	 -94.4123 	 60.5503 	 130.573 	 
H 	 -94.8285 	 61.5602 	 130.691 	 
H 	 -93.5192 	 60.588 	 129.923 	 
C 	 -94.1933 	 59.9906 	 131.911 	 
H 	 -93.6783 	 58.9753 	 131.852 	 
H 	 -95.1392 	 59.6892 	 132.472 	 
C 	 -93.3598 	 60.9742 	 132.694 	 
H 	 -93.0947 	 60.7553 	 133.678 	 
H 	 -93.6497 	 62.1088 	 132.605 	 
H 	 -92.3372 	 60.9976 	 132.277 	 
H 	 -91.8015 	 57.3939 	 125.398 	 
H 	 -98.742 	 59.5547 	 128.998 	 
*
