! wB97X-D3 SP def2-SVP
%pal
nprocs 16
end

* xyz 0 1
S 	 -10.7858 	 -2.44825 	 77.5119 	 
C 	 -9.43368 	 -2.40602 	 78.6234 	 
C 	 -9.67143 	 -3.13397 	 79.8 	 
C 	 -10.948 	 -3.82247 	 79.7967 	 
C 	 -11.5634 	 -3.62459 	 78.5429 	 
H 	 -11.3865 	 -4.41579 	 80.5924 	 
C 	 -8.70338 	 -3.19393 	 80.9592 	 
H 	 -7.76765 	 -3.77305 	 80.7329 	 
H 	 -9.21456 	 -3.82227 	 81.7069 	 
C 	 -8.4121 	 -1.71217 	 81.495 	 
H 	 -7.85649 	 -1.14731 	 80.6576 	 
H 	 -9.25349 	 -1.11669 	 81.749 	 
C 	 -7.55544 	 -1.63281 	 82.7309 	 
H 	 -6.68087 	 -2.22445 	 82.651 	 
H 	 -7.38544 	 -0.567196 	 82.9208 	 
H 	 -8.20915 	 -2.09835 	 83.5105 	 
S 	 -14.1501 	 -2.83024 	 78.2054 	 
C 	 -15.3791 	 -4.05487 	 77.9625 	 
C 	 -14.8119 	 -5.30988 	 77.8651 	 
C 	 -13.3791 	 -5.352 	 78.162 	 
C 	 -12.8878 	 -4.079 	 78.2386 	 
H 	 -15.4899 	 -6.14942 	 77.7212 	 
C 	 -12.5537 	 -6.6589 	 78.0106 	 
H 	 -11.5505 	 -6.43267 	 77.736 	 
H 	 -12.8902 	 -6.91826 	 76.947 	 
C 	 -12.6766 	 -7.7181 	 79.0373 	 
H 	 -12.3935 	 -8.66148 	 78.571 	 
H 	 -13.6892 	 -7.96242 	 79.3126 	 
C 	 -11.7682 	 -7.42716 	 80.2323 	 
H 	 -11.9557 	 -8.06645 	 81.0614 	 
H 	 -11.8893 	 -6.40581 	 80.7072 	 
H 	 -10.7558 	 -7.52136 	 79.8515 	 
H 	 -8.69053 	 -1.6806 	 78.5759 	 
H 	 -16.3723 	 -3.83084 	 77.9435 	 
*
