! wB97X-D3 SP def2-SVP
%pal
nprocs 16
end

* xyz 0 1
S 	 -7.59102 	 32.5347 	 34.8732 	 
C 	 -6.86317 	 32.7718 	 33.2963 	 
C 	 -7.77137 	 33.25 	 32.3599 	 
C 	 -9.05877 	 33.3495 	 32.8639 	 
C 	 -9.17215 	 33.097 	 34.2567 	 
H 	 -9.89878 	 33.7257 	 32.3225 	 
C 	 -7.35684 	 33.4542 	 30.9825 	 
H 	 -6.32457 	 33.7002 	 30.7492 	 
H 	 -7.90644 	 34.2745 	 30.5038 	 
C 	 -7.66543 	 32.2409 	 30.0618 	 
H 	 -7.06927 	 31.4153 	 30.3103 	 
H 	 -8.70702 	 31.9711 	 30.0978 	 
C 	 -7.2226 	 32.4284 	 28.5526 	 
H 	 -7.60994 	 31.5996 	 27.9248 	 
H 	 -7.43439 	 33.4413 	 28.1944 	 
H 	 -6.11079 	 32.4524 	 28.7579 	 
S 	 -9.57232 	 34.6051 	 36.451 	 
C 	 -11.1959 	 35.1485 	 36.8793 	 
C 	 -12.0903 	 34.2414 	 36.3663 	 
C 	 -11.5651 	 33.4332 	 35.3243 	 
C 	 -10.1914 	 33.5841 	 35.167 	 
H 	 -13.0534 	 34.4074 	 36.8775 	 
C 	 -12.5054 	 32.4361 	 34.6381 	 
H 	 -13.1457 	 32.1496 	 35.4587 	 
H 	 -12.063 	 31.4641 	 34.5142 	 
C 	 -13.289 	 32.8865 	 33.4513 	 
H 	 -13.8942 	 32.1368 	 32.9995 	 
H 	 -12.6035 	 33.1929 	 32.6521 	 
C 	 -14.2079 	 33.9662 	 33.7548 	 
H 	 -14.9057 	 33.8523 	 34.5922 	 
H 	 -14.9194 	 34.3213 	 32.9837 	 
H 	 -13.6165 	 34.8346 	 33.9519 	 
H 	 -5.74858 	 32.6711 	 33.0929 	 
H 	 -11.5496 	 35.8977 	 37.5859 	 
*
