! wB97X-D3 SP def2-SVP
%pal
nprocs 16
end

* xyz 0 1
S 	 -76.3152 	 48.908 	 137.995 	 
C 	 -77.5868 	 48.2518 	 139.058 	 
C 	 -78.3168 	 49.2949 	 139.658 	 
C 	 -78.0167 	 50.5565 	 139.052 	 
C 	 -76.9736 	 50.4717 	 138.136 	 
H 	 -78.5402 	 51.4615 	 139.125 	 
C 	 -79.3872 	 49.1186 	 140.745 	 
H 	 -79.3015 	 49.9689 	 141.352 	 
H 	 -79.176 	 48.2309 	 141.409 	 
C 	 -80.872 	 49.1906 	 140.241 	 
H 	 -80.9388 	 50.0495 	 139.641 	 
H 	 -81.2374 	 48.3759 	 139.612 	 
C 	 -81.9936 	 49.3169 	 141.303 	 
H 	 -82.9469 	 49.1769 	 140.811 	 
H 	 -81.9377 	 48.5639 	 142.086 	 
H 	 -81.8957 	 50.3283 	 141.705 	 
S 	 -76.0283 	 51.2732 	 135.566 	 
C 	 -75.5907 	 52.8733 	 135.283 	 
C 	 -75.8872 	 53.6543 	 136.392 	 
C 	 -76.2956 	 52.9103 	 137.489 	 
C 	 -76.4831 	 51.5736 	 137.282 	 
H 	 -75.8195 	 54.7615 	 136.287 	 
C 	 -76.7538 	 53.701 	 138.712 	 
H 	 -75.7909 	 54.1392 	 138.95 	 
H 	 -76.976 	 52.9371 	 139.43 	 
C 	 -77.8584 	 54.7624 	 138.537 	 
H 	 -77.529 	 55.4745 	 137.745 	 
H 	 -77.825 	 55.3363 	 139.431 	 
C 	 -79.3196 	 54.1962 	 138.271 	 
H 	 -80.0359 	 54.961 	 138.183 	 
H 	 -79.7971 	 53.5798 	 139.033 	 
H 	 -79.3012 	 53.6367 	 137.324 	 
H 	 -77.7005 	 47.2098 	 139.232 	 
H 	 -75.1906 	 53.2858 	 134.387 	 
*
