! wB97X-D3 SP def2-SVP
%pal
nprocs 16
end

* xyz 0 1
S 	 38.6261 	 23.5215 	 97.6712 	 
C 	 40.3065 	 23.8915 	 97.5806 	 
C 	 41.0497 	 22.9998 	 96.8003 	 
C 	 40.2168 	 21.8934 	 96.3459 	 
C 	 38.8844 	 22.1087 	 96.648 	 
H 	 40.4761 	 21.0503 	 95.8155 	 
C 	 42.4833 	 23.1668 	 96.3405 	 
H 	 42.8824 	 22.2622 	 96.7503 	 
H 	 43.0736 	 23.9306 	 96.9587 	 
C 	 42.8385 	 23.374 	 94.87 	 
H 	 42.3534 	 24.2879 	 94.451 	 
H 	 43.9045 	 23.6655 	 94.7649 	 
C 	 42.3762 	 22.2233 	 93.9144 	 
H 	 41.2869 	 22.0265 	 93.9642 	 
H 	 42.6985 	 22.4508 	 92.8866 	 
H 	 42.8816 	 21.3099 	 94.1545 	 
S 	 36.4445 	 20.9739 	 97.4228 	 
C 	 35.6211 	 19.7515 	 96.4838 	 
C 	 36.2713 	 19.6579 	 95.3002 	 
C 	 37.5614 	 20.294 	 95.2535 	 
C 	 37.7812 	 21.1755 	 96.2565 	 
H 	 35.7977 	 19.0738 	 94.5221 	 
C 	 38.4598 	 20.078 	 94.0372 	 
H 	 39.3767 	 20.6702 	 94.041 	 
H 	 37.862 	 20.3579 	 93.2145 	 
C 	 38.7422 	 18.5577 	 93.8849 	 
H 	 39.5131 	 18.5194 	 93.0514 	 
H 	 37.839 	 17.9652 	 93.6283 	 
C 	 39.3266 	 18.0413 	 95.2012 	 
H 	 39.7627 	 17.0835 	 95.0298 	 
H 	 38.6332 	 17.9646 	 96.0432 	 
H 	 40.1341 	 18.6298 	 95.6469 	 
H 	 40.7907 	 24.6857 	 98.1286 	 
H 	 34.6985 	 19.1932 	 96.6536 	 
*
