! wB97X-D3 SP def2-SVP
%pal
nprocs 16
end

* xyz 0 1
S 	 41.8603 	 9.04455 	 77.1044 	 
C 	 41.5068 	 7.42934 	 77.6882 	 
C 	 40.2031 	 7.22038 	 77.9679 	 
C 	 39.4252 	 8.40354 	 77.8079 	 
C 	 40.1224 	 9.46859 	 77.2323 	 
H 	 38.3875 	 8.44984 	 78.0895 	 
C 	 39.4814 	 5.90123 	 78.2954 	 
H 	 40.1116 	 5.00885 	 78.04 	 
H 	 38.5468 	 5.83781 	 77.6388 	 
C 	 38.9434 	 5.76633 	 79.7566 	 
H 	 38.5182 	 6.76471 	 79.9323 	 
H 	 38.3369 	 4.87911 	 79.788 	 
C 	 40.0338 	 5.47447 	 80.7496 	 
H 	 40.7771 	 6.25666 	 80.8344 	 
H 	 39.5927 	 5.40868 	 81.7738 	 
H 	 40.5476 	 4.56975 	 80.6257 	 
S 	 39.134 	 11.7752 	 78.4058 	 
C 	 38.2631 	 12.8408 	 77.4305 	 
C 	 38.1248 	 12.4282 	 76.1168 	 
C 	 38.8037 	 11.2155 	 75.8528 	 
C 	 39.4778 	 10.7523 	 76.9982 	 
H 	 37.5898 	 13.0906 	 75.4627 	 
C 	 38.7164 	 10.5831 	 74.4943 	 
H 	 39.5241 	 9.91804 	 74.5434 	 
H 	 38.9133 	 11.4256 	 73.7679 	 
C 	 37.3754 	 9.86805 	 74.289 	 
H 	 36.8962 	 9.41011 	 75.1389 	 
H 	 37.5056 	 9.04004 	 73.558 	 
C 	 36.2961 	 10.8363 	 73.7269 	 
H 	 35.7991 	 11.3447 	 74.5378 	 
H 	 35.3785 	 10.3543 	 73.2786 	 
H 	 36.6133 	 11.526 	 72.9601 	 
H 	 42.2138 	 6.6894 	 77.6422 	 
H 	 37.679 	 13.7094 	 77.8391 	 
*
