! wB97X-D3 SP def2-SVP
%pal
nprocs 16
end

* xyz 0 1
S 	 -5.89852 	 -15.6748 	 70.5619 	 
C 	 -5.09657 	 -16.823 	 69.5431 	 
C 	 -4.83589 	 -16.3324 	 68.2826 	 
C 	 -5.49548 	 -15.0703 	 68.0817 	 
C 	 -6.0745 	 -14.533 	 69.239 	 
H 	 -5.4485 	 -14.4325 	 67.1762 	 
C 	 -4.16966 	 -17.1429 	 67.1306 	 
H 	 -3.22963 	 -17.5985 	 67.5536 	 
H 	 -3.90092 	 -16.5457 	 66.251 	 
C 	 -4.92693 	 -18.3012 	 66.5457 	 
H 	 -4.48442 	 -18.7205 	 65.6395 	 
H 	 -5.12063 	 -19.0778 	 67.2919 	 
C 	 -6.36788 	 -17.8593 	 66.0613 	 
H 	 -7.00451 	 -17.4661 	 66.9163 	 
H 	 -6.25064 	 -17.0637 	 65.3904 	 
H 	 -6.89087 	 -18.6522 	 65.5928 	 
S 	 -8.55043 	 -13.1438 	 69.3755 	 
C 	 -8.47252 	 -11.3726 	 69.7009 	 
C 	 -7.15423 	 -10.9368 	 69.6289 	 
C 	 -6.27132 	 -12.0034 	 69.3726 	 
C 	 -6.78982 	 -13.2484 	 69.2748 	 
H 	 -6.89916 	 -9.84877 	 69.8604 	 
C 	 -4.75785 	 -11.8502 	 69.3541 	 
H 	 -4.55558 	 -10.782 	 69.2536 	 
H 	 -4.35205 	 -12.2297 	 68.4212 	 
C 	 -3.98794 	 -12.2626 	 70.6171 	 
H 	 -4.42244 	 -13.193 	 71.0166 	 
H 	 -4.18525 	 -11.5754 	 71.4252 	 
C 	 -2.52675 	 -12.3574 	 70.4266 	 
H 	 -2.27019 	 -12.9801 	 69.5669 	 
H 	 -2.15649 	 -12.7226 	 71.4035 	 
H 	 -2.15878 	 -11.3722 	 70.2272 	 
H 	 -4.84457 	 -17.8534 	 69.8132 	 
H 	 -9.32661 	 -10.807 	 70.1482 	 
*
