! wB97X-D3 SP def2-SVP
%pal
nprocs 16
end

* xyz 0 1
S 	 -5.47143 	 10.9713 	 80.6089 	 
C 	 -6.7127 	 9.66452 	 80.4928 	 
C 	 -7.80851 	 9.99264 	 81.183 	 
C 	 -7.75808 	 11.2817 	 81.7295 	 
C 	 -6.58666 	 12.0011 	 81.4638 	 
H 	 -8.52716 	 11.746 	 82.3967 	 
C 	 -9.14807 	 9.21638 	 81.2191 	 
H 	 -9.46925 	 9.17544 	 82.2776 	 
H 	 -8.97495 	 8.17044 	 80.9018 	 
C 	 -10.3659 	 9.74708 	 80.4682 	 
H 	 -11.2273 	 9.18371 	 80.8056 	 
H 	 -10.7947 	 10.7098 	 80.8649 	 
C 	 -10.2842 	 9.53264 	 78.892 	 
H 	 -9.9478 	 8.47516 	 78.7245 	 
H 	 -11.3124 	 9.72855 	 78.4846 	 
H 	 -9.58653 	 10.1736 	 78.4005 	 
S 	 -4.71875 	 13.6333 	 82.5059 	 
C 	 -5.1212 	 15.3158 	 82.8615 	 
C 	 -6.31298 	 15.6585 	 82.2202 	 
C 	 -7.05367 	 14.5526 	 81.7223 	 
C 	 -6.29969 	 13.3336 	 81.8059 	 
H 	 -6.59184 	 16.7185 	 82.2386 	 
C 	 -8.44949 	 14.7553 	 81.2424 	 
H 	 -8.82983 	 15.5302 	 81.8292 	 
H 	 -9.06861 	 13.8154 	 81.4688 	 
C 	 -8.55524 	 15.0115 	 79.709 	 
H 	 -7.80329 	 14.3502 	 79.2089 	 
H 	 -8.18965 	 16.0984 	 79.4939 	 
C 	 -9.92642 	 14.7971 	 79.1082 	 
H 	 -10.7645 	 15.2913 	 79.7124 	 
H 	 -10.1111 	 13.7483 	 79.0797 	 
H 	 -9.97572 	 15.1267 	 78.0457 	 
H 	 -6.64714 	 8.65899 	 80.1487 	 
H 	 -4.56726 	 16.1093 	 83.4282 	 
*
