! wB97X-D3 SP def2-SVP
%pal
nprocs 16
end

* xyz 0 1
S 	 13.3976 	 -1.16876 	 62.3473 	 
C 	 14.2742 	 -2.43569 	 61.5645 	 
C 	 14.5894 	 -2.06131 	 60.2438 	 
C 	 14.1463 	 -0.722638 	 59.9799 	 
C 	 13.64 	 0.00121762 	 61.0344 	 
H 	 14.3717 	 -0.155033 	 59.1209 	 
C 	 14.9985 	 -3.0621 	 59.1913 	 
H 	 14.2398 	 -3.86094 	 59.2945 	 
H 	 16.0197 	 -3.40747 	 59.4922 	 
C 	 15.1586 	 -2.62227 	 57.7154 	 
H 	 14.148 	 -2.34329 	 57.3637 	 
H 	 15.8499 	 -1.82089 	 57.5652 	 
C 	 15.578 	 -3.97448 	 57.0255 	 
H 	 14.7713 	 -4.69823 	 57.1276 	 
H 	 15.5262 	 -3.80676 	 55.9091 	 
H 	 16.5365 	 -4.40115 	 57.4205 	 
S 	 14.1696 	 2.60049 	 60.1274 	 
C 	 13.0806 	 3.89837 	 60.5821 	 
C 	 12.023 	 3.41327 	 61.3949 	 
C 	 12.1985 	 1.9894 	 61.6279 	 
C 	 13.2805 	 1.42681 	 61.0637 	 
H 	 11.3266 	 4.10345 	 61.863 	 
C 	 11.0409 	 1.19196 	 62.2817 	 
H 	 10.4544 	 1.87635 	 62.8207 	 
H 	 11.4951 	 0.465025 	 63.0029 	 
C 	 10.1729 	 0.277338 	 61.332 	 
H 	 10.8761 	 -0.434081 	 60.8796 	 
H 	 9.77013 	 0.927029 	 60.5509 	 
C 	 9.18016 	 -0.557503 	 62.2561 	 
H 	 8.56438 	 -1.23101 	 61.6541 	 
H 	 8.49082 	 0.111576 	 62.6903 	 
H 	 9.71553 	 -1.1499 	 63.022 	 
H 	 14.3455 	 -3.42984 	 61.9329 	 
H 	 13.298 	 5.01021 	 60.4318 	 
*
