! wB97X-D3 SP def2-SVP
%pal
nprocs 16
end

* xyz 0 1
S 	 -8.03206 	 50.2155 	 40.1762 	 
C 	 -9.75188 	 49.8045 	 40.575 	 
C 	 -9.84394 	 48.8579 	 41.6037 	 
C 	 -8.57299 	 48.3933 	 42.0203 	 
C 	 -7.51564 	 49.045 	 41.3641 	 
H 	 -8.34098 	 47.6333 	 42.7069 	 
C 	 -11.2277 	 48.4067 	 42.1372 	 
H 	 -11.4175 	 47.5722 	 41.4778 	 
H 	 -12.0212 	 49.0587 	 41.8393 	 
C 	 -11.2888 	 48.35 	 43.6669 	 
H 	 -12.3126 	 48.6043 	 43.9386 	 
H 	 -11.0103 	 47.4676 	 44.1437 	 
C 	 -10.4391 	 49.4157 	 44.4463 	 
H 	 -10.4974 	 50.384 	 44.0103 	 
H 	 -10.8439 	 49.5673 	 45.454 	 
H 	 -9.35774 	 49.1783 	 44.3461 	 
S 	 -5.3152 	 48.5745 	 39.9861 	 
C 	 -3.86194 	 47.7711 	 40.723 	 
C 	 -4.01473 	 47.6067 	 42.071 	 
C 	 -5.26048 	 48.0927 	 42.5276 	 
C 	 -6.1067 	 48.5649 	 41.496 	 
H 	 -3.19597 	 47.133 	 42.6847 	 
C 	 -5.71126 	 48.085 	 44.0114 	 
H 	 -6.32909 	 47.1593 	 44.264 	 
H 	 -6.39986 	 48.9204 	 44.1263 	 
C 	 -4.5703 	 48.2729 	 45.0634 	 
H 	 -3.91072 	 49.1291 	 44.9695 	 
H 	 -3.85267 	 47.4276 	 45.124 	 
C 	 -5.18611 	 48.3326 	 46.4573 	 
H 	 -5.34444 	 47.3638 	 46.8141 	 
H 	 -6.03675 	 49.0185 	 46.4725 	 
H 	 -4.43016 	 48.7405 	 47.2022 	 
H 	 -10.4887 	 50.4005 	 40.1751 	 
H 	 -2.95328 	 47.4131 	 40.1493 	 
*
