! wB97X-D3 SP def2-SVP
%pal
nprocs 16
end

* xyz 0 1
S 	 -91.2752 	 57.2841 	 128.582 	 
C 	 -90.2269 	 56.3506 	 129.651 	 
C 	 -89.3847 	 55.4884 	 128.929 	 
C 	 -89.6527 	 55.5661 	 127.5 	 
C 	 -90.6939 	 56.4572 	 127.139 	 
H 	 -89.2003 	 55.0175 	 126.565 	 
C 	 -88.4255 	 54.5258 	 129.576 	 
H 	 -87.5562 	 55.1613 	 130.066 	 
H 	 -87.9739 	 53.9092 	 128.854 	 
C 	 -89.0412 	 53.6487 	 130.689 	 
H 	 -89.5701 	 54.1267 	 131.459 	 
H 	 -89.765 	 53.1315 	 130.152 	 
C 	 -87.9837 	 52.6814 	 131.195 	 
H 	 -87.1491 	 53.1475 	 131.703 	 
H 	 -88.4788 	 51.9794 	 131.832 	 
H 	 -87.5179 	 52.1061 	 130.396 	 
S 	 -91.5093 	 58.4352 	 125.435 	 
C 	 -92.4317 	 57.8975 	 124.06 	 
C 	 -92.2037 	 56.6105 	 123.78 	 
C 	 -91.5342 	 55.9404 	 124.833 	 
C 	 -91.2008 	 56.7763 	 125.86 	 
H 	 -92.5633 	 56.0923 	 122.861 	 
C 	 -91.5356 	 54.4104 	 124.946 	 
H 	 -92.4774 	 53.9375 	 124.597 	 
H 	 -91.2343 	 54.0699 	 125.887 	 
C 	 -90.4828 	 53.7459 	 123.977 	 
H 	 -89.4589 	 54.1988 	 124.083 	 
H 	 -90.8234 	 53.6788 	 122.968 	 
C 	 -90.1765 	 52.2746 	 124.328 	 
H 	 -90.9914 	 51.5705 	 124.025 	 
H 	 -89.7942 	 52.0971 	 125.388 	 
H 	 -89.3853 	 51.9726 	 123.647 	 
H 	 -90.1581 	 56.3668 	 130.69 	 
H 	 -92.7889 	 58.5812 	 123.358 	 
*
