! wB97X-D3 SP def2-SVP
%pal
nprocs 16
end

* xyz 0 1
S 	 -29.3344 	 57.8662 	 109.312 	 
C 	 -28.8051 	 58.6456 	 107.82 	 
C 	 -29.8361 	 59.0828 	 107.013 	 
C 	 -31.0654 	 59.0768 	 107.739 	 
C 	 -31.016 	 58.375 	 108.95 	 
H 	 -31.9801 	 59.571 	 107.53 	 
C 	 -29.793 	 59.6831 	 105.616 	 
H 	 -28.7612 	 60.1396 	 105.377 	 
H 	 -30.4899 	 60.5275 	 105.574 	 
C 	 -29.9853 	 58.6645 	 104.498 	 
H 	 -30.8879 	 58.1291 	 104.647 	 
H 	 -30.1184 	 59.2649 	 103.535 	 
C 	 -28.8926 	 57.6749 	 104.298 	 
H 	 -29.1417 	 57.114 	 103.389 	 
H 	 -27.9687 	 58.1858 	 104.086 	 
H 	 -28.6806 	 57.1837 	 105.188 	 
S 	 -31.7356 	 59.0564 	 111.546 	 
C 	 -33.3867 	 58.6497 	 112.118 	 
C 	 -34.1469 	 58.2605 	 111.027 	 
C 	 -33.3638 	 58.0143 	 109.873 	 
C 	 -32.0653 	 58.4092 	 109.95 	 
H 	 -35.2175 	 58.0551 	 111.263 	 
C 	 -34.0244 	 57.4887 	 108.617 	 
H 	 -34.6613 	 56.619 	 108.862 	 
H 	 -33.223 	 57.1656 	 108.008 	 
C 	 -35.0531 	 58.3997 	 107.773 	 
H 	 -34.4741 	 59.2456 	 107.397 	 
H 	 -35.7958 	 58.7206 	 108.558 	 
C 	 -35.8071 	 57.5384 	 106.652 	 
H 	 -35.1777 	 57.154 	 105.849 	 
H 	 -36.7461 	 58.0108 	 106.176 	 
H 	 -36.2427 	 56.6232 	 107.07 	 
H 	 -27.8514 	 58.5464 	 107.401 	 
H 	 -33.7999 	 58.8723 	 113.088 	 
*
