! wB97X-D3 SP def2-SVP
%pal
nprocs 16
end

* xyz 0 1
S 	 7.04272 	 -16.4075 	 88.0973 	 
C 	 8.74716 	 -16.5644 	 87.9206 	 
C 	 9.40148 	 -15.4287 	 88.399 	 
C 	 8.5649 	 -14.5696 	 89.2336 	 
C 	 7.26039 	 -15.0583 	 89.2331 	 
H 	 8.93497 	 -13.8377 	 89.8854 	 
C 	 10.8638 	 -15.1796 	 88.2784 	 
H 	 11.2719 	 -16.0504 	 87.7086 	 
H 	 11.4594 	 -14.9527 	 89.1866 	 
C 	 11.1912 	 -14.1396 	 87.1871 	 
H 	 10.7462 	 -14.3518 	 86.1749 	 
H 	 10.6969 	 -13.2586 	 87.5053 	 
C 	 12.7256 	 -13.9503 	 86.9758 	 
H 	 13.2011 	 -13.6544 	 87.9646 	 
H 	 13.089 	 -14.9497 	 86.6929 	 
H 	 12.9411 	 -13.1896 	 86.2178 	 
S 	 5.73045 	 -15.9939 	 91.1935 	 
C 	 4.3598 	 -15.0656 	 91.8317 	 
C 	 4.29248 	 -13.8887 	 91.183 	 
C 	 5.32318 	 -13.6709 	 90.2394 	 
C 	 6.19078 	 -14.6915 	 90.105 	 
H 	 3.42238 	 -13.3116 	 91.3597 	 
C 	 5.36084 	 -12.486 	 89.3802 	 
H 	 4.71945 	 -12.6176 	 88.5346 	 
H 	 6.26161 	 -12.4415 	 88.8331 	 
C 	 4.99806 	 -11.1516 	 90.0701 	 
H 	 5.59664 	 -11.0357 	 90.9845 	 
H 	 3.95403 	 -11.0552 	 90.3404 	 
C 	 5.11308 	 -9.84285 	 89.2133 	 
H 	 4.17215 	 -9.7228 	 88.7696 	 
H 	 5.84053 	 -10.0103 	 88.414 	 
H 	 5.42694 	 -8.964 	 89.7137 	 
H 	 9.26494 	 -17.3523 	 87.3091 	 
H 	 3.53188 	 -15.4684 	 92.4996 	 
*
