! wB97X-D3 SP def2-SVP
%pal
nprocs 16
end

* xyz 0 1
S 	 -118.459 	 46.7625 	 132.158 	 
C 	 -119.436 	 48.0474 	 132.803 	 
C 	 -118.986 	 48.5727 	 134.031 	 
C 	 -117.892 	 47.7853 	 134.5 	 
C 	 -117.399 	 46.8746 	 133.563 	 
H 	 -117.296 	 47.9623 	 135.334 	 
C 	 -119.478 	 49.8264 	 134.855 	 
H 	 -119.925 	 49.3584 	 135.787 	 
H 	 -120.302 	 50.3661 	 134.297 	 
C 	 -118.407 	 50.8603 	 135.157 	 
H 	 -118.777 	 51.7205 	 135.721 	 
H 	 -117.696 	 50.3098 	 135.817 	 
C 	 -117.619 	 51.3063 	 133.964 	 
H 	 -118.436 	 51.8541 	 133.399 	 
H 	 -116.737 	 51.907 	 134.24 	 
H 	 -117.329 	 50.4518 	 133.274 	 
S 	 -116.479 	 44.3517 	 133.005 	 
C 	 -114.99 	 43.7882 	 133.742 	 
C 	 -114.292 	 44.916 	 134.251 	 
C 	 -115.041 	 46.0801 	 134.359 	 
C 	 -116.325 	 45.9559 	 133.77 	 
H 	 -113.286 	 44.8692 	 134.688 	 
C 	 -114.417 	 47.308 	 134.975 	 
H 	 -113.616 	 46.9475 	 135.632 	 
H 	 -114.984 	 47.8257 	 135.7 	 
C 	 -113.87 	 48.3537 	 133.919 	 
H 	 -114.686 	 48.6781 	 133.366 	 
H 	 -113.167 	 47.8962 	 133.25 	 
C 	 -113.145 	 49.5973 	 134.433 	 
H 	 -112.943 	 50.344 	 133.626 	 
H 	 -112.104 	 49.4234 	 134.819 	 
H 	 -113.679 	 49.9988 	 135.275 	 
H 	 -120.196 	 48.5408 	 132.193 	 
H 	 -114.616 	 42.7698 	 133.583 	 
*
