! wB97X-D3 SP def2-SVP
%pal
nprocs 16
end

* xyz 0 1
S 	 -55.4251 	 37.8259 	 115.982 	 
C 	 -55.8634 	 36.9341 	 117.488 	 
C 	 -56.6408 	 35.8382 	 117.163 	 
C 	 -56.8456 	 35.6633 	 115.769 	 
C 	 -56.3597 	 36.7131 	 115.072 	 
H 	 -57.2955 	 34.8736 	 115.274 	 
C 	 -57.1397 	 34.8785 	 118.237 	 
H 	 -58.1699 	 34.7761 	 118.027 	 
H 	 -56.9643 	 35.2606 	 119.264 	 
C 	 -56.4777 	 33.4419 	 118.236 	 
H 	 -56.6545 	 33.0477 	 119.174 	 
H 	 -57.0154 	 32.83 	 117.507 	 
C 	 -54.9538 	 33.4406 	 117.985 	 
H 	 -54.5272 	 34.2698 	 118.557 	 
H 	 -54.4222 	 32.4962 	 118.2 	 
H 	 -54.7985 	 33.6393 	 116.904 	 
S 	 -58.3236 	 37.1181 	 113.279 	 
C 	 -58.0116 	 37.3669 	 111.582 	 
C 	 -56.6771 	 37.2629 	 111.299 	 
C 	 -55.8547 	 37.055 	 112.468 	 
C 	 -56.6765 	 36.8838 	 113.666 	 
H 	 -56.3828 	 37.4709 	 110.263 	 
C 	 -54.4037 	 36.9695 	 112.486 	 
H 	 -54.0411 	 37.3566 	 113.36 	 
H 	 -54.0234 	 37.7009 	 111.738 	 
C 	 -53.7812 	 35.6065 	 112.175 	 
H 	 -52.8416 	 35.6884 	 111.735 	 
H 	 -54.2635 	 35.0817 	 111.327 	 
C 	 -53.6578 	 34.5517 	 113.318 	 
H 	 -53.3039 	 33.6665 	 112.849 	 
H 	 -54.6466 	 34.3883 	 113.735 	 
H 	 -53.0398 	 34.978 	 114.123 	 
H 	 -55.4402 	 37.2167 	 118.39 	 
H 	 -58.661 	 37.828 	 110.891 	 
*
