! wB97X-D3 SP def2-SVP
%pal
nprocs 16
end

* xyz 0 1
S 	 -36.4107 	 56.3853 	 108.952 	 
C 	 -36.1154 	 58.0844 	 109.191 	 
C 	 -37.1058 	 58.6952 	 110.002 	 
C 	 -38.096 	 57.7087 	 110.338 	 
C 	 -37.8996 	 56.5068 	 109.772 	 
H 	 -38.955 	 57.9706 	 111.015 	 
C 	 -37.1828 	 60.145 	 110.391 	 
H 	 -38.2148 	 60.4374 	 110.334 	 
H 	 -36.7342 	 60.6593 	 109.498 	 
C 	 -36.4545 	 60.5557 	 111.732 	 
H 	 -35.4422 	 60.2349 	 111.676 	 
H 	 -36.428 	 61.6676 	 111.94 	 
C 	 -37.2247 	 59.9629 	 112.924 	 
H 	 -37.1053 	 58.9134 	 112.991 	 
H 	 -37.0078 	 60.3558 	 113.845 	 
H 	 -38.3351 	 60.0711 	 112.734 	 
S 	 -38.0241 	 53.8501 	 110.522 	 
C 	 -39.4879 	 52.9581 	 110.322 	 
C 	 -40.41 	 53.7344 	 109.702 	 
C 	 -40.1078 	 55.158 	 109.642 	 
C 	 -38.7688 	 55.3226 	 109.921 	 
H 	 -41.292 	 53.292 	 109.318 	 
C 	 -41.0464 	 56.0698 	 109.064 	 
H 	 -40.5536 	 57.043 	 109.226 	 
H 	 -41.9981 	 56.0136 	 109.548 	 
C 	 -41.2775 	 55.7519 	 107.592 	 
H 	 -41.8706 	 54.8416 	 107.479 	 
H 	 -40.3458 	 55.7581 	 107.02 	 
C 	 -41.9108 	 56.9759 	 106.974 	 
H 	 -42.2611 	 56.7027 	 105.977 	 
H 	 -41.1938 	 57.7887 	 106.845 	 
H 	 -42.7405 	 57.4043 	 107.631 	 
H 	 -35.2949 	 58.6597 	 108.85 	 
H 	 -39.5919 	 51.8765 	 110.403 	 
*
