! wB97X-D3 SP def2-SVP
%pal
nprocs 16
end

* xyz 0 1
S 	 47.009 	 3.51864 	 91.2048 	 
C 	 46.5411 	 4.9545 	 90.3056 	 
C 	 46.7475 	 4.8453 	 88.9204 	 
C 	 47.3272 	 3.59305 	 88.5484 	 
C 	 47.7086 	 2.89562 	 89.7096 	 
H 	 47.6194 	 3.29049 	 87.5903 	 
C 	 46.2427 	 5.80389 	 87.8709 	 
H 	 46.8444 	 5.72316 	 86.9287 	 
H 	 46.5656 	 6.72836 	 88.3474 	 
C 	 44.7742 	 5.72688 	 87.5134 	 
H 	 44.5577 	 4.68681 	 87.3212 	 
H 	 44.0827 	 5.87811 	 88.3533 	 
C 	 44.4875 	 6.62023 	 86.3141 	 
H 	 44.6355 	 6.12788 	 85.3964 	 
H 	 43.4655 	 6.96586 	 86.4284 	 
H 	 45.0848 	 7.52765 	 86.3945 	 
S 	 47.0087 	 0.284415 	 90.4016 	 
C 	 48.1888 	 -0.920381 	 90.1401 	 
C 	 49.3493 	 -0.451143 	 89.4644 	 
C 	 49.2818 	 0.929448 	 89.2541 	 
C 	 48.1154 	 1.48202 	 89.7417 	 
H 	 50.2201 	 -1.02661 	 89.157 	 
C 	 50.4391 	 1.74135 	 88.7003 	 
H 	 51.2378 	 1.65439 	 89.3552 	 
H 	 50.2086 	 2.81088 	 88.669 	 
C 	 50.7698 	 1.34902 	 87.2143 	 
H 	 49.8396 	 1.36676 	 86.7173 	 
H 	 51.0001 	 0.329865 	 87.059 	 
C 	 51.8845 	 2.34523 	 86.6282 	 
H 	 51.52 	 3.32325 	 86.4928 	 
H 	 52.341 	 1.97475 	 85.7559 	 
H 	 52.692 	 2.2976 	 87.3928 	 
H 	 46.1001 	 5.77564 	 90.8201 	 
H 	 48.0698 	 -1.90722 	 90.4417 	 
*
