! wB97X-D3 SP def2-SVP
%pal
nprocs 16
end

* xyz 0 1
S 	 21.1477 	 3.11954 	 79.5436 	 
C 	 22.3463 	 2.49217 	 80.5402 	 
C 	 22.7074 	 3.3779 	 81.5355 	 
C 	 21.9187 	 4.54269 	 81.5556 	 
C 	 20.9557 	 4.57099 	 80.6311 	 
H 	 21.997 	 5.28404 	 82.3147 	 
C 	 23.8259 	 3.0728 	 82.6087 	 
H 	 24.5085 	 3.85413 	 82.6797 	 
H 	 24.5093 	 2.30837 	 82.2273 	 
C 	 23.2641 	 2.6071 	 83.9686 	 
H 	 22.8823 	 3.46845 	 84.5002 	 
H 	 22.5064 	 1.90645 	 83.7822 	 
C 	 24.3654 	 1.97682 	 84.8333 	 
H 	 25.2356 	 2.60342 	 84.8788 	 
H 	 24.0319 	 1.89805 	 85.8815 	 
H 	 24.6102 	 0.994882 	 84.5545 	 
S 	 19.9695 	 6.16214 	 78.6761 	 
C 	 19.057 	 7.59781 	 78.9721 	 
C 	 18.7804 	 7.72357 	 80.3093 	 
C 	 19.3876 	 6.62643 	 81.0608 	 
C 	 20.0598 	 5.69107 	 80.3003 	 
H 	 18.3731 	 8.59529 	 80.7771 	 
C 	 19.2654 	 6.6221 	 82.5596 	 
H 	 18.7699 	 7.48965 	 82.8617 	 
H 	 20.2339 	 6.68797 	 83.0258 	 
C 	 18.635 	 5.29983 	 83.1251 	 
H 	 19.2937 	 4.53905 	 82.7762 	 
H 	 17.6588 	 5.14988 	 82.6697 	 
C 	 18.5103 	 5.24674 	 84.6859 	 
H 	 17.8159 	 5.99143 	 85.0485 	 
H 	 19.464 	 5.52207 	 85.1261 	 
H 	 18.1138 	 4.23713 	 85.0616 	 
H 	 22.7439 	 1.50009 	 80.3997 	 
H 	 18.6576 	 8.2744 	 78.2299 	 
*
