! wB97X-D3 SP def2-SVP
%pal
nprocs 16
end

* xyz 0 1
S 	 -34.6143 	 55.4631 	 107.113 	 
C 	 -34.8648 	 57.1635 	 106.668 	 
C 	 -33.8372 	 57.6095 	 105.837 	 
C 	 -32.7964 	 56.6488 	 105.65 	 
C 	 -33.0936 	 55.3818 	 106.301 	 
H 	 -31.9731 	 56.619 	 104.92 	 
C 	 -33.6459 	 59.051 	 105.305 	 
H 	 -32.8691 	 59.5703 	 105.76 	 
H 	 -34.6083 	 59.4747 	 105.626 	 
C 	 -33.6221 	 59.177 	 103.768 	 
H 	 -32.8927 	 58.4633 	 103.399 	 
H 	 -34.5391 	 58.765 	 103.443 	 
C 	 -33.402 	 60.57 	 103.193 	 
H 	 -33.974 	 61.4044 	 103.585 	 
H 	 -32.4009 	 60.9491 	 103.289 	 
H 	 -33.3814 	 60.5602 	 102.136 	 
S 	 -32.9428 	 52.5677 	 106.309 	 
C 	 -31.4038 	 51.7526 	 106.302 	 
C 	 -30.4412 	 52.6753 	 106.671 	 
C 	 -30.8797 	 54.062 	 106.572 	 
C 	 -32.2617 	 54.198 	 106.396 	 
H 	 -29.5001 	 52.2343 	 106.925 	 
C 	 -29.8785 	 55.1821 	 106.715 	 
H 	 -30.0083 	 55.9689 	 105.979 	 
H 	 -28.9332 	 54.8073 	 106.44 	 
C 	 -29.8766 	 55.7583 	 108.105 	 
H 	 -29.6464 	 54.9497 	 108.87 	 
H 	 -30.8362 	 56.2424 	 108.388 	 
C 	 -28.775 	 56.7999 	 108.33 	 
H 	 -27.7592 	 56.4216 	 108.386 	 
H 	 -29.044 	 57.3411 	 109.197 	 
H 	 -28.8904 	 57.5579 	 107.503 	 
H 	 -35.6639 	 57.7144 	 107.093 	 
H 	 -31.1931 	 50.7276 	 106.102 	 
*
