! wB97X-D3 SP def2-SVP
%pal
nprocs 16
end

* xyz 0 1
S 	 -34.2155 	 57.932 	 108.279 	 
C 	 -32.494 	 57.3655 	 107.961 	 
C 	 -32.1344 	 56.4318 	 108.926 	 
C 	 -33.0607 	 56.4059 	 110.007 	 
C 	 -34.2889 	 57.044 	 109.767 	 
H 	 -33.0456 	 55.8251 	 110.925 	 
C 	 -30.8257 	 55.7016 	 108.95 	 
H 	 -30.4059 	 55.9473 	 107.971 	 
H 	 -31.0504 	 54.6179 	 108.835 	 
C 	 -29.8787 	 55.9223 	 110.115 	 
H 	 -29.9554 	 56.9535 	 110.327 	 
H 	 -30.1802 	 55.2911 	 110.95 	 
C 	 -28.4132 	 55.5558 	 109.778 	 
H 	 -28.0258 	 56.1779 	 108.997 	 
H 	 -27.8692 	 55.6899 	 110.677 	 
H 	 -28.2378 	 54.531 	 109.572 	 
S 	 -36.0151 	 58.6841 	 111.004 	 
C 	 -37.0302 	 58.1427 	 112.294 	 
C 	 -36.8602 	 56.7915 	 112.462 	 
C 	 -36.0135 	 56.1709 	 111.533 	 
C 	 -35.3854 	 57.1232 	 110.722 	 
H 	 -37.3294 	 56.23 	 113.214 	 
C 	 -35.7333 	 54.6692 	 111.593 	 
H 	 -36.5221 	 54.0954 	 112.13 	 
H 	 -34.837 	 54.4533 	 112.171 	 
C 	 -35.4489 	 53.8606 	 110.278 	 
H 	 -34.6876 	 54.3988 	 109.733 	 
H 	 -36.3458 	 53.8951 	 109.707 	 
C 	 -35.0643 	 52.3697 	 110.449 	 
H 	 -35.1321 	 51.7117 	 109.537 	 
H 	 -35.7591 	 51.9205 	 111.21 	 
H 	 -34.0709 	 52.2879 	 110.747 	 
H 	 -31.7799 	 57.6535 	 107.158 	 
H 	 -37.7871 	 58.7077 	 112.866 	 
*
