! wB97X-D3 SP def2-SVP
%pal
nprocs 16
end

* xyz 0 1
S 	 -85.33 	 50.8727 	 133.83 	 
C 	 -85.3753 	 49.1263 	 134.1 	 
C 	 -85.9128 	 48.4395 	 132.988 	 
C 	 -86.5693 	 49.4427 	 132.122 	 
C 	 -86.4944 	 50.795 	 132.528 	 
H 	 -87.169 	 49.3911 	 131.266 	 
C 	 -86.1271 	 46.9679 	 132.905 	 
H 	 -86.7441 	 46.7936 	 132.013 	 
H 	 -86.7594 	 46.6367 	 133.704 	 
C 	 -84.9492 	 46.0254 	 133.086 	 
H 	 -84.2791 	 46.4587 	 133.888 	 
H 	 -85.2954 	 45.0052 	 133.371 	 
C 	 -84.1363 	 46.0037 	 131.792 	 
H 	 -84.6615 	 45.7407 	 130.857 	 
H 	 -83.6295 	 46.9453 	 131.686 	 
H 	 -83.2739 	 45.2961 	 131.873 	 
S 	 -86.3335 	 53.1478 	 130.947 	 
C 	 -87.8206 	 53.7084 	 130.253 	 
C 	 -88.9254 	 53.0666 	 130.692 	 
C 	 -88.6194 	 51.9422 	 131.58 	 
C 	 -87.2158 	 51.8742 	 131.83 	 
H 	 -89.8589 	 53.4074 	 130.343 	 
C 	 -89.6874 	 50.9802 	 132.181 	 
H 	 -89.2065 	 50.1628 	 132.782 	 
H 	 -90.0588 	 50.4595 	 131.322 	 
C 	 -90.7796 	 51.729 	 132.913 	 
H 	 -91.316 	 52.4168 	 132.282 	 
H 	 -90.3933 	 52.2533 	 133.79 	 
C 	 -91.8937 	 50.8304 	 133.347 	 
H 	 -91.6343 	 49.9658 	 133.923 	 
H 	 -92.4322 	 50.34 	 132.518 	 
H 	 -92.5049 	 51.4331 	 134.016 	 
H 	 -84.9232 	 48.6099 	 134.946 	 
H 	 -87.8534 	 54.5841 	 129.646 	 
*
