! wB97X-D3 SP def2-SVP
%pal
nprocs 16
end

* xyz 0 1
S 	 8.58538 	 23.138 	 67.1339 	 
C 	 7.30114 	 23.0214 	 65.9373 	 
C 	 6.9874 	 24.2198 	 65.3131 	 
C 	 7.85063 	 25.2117 	 65.82 	 
C 	 8.77094 	 24.8364 	 66.7827 	 
H 	 7.84813 	 26.262 	 65.5468 	 
C 	 5.80788 	 24.4749 	 64.3598 	 
H 	 5.3909 	 23.571 	 64.1394 	 
H 	 6.24127 	 24.8165 	 63.4179 	 
C 	 4.78613 	 25.4206 	 65.0869 	 
H 	 3.79493 	 25.2485 	 64.6737 	 
H 	 4.66509 	 25.2548 	 66.1238 	 
C 	 4.98498 	 26.9385 	 64.8765 	 
H 	 4.48872 	 27.2776 	 63.9219 	 
H 	 4.81292 	 27.6003 	 65.7635 	 
H 	 6.06823 	 27.0532 	 64.7507 	 
S 	 9.96223 	 25.5104 	 69.1392 	 
C 	 11.1499 	 26.7424 	 69.2133 	 
C 	 11.576 	 27.1168 	 67.9685 	 
C 	 10.841 	 26.485 	 66.8602 	 
C 	 9.74906 	 25.7354 	 67.4141 	 
H 	 12.3082 	 27.9221 	 67.9365 	 
C 	 11.1848 	 26.7748 	 65.41 	 
H 	 10.3111 	 26.4323 	 64.897 	 
H 	 11.9726 	 26.076 	 65.2325 	 
C 	 11.6769 	 28.1543 	 65.0338 	 
H 	 11.856 	 28.1186 	 64.0212 	 
H 	 12.6292 	 28.3927 	 65.4928 	 
C 	 10.6001 	 29.305 	 65.2757 	 
H 	 9.53371 	 28.9592 	 65.1682 	 
H 	 10.7664 	 30.1398 	 64.6299 	 
H 	 10.5669 	 29.6842 	 66.2595 	 
H 	 6.84634 	 22.0352 	 65.7312 	 
H 	 11.5709 	 27.1274 	 70.1168 	 
*
