! wB97X-D3 SP def2-SVP
%pal
nprocs 16
end

* xyz 0 1
S 	 -3.57936 	 27.4924 	 56.1503 	 
C 	 -2.55264 	 26.1545 	 56.4762 	 
C 	 -2.22363 	 25.3784 	 55.4286 	 
C 	 -2.67995 	 25.9824 	 54.2064 	 
C 	 -3.40849 	 27.1856 	 54.4217 	 
H 	 -2.60024 	 25.6432 	 53.2417 	 
C 	 -1.33001 	 24.127 	 55.4997 	 
H 	 -1.86101 	 23.1651 	 55.7503 	 
H 	 -0.753702 	 24.2178 	 56.4349 	 
C 	 -0.353099 	 23.7687 	 54.3932 	 
H 	 0.0484498 	 22.852 	 54.8278 	 
H 	 -0.913371 	 23.5467 	 53.3907 	 
C 	 0.804865 	 24.8234 	 54.2782 	 
H 	 1.68833 	 24.4552 	 53.6258 	 
H 	 0.392919 	 25.7777 	 53.9349 	 
H 	 1.3023 	 25.0716 	 55.2118 	 
S 	 -2.91597 	 28.2049 	 51.8793 	 
C 	 -3.8193 	 29.5881 	 51.3032 	 
C 	 -4.87756 	 29.9002 	 52.0877 	 
C 	 -4.89666 	 29.0774 	 53.3163 	 
C 	 -3.96066 	 28.0844 	 53.3517 	 
H 	 -5.41265 	 30.8148 	 51.8354 	 
C 	 -5.8791 	 29.4801 	 54.3315 	 
H 	 -5.51668 	 30.2371 	 55.0271 	 
H 	 -5.93488 	 28.6506 	 55.0969 	 
C 	 -7.30532 	 29.9223 	 53.9345 	 
H 	 -7.23693 	 30.8822 	 53.4296 	 
H 	 -7.85201 	 30.0356 	 54.844 	 
C 	 -7.97289 	 28.8653 	 53.0493 	 
H 	 -8.86251 	 29.3733 	 52.701 	 
H 	 -8.15619 	 28.0107 	 53.6938 	 
H 	 -7.37005 	 28.4893 	 52.2678 	 
H 	 -2.38857 	 25.9458 	 57.5088 	 
H 	 -3.51506 	 30.1855 	 50.4615 	 
*
