! wB97X-D3 SP def2-SVP
%pal
nprocs 16
end

* xyz 0 1
S 	 58.3352 	 -7.09446 	 86.8493 	 
C 	 58.3625 	 -5.45018 	 87.302 	 
C 	 58.2643 	 -4.56292 	 86.2665 	 
C 	 58.1721 	 -5.29451 	 85.0456 	 
C 	 58.1571 	 -6.68548 	 85.1979 	 
H 	 57.9673 	 -4.8411 	 84.1205 	 
C 	 57.9856 	 -3.03721 	 86.3605 	 
H 	 58.8027 	 -2.5897 	 85.7038 	 
H 	 58.2603 	 -2.88923 	 87.4009 	 
C 	 56.6136 	 -2.3739 	 86.0649 	 
H 	 56.724 	 -1.32933 	 86.0949 	 
H 	 56.0786 	 -2.65656 	 85.1162 	 
C 	 55.591 	 -2.86826 	 87.1312 	 
H 	 54.5675 	 -2.51367 	 86.9631 	 
H 	 55.521 	 -3.96264 	 87.1598 	 
H 	 55.8847 	 -2.53969 	 88.1419 	 
S 	 56.7213 	 -8.86587 	 84.4227 	 
C 	 57.1507 	 -9.67239 	 82.89 	 
C 	 58.1505 	 -8.99569 	 82.2277 	 
C 	 58.5481 	 -7.83102 	 82.9279 	 
C 	 57.9774 	 -7.70632 	 84.1419 	 
H 	 58.3777 	 -9.35153 	 81.228 	 
C 	 59.4737 	 -6.93983 	 82.2607 	 
H 	 59.1256 	 -5.88945 	 82.3809 	 
H 	 59.4095 	 -7.01927 	 81.0966 	 
C 	 60.9238 	 -7.00306 	 82.8948 	 
H 	 61.4474 	 -7.83166 	 82.4844 	 
H 	 60.8613 	 -7.10198 	 83.9873 	 
C 	 61.6841 	 -5.72587 	 82.6322 	 
H 	 62.6686 	 -5.84736 	 83.1167 	 
H 	 61.1571 	 -4.9229 	 83.1486 	 
H 	 61.952 	 -5.49871 	 81.6461 	 
H 	 58.443 	 -5.12219 	 88.3248 	 
H 	 56.5419 	 -10.5271 	 82.4498 	 
*
