! wB97X-D3 SP def2-SVP
%pal
nprocs 16
end

* xyz 0 1
S 	 33.3228 	 -0.252217 	 77.2184 	 
C 	 33.4774 	 -1.63431 	 76.2123 	 
C 	 33.5607 	 -2.81462 	 76.9915 	 
C 	 33.304 	 -2.52137 	 78.3627 	 
C 	 33.148 	 -1.13282 	 78.6394 	 
H 	 33.3557 	 -3.28412 	 79.1899 	 
C 	 33.877 	 -4.25147 	 76.5422 	 
H 	 34.818 	 -4.59549 	 76.9626 	 
H 	 34.1122 	 -4.01311 	 75.4551 	 
C 	 32.8234 	 -5.45951 	 76.723 	 
H 	 31.8312 	 -5.28097 	 76.3206 	 
H 	 33.2094 	 -6.3507 	 76.0782 	 
C 	 32.5681 	 -5.99881 	 78.154 	 
H 	 33.3509 	 -6.54764 	 78.651 	 
H 	 32.1838 	 -5.21605 	 78.8392 	 
H 	 31.6742 	 -6.64685 	 78.0588 	 
S 	 31.9413 	 0.764353 	 80.2836 	 
C 	 32.3738 	 0.753004 	 81.9976 	 
C 	 33.4539 	 -0.0861839 	 82.214 	 
C 	 33.905 	 -0.808689 	 81.072 	 
C 	 33.1647 	 -0.490473 	 79.9282 	 
H 	 33.9424 	 -0.17147 	 83.2184 	 
C 	 34.9779 	 -1.91069 	 81.1355 	 
H 	 35.3255 	 -2.0968 	 80.1236 	 
H 	 34.7011 	 -2.95229 	 81.4395 	 
C 	 36.2002 	 -1.61941 	 81.9592 	 
H 	 35.8049 	 -1.39785 	 82.9576 	 
H 	 36.6344 	 -0.722147 	 81.5873 	 
C 	 37.3411 	 -2.68611 	 81.8361 	 
H 	 37.5342 	 -2.84022 	 80.7521 	 
H 	 37.0305 	 -3.70021 	 82.2643 	 
H 	 38.3207 	 -2.40966 	 82.2831 	 
H 	 33.7336 	 -1.64921 	 75.166 	 
H 	 31.8544 	 1.31661 	 82.7925 	 
*
