! wB97X-D3 SP def2-SVP
%pal
nprocs 16
end

* xyz 0 1
S 	 -10.9775 	 -10.1609 	 88.0381 	 
C 	 -12.0695 	 -11.4912 	 88.2295 	 
C 	 -13.1944 	 -11.2634 	 87.5187 	 
C 	 -13.1393 	 -10.0826 	 86.7608 	 
C 	 -11.9341 	 -9.37619 	 86.9001 	 
H 	 -13.7901 	 -9.64992 	 86.0385 	 
C 	 -14.3616 	 -12.1999 	 87.4122 	 
H 	 -15.2128 	 -11.5873 	 87.7516 	 
H 	 -14.2541 	 -12.9774 	 88.1328 	 
C 	 -14.5637 	 -12.6904 	 86.005 	 
H 	 -14.4806 	 -11.8938 	 85.2752 	 
H 	 -13.7729 	 -13.3112 	 85.7521 	 
C 	 -15.8974 	 -13.3917 	 85.8561 	 
H 	 -15.7695 	 -14.2014 	 86.5128 	 
H 	 -16.6667 	 -12.6373 	 86.1207 	 
H 	 -15.9653 	 -13.754 	 84.8705 	 
S 	 -10.4047 	 -8.43792 	 84.7224 	 
C 	 -10.4249 	 -6.79121 	 84.3075 	 
C 	 -11.3305 	 -6.10644 	 85.0806 	 
C 	 -12.0144 	 -6.95354 	 86.064 	 
C 	 -11.4874 	 -8.22048 	 86.1232 	 
H 	 -11.4098 	 -4.95327 	 84.9657 	 
C 	 -13.0641 	 -6.41863 	 86.9933 	 
H 	 -13.8878 	 -7.12709 	 87.0542 	 
H 	 -13.5252 	 -5.51149 	 86.5835 	 
C 	 -12.6925 	 -6.08508 	 88.4338 	 
H 	 -11.9333 	 -5.26605 	 88.388 	 
H 	 -12.2959 	 -6.96197 	 88.941 	 
C 	 -13.864 	 -5.58897 	 89.2744 	 
H 	 -13.4315 	 -5.42835 	 90.2814 	 
H 	 -14.6037 	 -6.38161 	 89.3736 	 
H 	 -14.4011 	 -4.67848 	 88.9528 	 
H 	 -11.9299 	 -12.1017 	 89.0491 	 
H 	 -9.81131 	 -6.37194 	 83.5925 	 
*
