! wB97X-D3 SP def2-SVP
%pal
nprocs 16
end

* xyz 0 1
S 	 -101.334 	 55.1045 	 115.101 	 
C 	 -99.9104 	 54.9853 	 114.113 	 
C 	 -98.8623 	 54.3266 	 114.716 	 
C 	 -99.2733 	 53.8099 	 116.015 	 
C 	 -100.467 	 54.3133 	 116.446 	 
H 	 -98.6734 	 53.1955 	 116.708 	 
C 	 -97.4886 	 54.2009 	 114.104 	 
H 	 -96.9535 	 55.1112 	 114.138 	 
H 	 -97.4232 	 54.1877 	 113.056 	 
C 	 -96.6285 	 53.0832 	 114.671 	 
H 	 -96.4696 	 53.1712 	 115.671 	 
H 	 -97.0766 	 52.0554 	 114.449 	 
C 	 -95.2342 	 53.0424 	 113.936 	 
H 	 -95.2494 	 53.0482 	 112.862 	 
H 	 -94.6109 	 53.8747 	 114.124 	 
H 	 -94.6558 	 52.1226 	 114.188 	 
S 	 -101.563 	 52.4188 	 118.048 	 
C 	 -101.902 	 52.6691 	 119.712 	 
C 	 -101.743 	 54.0159 	 119.96 	 
C 	 -101.219 	 54.8578 	 118.866 	 
C 	 -100.996 	 54.0382 	 117.745 	 
H 	 -102.068 	 54.4149 	 120.947 	 
C 	 -100.957 	 56.3277 	 118.842 	 
H 	 -101.679 	 56.9384 	 119.44 	 
H 	 -101.024 	 56.7458 	 117.802 	 
C 	 -99.5213 	 56.7654 	 119.204 	 
H 	 -99.4144 	 56.3786 	 120.163 	 
H 	 -99.4207 	 57.8652 	 119.469 	 
C 	 -98.3773 	 56.2811 	 118.287 	 
H 	 -98.6093 	 56.6277 	 117.301 	 
H 	 -98.1718 	 55.1853 	 118.257 	 
H 	 -97.4845 	 56.7572 	 118.749 	 
H 	 -99.818 	 55.4704 	 113.197 	 
H 	 -102.454 	 52.0312 	 120.372 	 
*
