! wB97X-D3 SP def2-SVP
%pal
nprocs 16
end

* xyz 0 1
S 	 -7.7991 	 33.3282 	 54.3172 	 
C 	 -6.14681 	 33.3433 	 54.809 	 
C 	 -5.35545 	 34.2586 	 54.0908 	 
C 	 -6.09665 	 34.8726 	 53.0476 	 
C 	 -7.42387 	 34.6078 	 53.0837 	 
H 	 -5.6701 	 35.4568 	 52.1968 	 
C 	 -3.86891 	 34.3958 	 54.3318 	 
H 	 -3.39129 	 33.9453 	 53.4666 	 
H 	 -3.60134 	 33.7788 	 55.2764 	 
C 	 -3.25275 	 35.8155 	 54.4017 	 
H 	 -2.22603 	 35.7847 	 54.6392 	 
H 	 -3.36702 	 36.3075 	 53.407 	 
C 	 -3.77144 	 36.7303 	 55.4894 	 
H 	 -4.76719 	 36.8903 	 55.061 	 
H 	 -3.94817 	 36.3727 	 56.5206 	 
H 	 -3.16129 	 37.5339 	 55.3802 	 
S 	 -9.67924 	 36.1308 	 52.8957 	 
C 	 -10.1201 	 36.7574 	 51.2711 	 
C 	 -9.18431 	 36.4362 	 50.333 	 
C 	 -8.23388 	 35.4593 	 50.8562 	 
C 	 -8.36702 	 35.1878 	 52.1726 	 
H 	 -9.23099 	 36.9732 	 49.4383 	 
C 	 -7.32823 	 34.7569 	 49.8827 	 
H 	 -7.83249 	 34.6716 	 48.9826 	 
H 	 -7.06411 	 33.7425 	 50.2137 	 
C 	 -6.00899 	 35.3995 	 49.425 	 
H 	 -5.25067 	 35.7088 	 50.1929 	 
H 	 -6.3855 	 36.2721 	 48.9856 	 
C 	 -5.38047 	 34.602 	 48.3157 	 
H 	 -4.89098 	 33.7535 	 48.742 	 
H 	 -4.70419 	 35.3744 	 47.9552 	 
H 	 -5.92953 	 34.2501 	 47.4653 	 
H 	 -5.80798 	 32.8111 	 55.6588 	 
H 	 -10.9748 	 37.437 	 51.1496 	 
*
