! wB97X-D3 SP def2-SVP
%pal
nprocs 16
end

* xyz 0 1
S 	 -14.8013 	 40.2806 	 32.5058 	 
C 	 -15.8873 	 39.0951 	 33.2202 	 
C 	 -16.3222 	 38.1641 	 32.2769 	 
C 	 -15.8108 	 38.466 	 30.966 	 
C 	 -14.9856 	 39.582 	 30.9087 	 
H 	 -16.0943 	 38.0465 	 30.0193 	 
C 	 -17.0959 	 36.9333 	 32.5987 	 
H 	 -16.4092 	 36.1075 	 32.7929 	 
H 	 -17.685 	 36.6687 	 31.6673 	 
C 	 -18.1226 	 37.0073 	 33.7877 	 
H 	 -18.5828 	 36.0519 	 33.7524 	 
H 	 -17.657 	 37.1652 	 34.761 	 
C 	 -19.1479 	 38.0576 	 33.6509 	 
H 	 -19.6077 	 37.8632 	 32.7001 	 
H 	 -19.9868 	 37.9644 	 34.3377 	 
H 	 -18.8605 	 39.1362 	 33.7245 	 
S 	 -13.5544 	 38.8487 	 28.7355 	 
C 	 -13.0215 	 39.9748 	 27.5823 	 
C 	 -13.2795 	 41.2693 	 27.9696 	 
C 	 -13.968 	 41.3094 	 29.2181 	 
C 	 -14.4083 	 40.0586 	 29.6842 	 
H 	 -12.8535 	 42.0869 	 27.385 	 
C 	 -14.4255 	 42.6298 	 29.8275 	 
H 	 -13.6399 	 43.3184 	 29.434 	 
H 	 -14.4268 	 42.5111 	 30.9449 	 
C 	 -15.8492 	 43.1081 	 29.5349 	 
H 	 -16.0459 	 43.9139 	 30.292 	 
H 	 -16.5402 	 42.3034 	 29.7818 	 
C 	 -16.1474 	 43.5761 	 28.1191 	 
H 	 -15.6362 	 44.5433 	 27.911 	 
H 	 -17.2524 	 43.7666 	 28.1349 	 
H 	 -15.9064 	 42.8203 	 27.342 	 
H 	 -15.9339 	 39.0551 	 34.2717 	 
H 	 -12.4178 	 39.7774 	 26.7419 	 
*
