! wB97X-D3 SP def2-SVP
%pal
nprocs 16
end

* xyz 0 1
S 	 -54.3083 	 32.7922 	 100.206 	 
C 	 -55.6136 	 32.0214 	 99.464 	 
C 	 -55.2628 	 31.2929 	 98.3655 	 
C 	 -53.833 	 31.3991 	 98.0523 	 
C 	 -53.1868 	 32.116 	 99.0605 	 
H 	 -53.3388 	 30.8659 	 97.2574 	 
C 	 -56.164 	 30.4361 	 97.519 	 
H 	 -57.2441 	 30.457 	 97.8872 	 
H 	 -55.7837 	 29.4198 	 97.4832 	 
C 	 -56.2707 	 31.0199 	 96.1665 	 
H 	 -56.3249 	 32.0687 	 96.2995 	 
H 	 -55.3221 	 30.8712 	 95.6847 	 
C 	 -57.4022 	 30.4423 	 95.3351 	 
H 	 -57.1283 	 30.6934 	 94.2518 	 
H 	 -57.5039 	 29.4165 	 95.4479 	 
H 	 -58.4333 	 30.8321 	 95.6433 	 
S 	 -50.8005 	 31.887 	 100.543 	 
C 	 -49.4475 	 32.6514 	 99.9626 	 
C 	 -49.5462 	 33.1033 	 98.6552 	 
C 	 -50.8681 	 32.9096 	 98.172 	 
C 	 -51.7042 	 32.2739 	 99.0879 	 
H 	 -48.692 	 33.464 	 98.1119 	 
C 	 -51.2905 	 33.4629 	 96.8392 	 
H 	 -50.6868 	 34.3098 	 96.5085 	 
H 	 -52.3884 	 33.9163 	 96.8743 	 
C 	 -51.1564 	 32.4373 	 95.678 	 
H 	 -52.032 	 31.7959 	 95.5252 	 
H 	 -50.3075 	 31.8441 	 95.8611 	 
C 	 -51.0864 	 33.0952 	 94.3158 	 
H 	 -50.1381 	 33.6506 	 94.1487 	 
H 	 -51.9226 	 33.7085 	 94.1461 	 
H 	 -50.9932 	 32.2617 	 93.5959 	 
H 	 -56.5638 	 32.1327 	 99.9502 	 
H 	 -48.4796 	 32.6227 	 100.499 	 
*
