! wB97X-D3 SP def2-SVP
%pal
nprocs 16
end

* xyz 0 1
S 	 41.0322 	 15.3302 	 80.8162 	 
C 	 39.6275 	 16.0569 	 81.4068 	 
C 	 39.2801 	 17.2192 	 80.7208 	 
C 	 40.3313 	 17.5234 	 79.7967 	 
C 	 41.1889 	 16.4812 	 79.565 	 
H 	 40.366 	 18.4823 	 79.306 	 
C 	 38.1642 	 18.111 	 80.9976 	 
H 	 38.6077 	 19.1849 	 81.1106 	 
H 	 37.7025 	 17.9743 	 81.977 	 
C 	 36.9892 	 18.1962 	 79.9615 	 
H 	 37.3161 	 18.2315 	 78.9363 	 
H 	 36.4879 	 17.2717 	 80.1027 	 
C 	 36.0003 	 19.3593 	 80.2555 	 
H 	 36.6423 	 20.0995 	 80.7456 	 
H 	 35.5436 	 19.7986 	 79.4034 	 
H 	 35.261 	 18.9773 	 80.8506 	 
S 	 43.8681 	 15.6824 	 79.0035 	 
C 	 44.5493 	 16.1395 	 77.4424 	 
C 	 43.5782 	 16.7152 	 76.5973 	 
C 	 42.3403 	 16.8115 	 77.2634 	 
C 	 42.3162 	 16.4349 	 78.6105 	 
H 	 43.7165 	 17.0284 	 75.6004 	 
C 	 41.1651 	 17.4558 	 76.553 	 
H 	 41.426 	 17.4643 	 75.4773 	 
H 	 41.0973 	 18.4888 	 76.9454 	 
C 	 39.7588 	 16.8651 	 76.8088 	 
H 	 38.9663 	 17.6054 	 76.5494 	 
H 	 39.5266 	 16.633 	 77.783 	 
C 	 39.262 	 15.6563 	 75.9726 	 
H 	 38.2454 	 15.2648 	 76.0574 	 
H 	 40.0557 	 14.8937 	 76.0622 	 
H 	 39.3773 	 16.0049 	 74.959 	 
H 	 38.9719 	 15.6857 	 82.1593 	 
H 	 45.5478 	 15.9468 	 77.1103 	 
*
