! wB97X-D3 SP def2-SVP
%pal
nprocs 16
end

* xyz 0 1
S 	 -69.2637 	 38.3447 	 133.574 	 
C 	 -69.0568 	 39.1627 	 132.055 	 
C 	 -67.7951 	 38.7252 	 131.438 	 
C 	 -67.1097 	 37.802 	 132.252 	 
C 	 -67.6661 	 37.6274 	 133.497 	 
H 	 -66.038 	 37.5624 	 132.098 	 
C 	 -67.1716 	 39.1735 	 130.152 	 
H 	 -67.7188 	 38.7222 	 129.325 	 
H 	 -66.1482 	 38.8179 	 130.077 	 
C 	 -66.9512 	 40.6942 	 129.953 	 
H 	 -66.4705 	 40.9186 	 128.97 	 
H 	 -67.8678 	 41.2622 	 130 	 
C 	 -66.1092 	 41.2988 	 131.12 	 
H 	 -65.174 	 40.7115 	 131.19 	 
H 	 -65.9062 	 42.41 	 131.058 	 
H 	 -66.627 	 41.1213 	 132.082 	 
S 	 -66.6921 	 38.1689 	 135.96 	 
C 	 -66.0974 	 36.8841 	 136.951 	 
C 	 -66.1863 	 35.6383 	 136.341 	 
C 	 -66.6139 	 35.8339 	 135.005 	 
C 	 -67.0607 	 37.0976 	 134.71 	 
H 	 -65.9227 	 34.7509 	 136.878 	 
C 	 -66.6197 	 34.5771 	 134.123 	 
H 	 -65.6219 	 34.2554 	 134.001 	 
H 	 -66.9746 	 34.7243 	 133.127 	 
C 	 -67.3071 	 33.2429 	 134.457 	 
H 	 -66.9013 	 32.7792 	 135.449 	 
H 	 -67.2111 	 32.4133 	 133.759 	 
C 	 -68.8448 	 33.3657 	 134.502 	 
H 	 -69.3212 	 32.9032 	 135.321 	 
H 	 -69.303 	 32.8288 	 133.668 	 
H 	 -69.2209 	 34.3815 	 134.512 	 
H 	 -69.7852 	 39.7858 	 131.533 	 
H 	 -65.4662 	 37.0881 	 137.855 	 
*
