! wB97X-D3 SP def2-SVP
%pal
nprocs 16
end

* xyz 0 1
S 	 -45.0142 	 36.1974 	 78.2038 	 
C 	 -44.2392 	 37.6761 	 78.4961 	 
C 	 -43.6191 	 37.7369 	 79.7507 	 
C 	 -43.8747 	 36.4944 	 80.4598 	 
C 	 -44.5599 	 35.5495 	 79.7543 	 
H 	 -43.5889 	 36.2782 	 81.4439 	 
C 	 -42.9833 	 38.9439 	 80.4438 	 
H 	 -43.8079 	 39.2162 	 81.1567 	 
H 	 -42.8452 	 39.6978 	 79.6929 	 
C 	 -41.6274 	 38.6109 	 81.1397 	 
H 	 -41.5725 	 37.6004 	 81.4674 	 
H 	 -40.8715 	 38.6671 	 80.3183 	 
C 	 -41.1446 	 39.6564 	 82.0947 	 
H 	 -40.2139 	 39.332 	 82.5675 	 
H 	 -41.0086 	 40.6223 	 81.6437 	 
H 	 -41.9146 	 39.6099 	 82.861 	 
S 	 -45.0149 	 32.9751 	 78.8963 	 
C 	 -45.314 	 31.6791 	 80.1148 	 
C 	 -45.4627 	 32.224 	 81.3638 	 
C 	 -45.3098 	 33.6757 	 81.3987 	 
C 	 -44.8431 	 34.1737 	 80.1689 	 
H 	 -45.7901 	 31.5603 	 82.1214 	 
C 	 -45.3505 	 34.496 	 82.6313 	 
H 	 -46.2903 	 34.218 	 83.2455 	 
H 	 -45.4982 	 35.5451 	 82.4433 	 
C 	 -44.1377 	 34.2966 	 83.6057 	 
H 	 -43.3146 	 34.904 	 83.366 	 
H 	 -43.7864 	 33.2639 	 83.5893 	 
C 	 -44.3285 	 34.5418 	 85.0604 	 
H 	 -45.0217 	 33.7947 	 85.4853 	 
H 	 -44.8104 	 35.5154 	 85.2253 	 
H 	 -43.4356 	 34.3903 	 85.6964 	 
H 	 -44.1044 	 38.5145 	 77.7664 	 
H 	 -45.2264 	 30.6089 	 79.8969 	 
*
