! wB97X-D3 SP def2-SVP
%pal
nprocs 16
end

* xyz 0 1
S 	 41.1068 	 13.2651 	 82.2777 	 
C 	 42.4979 	 14.3869 	 82.0508 	 
C 	 43.1183 	 14.119 	 80.8359 	 
C 	 42.468 	 13.1321 	 80.0092 	 
C 	 41.4784 	 12.4904 	 80.7657 	 
H 	 42.7507 	 12.8264 	 79.0244 	 
C 	 44.3244 	 14.858 	 80.3583 	 
H 	 44.9448 	 14.0737 	 79.8803 	 
H 	 44.7716 	 15.1536 	 81.2675 	 
C 	 44.0488 	 16.035 	 79.3654 	 
H 	 43.2188 	 16.426 	 79.9112 	 
H 	 44.884 	 16.7762 	 79.4515 	 
C 	 43.8793 	 15.7144 	 77.8708 	 
H 	 44.8554 	 15.3826 	 77.5686 	 
H 	 43.0632 	 14.9569 	 77.6565 	 
H 	 43.7567 	 16.6909 	 77.4055 	 
S 	 41.012 	 9.92334 	 81.6282 	 
C 	 40.1577 	 8.88431 	 80.5691 	 
C 	 39.9362 	 9.44881 	 79.2891 	 
C 	 40.3713 	 10.8261 	 79.1892 	 
C 	 40.8646 	 11.223 	 80.4358 	 
H 	 39.5525 	 8.79767 	 78.5106 	 
C 	 40.284 	 11.6078 	 77.9433 	 
H 	 40.4781 	 12.6426 	 78.0809 	 
H 	 39.2304 	 11.5765 	 77.5397 	 
C 	 41.1749 	 11.0378 	 76.8052 	 
H 	 40.9054 	 10.023 	 76.599 	 
H 	 42.2296 	 11.0893 	 77.12 	 
C 	 40.8363 	 11.6833 	 75.4919 	 
H 	 41.3608 	 11.1116 	 74.7415 	 
H 	 41.2639 	 12.6809 	 75.5196 	 
H 	 39.776 	 11.6278 	 75.1213 	 
H 	 42.8102 	 15.0916 	 82.8006 	 
H 	 39.891 	 7.85341 	 80.7783 	 
*
