! wB97X-D3 SP def2-SVP
%pal
nprocs 16
end

* xyz 0 1
S 	 46.4737 	 17.5403 	 81.8381 	 
C 	 45.9708 	 19.0971 	 81.3846 	 
C 	 46.9098 	 19.8457 	 80.6892 	 
C 	 48.1828 	 19.1088 	 80.5442 	 
C 	 48.116 	 17.9086 	 81.2443 	 
H 	 49.0799 	 19.2249 	 80.0049 	 
C 	 46.7405 	 21.1943 	 80.11 	 
H 	 45.734 	 21.5178 	 80.1862 	 
H 	 46.9878 	 21.1701 	 79.061 	 
C 	 47.5295 	 22.3388 	 80.7438 	 
H 	 48.5561 	 22.2209 	 80.3053 	 
H 	 47.0599 	 23.2224 	 80.2063 	 
C 	 47.3854 	 22.492 	 82.2664 	 
H 	 46.2548 	 22.508 	 82.4538 	 
H 	 47.8518 	 21.6549 	 82.866 	 
H 	 47.6699 	 23.4279 	 82.7454 	 
S 	 48.9985 	 15.49 	 80.4616 	 
C 	 50.5782 	 14.9079 	 80.9011 	 
C 	 51.2505 	 15.7878 	 81.7051 	 
C 	 50.4889 	 17.0273 	 81.9677 	 
C 	 49.2158 	 16.9912 	 81.3907 	 
H 	 52.2149 	 15.6008 	 82.0767 	 
C 	 50.947 	 18.0333 	 82.9559 	 
H 	 50.5275 	 18.9872 	 82.7017 	 
H 	 52.1017 	 18.036 	 82.8948 	 
C 	 50.5746 	 17.7371 	 84.4479 	 
H 	 51.4101 	 17.8847 	 85.136 	 
H 	 50.3693 	 16.7393 	 84.5741 	 
C 	 49.4088 	 18.5923 	 84.9058 	 
H 	 48.5087 	 18.4343 	 84.3566 	 
H 	 49.6163 	 19.6787 	 84.6514 	 
H 	 49.2284 	 18.4633 	 85.9864 	 
H 	 45.0111 	 19.4891 	 81.7189 	 
H 	 51.045 	 14.0024 	 80.556 	 
*
