! wB97X-D3 SP def2-SVP
%pal
nprocs 16
end

* xyz 0 1
S 	 42.8811 	 15.2336 	 86.756 	 
C 	 44.216 	 15.1981 	 85.6822 	 
C 	 43.8529 	 14.718 	 84.4477 	 
C 	 42.5133 	 14.2164 	 84.3846 	 
C 	 41.8258 	 14.5313 	 85.5217 	 
H 	 42.1285 	 13.7737 	 83.4181 	 
C 	 44.8144 	 14.5715 	 83.3251 	 
H 	 45.7085 	 14.939 	 83.8061 	 
H 	 44.5353 	 15.1655 	 82.4142 	 
C 	 45.1718 	 13.1373 	 82.8447 	 
H 	 45.4008 	 12.5905 	 83.7119 	 
H 	 44.254 	 12.8599 	 82.383 	 
C 	 46.2227 	 12.9566 	 81.7108 	 
H 	 46.3306 	 11.8579 	 81.5894 	 
H 	 45.9449 	 13.3836 	 80.8052 	 
H 	 47.1733 	 13.3469 	 81.9759 	 
S 	 39.4364 	 15.7154 	 85.4031 	 
C 	 37.9556 	 14.7622 	 85.5738 	 
C 	 38.2967 	 13.39 	 85.7506 	 
C 	 39.6546 	 13.1167 	 85.7397 	 
C 	 40.3884 	 14.3044 	 85.6379 	 
H 	 37.4714 	 12.733 	 85.9944 	 
C 	 40.2059 	 11.8376 	 85.9132 	 
H 	 40.971 	 11.7731 	 86.6561 	 
H 	 40.7305 	 11.7213 	 85.0072 	 
C 	 39.1522 	 10.6383 	 85.9252 	 
H 	 38.4351 	 10.6569 	 85.1221 	 
H 	 38.4621 	 10.704 	 86.7456 	 
C 	 39.6496 	 9.16512 	 85.9903 	 
H 	 38.7578 	 8.54222 	 86.1625 	 
H 	 40.3294 	 9.083 	 86.7831 	 
H 	 40.0654 	 9.06897 	 84.9752 	 
H 	 45.1589 	 15.6388 	 85.8824 	 
H 	 36.9549 	 15.1785 	 85.6811 	 
*
