! wB97X-D3 SP def2-SVP
%pal
nprocs 16
end

* xyz 0 1
S 	 -6.13751 	 40.182 	 34.6564 	 
C 	 -7.4537 	 40.2673 	 33.4961 	 
C 	 -7.29465 	 41.4395 	 32.6837 	 
C 	 -6.19215 	 42.323 	 33.105 	 
C 	 -5.52713 	 41.7443 	 34.1491 	 
H 	 -5.87813 	 43.3057 	 32.8109 	 
C 	 -8.09573 	 41.7736 	 31.4432 	 
H 	 -8.75584 	 42.601 	 31.6357 	 
H 	 -8.65097 	 40.8912 	 31.1511 	 
C 	 -7.231 	 42.1034 	 30.2191 	 
H 	 -6.55545 	 42.9299 	 30.3611 	 
H 	 -6.59403 	 41.2345 	 30.2096 	 
C 	 -8.08126 	 42.2726 	 28.9737 	 
H 	 -8.63071 	 43.2661 	 28.8725 	 
H 	 -7.43102 	 42.2865 	 28.0897 	 
H 	 -8.84836 	 41.4917 	 28.8764 	 
S 	 -5.0875 	 43.2043 	 36.3919 	 
C 	 -3.51032 	 43.8504 	 36.789 	 
C 	 -2.62773 	 43.568 	 35.6983 	 
C 	 -3.19948 	 42.8395 	 34.6557 	 
C 	 -4.52924 	 42.493 	 34.9028 	 
H 	 -1.57106 	 43.865 	 35.7218 	 
C 	 -2.36005 	 42.5521 	 33.3931 	 
H 	 -2.70697 	 41.5491 	 33.0193 	 
H 	 -1.3333 	 42.5165 	 33.7236 	 
C 	 -2.47621 	 43.568 	 32.2758 	 
H 	 -2.0429 	 44.5266 	 32.5189 	 
H 	 -3.54624 	 43.6122 	 32.0485 	 
C 	 -1.70159 	 43.1224 	 30.9735 	 
H 	 -0.642888 	 42.8303 	 31.1496 	 
H 	 -1.66762 	 43.8979 	 30.1778 	 
H 	 -2.26352 	 42.2526 	 30.5364 	 
H 	 -8.20152 	 39.4981 	 33.3889 	 
H 	 -3.19423 	 44.4542 	 37.5795 	 
*
