! wB97X-D3 SP def2-SVP
%pal
nprocs 16
end

* xyz 0 1
S 	 -30.9152 	 61.2572 	 112.499 	 
C 	 -29.5433 	 61.5104 	 111.394 	 
C 	 -29.9144 	 61.8725 	 110.139 	 
C 	 -31.3585 	 61.8614 	 110.046 	 
C 	 -32.0716 	 61.4218 	 111.173 	 
H 	 -31.9054 	 62.1689 	 109.199 	 
C 	 -28.935 	 62.208 	 109.007 	 
H 	 -29.3985 	 61.8225 	 108.072 	 
H 	 -28.06 	 61.5316 	 109.082 	 
C 	 -28.4826 	 63.6753 	 108.787 	 
H 	 -27.584 	 63.8642 	 109.424 	 
H 	 -27.9851 	 63.6744 	 107.866 	 
C 	 -29.5858 	 64.7454 	 108.763 	 
H 	 -30.3727 	 64.5547 	 107.994 	 
H 	 -30.1513 	 64.725 	 109.681 	 
H 	 -29.2223 	 65.7055 	 108.677 	 
S 	 -34.3359 	 62.798 	 112.039 	 
C 	 -35.8468 	 62.1639 	 111.454 	 
C 	 -35.7023 	 61.0693 	 110.635 	 
C 	 -34.338 	 60.6957 	 110.454 	 
C 	 -33.5081 	 61.4127 	 111.269 	 
H 	 -36.4694 	 60.5409 	 110.195 	 
C 	 -33.8502 	 59.5917 	 109.585 	 
H 	 -32.8335 	 59.8881 	 109.139 	 
H 	 -34.411 	 59.4934 	 108.707 	 
C 	 -33.561 	 58.3014 	 110.392 	 
H 	 -34.5374 	 57.7813 	 110.578 	 
H 	 -33.1797 	 58.5822 	 111.382 	 
C 	 -32.5938 	 57.3533 	 109.655 	 
H 	 -31.5537 	 57.6822 	 109.632 	 
H 	 -33.0504 	 57.1858 	 108.698 	 
H 	 -32.6402 	 56.3982 	 110.114 	 
H 	 -28.5109 	 61.4329 	 111.72 	 
H 	 -36.8186 	 62.7402 	 111.494 	 
*
