! wB97X-D3 SP def2-SVP
%pal
nprocs 16
end

* xyz 0 1
S 	 -66.7091 	 60.7221 	 123.547 	 
C 	 -65.891 	 60.4876 	 122.033 	 
C 	 -65.9078 	 59.1024 	 121.805 	 
C 	 -66.3047 	 58.3015 	 122.903 	 
C 	 -66.6321 	 59.0413 	 123.986 	 
H 	 -66.4751 	 57.1938 	 122.837 	 
C 	 -65.3759 	 58.444 	 120.48 	 
H 	 -65.2098 	 59.187 	 119.729 	 
H 	 -66.2405 	 57.8765 	 120.065 	 
C 	 -64.1069 	 57.5908 	 120.612 	 
H 	 -63.4069 	 58.3564 	 120.928 	 
H 	 -64.0782 	 56.8241 	 121.432 	 
C 	 -63.5871 	 57.0674 	 119.275 	 
H 	 -63.6246 	 57.8011 	 118.535 	 
H 	 -62.5733 	 56.7698 	 119.459 	 
H 	 -64.1375 	 56.1842 	 118.908 	 
S 	 -68.3179 	 59.5092 	 126.213 	 
C 	 -68.2778 	 58.4521 	 127.566 	 
C 	 -67.3506 	 57.4011 	 127.39 	 
C 	 -66.7044 	 57.4928 	 126.093 	 
C 	 -67.0612 	 58.6243 	 125.312 	 
H 	 -67.1196 	 56.7346 	 128.195 	 
C 	 -65.5076 	 56.5458 	 125.806 	 
H 	 -64.7202 	 56.8901 	 126.426 	 
H 	 -65.2849 	 56.6091 	 124.774 	 
C 	 -65.7272 	 55.0359 	 126.205 	 
H 	 -66.7152 	 54.704 	 125.761 	 
H 	 -65.9494 	 55.0786 	 127.237 	 
C 	 -64.5213 	 54.1953 	 125.85 	 
H 	 -64.8194 	 53.161 	 126.094 	 
H 	 -63.5805 	 54.4088 	 126.328 	 
H 	 -64.2247 	 54.287 	 124.815 	 
H 	 -65.6552 	 61.2685 	 121.32 	 
H 	 -68.9243 	 58.5621 	 128.413 	 
*
