! wB97X-D3 SP def2-SVP
%pal
nprocs 16
end

* xyz 0 1
S 	 -103.115 	 47.3264 	 122.096 	 
C 	 -103.506 	 48.0716 	 123.576 	 
C 	 -104.583 	 47.4548 	 124.15 	 
C 	 -105.083 	 46.3875 	 123.391 	 
C 	 -104.374 	 46.1045 	 122.204 	 
H 	 -105.903 	 45.7342 	 123.642 	 
C 	 -105.178 	 47.937 	 125.465 	 
H 	 -106.211 	 48.0424 	 125.35 	 
H 	 -104.838 	 48.8963 	 125.781 	 
C 	 -104.939 	 47.0675 	 126.719 	 
H 	 -105.562 	 47.5328 	 127.474 	 
H 	 -105.387 	 46.086 	 126.837 	 
C 	 -103.474 	 47.072 	 127.196 	 
H 	 -102.981 	 48.0852 	 127.123 	 
H 	 -103.341 	 46.7278 	 128.254 	 
H 	 -102.85 	 46.3844 	 126.625 	 
S 	 -106.103 	 44.3343 	 121.122 	 
C 	 -105.614 	 43.0559 	 120.019 	 
C 	 -104.204 	 43.2087 	 119.715 	 
C 	 -103.601 	 44.2533 	 120.536 	 
C 	 -104.487 	 44.9298 	 121.337 	 
H 	 -103.693 	 42.6486 	 118.97 	 
C 	 -102.126 	 44.5873 	 120.587 	 
H 	 -102.071 	 45.6702 	 120.395 	 
H 	 -101.726 	 44.2846 	 119.581 	 
C 	 -101.358 	 44.099 	 121.821 	 
H 	 -101.517 	 42.9899 	 121.851 	 
H 	 -101.782 	 44.5002 	 122.708 	 
C 	 -99.908 	 44.4453 	 121.715 	 
H 	 -99.4332 	 44.2867 	 122.675 	 
H 	 -99.7984 	 45.5019 	 121.661 	 
H 	 -99.4396 	 43.9334 	 120.88 	 
H 	 -102.943 	 48.7822 	 124.185 	 
H 	 -106.257 	 42.355 	 119.493 	 
*
