! wB97X-D3 SP def2-SVP
%pal
nprocs 16
end

* xyz 0 1
S 	 -12.3231 	 -8.79764 	 86.6775 	 
C 	 -13.1667 	 -9.77498 	 85.4899 	 
C 	 -12.7524 	 -11.0858 	 85.5201 	 
C 	 -11.6004 	 -11.2237 	 86.3992 	 
C 	 -11.2284 	 -10.069 	 87.0931 	 
H 	 -11.0771 	 -12.1034 	 86.5383 	 
C 	 -13.4937 	 -12.2531 	 84.8205 	 
H 	 -14.2211 	 -11.7495 	 84.1877 	 
H 	 -14.0518 	 -12.891 	 85.5263 	 
C 	 -12.7475 	 -13.1937 	 83.903 	 
H 	 -12.2185 	 -12.5886 	 83.1759 	 
H 	 -11.9213 	 -13.6788 	 84.4311 	 
C 	 -13.6629 	 -14.326 	 83.4294 	 
H 	 -13.1448 	 -14.9694 	 82.6644 	 
H 	 -13.9746 	 -14.9215 	 84.2954 	 
H 	 -14.6071 	 -14.0886 	 82.9395 	 
S 	 -10.4018 	 -8.69119 	 89.3265 	 
C 	 -8.70244 	 -8.87961 	 89.8326 	 
C 	 -8.2039 	 -10.0505 	 89.3052 	 
C 	 -8.95597 	 -10.6134 	 88.2336 	 
C 	 -10.1621 	 -9.91933 	 88.0755 	 
H 	 -7.19096 	 -10.2033 	 89.5999 	 
C 	 -8.3933 	 -11.6405 	 87.3188 	 
H 	 -9.10177 	 -12.5146 	 87.2374 	 
H 	 -7.52289 	 -11.9997 	 87.8386 	 
C 	 -7.70666 	 -11.1824 	 85.9903 	 
H 	 -8.38182 	 -10.7538 	 85.2623 	 
H 	 -7.33517 	 -12.1205 	 85.5537 	 
C 	 -6.48552 	 -10.2517 	 86.1933 	 
H 	 -6.72506 	 -9.3095 	 86.6503 	 
H 	 -6.15358 	 -9.93268 	 85.281 	 
H 	 -5.55793 	 -10.6593 	 86.7332 	 
H 	 -14.0464 	 -9.44286 	 84.8477 	 
H 	 -8.11435 	 -8.15312 	 90.4833 	 
*
