! wB97X-D3 SP def2-SVP
%pal
nprocs 16
end

* xyz 0 1
S 	 -6.4158 	 22.4849 	 51.0753 	 
C 	 -4.97335 	 22.1912 	 50.1924 	 
C 	 -3.85195 	 22.7145 	 50.7702 	 
C 	 -4.20409 	 23.4508 	 51.9703 	 
C 	 -5.53057 	 23.4259 	 52.2393 	 
H 	 -3.50222 	 23.922 	 52.6199 	 
C 	 -2.42885 	 22.695 	 50.2717 	 
H 	 -2.17231 	 23.7567 	 50.3053 	 
H 	 -2.50802 	 22.3889 	 49.225 	 
C 	 -1.38415 	 21.8314 	 51.0089 	 
H 	 -1.41151 	 21.9975 	 52.0955 	 
H 	 -1.59568 	 20.7241 	 50.783 	 
C 	 0.00698644 	 22.1257 	 50.6137 	 
H 	 0.8669 	 21.8692 	 51.3582 	 
H 	 0.221524 	 21.5203 	 49.6814 	 
H 	 0.0437624 	 23.2307 	 50.5277 	 
S 	 -7.0415 	 22.8184 	 54.5149 	 
C 	 -7.43682 	 24.1344 	 55.5895 	 
C 	 -7.0671 	 25.4572 	 55.0833 	 
C 	 -6.35665 	 25.3574 	 53.851 	 
C 	 -6.25611 	 24.0081 	 53.3889 	 
H 	 -7.23514 	 26.2678 	 55.775 	 
C 	 -5.63057 	 26.5814 	 53.2227 	 
H 	 -6.44714 	 27.1071 	 52.6378 	 
H 	 -4.90169 	 26.2635 	 52.4489 	 
C 	 -4.87893 	 27.5242 	 54.1464 	 
H 	 -5.46531 	 27.5382 	 55.0436 	 
H 	 -4.8627 	 28.5398 	 53.7192 	 
C 	 -3.45384 	 27.0514 	 54.4545 	 
H 	 -3.12652 	 27.2783 	 55.427 	 
H 	 -2.76361 	 27.4679 	 53.7374 	 
H 	 -3.32312 	 25.9554 	 54.5018 	 
H 	 -4.85369 	 21.6391 	 49.241 	 
H 	 -7.96582 	 24.0565 	 56.4741 	 
*
