! wB97X-D3 SP def2-SVP
%pal
nprocs 16
end

* xyz 0 1
S 	 -40.259 	 -1.9761 	 96.7283 	 
C 	 -39.9163 	 -3.40106 	 95.7409 	 
C 	 -39.8653 	 -4.5762 	 96.4648 	 
C 	 -40.1715 	 -4.27052 	 97.8507 	 
C 	 -40.2452 	 -2.90975 	 98.167 	 
H 	 -40.3891 	 -4.85623 	 98.6372 	 
C 	 -39.7768 	 -5.91871 	 95.84 	 
H 	 -39.5321 	 -6.63941 	 96.6409 	 
H 	 -38.8734 	 -5.86003 	 95.2136 	 
C 	 -40.9761 	 -6.4331 	 95.0513 	 
H 	 -41.9093 	 -6.30216 	 95.6294 	 
H 	 -41.0917 	 -5.79664 	 94.1104 	 
C 	 -40.7088 	 -7.89239 	 94.6857 	 
H 	 -39.7157 	 -8.17767 	 94.3571 	 
H 	 -40.9741 	 -8.48202 	 95.5192 	 
H 	 -41.3872 	 -8.10806 	 93.8567 	 
S 	 -41.767 	 -1.04354 	 99.6341 	 
C 	 -41.8154 	 -1.17414 	 101.369 	 
C 	 -40.849 	 -2.05149 	 101.814 	 
C 	 -40.1524 	 -2.71579 	 100.823 	 
C 	 -40.5754 	 -2.39233 	 99.5185 	 
H 	 -40.6727 	 -2.17609 	 102.858 	 
C 	 -39.1568 	 -3.8174 	 101.14 	 
H 	 -38.467 	 -3.28322 	 101.806 	 
H 	 -38.5701 	 -3.93537 	 100.275 	 
C 	 -39.7339 	 -5.121 	 101.688 	 
H 	 -40.1917 	 -5.64167 	 100.908 	 
H 	 -40.5585 	 -4.96021 	 102.401 	 
C 	 -38.726 	 -5.99191 	 102.399 	 
H 	 -39.1851 	 -6.74149 	 103.033 	 
H 	 -38.0961 	 -5.4315 	 103.045 	 
H 	 -38.0995 	 -6.55191 	 101.702 	 
H 	 -39.8592 	 -3.46812 	 94.6675 	 
H 	 -42.3147 	 -0.483807 	 102.092 	 
*
