! wB97X-D3 SP def2-SVP
%pal
nprocs 16
end

* xyz 0 1
S 	 -41.9899 	 49.3082 	 102.876 	 
C 	 -40.3482 	 49.1631 	 103.532 	 
C 	 -39.5327 	 50.169 	 102.986 	 
C 	 -40.3005 	 51.0331 	 102.169 	 
C 	 -41.6908 	 50.8117 	 102.109 	 
H 	 -39.9158 	 51.8542 	 101.581 	 
C 	 -38.05 	 50.3205 	 103.287 	 
H 	 -37.7612 	 49.7242 	 104.203 	 
H 	 -37.7898 	 51.4208 	 103.476 	 
C 	 -37.0316 	 49.7906 	 102.232 	 
H 	 -36.1255 	 49.474 	 102.732 	 
H 	 -37.5414 	 48.957 	 101.784 	 
C 	 -36.6124 	 50.7881 	 101.121 	 
H 	 -35.711 	 50.5031 	 100.524 	 
H 	 -37.3184 	 50.9847 	 100.384 	 
H 	 -36.2816 	 51.7381 	 101.571 	 
S 	 -43.1879 	 53.0907 	 102.012 	 
C 	 -43.9845 	 53.429 	 100.553 	 
C 	 -43.7391 	 52.5537 	 99.5262 	 
C 	 -42.8893 	 51.5062 	 99.947 	 
C 	 -42.578 	 51.6115 	 101.28 	 
H 	 -44.2368 	 52.7505 	 98.5521 	 
C 	 -42.5041 	 50.4239 	 99.0339 	 
H 	 -43.4159 	 49.9067 	 98.6515 	 
H 	 -41.9225 	 49.6675 	 99.6083 	 
C 	 -41.6025 	 50.9257 	 97.875 	 
H 	 -40.601 	 51.0849 	 98.2707 	 
H 	 -41.9967 	 51.8017 	 97.3436 	 
C 	 -41.378 	 49.6824 	 96.9678 	 
H 	 -40.7575 	 49.8742 	 96.0622 	 
H 	 -42.3487 	 49.272 	 96.7187 	 
H 	 -40.7295 	 48.9316 	 97.5286 	 
H 	 -40.0932 	 48.3767 	 104.25 	 
H 	 -44.647 	 54.3471 	 100.337 	 
*
