! wB97X-D3 SP def2-SVP
%pal
nprocs 16
end

* xyz 0 1
S 	 33.0237 	 4.74787 	 71.9638 	 
C 	 31.3238 	 5.28606 	 71.9669 	 
C 	 30.592 	 4.60383 	 72.9305 	 
C 	 31.3645 	 3.61761 	 73.6369 	 
C 	 32.7085 	 3.67176 	 73.341 	 
H 	 30.9178 	 2.86979 	 74.377 	 
C 	 29.0795 	 4.76175 	 73.1974 	 
H 	 28.6542 	 5.73191 	 72.8137 	 
H 	 29.0217 	 4.76073 	 74.2443 	 
C 	 28.1425 	 3.63805 	 72.575 	 
H 	 28.3275 	 2.5622 	 72.9846 	 
H 	 27.1933 	 3.96146 	 72.8909 	 
C 	 28.1634 	 3.58132 	 71.0468 	 
H 	 27.6156 	 2.67059 	 70.7942 	 
H 	 27.7464 	 4.43792 	 70.4671 	 
H 	 29.2551 	 3.47995 	 70.7896 	 
S 	 34.5923 	 1.85228 	 72.5647 	 
C 	 35.4611 	 1.03901 	 73.7621 	 
C 	 34.9169 	 1.14148 	 75.0303 	 
C 	 33.8862 	 2.16047 	 75.0547 	 
C 	 33.6619 	 2.69733 	 73.7838 	 
H 	 35.1832 	 0.510697 	 75.9167 	 
C 	 33.1817 	 2.49155 	 76.3828 	 
H 	 33.0612 	 1.46811 	 76.8528 	 
H 	 32.1634 	 2.88502 	 76.107 	 
C 	 33.9689 	 3.50866 	 77.2501 	 
H 	 33.9144 	 4.52144 	 76.9096 	 
H 	 35.0592 	 3.22716 	 77.1535 	 
C 	 33.4335 	 3.58557 	 78.6791 	 
H 	 33.8999 	 4.34431 	 79.2628 	 
H 	 33.4497 	 2.69993 	 79.3308 	 
H 	 32.383 	 3.98589 	 78.6629 	 
H 	 30.9456 	 6.11746 	 71.3666 	 
H 	 36.2706 	 0.430957 	 73.5909 	 
*
