! wB97X-D3 SP def2-SVP
%pal
nprocs 16
end

* xyz 0 1
S 	 -57.3436 	 38.3816 	 116.532 	 
C 	 -57.1192 	 36.9034 	 117.511 	 
C 	 -56.755 	 35.8403 	 116.702 	 
C 	 -56.7194 	 36.158 	 115.338 	 
C 	 -57.1216 	 37.4663 	 115.026 	 
H 	 -56.3899 	 35.5154 	 114.534 	 
C 	 -56.3976 	 34.4608 	 117.309 	 
H 	 -56.9273 	 33.7 	 116.726 	 
H 	 -56.8864 	 34.3898 	 118.336 	 
C 	 -54.8787 	 34.199 	 117.431 	 
H 	 -54.7565 	 33.1541 	 117.556 	 
H 	 -54.3282 	 34.4505 	 116.527 	 
C 	 -54.2503 	 35.0047 	 118.466 	 
H 	 -54.5933 	 34.7676 	 119.414 	 
H 	 -53.1955 	 34.7679 	 118.454 	 
H 	 -54.3889 	 36.1196 	 118.31 	 
S 	 -58.6824 	 38.4595 	 112.981 	 
C 	 -57.9091 	 38.8937 	 111.501 	 
C 	 -56.5303 	 39.0264 	 111.652 	 
C 	 -56.0872 	 38.513 	 112.897 	 
C 	 -57.1329 	 38.0898 	 113.695 	 
H 	 -55.8222 	 39.286 	 110.892 	 
C 	 -54.657 	 38.4929 	 113.26 	 
H 	 -54.5298 	 38.3867 	 114.342 	 
H 	 -54.284 	 39.5662 	 113.204 	 
C 	 -53.823 	 37.4914 	 112.496 	 
H 	 -52.8155 	 37.865 	 112.458 	 
H 	 -53.8738 	 37.4348 	 111.413 	 
C 	 -53.7712 	 36.0704 	 113.054 	 
H 	 -52.8826 	 35.5414 	 112.622 	 
H 	 -54.6481 	 35.4359 	 112.82 	 
H 	 -53.7034 	 36.0433 	 114.106 	 
H 	 -57.0637 	 36.8647 	 118.637 	 
H 	 -58.3538 	 39.3094 	 110.651 	 
*
