! wB97X-D3 SP def2-SVP
%pal
nprocs 16
end

* xyz 0 1
S 	 59.4362 	 -7.19917 	 88.0051 	 
C 	 60.4236 	 -5.76453 	 88.2815 	 
C 	 60.8788 	 -5.27673 	 87.0951 	 
C 	 60.2485 	 -5.83532 	 85.929 	 
C 	 59.3486 	 -6.91088 	 86.2427 	 
H 	 60.3799 	 -5.61066 	 84.868 	 
C 	 61.98 	 -4.26201 	 86.8634 	 
H 	 62.6228 	 -4.43148 	 86.0304 	 
H 	 62.708 	 -4.36155 	 87.6968 	 
C 	 61.6283 	 -2.80566 	 86.7655 	 
H 	 62.5238 	 -2.173 	 86.4511 	 
H 	 60.951 	 -2.61796 	 85.9303 	 
C 	 61.0657 	 -2.18788 	 88.116 	 
H 	 61.6621 	 -2.39108 	 89.0134 	 
H 	 61.0333 	 -1.14145 	 88.1032 	 
H 	 60.0483 	 -2.56017 	 88.3868 	 
S 	 57.0635 	 -8.51655 	 85.7894 	 
C 	 56.8608 	 -9.44841 	 84.3371 	 
C 	 57.9183 	 -9.0588 	 83.5284 	 
C 	 58.9944 	 -8.31936 	 84.1095 	 
C 	 58.6176 	 -7.89465 	 85.4273 	 
H 	 57.924 	 -9.57418 	 82.5841 	 
C 	 60.384 	 -8.09391 	 83.4738 	 
H 	 61.2014 	 -7.89397 	 84.1901 	 
H 	 60.3324 	 -7.16059 	 82.9807 	 
C 	 60.971 	 -9.22496 	 82.5122 	 
H 	 61.9076 	 -8.8201 	 81.971 	 
H 	 60.1955 	 -9.40109 	 81.6912 	 
C 	 61.3951 	 -10.4917 	 83.2246 	 
H 	 62.3365 	 -10.3391 	 83.836 	 
H 	 61.6991 	 -11.281 	 82.5112 	 
H 	 60.8043 	 -10.9691 	 83.9021 	 
H 	 60.8646 	 -5.53227 	 89.236 	 
H 	 56.0996 	 -10.1175 	 84.098 	 
*
