! wB97X-D3 SP def2-SVP
%pal
nprocs 16
end

* xyz 0 1
S 	 -43.0423 	 24.4848 	 77.3657 	 
C 	 -42.8929 	 24.7094 	 79.0823 	 
C 	 -41.712 	 24.1665 	 79.6301 	 
C 	 -40.947 	 23.4945 	 78.6222 	 
C 	 -41.4791 	 23.6895 	 77.3404 	 
H 	 -40.0243 	 22.9181 	 78.7379 	 
C 	 -41.4399 	 24.0267 	 81.1027 	 
H 	 -41.6868 	 22.9478 	 81.2875 	 
H 	 -42.3008 	 24.5912 	 81.5836 	 
C 	 -40.0435 	 24.4454 	 81.66 	 
H 	 -40.2055 	 24.4867 	 82.736 	 
H 	 -39.2423 	 23.6743 	 81.5351 	 
C 	 -39.5542 	 25.84 	 81.1112 	 
H 	 -38.6272 	 26.1826 	 81.7612 	 
H 	 -39.3752 	 25.723 	 80.0743 	 
H 	 -40.347 	 26.5848 	 81.1664 	 
S 	 -41.3892 	 21.9112 	 75.3681 	 
C 	 -40.1306 	 21.9156 	 74.1976 	 
C 	 -39.2508 	 22.9609 	 74.428 	 
C 	 -39.5355 	 23.6407 	 75.6466 	 
C 	 -40.797 	 23.4042 	 76.1003 	 
H 	 -38.4493 	 23.1763 	 73.6756 	 
C 	 -38.5738 	 24.6386 	 76.2258 	 
H 	 -39.2538 	 25.3977 	 76.732 	 
H 	 -38.0176 	 25.184 	 75.4569 	 
C 	 -37.5997 	 24.0879 	 77.2933 	 
H 	 -36.862 	 23.5292 	 76.7558 	 
H 	 -38.0409 	 23.4443 	 78.067 	 
C 	 -36.7954 	 25.0579 	 78.1303 	 
H 	 -37.3976 	 25.5753 	 78.916 	 
H 	 -36.2671 	 25.7777 	 77.5965 	 
H 	 -36.0867 	 24.4887 	 78.6273 	 
H 	 -43.6411 	 25.1003 	 79.7015 	 
H 	 -39.838 	 21.0895 	 73.5152 	 
*
