! wB97X-D3 SP def2-SVP
%pal
nprocs 16
end

* xyz 0 1
S 	 36.6344 	 10.3279 	 79.3869 	 
C 	 37.9514 	 9.25996 	 79.1935 	 
C 	 38.3361 	 9.04723 	 77.9431 	 
C 	 37.4592 	 9.67272 	 76.9968 	 
C 	 36.5386 	 10.4905 	 77.5799 	 
H 	 37.4348 	 9.62345 	 75.9632 	 
C 	 39.4781 	 8.124 	 77.5573 	 
H 	 40.1718 	 8.17458 	 78.3939 	 
H 	 39.9655 	 8.46295 	 76.6159 	 
C 	 39.1843 	 6.6026 	 77.4709 	 
H 	 38.2003 	 6.29471 	 77.0379 	 
H 	 39.9378 	 6.12422 	 76.8444 	 
C 	 39.1548 	 5.8507 	 78.8233 	 
H 	 38.6317 	 6.40352 	 79.5624 	 
H 	 38.6463 	 4.89119 	 78.7748 	 
H 	 40.1504 	 5.52773 	 79.1152 	 
S 	 33.8629 	 11.3312 	 77.6311 	 
C 	 33.3924 	 12.6462 	 76.6288 	 
C 	 34.4085 	 12.9217 	 75.7194 	 
C 	 35.6076 	 12.1845 	 75.8902 	 
C 	 35.502 	 11.3106 	 76.9886 	 
H 	 34.3341 	 13.7421 	 74.9436 	 
C 	 36.8619 	 12.5487 	 75.0651 	 
H 	 37.7604 	 12.3565 	 75.6178 	 
H 	 36.979 	 13.6571 	 74.8727 	 
C 	 36.987 	 11.7952 	 73.7538 	 
H 	 37.5055 	 10.8303 	 73.7882 	 
H 	 37.6093 	 12.4397 	 73.1072 	 
C 	 35.6998 	 11.5496 	 72.9128 	 
H 	 34.9573 	 10.8139 	 73.3155 	 
H 	 36.0395 	 11.1002 	 72.0014 	 
H 	 35.1045 	 12.3991 	 72.6245 	 
H 	 38.3436 	 8.77659 	 80.0405 	 
H 	 32.4966 	 13.2434 	 76.7569 	 
*
