! wB97X-D3 SP def2-SVP
%pal
nprocs 16
end

* xyz 0 1
S 	 -15.3419 	 32.3409 	 35.3081 	 
C 	 -14.1875 	 32.7564 	 34.0412 	 
C 	 -14.6948 	 33.864 	 33.2973 	 
C 	 -15.976 	 34.306 	 33.7876 	 
C 	 -16.4949 	 33.6368 	 34.8907 	 
H 	 -16.5796 	 35.005 	 33.1892 	 
C 	 -14.0911 	 34.3475 	 31.9925 	 
H 	 -13.0033 	 34.2029 	 31.9761 	 
H 	 -14.2511 	 35.4315 	 31.9144 	 
C 	 -14.714 	 33.6317 	 30.7692 	 
H 	 -14.6747 	 32.5134 	 30.7397 	 
H 	 -15.8067 	 33.721 	 30.8307 	 
C 	 -14.1617 	 34.1883 	 29.3918 	 
H 	 -14.5403 	 35.2034 	 29.1981 	 
H 	 -13.0539 	 34.2186 	 29.3525 	 
H 	 -14.6251 	 33.574 	 28.5892 	 
S 	 -18.2959 	 35.3656 	 36.1289 	 
C 	 -19.905 	 34.8112 	 36.5974 	 
C 	 -20.0116 	 33.5084 	 36.1612 	 
C 	 -18.9134 	 32.9213 	 35.4408 	 
C 	 -17.8531 	 33.7793 	 35.4276 	 
H 	 -20.9135 	 33.067 	 36.4273 	 
C 	 -19.0426 	 31.5209 	 34.8225 	 
H 	 -19.3803 	 30.7224 	 35.5185 	 
H 	 -18.0292 	 31.2074 	 34.5896 	 
C 	 -19.9525 	 31.3653 	 33.5669 	 
H 	 -20.8674 	 31.7734 	 33.7446 	 
H 	 -20.1687 	 30.3239 	 33.3654 	 
C 	 -19.2316 	 31.956 	 32.3378 	 
H 	 -19.5987 	 31.6441 	 31.3283 	 
H 	 -18.1886 	 31.6024 	 32.3166 	 
H 	 -19.1342 	 33.0288 	 32.3618 	 
H 	 -13.2624 	 32.2504 	 33.8147 	 
H 	 -20.606 	 35.44 	 37.1901 	 
*
