! wB97X-D3 SP def2-SVP
%pal
nprocs 16
end

* xyz 0 1
S 	 -11.8045 	 -6.74633 	 74.281 	 
C 	 -10.436 	 -7.24897 	 75.2844 	 
C 	 -10.6896 	 -8.06729 	 76.3318 	 
C 	 -12.0976 	 -8.38695 	 76.3692 	 
C 	 -12.8317 	 -7.72734 	 75.3563 	 
H 	 -12.6817 	 -9.10345 	 77.0006 	 
C 	 -9.60601 	 -8.65629 	 77.2939 	 
H 	 -8.69663 	 -8.34089 	 76.7841 	 
H 	 -9.76082 	 -9.77196 	 77.4176 	 
C 	 -9.36215 	 -8.12467 	 78.736 	 
H 	 -9.04595 	 -7.08356 	 78.6898 	 
H 	 -10.2834 	 -8.19164 	 79.3196 	 
C 	 -8.35827 	 -8.97583 	 79.5698 	 
H 	 -7.32803 	 -8.92335 	 79.121 	 
H 	 -8.29507 	 -8.51954 	 80.5757 	 
H 	 -8.71563 	 -10.0268 	 79.7179 	 
S 	 -14.9111 	 -5.93835 	 75.1422 	 
C 	 -16.5352 	 -6.60537 	 75.1119 	 
C 	 -16.5598 	 -7.97266 	 75.199 	 
C 	 -15.302 	 -8.55433 	 75.3363 	 
C 	 -14.2855 	 -7.58638 	 75.2456 	 
H 	 -17.4809 	 -8.52403 	 75.2745 	 
C 	 -15.1855 	 -10.0725 	 75.2595 	 
H 	 -15.9825 	 -10.5302 	 75.8445 	 
H 	 -14.2635 	 -10.3759 	 75.7854 	 
C 	 -15.2487 	 -10.694 	 73.9281 	 
H 	 -14.5162 	 -10.2781 	 73.2629 	 
H 	 -16.1619 	 -10.4414 	 73.4885 	 
C 	 -15.2183 	 -12.2457 	 73.873 	 
H 	 -15.8499 	 -12.7984 	 74.5656 	 
H 	 -14.1705 	 -12.5151 	 74.0204 	 
H 	 -15.4198 	 -12.5537 	 72.855 	 
H 	 -9.43626 	 -6.93012 	 75.0936 	 
H 	 -17.4361 	 -5.9695 	 75.0255 	 
*
