! wB97X-D3 SP def2-SVP
%pal
nprocs 16
end

* xyz 0 1
S 	 -34.8619 	 67.4693 	 149.761 	 
C 	 -33.8964 	 67.7179 	 148.376 	 
C 	 -32.7405 	 68.4093 	 148.744 	 
C 	 -32.7215 	 68.7517 	 150.11 	 
C 	 -33.787 	 68.3002 	 150.849 	 
H 	 -31.9518 	 69.1996 	 150.698 	 
C 	 -31.5652 	 68.6811 	 147.853 	 
H 	 -31.2706 	 69.6848 	 148.052 	 
H 	 -31.9015 	 68.6474 	 146.844 	 
C 	 -30.3954 	 67.742 	 148.118 	 
H 	 -30.6584 	 66.6959 	 147.803 	 
H 	 -29.5401 	 67.9898 	 147.422 	 
C 	 -29.9345 	 67.7405 	 149.538 	 
H 	 -28.9468 	 67.2748 	 149.567 	 
H 	 -29.8032 	 68.7502 	 149.879 	 
H 	 -30.6544 	 67.282 	 150.242 	 
S 	 -34.5415 	 66.9958 	 153.148 	 
C 	 -34.8017 	 67.8993 	 154.598 	 
C 	 -34.3603 	 69.1842 	 154.434 	 
C 	 -33.8914 	 69.5147 	 153.115 	 
C 	 -34.0516 	 68.4178 	 152.26 	 
H 	 -34.3116 	 69.8584 	 155.248 	 
C 	 -33.3442 	 70.8921 	 152.863 	 
H 	 -32.8964 	 70.8659 	 151.854 	 
H 	 -32.4433 	 71.0665 	 153.512 	 
C 	 -34.131 	 72.238 	 153.019 	 
H 	 -34.9268 	 72.3876 	 152.316 	 
H 	 -33.4398 	 72.9793 	 152.747 	 
C 	 -34.4645 	 72.5271 	 154.476 	 
H 	 -33.8023 	 72.0352 	 155.12 	 
H 	 -35.4711 	 72.211 	 154.417 	 
H 	 -34.4085 	 73.5882 	 154.707 	 
H 	 -34.0774 	 67.2946 	 147.407 	 
H 	 -35.1654 	 67.4929 	 155.487 	 
*
