! wB97X-D3 SP def2-SVP
%pal
nprocs 16
end

* xyz 0 1
S 	 -32.0186 	 59.0989 	 106.688 	 
C 	 -30.7202 	 58.4467 	 107.563 	 
C 	 -29.8523 	 59.3619 	 108.139 	 
C 	 -30.3525 	 60.6784 	 107.897 	 
C 	 -31.4931 	 60.7569 	 107.104 	 
H 	 -30.0254 	 61.5445 	 108.354 	 
C 	 -28.6345 	 58.9134 	 108.951 	 
H 	 -28.2671 	 58.0763 	 108.477 	 
H 	 -28.9684 	 58.5474 	 109.888 	 
C 	 -27.5589 	 59.9733 	 109.248 	 
H 	 -27.8404 	 60.754 	 109.921 	 
H 	 -26.7013 	 59.464 	 109.677 	 
C 	 -27.0767 	 60.7667 	 108.014 	 
H 	 -27.7248 	 61.6119 	 107.606 	 
H 	 -26.1887 	 61.3451 	 108.29 	 
H 	 -26.8973 	 60.1555 	 107.182 	 
S 	 -33.9722 	 61.8637 	 107.144 	 
C 	 -34.1504 	 63.519 	 106.613 	 
C 	 -32.9419 	 64.1359 	 106.391 	 
C 	 -31.8034 	 63.3209 	 106.646 	 
C 	 -32.239 	 61.966 	 106.892 	 
H 	 -32.8376 	 65.1639 	 106.095 	 
C 	 -30.4623 	 63.7623 	 106.101 	 
H 	 -30.5696 	 63.7359 	 104.99 	 
H 	 -29.7721 	 62.9813 	 106.413 	 
C 	 -29.8947 	 65.0929 	 106.686 	 
H 	 -29.8896 	 64.9229 	 107.73 	 
H 	 -30.5286 	 65.8571 	 106.489 	 
C 	 -28.4838 	 65.4266 	 106.165 	 
H 	 -27.9962 	 66.206 	 106.797 	 
H 	 -28.6445 	 65.792 	 105.173 	 
H 	 -27.8923 	 64.4947 	 106.032 	 
H 	 -30.6323 	 57.4038 	 107.671 	 
H 	 -35.084 	 64.0858 	 106.507 	 
*
