! wB97X-D3 SP def2-SVP
%pal
nprocs 16
end

* xyz 0 1
S 	 -31.8409 	 46.7164 	 96.478 	 
C 	 -31.7851 	 45.2044 	 95.5713 	 
C 	 -31.6973 	 45.446 	 94.2467 	 
C 	 -31.9448 	 46.8457 	 93.9189 	 
C 	 -32.0824 	 47.6235 	 95.0074 	 
H 	 -32.0524 	 47.1849 	 92.969 	 
C 	 -31.8676 	 44.3944 	 93.1467 	 
H 	 -31.2795 	 43.4993 	 93.4103 	 
H 	 -31.3919 	 44.6442 	 92.2518 	 
C 	 -33.314 	 43.8666 	 92.9043 	 
H 	 -33.6884 	 43.549 	 93.8724 	 
H 	 -34.0015 	 44.677 	 92.5544 	 
C 	 -33.447 	 42.6664 	 91.9387 	 
H 	 -34.5279 	 42.3927 	 91.9396 	 
H 	 -33.2792 	 42.9159 	 90.9515 	 
H 	 -32.7392 	 41.875 	 92.2506 	 
S 	 -34.3271 	 49.1506 	 94.3986 	 
C 	 -34.3769 	 50.7918 	 95.1375 	 
C 	 -33.1238 	 51.1985 	 95.5547 	 
C 	 -32.2297 	 50.1092 	 95.5742 	 
C 	 -32.7151 	 48.9738 	 95.0124 	 
H 	 -33.0581 	 52.1598 	 95.9142 	 
C 	 -30.8462 	 50.313 	 96.3071 	 
H 	 -30.3018 	 51.2432 	 96.0687 	 
H 	 -30.1707 	 49.5679 	 95.8475 	 
C 	 -30.8632 	 50.1093 	 97.8374 	 
H 	 -29.8162 	 50.0645 	 98.1906 	 
H 	 -31.2906 	 49.118 	 97.9649 	 
C 	 -31.7263 	 51.1026 	 98.6819 	 
H 	 -31.3264 	 51.1415 	 99.7125 	 
H 	 -32.7071 	 50.6814 	 98.6593 	 
H 	 -31.6558 	 52.1197 	 98.2497 	 
H 	 -31.7708 	 44.1855 	 96.002 	 
H 	 -35.1889 	 51.4934 	 94.9721 	 
*
