! wB97X-D3 SP def2-SVP
%pal
nprocs 16
end

* xyz 0 1
S 	 31.5261 	 16.796 	 48.9805 	 
C 	 31.759 	 18.358 	 49.8448 	 
C 	 32.4691 	 18.2159 	 51.0251 	 
C 	 32.9352 	 16.8519 	 51.1567 	 
C 	 32.6961 	 16.0407 	 50.0416 	 
H 	 33.4989 	 16.4141 	 51.9418 	 
C 	 32.6399 	 19.3329 	 52.0975 	 
H 	 31.8539 	 19.1486 	 52.8624 	 
H 	 32.4925 	 20.2702 	 51.5348 	 
C 	 34.0144 	 19.4287 	 52.7629 	 
H 	 34.1993 	 18.6494 	 53.4618 	 
H 	 34.8027 	 19.3718 	 51.9815 	 
C 	 34.1173 	 20.7154 	 53.4832 	 
H 	 33.3628 	 20.7684 	 54.2925 	 
H 	 35.0918 	 20.8475 	 54.0441 	 
H 	 33.8912 	 21.6082 	 52.9138 	 
S 	 31.55 	 13.5116 	 49.5094 	 
C 	 32.6025 	 12.1027 	 49.4835 	 
C 	 33.8924 	 12.4302 	 49.7685 	 
C 	 34.1238 	 13.8518 	 49.9661 	 
C 	 32.9356 	 14.6003 	 49.8927 	 
H 	 34.743 	 11.761 	 49.6676 	 
C 	 35.486 	 14.5029 	 49.8622 	 
H 	 36.1752 	 13.7878 	 50.4444 	 
H 	 35.5307 	 15.3288 	 50.5894 	 
C 	 36.0974 	 14.8619 	 48.4707 	 
H 	 36.293 	 13.8325 	 48.0543 	 
H 	 36.9859 	 15.4908 	 48.6386 	 
C 	 35.1123 	 15.6867 	 47.5897 	 
H 	 34.6341 	 16.567 	 48.0382 	 
H 	 34.3141 	 15.1367 	 47.1688 	 
H 	 35.7341 	 16.0229 	 46.7452 	 
H 	 31.4718 	 19.2713 	 49.4468 	 
H 	 32.2128 	 11.103 	 49.498 	 
*
