! wB97X-D3 SP def2-SVP
%pal
nprocs 16
end

* xyz 0 1
S 	 19.2744 	 30.8267 	 57.0697 	 
C 	 17.655 	 30.4751 	 57.5205 	 
C 	 17.008 	 31.6294 	 57.8707 	 
C 	 17.9014 	 32.7273 	 57.9651 	 
C 	 19.2025 	 32.4757 	 57.5711 	 
H 	 17.6383 	 33.7149 	 58.2297 	 
C 	 15.5535 	 31.8503 	 58.276 	 
H 	 15.1454 	 30.8937 	 58.5131 	 
H 	 15.2094 	 32.1174 	 57.275 	 
C 	 15.1525 	 32.7907 	 59.4449 	 
H 	 15.8263 	 32.6528 	 60.312 	 
H 	 15.2281 	 33.8215 	 59.2171 	 
C 	 13.7643 	 32.4798 	 59.9249 	 
H 	 13.7066 	 31.4211 	 60.2566 	 
H 	 13.4579 	 33.1652 	 60.7501 	 
H 	 13.0182 	 32.6447 	 59.094 	 
S 	 20.9613 	 33.2554 	 55.6392 	 
C 	 22.2391 	 34.3634 	 56.1509 	 
C 	 21.8546 	 35.1013 	 57.2608 	 
C 	 20.7584 	 34.4892 	 57.9573 	 
C 	 20.272 	 33.3601 	 57.2438 	 
H 	 22.5039 	 35.846 	 57.6226 	 
C 	 20.3569 	 34.9117 	 59.2943 	 
H 	 21.148 	 35.2933 	 59.854 	 
H 	 19.9604 	 34.014 	 59.8551 	 
C 	 19.233 	 36.0287 	 59.4033 	 
H 	 19.1259 	 36.2327 	 60.4614 	 
H 	 18.3247 	 35.7204 	 59.0276 	 
C 	 19.4853 	 37.3704 	 58.6176 	 
H 	 18.7201 	 38.1004 	 58.9424 	 
H 	 19.4637 	 37.2565 	 57.5174 	 
H 	 20.4378 	 37.7945 	 58.9767 	 
H 	 17.1101 	 29.5625 	 57.198 	 
H 	 23.1793 	 34.538 	 55.643 	 
*
