! wB97X-D3 SP def2-SVP
%pal
nprocs 16
end

* xyz 0 1
S 	 37.7903 	 29.7046 	 92.2536 	 
C 	 36.9582 	 31.0421 	 91.4633 	 
C 	 35.6835 	 30.6638 	 91.0221 	 
C 	 35.5182 	 29.2778 	 91.2973 	 
C 	 36.5206 	 28.5902 	 91.9086 	 
H 	 34.5204 	 28.8578 	 91.0976 	 
C 	 34.6563 	 31.5549 	 90.313 	 
H 	 35.2768 	 32.1208 	 89.6095 	 
H 	 34.3419 	 32.3193 	 90.9596 	 
C 	 33.5463 	 30.8588 	 89.5047 	 
H 	 33.0022 	 30.2064 	 90.1526 	 
H 	 32.8243 	 31.6118 	 89.1544 	 
C 	 33.9296 	 30.1176 	 88.2907 	 
H 	 33.0712 	 30.0104 	 87.489 	 
H 	 34.8039 	 30.5164 	 87.7718 	 
H 	 34.2199 	 29.1 	 88.5472 	 
S 	 36.2831 	 27.0087 	 94.0858 	 
C 	 36.3827 	 25.2686 	 93.9114 	 
C 	 36.4575 	 24.8739 	 92.5993 	 
C 	 36.5882 	 26.0181 	 91.716 	 
C 	 36.5163 	 27.2211 	 92.3545 	 
H 	 36.5974 	 23.8352 	 92.4181 	 
C 	 36.8345 	 25.8277 	 90.2256 	 
H 	 36.2457 	 26.5698 	 89.6786 	 
H 	 36.4071 	 24.8543 	 89.9859 	 
C 	 38.2633 	 25.8738 	 89.8304 	 
H 	 38.8988 	 25.3813 	 90.5525 	 
H 	 38.6655 	 26.9329 	 89.8084 	 
C 	 38.4451 	 25.2818 	 88.4452 	 
H 	 37.7339 	 25.6123 	 87.6919 	 
H 	 38.2698 	 24.2205 	 88.3513 	 
H 	 39.4724 	 25.349 	 88.186 	 
H 	 37.3723 	 32.0184 	 91.3516 	 
H 	 36.2452 	 24.53 	 94.6849 	 
*
