! wB97X-D3 SP def2-SVP
%pal
nprocs 16
end

* xyz 0 1
S 	 -68.3798 	 51.8267 	 125.168 	 
C 	 -68.0378 	 53.0203 	 126.492 	 
C 	 -68.8022 	 54.1488 	 126.193 	 
C 	 -69.1841 	 54.2312 	 124.819 	 
C 	 -69.0776 	 53.054 	 124.111 	 
H 	 -69.6747 	 55.1004 	 124.356 	 
C 	 -68.9308 	 55.3776 	 127.014 	 
H 	 -69.7476 	 55.9309 	 126.575 	 
H 	 -68.0279 	 55.9704 	 126.8 	 
C 	 -69.1083 	 55.1487 	 128.549 	 
H 	 -69.8182 	 54.3552 	 128.665 	 
H 	 -68.1047 	 54.9251 	 128.908 	 
C 	 -69.6497 	 56.3732 	 129.227 	 
H 	 -68.9016 	 57.139 	 129.065 	 
H 	 -70.6347 	 56.6934 	 128.804 	 
H 	 -69.7909 	 56.2346 	 130.26 	 
S 	 -67.8061 	 52.3093 	 121.682 	 
C 	 -68.6934 	 52.3574 	 120.211 	 
C 	 -70.0068 	 52.6723 	 120.479 	 
C 	 -70.2651 	 53.0991 	 121.805 	 
C 	 -69.1826 	 52.8259 	 122.638 	 
H 	 -70.675 	 52.7494 	 119.686 	 
C 	 -71.6377 	 53.6439 	 122.171 	 
H 	 -72.3177 	 53.8444 	 121.341 	 
H 	 -71.4945 	 54.6614 	 122.525 	 
C 	 -72.4068 	 52.9392 	 123.189 	 
H 	 -71.8271 	 52.9203 	 124.109 	 
H 	 -72.6055 	 51.9432 	 122.958 	 
C 	 -73.6088 	 53.8064 	 123.641 	 
H 	 -74.0968 	 54.3763 	 122.866 	 
H 	 -73.0729 	 54.5034 	 124.308 	 
H 	 -74.1352 	 53.0612 	 124.194 	 
H 	 -67.6906 	 52.7527 	 127.482 	 
H 	 -68.3364 	 52.1428 	 119.227 	 
*
