! wB97X-D3 SP def2-SVP
%pal
nprocs 16
end

* xyz 0 1
S 	 46.6381 	 6.35045 	 90.396 	 
C 	 47.4025 	 7.73999 	 89.7849 	 
C 	 48.4329 	 7.44627 	 89.0021 	 
C 	 48.5754 	 6.01001 	 88.8944 	 
C 	 47.7181 	 5.26256 	 89.6608 	 
H 	 49.2725 	 5.41505 	 88.4114 	 
C 	 49.3355 	 8.41999 	 88.2341 	 
H 	 50.3914 	 8.3123 	 88.4789 	 
H 	 48.956 	 9.39173 	 88.539 	 
C 	 49.2904 	 8.4806 	 86.7027 	 
H 	 50.092 	 9.20655 	 86.4742 	 
H 	 49.4591 	 7.47355 	 86.3614 	 
C 	 47.9167 	 8.86367 	 86.0485 	 
H 	 47.6375 	 9.77909 	 86.4484 	 
H 	 48.0604 	 9.04209 	 85.0283 	 
H 	 47.1255 	 8.23564 	 86.3039 	 
S 	 48.1189 	 2.72447 	 90.8734 	 
C 	 47.3215 	 1.37918 	 90.1269 	 
C 	 46.6505 	 1.66802 	 88.9966 	 
C 	 46.7081 	 3.07978 	 88.6908 	 
C 	 47.4639 	 3.80349 	 89.5866 	 
H 	 46.1511 	 0.873037 	 88.3471 	 
C 	 45.9665 	 3.77178 	 87.5051 	 
H 	 45.5111 	 4.66388 	 87.9157 	 
H 	 45.2069 	 2.95797 	 87.2714 	 
C 	 46.7932 	 3.97028 	 86.2217 	 
H 	 47.0256 	 2.87613 	 85.8413 	 
H 	 47.735 	 4.49958 	 86.3656 	 
C 	 46.1184 	 4.81209 	 85.0138 	 
H 	 45.137 	 4.31703 	 84.6715 	 
H 	 46.7945 	 4.67835 	 84.2236 	 
H 	 46.0529 	 5.85407 	 85.2339 	 
H 	 47.0123 	 8.76902 	 90.0088 	 
H 	 47.296 	 0.411556 	 90.6316 	 
*
