! wB97X-D3 SP def2-SVP
%pal
nprocs 16
end

* xyz 0 1
S 	 -59.5936 	 21.8423 	 83.9983 	 
C 	 -59.8218 	 20.1466 	 84.2544 	 
C 	 -58.6743 	 19.5147 	 84.7743 	 
C 	 -57.5635 	 20.4824 	 84.9258 	 
C 	 -57.9243 	 21.8039 	 84.6214 	 
H 	 -56.6328 	 20.2476 	 85.3477 	 
C 	 -58.5733 	 18.0983 	 85.2178 	 
H 	 -58.0906 	 17.6973 	 84.3405 	 
H 	 -59.575 	 17.6527 	 85.1809 	 
C 	 -57.7912 	 17.7979 	 86.569 	 
H 	 -57.6455 	 16.6943 	 86.6646 	 
H 	 -56.7656 	 18.2262 	 86.6714 	 
C 	 -58.637 	 18.0967 	 87.9008 	 
H 	 -59.4246 	 17.3923 	 87.9506 	 
H 	 -58.0752 	 17.9237 	 88.7956 	 
H 	 -58.9757 	 19.1316 	 87.9836 	 
S 	 -57.0285 	 24.1226 	 83.424 	 
C 	 -55.8203 	 24.9992 	 84.2395 	 
C 	 -55.5297 	 24.511 	 85.5001 	 
C 	 -56.1374 	 23.2388 	 85.7747 	 
C 	 -56.9959 	 22.9224 	 84.7527 	 
H 	 -54.8583 	 25.0686 	 86.0884 	 
C 	 -55.9312 	 22.5446 	 87.1242 	 
H 	 -54.8773 	 22.3793 	 87.181 	 
H 	 -56.4542 	 21.6408 	 87.1261 	 
C 	 -56.2619 	 23.3035 	 88.4319 	 
H 	 -55.8534 	 24.3493 	 88.4132 	 
H 	 -55.7667 	 22.8488 	 89.2156 	 
C 	 -57.7396 	 23.4744 	 88.8433 	 
H 	 -58.1818 	 24.2841 	 88.2846 	 
H 	 -57.8647 	 23.8247 	 89.8322 	 
H 	 -58.3083 	 22.6179 	 88.8016 	 
H 	 -60.7276 	 19.6168 	 84.0924 	 
H 	 -55.5204 	 26.0038 	 83.8065 	 
*
