! wB97X-D3 SP def2-SVP
%pal
nprocs 16
end

* xyz 0 1
S 	 12.2179 	 1.18546 	 66.3121 	 
C 	 10.9886 	 0.794713 	 65.1459 	 
C 	 11.0765 	 -0.487488 	 64.6456 	 
C 	 12.0524 	 -1.23828 	 65.3414 	 
C 	 12.8957 	 -0.456548 	 66.1127 	 
H 	 12.2985 	 -2.36683 	 65.2954 	 
C 	 10.1689 	 -1.06689 	 63.6441 	 
H 	 9.30519 	 -0.373235 	 63.6247 	 
H 	 9.69051 	 -1.99713 	 63.9694 	 
C 	 10.8075 	 -1.18165 	 62.2823 	 
H 	 11.3638 	 -0.327853 	 61.9501 	 
H 	 11.6022 	 -1.95622 	 62.383 	 
C 	 9.82132 	 -1.40767 	 61.1714 	 
H 	 9.10649 	 -0.576049 	 61.0092 	 
H 	 10.3739 	 -1.6482 	 60.2373 	 
H 	 9.10143 	 -2.1956 	 61.4192 	 
S 	 13.6672 	 -0.920692 	 68.6944 	 
C 	 15.2331 	 -1.5096 	 69.0234 	 
C 	 15.8892 	 -1.92694 	 67.833 	 
C 	 15.1412 	 -1.65135 	 66.6773 	 
C 	 13.9516 	 -0.923354 	 66.9715 	 
H 	 16.8922 	 -2.39528 	 67.8184 	 
C 	 15.7058 	 -1.99905 	 65.354 	 
H 	 14.8461 	 -2.20497 	 64.799 	 
H 	 16.3162 	 -2.82348 	 65.4826 	 
C 	 16.373 	 -0.836306 	 64.6513 	 
H 	 15.6357 	 -0.0384218 	 64.6141 	 
H 	 16.6323 	 -1.07359 	 63.5615 	 
C 	 17.6107 	 -0.294582 	 65.328 	 
H 	 18.074 	 0.479487 	 64.6749 	 
H 	 18.3382 	 -1.12196 	 65.3411 	 
H 	 17.4176 	 0.15032 	 66.3023 	 
H 	 10.2369 	 1.54398 	 64.8135 	 
H 	 15.6732 	 -1.65173 	 69.9958 	 
*
