! wB97X-D3 SP def2-SVP
%pal
nprocs 16
end

* xyz 0 1
S 	 -102.48 	 47.1632 	 124.276 	 
C 	 -104.054 	 46.8926 	 124.977 	 
C 	 -104.895 	 46.043 	 124.257 	 
C 	 -104.389 	 45.787 	 122.937 	 
C 	 -103.099 	 46.2197 	 122.83 	 
H 	 -104.93 	 45.2436 	 122.141 	 
C 	 -106.282 	 45.5821 	 124.749 	 
H 	 -106.39 	 45.8553 	 125.764 	 
H 	 -106.175 	 44.5056 	 124.836 	 
C 	 -107.505 	 45.7675 	 123.879 	 
H 	 -107.564 	 46.8291 	 123.565 	 
H 	 -107.419 	 45.4096 	 122.817 	 
C 	 -108.837 	 45.4148 	 124.485 	 
H 	 -109.063 	 44.2843 	 124.404 	 
H 	 -108.879 	 45.6813 	 125.517 	 
H 	 -109.586 	 45.8713 	 123.916 	 
S 	 -102.574 	 47.2217 	 120.326 	 
C 	 -101.4 	 46.4954 	 119.298 	 
C 	 -101.04 	 45.3496 	 119.879 	 
C 	 -101.489 	 45.0578 	 121.199 	 
C 	 -102.348 	 46.0368 	 121.585 	 
H 	 -100.309 	 44.7331 	 119.305 	 
C 	 -101.156 	 43.7227 	 121.897 	 
H 	 -101.583 	 43.7718 	 122.897 	 
H 	 -100.089 	 43.6225 	 122.132 	 
C 	 -101.544 	 42.4419 	 121.027 	 
H 	 -101.099 	 41.5969 	 121.546 	 
H 	 -101.013 	 42.5105 	 120.056 	 
C 	 -102.986 	 42.2156 	 120.917 	 
H 	 -103.485 	 42.4762 	 121.903 	 
H 	 -103.224 	 41.2466 	 120.49 	 
H 	 -103.434 	 43.0409 	 120.321 	 
H 	 -104.355 	 47.2372 	 125.932 	 
H 	 -101.199 	 46.728 	 118.211 	 
*
