! wB97X-D3 SP def2-SVP
%pal
nprocs 16
end

* xyz 0 1
S 	 6.19696 	 -13.6564 	 61.3185 	 
C 	 6.98844 	 -12.9627 	 62.7107 	 
C 	 7.54485 	 -13.9538 	 63.5336 	 
C 	 7.3104 	 -15.2743 	 63.0058 	 
C 	 6.44084 	 -15.2951 	 61.9377 	 
H 	 7.63335 	 -16.1743 	 63.4161 	 
C 	 8.2294 	 -13.5896 	 64.9089 	 
H 	 8.13363 	 -14.5062 	 65.493 	 
H 	 7.53053 	 -12.829 	 65.2644 	 
C 	 9.62577 	 -13.0633 	 64.7482 	 
H 	 9.67932 	 -12.2012 	 64.0992 	 
H 	 9.94744 	 -12.7008 	 65.7382 	 
C 	 10.6491 	 -14.0996 	 64.2657 	 
H 	 10.4306 	 -14.615 	 63.2764 	 
H 	 11.6112 	 -13.6905 	 64.2258 	 
H 	 10.7886 	 -14.864 	 65.0161 	 
S 	 7.2578 	 -17.6351 	 60.9112 	 
C 	 6.10881 	 -18.7778 	 60.2299 	 
C 	 4.80806 	 -18.3239 	 60.2519 	 
C 	 4.73975 	 -16.9711 	 60.7776 	 
C 	 6.00391 	 -16.513 	 61.2872 	 
H 	 3.93164 	 -18.9207 	 59.9678 	 
C 	 3.4909 	 -16.1753 	 60.9677 	 
H 	 3.66377 	 -15.5577 	 61.8635 	 
H 	 2.6823 	 -16.8768 	 61.1903 	 
C 	 3.05113 	 -15.3558 	 59.7051 	 
H 	 2.54585 	 -16.0312 	 58.993 	 
H 	 3.87505 	 -14.8142 	 59.2548 	 
C 	 2.18803 	 -14.2076 	 59.9658 	 
H 	 1.54971 	 -14.3964 	 60.831 	 
H 	 1.61457 	 -13.8515 	 59.1403 	 
H 	 2.58215 	 -13.3079 	 60.3563 	 
H 	 7.00971 	 -11.8805 	 62.9418 	 
H 	 6.48832 	 -19.7782 	 59.9193 	 
*
