! wB97X-D3 SP def2-SVP
%pal
nprocs 16
end

* xyz 0 1
S 	 -0.111709 	 77.4733 	 47.1134 	 
C 	 -1.44678 	 76.4479 	 47.6441 	 
C 	 -1.71786 	 75.3634 	 46.7911 	 
C 	 -0.697628 	 75.2718 	 45.7559 	 
C 	 0.315047 	 76.2029 	 45.8197 	 
H 	 -0.676932 	 74.5626 	 44.9322 	 
C 	 -2.88753 	 74.4247 	 46.9599 	 
H 	 -3.22997 	 74.6026 	 47.9659 	 
H 	 -2.67853 	 73.3842 	 46.9781 	 
C 	 -4.06957 	 74.6068 	 45.9986 	 
H 	 -4.87207 	 73.9332 	 46.4255 	 
H 	 -4.47395 	 75.6264 	 46.1581 	 
C 	 -3.91037 	 74.2037 	 44.5093 	 
H 	 -4.89379 	 74.5532 	 44.0553 	 
H 	 -3.11513 	 74.713 	 44.0573 	 
H 	 -3.67161 	 73.13 	 44.4128 	 
S 	 1.2432 	 75.4462 	 43.3236 	 
C 	 2.73947 	 76.0869 	 42.685 	 
C 	 3.43543 	 76.8588 	 43.5754 	 
C 	 2.71578 	 76.9112 	 44.8019 	 
C 	 1.44479 	 76.3393 	 44.8225 	 
H 	 4.41536 	 77.3588 	 43.3435 	 
C 	 3.27081 	 77.613 	 46.0227 	 
H 	 4.34274 	 77.3645 	 46.2395 	 
H 	 2.82031 	 77.2583 	 46.9738 	 
C 	 3.14966 	 79.1574 	 45.9524 	 
H 	 3.60806 	 79.393 	 46.9271 	 
H 	 2.12266 	 79.5735 	 45.8288 	 
C 	 3.96594 	 79.7677 	 44.8604 	 
H 	 4.28821 	 80.8309 	 45.0846 	 
H 	 3.37469 	 79.7547 	 43.9327 	 
H 	 4.94194 	 79.2783 	 44.6322 	 
H 	 -2.07369 	 76.6936 	 48.5039 	 
H 	 3.15557 	 75.9769 	 41.6771 	 
*
