! wB97X-D3 SP def2-SVP
%pal
nprocs 16
end

* xyz 0 1
S 	 17.0453 	 19.3689 	 36.7488 	 
C 	 17.6437 	 19.9086 	 35.2245 	 
C 	 16.6198 	 20.6994 	 34.5905 	 
C 	 15.5096 	 20.9577 	 35.4871 	 
C 	 15.5197 	 20.2423 	 36.6218 	 
H 	 14.6278 	 21.6119 	 35.314 	 
C 	 16.7146 	 21.2545 	 33.2034 	 
H 	 16.0403 	 20.6959 	 32.6047 	 
H 	 17.7348 	 21.0351 	 32.8285 	 
C 	 16.463 	 22.7957 	 32.961 	 
H 	 16.5321 	 22.9252 	 31.8674 	 
H 	 15.5051 	 23.059 	 33.246 	 
C 	 17.5636 	 23.7418 	 33.5783 	 
H 	 18.5052 	 23.3746 	 33.2727 	 
H 	 17.427 	 24.7753 	 33.2644 	 
H 	 17.4533 	 23.7323 	 34.6553 	 
S 	 15.2483 	 20.536 	 39.3838 	 
C 	 13.7411 	 20.9823 	 40.1106 	 
C 	 12.7402 	 20.9413 	 39.2101 	 
C 	 13.1749 	 20.5548 	 37.888 	 
C 	 14.5588 	 20.4171 	 37.7513 	 
H 	 11.7004 	 21.1367 	 39.4987 	 
C 	 12.1654 	 20.4114 	 36.8351 	 
H 	 12.7834 	 20.3213 	 35.9073 	 
H 	 11.5723 	 21.4028 	 36.817 	 
C 	 11.1513 	 19.1946 	 36.951 	 
H 	 11.6676 	 18.1876 	 37.1268 	 
H 	 10.5654 	 19.1079 	 36.0406 	 
C 	 10.0439 	 19.403 	 38.1016 	 
H 	 9.51236 	 20.3554 	 37.9465 	 
H 	 10.3632 	 19.3299 	 39.0933 	 
H 	 9.25428 	 18.6065 	 37.9864 	 
H 	 18.4756 	 19.4496 	 34.7204 	 
H 	 13.5999 	 21.1906 	 41.1665 	 
*
