! wB97X-D3 SP def2-SVP
%pal
nprocs 16
end

* xyz 0 1
S 	 5.53089 	 19.2194 	 36.8076 	 
C 	 7.08271 	 18.5246 	 36.4084 	 
C 	 8.03314 	 19.4926 	 36.4123 	 
C 	 7.63173 	 20.7433 	 36.9187 	 
C 	 6.27734 	 20.7295 	 37.2151 	 
H 	 8.15529 	 21.6006 	 37.1053 	 
C 	 9.50535 	 19.2916 	 36.0689 	 
H 	 9.7911 	 20.182 	 35.5984 	 
H 	 9.56752 	 18.5567 	 35.1838 	 
C 	 10.3894 	 18.9752 	 37.2728 	 
H 	 10.2935 	 19.6444 	 38.1175 	 
H 	 9.94551 	 18.0377 	 37.7211 	 
C 	 11.8662 	 18.9207 	 36.9443 	 
H 	 12.5783 	 19.0201 	 37.7506 	 
H 	 12.2156 	 18.0199 	 36.3535 	 
H 	 12.1113 	 19.6641 	 36.2291 	 
S 	 4.88812 	 21.5438 	 39.4347 	 
C 	 4.27572 	 23.222 	 39.4699 	 
C 	 4.56003 	 23.8785 	 38.3086 	 
C 	 5.24633 	 23.0814 	 37.3257 	 
C 	 5.50977 	 21.7886 	 37.7806 	 
H 	 4.47615 	 24.9293 	 38.2256 	 
C 	 5.76391 	 23.6987 	 35.9941 	 
H 	 4.90134 	 24.3236 	 35.7193 	 
H 	 5.78174 	 22.9452 	 35.2104 	 
C 	 7.0745 	 24.5803 	 36.0677 	 
H 	 7.90312 	 23.8457 	 36.2727 	 
H 	 7.04046 	 25.226 	 36.9783 	 
C 	 7.26035 	 25.2308 	 34.6904 	 
H 	 6.71323 	 26.2497 	 34.7899 	 
H 	 6.74574 	 24.7584 	 33.8246 	 
H 	 8.32173 	 25.39 	 34.5093 	 
H 	 7.1044 	 17.5065 	 36.0864 	 
H 	 3.8344 	 23.7675 	 40.3396 	 
*
