! wB97X-D3 SP def2-SVP
%pal
nprocs 16
end

* xyz 0 1
S 	 55.0936 	 11.113 	 53.313 	 
C 	 55.5492 	 12.5859 	 54.0881 	 
C 	 54.4512 	 13.32 	 54.4402 	 
C 	 53.2388 	 12.5801 	 54.2854 	 
C 	 53.3958 	 11.3853 	 53.5678 	 
H 	 52.2611 	 12.9623 	 54.4841 	 
C 	 54.4125 	 14.7122 	 54.9963 	 
H 	 55.3147 	 14.9008 	 55.5463 	 
H 	 53.7421 	 14.6061 	 55.818 	 
C 	 54.049 	 15.847 	 54.0641 	 
H 	 53.0301 	 15.7604 	 53.782 	 
H 	 54.2362 	 16.7508 	 54.6345 	 
C 	 54.9793 	 15.9789 	 52.822 	 
H 	 55.9843 	 16.2165 	 53.1663 	 
H 	 55.0613 	 15.1391 	 52.1903 	 
H 	 54.796 	 16.8535 	 52.214 	 
S 	 52.9166 	 8.84329 	 52.4174 	 
C 	 51.2563 	 8.41024 	 52.0939 	 
C 	 50.3868 	 9.39081 	 52.5964 	 
C 	 51.0084 	 10.4383 	 53.3729 	 
C 	 52.4304 	 10.335 	 53.2713 	 
H 	 49.2881 	 9.33211 	 52.3436 	 
C 	 50.1175 	 11.4787 	 54.0449 	 
H 	 50.4881 	 11.7642 	 55.0501 	 
H 	 49.0987 	 10.9882 	 54.1322 	 
C 	 49.9348 	 12.717 	 53.1513 	 
H 	 49.2641 	 12.4805 	 52.3039 	 
H 	 50.8611 	 13.1354 	 52.6764 	 
C 	 49.2688 	 13.9194 	 53.9341 	 
H 	 49.899 	 14.1242 	 54.7868 	 
H 	 48.2724 	 13.781 	 54.3617 	 
H 	 49.2166 	 14.6953 	 53.1168 	 
H 	 56.5542 	 12.8805 	 54.3917 	 
H 	 50.9568 	 7.39427 	 51.8014 	 
*
