! wB97X-D3 SP def2-SVP
%pal
nprocs 16
end

* xyz 0 1
S 	 -29.8609 	 62.6614 	 111.906 	 
C 	 -28.7339 	 62.586 	 110.587 	 
C 	 -29.3633 	 62.5711 	 109.334 	 
C 	 -30.7655 	 62.5831 	 109.505 	 
C 	 -31.2398 	 62.5896 	 110.817 	 
H 	 -31.4537 	 62.6439 	 108.712 	 
C 	 -28.6724 	 62.3206 	 108.016 	 
H 	 -29.4511 	 62.2597 	 107.284 	 
H 	 -28.1983 	 61.4278 	 108.226 	 
C 	 -27.7172 	 63.3377 	 107.507 	 
H 	 -26.9833 	 63.4169 	 108.244 	 
H 	 -27.1282 	 63.0644 	 106.684 	 
C 	 -28.2196 	 64.7724 	 107.506 	 
H 	 -28.41 	 64.9315 	 106.407 	 
H 	 -29.123 	 64.8855 	 108.037 	 
H 	 -27.436 	 65.4338 	 107.92 	 
S 	 -33.7545 	 63.7014 	 111.004 	 
C 	 -35.0343 	 62.8791 	 111.825 	 
C 	 -34.5819 	 61.6672 	 112.368 	 
C 	 -33.2052 	 61.3947 	 112.095 	 
C 	 -32.6132 	 62.3994 	 111.309 	 
H 	 -35.1552 	 61.0018 	 112.862 	 
C 	 -32.5329 	 60.2083 	 112.642 	 
H 	 -32.8478 	 60.1624 	 113.731 	 
H 	 -31.4754 	 60.456 	 112.682 	 
C 	 -32.5992 	 58.8772 	 111.809 	 
H 	 -33.636 	 58.5321 	 111.794 	 
H 	 -32.0302 	 58.039 	 112.275 	 
C 	 -32.0077 	 58.9652 	 110.426 	 
H 	 -31.0657 	 59.6121 	 110.404 	 
H 	 -32.7191 	 59.4283 	 109.803 	 
H 	 -31.7655 	 58.013 	 109.943 	 
H 	 -27.6696 	 62.3698 	 110.736 	 
H 	 -35.9946 	 63.2169 	 111.765 	 
*
