! wB97X-D3 SP def2-SVP
%pal
nprocs 16
end

* xyz 0 1
S 	 55.8363 	 -4.80009 	 87.6635 	 
C 	 54.3536 	 -5.13903 	 88.5599 	 
C 	 53.3345 	 -4.31044 	 88.1667 	 
C 	 53.7953 	 -3.41266 	 87.147 	 
C 	 55.1226 	 -3.51567 	 86.7881 	 
H 	 53.1624 	 -2.6517 	 86.7494 	 
C 	 52.0127 	 -4.14413 	 88.9107 	 
H 	 51.746 	 -5.15984 	 89.2018 	 
H 	 51.1772 	 -3.78992 	 88.2813 	 
C 	 52.0424 	 -3.3032 	 90.1714 	 
H 	 52.6291 	 -3.7093 	 90.9773 	 
H 	 52.4802 	 -2.31652 	 90.0577 	 
C 	 50.6021 	 -3.08286 	 90.7169 	 
H 	 50.0126 	 -2.62681 	 89.9217 	 
H 	 50.1747 	 -4.08203 	 91.0006 	 
H 	 50.6362 	 -2.36504 	 91.5459 	 
S 	 56.6369 	 -3.47196 	 84.5402 	 
C 	 57.0442 	 -1.98547 	 83.7441 	 
C 	 56.5903 	 -0.924372 	 84.4368 	 
C 	 55.8508 	 -1.29014 	 85.6206 	 
C 	 55.8121 	 -2.68192 	 85.8308 	 
H 	 56.7946 	 0.0621179 	 84.1389 	 
C 	 55.1074 	 -0.23585 	 86.4924 	 
H 	 55.6633 	 -0.111478 	 87.3264 	 
H 	 54.1039 	 -0.528152 	 86.8822 	 
C 	 54.8815 	 1.12551 	 85.7973 	 
H 	 54.2341 	 1.01865 	 84.9017 	 
H 	 55.7724 	 1.52546 	 85.4185 	 
C 	 54.2711 	 2.07372 	 86.8425 	 
H 	 54.094 	 3.08406 	 86.4389 	 
H 	 54.855 	 2.12431 	 87.8141 	 
H 	 53.2116 	 1.92641 	 87.0586 	 
H 	 54.1406 	 -5.81201 	 89.2872 	 
H 	 57.6502 	 -1.87164 	 82.8565 	 
*
