! wB97X-D3 SP def2-SVP
%pal
nprocs 16
end

* xyz 0 1
S 	 -103.016 	 52.9635 	 117.803 	 
C 	 -102.958 	 54.3696 	 116.804 	 
C 	 -103.711 	 55.435 	 117.32 	 
C 	 -104.177 	 55.1648 	 118.648 	 
C 	 -103.879 	 53.8751 	 119.096 	 
H 	 -104.605 	 55.7752 	 119.421 	 
C 	 -103.936 	 56.7542 	 116.669 	 
H 	 -103.641 	 56.5745 	 115.616 	 
H 	 -103.091 	 57.3468 	 117.054 	 
C 	 -105.178 	 57.6567 	 116.933 	 
H 	 -105.17 	 57.7627 	 117.988 	 
H 	 -105.075 	 58.6155 	 116.408 	 
C 	 -106.46 	 57.0991 	 116.409 	 
H 	 -107.384 	 57.6207 	 116.706 	 
H 	 -106.397 	 57.2127 	 115.394 	 
H 	 -106.56 	 56.024 	 116.644 	 
S 	 -102.642 	 53.0291 	 121.416 	 
C 	 -103.674 	 52.645 	 122.777 	 
C 	 -105.04 	 52.8949 	 122.573 	 
C 	 -105.198 	 53.4737 	 121.306 	 
C 	 -104.085 	 53.4465 	 120.487 	 
H 	 -105.788 	 52.7282 	 123.358 	 
C 	 -106.611 	 53.8433 	 120.834 	 
H 	 -107.086 	 52.8125 	 120.907 	 
H 	 -106.679 	 54.2417 	 119.823 	 
C 	 -107.324 	 54.8178 	 121.648 	 
H 	 -106.779 	 55.7224 	 121.456 	 
H 	 -107.284 	 54.6086 	 122.738 	 
C 	 -108.822 	 54.7997 	 121.348 	 
H 	 -108.92 	 55.1461 	 120.291 	 
H 	 -109.4 	 55.4623 	 121.946 	 
H 	 -109.239 	 53.8391 	 121.405 	 
H 	 -102.61 	 54.4144 	 115.722 	 
H 	 -103.273 	 52.5756 	 123.734 	 
*
