! wB97X-D3 SP def2-SVP
%pal
nprocs 16
end

* xyz 0 1
S 	 4.23489 	 -4.34962 	 71.0841 	 
C 	 2.90677 	 -3.62721 	 70.3303 	 
C 	 1.80827 	 -3.80066 	 71.1528 	 
C 	 2.0652 	 -4.45509 	 72.3925 	 
C 	 3.39041 	 -4.87855 	 72.5138 	 
H 	 1.3174 	 -4.63492 	 73.1634 	 
C 	 0.390945 	 -3.27527 	 70.8286 	 
H 	 0.386484 	 -2.70643 	 69.9579 	 
H 	 0.1729 	 -2.58731 	 71.6125 	 
C 	 -0.655599 	 -4.40201 	 70.6384 	 
H 	 -0.539352 	 -5.12044 	 71.3869 	 
H 	 -1.60584 	 -4.0187 	 70.5859 	 
C 	 -0.451289 	 -5.2387 	 69.417 	 
H 	 -0.980743 	 -6.1363 	 69.6108 	 
H 	 -0.823012 	 -4.58923 	 68.6359 	 
H 	 0.556843 	 -5.52481 	 69.1545 	 
S 	 3.59285 	 -6.64809 	 74.6271 	 
C 	 4.85365 	 -6.5605 	 75.7833 	 
C 	 5.59912 	 -5.41539 	 75.5237 	 
C 	 5.34503 	 -4.74875 	 74.2794 	 
C 	 4.15056 	 -5.21765 	 73.749 	 
H 	 6.39803 	 -5.16372 	 76.1464 	 
C 	 6.13951 	 -3.48603 	 73.8094 	 
H 	 5.52082 	 -2.92653 	 73.071 	 
H 	 7.0646 	 -3.84924 	 73.274 	 
C 	 6.41921 	 -2.44133 	 74.9083 	 
H 	 6.95819 	 -1.68417 	 74.4567 	 
H 	 6.91048 	 -2.91039 	 75.7616 	 
C 	 5.17933 	 -1.62073 	 75.2641 	 
H 	 4.27585 	 -2.10458 	 75.4702 	 
H 	 5.0611 	 -0.813577 	 74.5052 	 
H 	 5.42893 	 -1.24231 	 76.2894 	 
H 	 3.01554 	 -3.07552 	 69.4127 	 
H 	 4.92597 	 -7.15026 	 76.7025 	 
*
