! wB97X-D3 SP def2-SVP
%pal
nprocs 16
end

* xyz 0 1
S 	 -55.0734 	 20.7421 	 89.1941 	 
C 	 -53.4264 	 21.0655 	 88.6466 	 
C 	 -53.235 	 22.3941 	 88.3438 	 
C 	 -54.4671 	 23.1273 	 88.4445 	 
C 	 -55.5974 	 22.4092 	 88.9998 	 
H 	 -54.5681 	 24.1561 	 88.1097 	 
C 	 -52.0066 	 22.9192 	 87.6073 	 
H 	 -51.3017 	 22.6709 	 88.3179 	 
H 	 -52.0322 	 23.9726 	 87.5811 	 
C 	 -51.6313 	 22.3134 	 86.3343 	 
H 	 -50.6846 	 22.7818 	 86.1625 	 
H 	 -51.3175 	 21.2715 	 86.5692 	 
C 	 -52.4982 	 22.4534 	 85.0427 	 
H 	 -53.2619 	 21.6529 	 84.8537 	 
H 	 -53.0739 	 23.3954 	 84.9787 	 
H 	 -51.8758 	 22.4236 	 84.1851 	 
S 	 -57.0643 	 24.7237 	 88.9947 	 
C 	 -58.6783 	 24.7805 	 89.7164 	 
C 	 -59.036 	 23.4909 	 90.098 	 
C 	 -58.0167 	 22.4503 	 90.0124 	 
C 	 -56.9371 	 22.9587 	 89.2546 	 
H 	 -59.9479 	 23.3164 	 90.5861 	 
C 	 -58.1869 	 21.1211 	 90.741 	 
H 	 -58.8951 	 21.1286 	 91.6115 	 
H 	 -57.3146 	 21.0057 	 91.3026 	 
C 	 -58.4449 	 19.8746 	 89.8944 	 
H 	 -57.771 	 19.7651 	 89.0166 	 
H 	 -59.4669 	 19.9673 	 89.5193 	 
C 	 -58.1999 	 18.5698 	 90.6849 	 
H 	 -57.7381 	 17.7781 	 90.0482 	 
H 	 -59.1326 	 18.1128 	 91.0657 	 
H 	 -57.5971 	 18.6182 	 91.5396 	 
H 	 -52.6676 	 20.2868 	 88.6258 	 
H 	 -59.3263 	 25.628 	 89.8646 	 
*
