! wB97X-D3 SP def2-SVP
%pal
nprocs 16
end

* xyz 0 1
S 	 -32.3595 	 58.6501 	 113.244 	 
C 	 -33.7052 	 58.1313 	 112.134 	 
C 	 -34.8468 	 57.8632 	 112.871 	 
C 	 -34.6967 	 57.9989 	 114.327 	 
C 	 -33.3997 	 58.4522 	 114.685 	 
H 	 -35.4423 	 57.734 	 115.086 	 
C 	 -36.1335 	 57.2739 	 112.342 	 
H 	 -36.1201 	 56.1975 	 112.409 	 
H 	 -36.0491 	 57.3851 	 111.262 	 
C 	 -37.4391 	 57.7743 	 112.951 	 
H 	 -37.6034 	 57.4065 	 113.964 	 
H 	 -37.5017 	 58.8411 	 113.018 	 
C 	 -38.6848 	 57.3535 	 112.024 	 
H 	 -38.4594 	 57.5106 	 110.968 	 
H 	 -39.1069 	 56.387 	 112.177 	 
H 	 -39.4768 	 58.0784 	 112.241 	 
S 	 -31.1506 	 58.758 	 116.39 	 
C 	 -31.371 	 59.0837 	 118.105 	 
C 	 -32.7197 	 59.2125 	 118.348 	 
C 	 -33.6081 	 59.1962 	 117.163 	 
C 	 -32.9147 	 58.7724 	 115.994 	 
H 	 -33.0545 	 59.2986 	 119.366 	 
C 	 -35.0875 	 59.3134 	 117.378 	 
H 	 -35.6479 	 59.3947 	 116.448 	 
H 	 -35.3442 	 60.2708 	 117.849 	 
C 	 -35.5954 	 58.1409 	 118.19 	 
H 	 -35.2018 	 58.0508 	 119.215 	 
H 	 -35.1307 	 57.2487 	 117.759 	 
C 	 -37.0413 	 57.9085 	 118.13 	 
H 	 -37.4194 	 57.3683 	 117.165 	 
H 	 -37.5809 	 58.8281 	 118.348 	 
H 	 -37.2694 	 57.3604 	 119.024 	 
H 	 -33.6309 	 57.8898 	 111.118 	 
H 	 -30.6127 	 59.0538 	 118.894 	 
*
