! wB97X-D3 SP def2-SVP
%pal
nprocs 16
end

* xyz 0 1
S 	 41.1299 	 26.6093 	 94.0517 	 
C 	 40.7847 	 27.7494 	 92.7606 	 
C 	 40.3839 	 27.0765 	 91.6222 	 
C 	 40.2653 	 25.7037 	 91.7867 	 
C 	 40.6406 	 25.1769 	 93.0315 	 
H 	 39.8233 	 25.1549 	 91.0154 	 
C 	 39.9222 	 27.8734 	 90.309 	 
H 	 39.6493 	 27.2241 	 89.514 	 
H 	 40.7708 	 28.3532 	 89.9675 	 
C 	 38.6781 	 28.8838 	 90.5665 	 
H 	 39.0282 	 29.6768 	 91.1661 	 
H 	 38.477 	 29.3728 	 89.6399 	 
C 	 37.3111 	 28.2084 	 91.0007 	 
H 	 36.4654 	 28.8958 	 91.0518 	 
H 	 37.02 	 27.4832 	 90.2957 	 
H 	 37.5407 	 27.793 	 92.0257 	 
S 	 40.2984 	 23.4584 	 95.1127 	 
C 	 40.5475 	 21.7881 	 94.8595 	 
C 	 40.7661 	 21.4586 	 93.4843 	 
C 	 40.7966 	 22.597 	 92.6449 	 
C 	 40.6503 	 23.8032 	 93.4465 	 
H 	 40.9211 	 20.3857 	 93.2587 	 
C 	 41.2667 	 22.5266 	 91.1652 	 
H 	 42.0983 	 21.7769 	 91.0238 	 
H 	 41.7315 	 23.4443 	 90.9055 	 
C 	 40.1631 	 22.2007 	 90.2314 	 
H 	 39.589 	 23.1089 	 90.0733 	 
H 	 39.4914 	 21.4398 	 90.4926 	 
C 	 40.7191 	 21.8227 	 88.8722 	 
H 	 39.9604 	 21.8424 	 88.1242 	 
H 	 41.3591 	 20.9402 	 88.7925 	 
H 	 41.5153 	 22.5286 	 88.5633 	 
H 	 40.7488 	 28.8393 	 92.7565 	 
H 	 40.6888 	 21.1256 	 95.7119 	 
*
