! wB97X-D3 SP def2-SVP
%pal
nprocs 16
end

* xyz 0 1
S 	 45.7743 	 12.9781 	 85.6116 	 
C 	 46.0961 	 12.3414 	 84.0204 	 
C 	 45.1158 	 12.7251 	 83.1345 	 
C 	 43.9638 	 13.2465 	 83.8507 	 
C 	 44.2961 	 13.6863 	 85.0933 	 
H 	 42.9653 	 13.4647 	 83.4096 	 
C 	 45.2067 	 12.5309 	 81.7208 	 
H 	 45.7547 	 11.5704 	 81.5727 	 
H 	 45.8377 	 13.2333 	 81.2539 	 
C 	 43.8263 	 12.4647 	 80.9497 	 
H 	 42.9209 	 11.9995 	 81.4052 	 
H 	 43.4657 	 13.5459 	 80.8441 	 
C 	 44.0053 	 11.8228 	 79.5545 	 
H 	 44.9171 	 12.1088 	 79.0819 	 
H 	 43.8602 	 10.7747 	 79.7267 	 
H 	 43.2307 	 12.1974 	 78.8809 	 
S 	 43.795 	 16.0301 	 86.5899 	 
C 	 42.1814 	 16.2469 	 87.064 	 
C 	 41.3958 	 15.1407 	 86.9067 	 
C 	 42.082 	 14.0732 	 86.2422 	 
C 	 43.4016 	 14.4587 	 85.896 	 
H 	 40.3459 	 15.1421 	 87.2922 	 
C 	 41.3813 	 12.738 	 86.0273 	 
H 	 42.189 	 12.0002 	 86.1241 	 
H 	 40.7706 	 12.5011 	 85.1003 	 
C 	 40.4906 	 12.248 	 87.1892 	 
H 	 39.6118 	 12.8512 	 87.2309 	 
H 	 41.0549 	 12.3567 	 88.0713 	 
C 	 40.1522 	 10.7935 	 87.1909 	 
H 	 39.2917 	 10.5865 	 87.7724 	 
H 	 41.031 	 10.2445 	 87.5605 	 
H 	 40.0707 	 10.4854 	 86.1988 	 
H 	 47.0655 	 11.964 	 83.7583 	 
H 	 41.7337 	 17.0149 	 87.7305 	 
*
