! wB97X-D3 SP def2-SVP
%pal
nprocs 16
end

* xyz 0 1
S 	 -47.0207 	 49.0993 	 104.814 	 
C 	 -46.6126 	 49.0897 	 106.54 	 
C 	 -47.1252 	 47.9664 	 107.21 	 
C 	 -47.6212 	 47.0042 	 106.254 	 
C 	 -47.6572 	 47.4861 	 104.977 	 
H 	 -47.9968 	 46.0176 	 106.526 	 
C 	 -46.8882 	 47.8668 	 108.73 	 
H 	 -46.7349 	 46.7861 	 108.986 	 
H 	 -47.8698 	 48.2095 	 109.147 	 
C 	 -45.8072 	 48.6223 	 109.431 	 
H 	 -44.8144 	 48.5234 	 109.041 	 
H 	 -46.0155 	 49.6594 	 109.397 	 
C 	 -45.7425 	 48.4077 	 110.885 	 
H 	 -46.6546 	 48.6686 	 111.429 	 
H 	 -45.4513 	 47.3728 	 111.202 	 
H 	 -44.8249 	 48.8961 	 111.232 	 
S 	 -49.4845 	 47.7477 	 102.941 	 
C 	 -49.8298 	 46.3522 	 101.866 	 
C 	 -48.904 	 45.3778 	 102.066 	 
C 	 -48.1485 	 45.6552 	 103.23 	 
C 	 -48.2589 	 46.8807 	 103.811 	 
H 	 -48.9247 	 44.4538 	 101.522 	 
C 	 -47.1397 	 44.5991 	 103.81 	 
H 	 -46.3882 	 45.1369 	 104.426 	 
H 	 -46.6276 	 44.0899 	 102.929 	 
C 	 -47.862 	 43.6242 	 104.707 	 
H 	 -48.7087 	 44.0346 	 105.19 	 
H 	 -47.2395 	 43.247 	 105.501 	 
C 	 -48.4748 	 42.4486 	 103.997 	 
H 	 -48.9836 	 41.9184 	 104.758 	 
H 	 -47.6792 	 41.7677 	 103.601 	 
H 	 -49.2419 	 42.7581 	 103.282 	 
H 	 -46.127 	 49.8591 	 107.096 	 
H 	 -50.6009 	 46.2491 	 101.152 	 
*
