! wB97X-D3 SP def2-SVP
%pal
nprocs 16
end

* xyz 0 1
S 	 42.9677 	 17.0558 	 76.7108 	 
C 	 42.4044 	 16.956 	 78.3383 	 
C 	 43.507 	 17.158 	 79.1883 	 
C 	 44.6986 	 17.5885 	 78.5141 	 
C 	 44.6201 	 17.5519 	 77.136 	 
H 	 45.6812 	 17.6918 	 79.0009 	 
C 	 43.4122 	 16.9623 	 80.6755 	 
H 	 44.4297 	 16.6868 	 81.0598 	 
H 	 42.8225 	 16.1 	 80.9095 	 
C 	 42.9422 	 18.2286 	 81.516 	 
H 	 42.0742 	 18.7045 	 81.1292 	 
H 	 42.6629 	 17.9084 	 82.5568 	 
C 	 44.0535 	 19.2162 	 81.7021 	 
H 	 44.764 	 18.9144 	 82.4432 	 
H 	 44.6609 	 19.2796 	 80.7672 	 
H 	 43.7412 	 20.2561 	 81.9002 	 
S 	 45.3537 	 17.4468 	 74.5823 	 
C 	 46.8075 	 18.0141 	 73.9218 	 
C 	 47.6736 	 18.3275 	 74.9044 	 
C 	 47.0812 	 18.2797 	 76.2593 	 
C 	 45.7246 	 17.8405 	 76.2272 	 
H 	 48.6223 	 18.715 	 74.6725 	 
C 	 47.841 	 18.878 	 77.5453 	 
H 	 46.9516 	 19.3795 	 78.1088 	 
H 	 48.4605 	 19.636 	 77.1499 	 
C 	 48.8228 	 17.9512 	 78.409 	 
H 	 49.4295 	 18.5393 	 79.1114 	 
H 	 49.5132 	 17.3673 	 77.7256 	 
C 	 48.0579 	 16.8662 	 79.1969 	 
H 	 47.505 	 16.3414 	 78.4387 	 
H 	 47.4352 	 17.1945 	 79.9897 	 
H 	 48.7059 	 16.1339 	 79.6516 	 
H 	 41.4255 	 16.6035 	 78.6105 	 
H 	 47.0989 	 18.0636 	 72.9011 	 
*
