! wB97X-D3 SP def2-SVP
%pal
nprocs 16
end

* xyz 0 1
S 	 -20.5759 	 -3.35262 	 81.5649 	 
C 	 -19.6595 	 -4.03418 	 80.2959 	 
C 	 -18.6948 	 -4.91736 	 80.7774 	 
C 	 -18.7692 	 -5.0253 	 82.1912 	 
C 	 -19.6199 	 -4.14357 	 82.8814 	 
H 	 -18.0875 	 -5.54767 	 82.9324 	 
C 	 -17.7856 	 -5.81087 	 79.9938 	 
H 	 -16.9935 	 -6.3141 	 80.6079 	 
H 	 -17.3547 	 -5.09331 	 79.3318 	 
C 	 -18.4441 	 -6.91336 	 79.1171 	 
H 	 -19.116 	 -6.33462 	 78.4012 	 
H 	 -17.735 	 -7.47318 	 78.5112 	 
C 	 -19.2499 	 -7.85244 	 80.0037 	 
H 	 -20.0381 	 -7.35166 	 80.5669 	 
H 	 -19.7413 	 -8.75736 	 79.5656 	 
H 	 -18.5457 	 -8.20915 	 80.7617 	 
S 	 -21.4276 	 -3.82904 	 84.9713 	 
C 	 -20.8268 	 -3.22729 	 86.4943 	 
C 	 -19.4844 	 -3.52286 	 86.6392 	 
C 	 -18.906 	 -3.91057 	 85.3415 	 
C 	 -19.8166 	 -3.98891 	 84.314 	 
H 	 -18.9306 	 -3.37715 	 87.5214 	 
C 	 -17.3516 	 -3.99529 	 85.1151 	 
H 	 -16.8336 	 -3.1441 	 85.5809 	 
H 	 -17.1566 	 -3.87818 	 84.106 	 
C 	 -16.6074 	 -5.34366 	 85.4819 	 
H 	 -17.0958 	 -6.13956 	 84.9288 	 
H 	 -16.5871 	 -5.49348 	 86.5939 	 
C 	 -15.133 	 -5.31241 	 85.0876 	 
H 	 -15.1489 	 -5.27096 	 83.9367 	 
H 	 -14.5767 	 -6.18443 	 85.4384 	 
H 	 -14.6464 	 -4.40697 	 85.4917 	 
H 	 -19.9361 	 -4.00142 	 79.276 	 
H 	 -21.4678 	 -2.89507 	 87.2197 	 
*
