! wB97X-D3 SP def2-SVP
%pal
nprocs 16
end

* xyz 0 1
S 	 -32.4864 	 2.968 	 98.5069 	 
C 	 -32.4624 	 1.29194 	 97.8628 	 
C 	 -33.3717 	 0.440568 	 98.4493 	 
C 	 -34.1737 	 1.18704 	 99.4054 	 
C 	 -33.8964 	 2.51468 	 99.5098 	 
H 	 -34.9776 	 0.77723 	 99.9722 	 
C 	 -33.444 	 -1.04967 	 98.2582 	 
H 	 -34.0819 	 -1.55063 	 99.0457 	 
H 	 -32.4712 	 -1.4564 	 98.3783 	 
C 	 -34.0132 	 -1.39261 	 96.9202 	 
H 	 -35.0099 	 -0.958065 	 96.9247 	 
H 	 -33.4119 	 -1.12181 	 96.1145 	 
C 	 -34.2644 	 -2.92882 	 96.7715 	 
H 	 -35.0096 	 -3.32461 	 97.4387 	 
H 	 -34.539 	 -3.15703 	 95.7644 	 
H 	 -33.3327 	 -3.47565 	 96.8689 	 
S 	 -35.0138 	 4.97513 	 99.4355 	 
C 	 -36.0521 	 5.43313 	 100.74 	 
C 	 -35.9105 	 4.6336 	 101.861 	 
C 	 -35.144 	 3.42583 	 101.592 	 
C 	 -34.5859 	 3.45462 	 100.314 	 
H 	 -36.5531 	 4.89179 	 102.65 	 
C 	 -35.1652 	 2.30826 	 102.543 	 
H 	 -34.7663 	 2.58511 	 103.607 	 
H 	 -34.4126 	 1.49775 	 102.208 	 
C 	 -36.5381 	 1.58673 	 102.662 	 
H 	 -36.7445 	 1.01013 	 101.768 	 
H 	 -37.4616 	 2.30728 	 102.583 	 
C 	 -36.753 	 0.6446 	 103.891 	 
H 	 -35.9688 	 -0.10596 	 103.885 	 
H 	 -37.8032 	 0.265785 	 103.741 	 
H 	 -36.7325 	 1.16191 	 104.872 	 
H 	 -31.8678 	 0.932577 	 97.0156 	 
H 	 -36.7978 	 6.16316 	 100.667 	 
*
