! wB97X-D3 SP def2-SVP
%pal
nprocs 16
end

* xyz 0 1
S 	 -28.5675 	 54.1557 	 110.045 	 
C 	 -29.2183 	 52.8643 	 111.094 	 
C 	 -29.931 	 53.231 	 112.239 	 
C 	 -29.8267 	 54.6543 	 112.34 	 
C 	 -29.1745 	 55.2856 	 111.288 	 
H 	 -30.2882 	 55.2811 	 113.154 	 
C 	 -30.6623 	 52.3854 	 113.312 	 
H 	 -31.2328 	 51.6083 	 112.785 	 
H 	 -31.3018 	 53.1593 	 113.819 	 
C 	 -29.8748 	 51.5931 	 114.293 	 
H 	 -30.4822 	 51.0831 	 114.978 	 
H 	 -29.4681 	 50.8392 	 113.636 	 
C 	 -28.6456 	 52.1714 	 114.891 	 
H 	 -28.9004 	 53.0676 	 115.365 	 
H 	 -28.2816 	 51.5508 	 115.729 	 
H 	 -27.8298 	 52.3188 	 114.168 	 
S 	 -29.8964 	 57.5754 	 110.021 	 
C 	 -29.0553 	 59.0609 	 110.461 	 
C 	 -28.3157 	 58.9243 	 111.589 	 
C 	 -28.3435 	 57.5942 	 112.056 	 
C 	 -28.9961 	 56.7172 	 111.197 	 
H 	 -27.7232 	 59.8068 	 111.756 	 
C 	 -27.4932 	 57.2772 	 113.245 	 
H 	 -28.1957 	 56.7876 	 114.027 	 
H 	 -27.0065 	 58.1054 	 113.717 	 
C 	 -26.4463 	 56.1922 	 112.876 	 
H 	 -26.8349 	 55.4587 	 112.212 	 
H 	 -26.0538 	 55.6611 	 113.734 	 
C 	 -25.2514 	 56.9016 	 112.285 	 
H 	 -24.9518 	 57.7275 	 112.951 	 
H 	 -25.3176 	 57.1203 	 111.194 	 
H 	 -24.3996 	 56.1761 	 112.373 	 
H 	 -29.0717 	 51.8135 	 110.81 	 
H 	 -28.9257 	 60.0055 	 109.929 	 
*
