! wB97X-D3 SP def2-SVP
%pal
nprocs 16
end

* xyz 0 1
S 	 -42.5615 	 48.5723 	 104.749 	 
C 	 -42.0555 	 47.6072 	 106.165 	 
C 	 -42.5025 	 46.2792 	 106.077 	 
C 	 -43.3293 	 46.0903 	 104.941 	 
C 	 -43.6321 	 47.209 	 104.155 	 
H 	 -43.8959 	 45.1816 	 104.713 	 
C 	 -42.1494 	 45.1127 	 106.967 	 
H 	 -43.0882 	 44.4821 	 107.064 	 
H 	 -41.9987 	 45.5655 	 107.98 	 
C 	 -40.8696 	 44.3105 	 106.793 	 
H 	 -39.9448 	 44.818 	 106.941 	 
H 	 -40.8811 	 43.5649 	 107.591 	 
C 	 -40.732 	 43.6308 	 105.425 	 
H 	 -39.9061 	 42.9148 	 105.435 	 
H 	 -41.769 	 43.2219 	 105.378 	 
H 	 -40.4987 	 44.1837 	 104.512 	 
S 	 -43.6495 	 47.5558 	 101.352 	 
C 	 -45.115 	 47.3167 	 100.491 	 
C 	 -46.1127 	 46.8352 	 101.377 	 
C 	 -45.7487 	 46.7981 	 102.77 	 
C 	 -44.431 	 47.2412 	 102.929 	 
H 	 -47.0858 	 46.5926 	 100.984 	 
C 	 -46.6757 	 46.2826 	 103.838 	 
H 	 -47.527 	 46.9387 	 103.759 	 
H 	 -46.224 	 46.4302 	 104.782 	 
C 	 -47.1754 	 44.7435 	 103.721 	 
H 	 -47.861 	 44.6363 	 102.905 	 
H 	 -47.7606 	 44.4194 	 104.526 	 
C 	 -46.0553 	 43.7499 	 103.594 	 
H 	 -45.6251 	 43.8463 	 102.585 	 
H 	 -46.4339 	 42.7216 	 103.583 	 
H 	 -45.3037 	 43.7354 	 104.383 	 
H 	 -41.4614 	 47.9904 	 106.917 	 
H 	 -45.1815 	 47.3317 	 99.4146 	 
*
