! wB97X-D3 SP def2-SVP
%pal
nprocs 16
end

* xyz 0 1
S 	 0.931967 	 -4.77305 	 74.0402 	 
C 	 0.682831 	 -5.90888 	 75.3677 	 
C 	 1.45421 	 -5.57283 	 76.4425 	 
C 	 1.99675 	 -4.24268 	 76.3657 	 
C 	 1.71241 	 -3.55938 	 75.1802 	 
H 	 2.62747 	 -3.71582 	 77.0163 	 
C 	 1.72697 	 -6.51807 	 77.6641 	 
H 	 2.73751 	 -6.35445 	 77.9567 	 
H 	 1.616 	 -7.44863 	 77.2618 	 
C 	 1.04266 	 -6.1696 	 78.9746 	 
H 	 1.38075 	 -6.72938 	 79.8154 	 
H 	 1.17558 	 -5.16244 	 79.3095 	 
C 	 -0.499633 	 -6.36562 	 78.8847 	 
H 	 -1.01042 	 -5.92384 	 79.7364 	 
H 	 -1.03549 	 -5.88256 	 78.1408 	 
H 	 -0.820203 	 -7.41635 	 78.9538 	 
S 	 3.28818 	 -2.45159 	 73.1836 	 
C 	 3.87563 	 -0.822872 	 73.295 	 
C 	 3.42739 	 -0.193929 	 74.4293 	 
C 	 2.46857 	 -1.0557 	 75.1625 	 
C 	 2.3407 	 -2.33794 	 74.6368 	 
H 	 3.66438 	 0.800486 	 74.6069 	 
C 	 1.8772 	 -0.557817 	 76.4308 	 
H 	 2.37767 	 0.435524 	 76.6577 	 
H 	 2.25666 	 -1.19338 	 77.2519 	 
C 	 0.353626 	 -0.413998 	 76.4951 	 
H 	 0.113211 	 -0.0313391 	 77.5307 	 
H 	 -0.00425689 	 -1.46176 	 76.4526 	 
C 	 -0.248603 	 0.417164 	 75.4164 	 
H 	 0.0599265 	 0.0308607 	 74.4407 	 
H 	 0.0888885 	 1.49535 	 75.5132 	 
H 	 -1.34905 	 0.430781 	 75.5223 	 
H 	 0.135551 	 -6.85835 	 75.3532 	 
H 	 4.43203 	 -0.293997 	 72.5317 	 
*
