! wB97X-D3 SP def2-SVP
%pal
nprocs 16
end

* xyz 0 1
S 	 -35.659 	 58.8939 	 110.367 	 
C 	 -34.5511 	 60.2198 	 110.811 	 
C 	 -33.309 	 59.8648 	 111.24 	 
C 	 -33.2389 	 58.4572 	 111.363 	 
C 	 -34.3412 	 57.8616 	 110.792 	 
H 	 -32.4089 	 57.8653 	 111.826 	 
C 	 -32.3191 	 60.8538 	 111.753 	 
H 	 -32.7719 	 61.5038 	 112.531 	 
H 	 -32.0202 	 61.6211 	 110.963 	 
C 	 -31.0899 	 60.2257 	 112.519 	 
H 	 -31.5403 	 59.6407 	 113.35 	 
H 	 -30.4764 	 59.5173 	 111.937 	 
C 	 -30.1826 	 61.285 	 113.133 	 
H 	 -30.7197 	 61.9185 	 113.832 	 
H 	 -29.4266 	 60.7697 	 113.704 	 
H 	 -29.6197 	 61.7965 	 112.402 	 
S 	 -35.7773 	 55.6588 	 111.57 	 
C 	 -35.6274 	 54.1427 	 110.597 	 
C 	 -34.5298 	 54.2303 	 109.764 	 
C 	 -33.8281 	 55.5025 	 109.881 	 
C 	 -34.5322 	 56.4005 	 110.647 	 
H 	 -34.232 	 53.3827 	 109.158 	 
C 	 -32.5101 	 55.7351 	 109.089 	 
H 	 -32.1383 	 56.7189 	 109.244 	 
H 	 -32.9906 	 55.8315 	 108.151 	 
C 	 -31.3795 	 54.6903 	 109.214 	 
H 	 -31.7154 	 53.6635 	 108.819 	 
H 	 -31.054 	 54.4798 	 110.22 	 
C 	 -30.0602 	 55.1105 	 108.58 	 
H 	 -30.1236 	 55.3394 	 107.525 	 
H 	 -29.287 	 54.3153 	 108.709 	 
H 	 -29.8004 	 55.9771 	 109.162 	 
H 	 -34.894 	 61.2584 	 110.924 	 
H 	 -36.2424 	 53.2183 	 110.699 	 
*
