! wB97X-D3 SP def2-SVP
%pal
nprocs 16
end

* xyz 0 1
S 	 -12.9556 	 68.0577 	 52.0875 	 
C 	 -13.3659 	 66.7948 	 50.9294 	 
C 	 -13.7912 	 67.3008 	 49.7156 	 
C 	 -13.8795 	 68.75 	 49.7085 	 
C 	 -13.5258 	 69.3201 	 50.9245 	 
H 	 -14.116 	 69.3865 	 48.8674 	 
C 	 -13.76 	 66.441 	 48.381 	 
H 	 -12.8731 	 65.9066 	 48.4486 	 
H 	 -13.6497 	 67.0621 	 47.494 	 
C 	 -14.9513 	 65.6104 	 48.2617 	 
H 	 -15.3605 	 65.1737 	 49.1655 	 
H 	 -15.7732 	 66.115 	 47.8533 	 
C 	 -14.9091 	 64.2898 	 47.5268 	 
H 	 -15.8934 	 63.9417 	 47.7496 	 
H 	 -14.7267 	 64.2206 	 46.4255 	 
H 	 -14.2266 	 63.6253 	 48.0441 	 
S 	 -14.076 	 71.4671 	 52.6084 	 
C 	 -13.3974 	 72.9944 	 52.2596 	 
C 	 -12.6305 	 72.9954 	 51.1106 	 
C 	 -12.6204 	 71.7211 	 50.4466 	 
C 	 -13.2967 	 70.7376 	 51.1987 	 
H 	 -12.2412 	 73.8707 	 50.8577 	 
C 	 -11.7573 	 71.516 	 49.1989 	 
H 	 -12.0183 	 70.5195 	 48.8959 	 
H 	 -10.7524 	 71.4868 	 49.6512 	 
C 	 -11.7062 	 72.608 	 48.1323 	 
H 	 -11.4357 	 73.6082 	 48.5528 	 
H 	 -12.6344 	 72.5912 	 47.6184 	 
C 	 -10.4828 	 72.4731 	 47.1811 	 
H 	 -10.4592 	 71.5881 	 46.5807 	 
H 	 -9.47782 	 72.6383 	 47.7057 	 
H 	 -10.5129 	 73.2398 	 46.4234 	 
H 	 -12.9667 	 65.7773 	 51.1049 	 
H 	 -13.4861 	 73.8864 	 52.9206 	 
*
