! wB97X-D3 SP def2-SVP
%pal
nprocs 16
end

* xyz 0 1
S 	 5.64526 	 -6.01958 	 81.4916 	 
C 	 6.03459 	 -5.59647 	 83.1442 	 
C 	 5.16268 	 -4.66602 	 83.6553 	 
C 	 4.16315 	 -4.19499 	 82.7705 	 
C 	 4.16472 	 -4.99643 	 81.6272 	 
H 	 3.32644 	 -3.56635 	 82.8839 	 
C 	 5.28224 	 -4.25617 	 85.116 	 
H 	 4.93544 	 -3.24863 	 85.188 	 
H 	 6.39652 	 -4.3765 	 85.2791 	 
C 	 4.47005 	 -5.12833 	 86.1102 	 
H 	 4.71807 	 -4.76866 	 87.1072 	 
H 	 3.46347 	 -4.77031 	 86.0383 	 
C 	 4.62099 	 -6.58814 	 86.1035 	 
H 	 3.99658 	 -7.02284 	 86.8794 	 
H 	 4.44028 	 -6.94276 	 85.1131 	 
H 	 5.66812 	 -6.87712 	 86.3694 	 
S 	 2.82739 	 -3.59271 	 79.6303 	 
C 	 1.60214 	 -4.43096 	 78.6072 	 
C 	 1.5052 	 -5.74945 	 78.9588 	 
C 	 2.44384 	 -6.12538 	 80.0372 	 
C 	 3.09836 	 -5.0219 	 80.6057 	 
H 	 0.838943 	 -6.41302 	 78.4978 	 
C 	 2.53361 	 -7.60714 	 80.5472 	 
H 	 2.27836 	 -7.52244 	 81.534 	 
H 	 3.57225 	 -7.89134 	 80.5887 	 
C 	 1.70939 	 -8.73417 	 79.8056 	 
H 	 0.625893 	 -8.5024 	 79.8236 	 
H 	 1.83535 	 -9.64192 	 80.4453 	 
C 	 2.25651 	 -9.16078 	 78.4211 	 
H 	 2.52394 	 -8.33701 	 77.7683 	 
H 	 1.47595 	 -9.71655 	 77.8946 	 
H 	 3.06389 	 -9.89951 	 78.5232 	 
H 	 6.75313 	 -6.19952 	 83.6617 	 
H 	 1.00434 	 -3.79255 	 77.9156 	 
*
