! wB97X-D3 SP def2-SVP
%pal
nprocs 16
end

* xyz 0 1
S 	 -8.36931 	 12.389 	 81.3193 	 
C 	 -8.77566 	 12.4206 	 79.5731 	 
C 	 -9.27176 	 13.6658 	 79.2114 	 
C 	 -9.35556 	 14.5298 	 80.29 	 
C 	 -8.67442 	 14.0991 	 81.4311 	 
H 	 -9.80002 	 15.5213 	 80.2184 	 
C 	 -9.77566 	 14.0145 	 77.9145 	 
H 	 -9.10256 	 13.5461 	 77.1239 	 
H 	 -9.74624 	 15.0932 	 77.8016 	 
C 	 -11.2582 	 13.5362 	 77.5115 	 
H 	 -11.1856 	 13.8865 	 76.4837 	 
H 	 -11.3211 	 12.4599 	 77.6256 	 
C 	 -12.5244 	 14.181 	 78.1828 	 
H 	 -12.6175 	 13.9616 	 79.2474 	 
H 	 -12.4473 	 15.2539 	 78.1945 	 
H 	 -13.385 	 13.9606 	 77.5102 	 
S 	 -8.57922 	 13.9002 	 84.2004 	 
C 	 -8.19571 	 15.3419 	 85.1329 	 
C 	 -8.24277 	 16.4936 	 84.3653 	 
C 	 -8.30039 	 16.2138 	 83.0086 	 
C 	 -8.60831 	 14.8892 	 82.7112 	 
H 	 -8.02622 	 17.5563 	 84.6371 	 
C 	 -8.10294 	 17.3372 	 81.9688 	 
H 	 -8.87296 	 18.0984 	 82.1123 	 
H 	 -8.27157 	 16.8828 	 80.9774 	 
C 	 -6.71182 	 18.0838 	 82.1028 	 
H 	 -6.38576 	 18.4153 	 83.0935 	 
H 	 -6.87545 	 19.0221 	 81.4972 	 
C 	 -5.56488 	 17.3452 	 81.4519 	 
H 	 -5.84082 	 17.1726 	 80.3812 	 
H 	 -5.45904 	 16.3317 	 81.8487 	 
H 	 -4.58015 	 17.9171 	 81.4934 	 
H 	 -8.71062 	 11.5434 	 78.8712 	 
H 	 -8.07045 	 15.3531 	 86.1624 	 
*
