! wB97X-D3 SP def2-SVP
%pal
nprocs 16
end

* xyz 0 1
S 	 41.2932 	 17.0829 	 81.7222 	 
C 	 39.8377 	 17.975 	 82.2999 	 
C 	 39.1728 	 18.5232 	 81.2279 	 
C 	 39.8267 	 18.3719 	 80.0258 	 
C 	 40.9986 	 17.638 	 80.081 	 
H 	 39.369 	 18.7506 	 79.1569 	 
C 	 37.8383 	 19.2183 	 81.2422 	 
H 	 37.5493 	 19.7155 	 80.3391 	 
H 	 37.7425 	 19.9838 	 82.006 	 
C 	 36.7043 	 18.2736 	 81.6294 	 
H 	 36.6577 	 17.3614 	 80.9795 	 
H 	 36.8988 	 17.8516 	 82.6244 	 
C 	 35.3981 	 19.082 	 81.5646 	 
H 	 35.1464 	 19.3664 	 80.5924 	 
H 	 34.7368 	 18.4315 	 82.0866 	 
H 	 35.3754 	 19.9492 	 82.2165 	 
S 	 43.6571 	 16.9811 	 79.3527 	 
C 	 44.1025 	 16.7506 	 77.7062 	 
C 	 42.9514 	 16.6982 	 76.9499 	 
C 	 41.7123 	 17.0518 	 77.6139 	 
C 	 41.9641 	 17.2441 	 78.9985 	 
H 	 43.0446 	 16.4893 	 75.8944 	 
C 	 40.4295 	 17.1749 	 76.8117 	 
H 	 40.6193 	 17.1083 	 75.7879 	 
H 	 40.1242 	 18.2298 	 77.012 	 
C 	 39.2318 	 16.2619 	 77.1309 	 
H 	 38.2684 	 16.681 	 76.8534 	 
H 	 39.1492 	 16.2535 	 78.1974 	 
C 	 39.4291 	 14.8719 	 76.4755 	 
H 	 40.2425 	 14.1719 	 76.857 	 
H 	 39.5361 	 14.9753 	 75.3542 	 
H 	 38.462 	 14.3104 	 76.6527 	 
H 	 39.49 	 18.0565 	 83.3498 	 
H 	 45.0195 	 16.3768 	 77.3218 	 
*
