! wB97X-D3 SP def2-SVP
%pal
nprocs 16
end

* xyz 0 1
S 	 -9.60107 	 -9.82539 	 85.3307 	 
C 	 -10.5783 	 -11.3054 	 85.1314 	 
C 	 -11.8597 	 -11.0472 	 84.7483 	 
C 	 -12.1053 	 -9.67572 	 84.6537 	 
C 	 -11.0439 	 -8.85108 	 85.0083 	 
H 	 -13.0423 	 -9.1423 	 84.471 	 
C 	 -12.9299 	 -12.1265 	 84.2805 	 
H 	 -13.9387 	 -11.7871 	 84.5972 	 
H 	 -12.8514 	 -12.9854 	 84.9506 	 
C 	 -12.9194 	 -12.4729 	 82.8151 	 
H 	 -13.2915 	 -11.6641 	 82.2306 	 
H 	 -11.8596 	 -12.5106 	 82.4633 	 
C 	 -13.8352 	 -13.7257 	 82.4643 	 
H 	 -14.0262 	 -13.834 	 81.3792 	 
H 	 -13.4224 	 -14.7069 	 82.797 	 
H 	 -14.791 	 -13.6281 	 82.9171 	 
S 	 -10.0277 	 -6.92911 	 83.2103 	 
C 	 -10.3406 	 -5.316 	 83.5965 	 
C 	 -11.1384 	 -5.16559 	 84.7259 	 
C 	 -11.4096 	 -6.38973 	 85.3959 	 
C 	 -10.9191 	 -7.43511 	 84.6684 	 
H 	 -11.3018 	 -4.21608 	 85.082 	 
C 	 -12.2904 	 -6.39382 	 86.654 	 
H 	 -11.6683 	 -6.12496 	 87.5618 	 
H 	 -12.6642 	 -7.41593 	 86.8089 	 
C 	 -13.4806 	 -5.44997 	 86.6504 	 
H 	 -14.1927 	 -5.69785 	 85.8853 	 
H 	 -13.3274 	 -4.39913 	 86.3888 	 
C 	 -14.3044 	 -5.51262 	 87.9026 	 
H 	 -14.9438 	 -4.68137 	 87.8956 	 
H 	 -13.7016 	 -5.52618 	 88.7661 	 
H 	 -15.0614 	 -6.30001 	 87.8772 	 
H 	 -10.1947 	 -12.2497 	 84.9834 	 
H 	 -10.0332 	 -4.49187 	 82.9103 	 
*
