! wB97X-D3 SP def2-SVP
%pal
nprocs 16
end

* xyz 0 1
S 	 -51.1685 	 36.8954 	 107.415 	 
C 	 -50.8535 	 38.5726 	 106.87 	 
C 	 -51.8977 	 39.4176 	 106.922 	 
C 	 -53.0441 	 38.7417 	 107.475 	 
C 	 -52.8357 	 37.4115 	 107.753 	 
H 	 -53.9905 	 39.3093 	 107.534 	 
C 	 -51.8527 	 40.945 	 106.652 	 
H 	 -52.8687 	 41.3058 	 106.833 	 
H 	 -51.6216 	 41.0067 	 105.571 	 
C 	 -50.8582 	 41.7915 	 107.483 	 
H 	 -51.0084 	 41.5796 	 108.532 	 
H 	 -49.7862 	 41.4584 	 107.258 	 
C 	 -50.9359 	 43.2385 	 107.309 	 
H 	 -51.8414 	 43.5693 	 107.826 	 
H 	 -50.1023 	 43.8505 	 107.702 	 
H 	 -51.0229 	 43.4729 	 106.254 	 
S 	 -53.9363 	 35.0025 	 107.222 	 
C 	 -55.5627 	 34.7821 	 107.75 	 
C 	 -55.8965 	 35.5786 	 108.853 	 
C 	 -54.9665 	 36.6207 	 109.083 	 
C 	 -53.8675 	 36.4846 	 108.194 	 
H 	 -56.7906 	 35.3666 	 109.405 	 
C 	 -55.2713 	 37.7251 	 110.122 	 
H 	 -54.5456 	 38.5614 	 109.938 	 
H 	 -55.0992 	 37.2436 	 111.083 	 
C 	 -56.6217 	 38.2793 	 110.067 	 
H 	 -56.7956 	 38.904 	 110.898 	 
H 	 -57.3099 	 37.4588 	 110.217 	 
C 	 -56.8441 	 38.9717 	 108.725 	 
H 	 -56.6084 	 38.3269 	 107.828 	 
H 	 -56.3621 	 39.9463 	 108.696 	 
H 	 -57.8356 	 39.1788 	 108.567 	 
H 	 -49.8109 	 38.9385 	 106.521 	 
H 	 -56.286 	 34.0699 	 107.302 	 
*
