! wB97X-D3 SP def2-SVP
%pal
nprocs 16
end

* xyz 0 1
S 	 -1.93906 	 27.0781 	 51.7698 	 
C 	 -0.88065 	 26.0413 	 52.6506 	 
C 	 0.276428 	 26.7022 	 53.0196 	 
C 	 0.402534 	 27.9798 	 52.5084 	 
C 	 -0.848559 	 28.3892 	 51.9908 	 
H 	 1.22518 	 28.7107 	 52.5586 	 
C 	 1.47205 	 26.1183 	 53.7804 	 
H 	 1.34395 	 26.1783 	 54.8286 	 
H 	 2.29222 	 26.8223 	 53.5453 	 
C 	 1.97742 	 24.7589 	 53.3454 	 
H 	 2.88134 	 24.6369 	 53.9216 	 
H 	 1.25573 	 23.9294 	 53.4751 	 
C 	 2.45955 	 24.6752 	 51.875 	 
H 	 1.76594 	 25.1069 	 51.2091 	 
H 	 3.41864 	 25.2044 	 51.8575 	 
H 	 2.57832 	 23.6284 	 51.5296 	 
S 	 -1.69781 	 29.6297 	 49.7043 	 
C 	 -1.71877 	 31.3349 	 49.6579 	 
C 	 -1.26399 	 31.9321 	 50.7935 	 
C 	 -0.957335 	 30.9971 	 51.8159 	 
C 	 -1.12379 	 29.6674 	 51.3541 	 
H 	 -1.24314 	 32.9953 	 50.9091 	 
C 	 -0.295872 	 31.4061 	 53.1613 	 
H 	 0.42608 	 32.3141 	 53.0375 	 
H 	 0.294777 	 30.535 	 53.4797 	 
C 	 -1.19514 	 31.6983 	 54.415 	 
H 	 -1.91573 	 32.4755 	 54.2778 	 
H 	 -0.558721 	 32 	 55.182 	 
C 	 -2.06979 	 30.5042 	 54.8387 	 
H 	 -2.92927 	 31.025 	 55.3512 	 
H 	 -1.49544 	 29.8846 	 55.5002 	 
H 	 -2.52767 	 29.97 	 54.064 	 
H 	 -1.25343 	 25.0913 	 53.0025 	 
H 	 -2.11836 	 31.9534 	 48.8535 	 
*
