! wB97X-D3 SP def2-SVP
%pal
nprocs 16
end

* xyz 0 1
S 	 -4.70284 	 -12.7987 	 69.9478 	 
C 	 -4.24401 	 -13.6338 	 68.4363 	 
C 	 -4.80191 	 -13.0775 	 67.2972 	 
C 	 -5.37031 	 -11.8163 	 67.6633 	 
C 	 -5.4979 	 -11.5933 	 68.9929 	 
H 	 -5.85067 	 -11.1234 	 66.9591 	 
C 	 -4.76436 	 -13.4328 	 65.848 	 
H 	 -3.89887 	 -14.0619 	 65.7425 	 
H 	 -4.43191 	 -12.5337 	 65.334 	 
C 	 -6.09282 	 -14.0268 	 65.2278 	 
H 	 -5.89422 	 -14.2699 	 64.1971 	 
H 	 -6.28707 	 -14.942 	 65.7445 	 
C 	 -7.41563 	 -13.237 	 65.3375 	 
H 	 -8.34996 	 -13.7043 	 64.9533 	 
H 	 -7.5531 	 -13.0583 	 66.3975 	 
H 	 -7.28384 	 -12.3031 	 64.758 	 
S 	 -7.24299 	 -10.8119 	 70.9839 	 
C 	 -7.40418 	 -9.08731 	 71.2442 	 
C 	 -6.66301 	 -8.27881 	 70.4424 	 
C 	 -5.89295 	 -9.07896 	 69.5311 	 
C 	 -6.15948 	 -10.4386 	 69.6503 	 
H 	 -6.66834 	 -7.21249 	 70.4876 	 
C 	 -4.82773 	 -8.44167 	 68.635 	 
H 	 -4.18579 	 -9.26258 	 68.3195 	 
H 	 -4.19278 	 -7.73579 	 69.2959 	 
C 	 -5.39084 	 -7.70797 	 67.4732 	 
H 	 -5.76452 	 -6.76583 	 67.8737 	 
H 	 -6.32973 	 -8.15394 	 67.0182 	 
C 	 -4.35957 	 -7.26056 	 66.4582 	 
H 	 -3.58794 	 -6.69814 	 67.0096 	 
H 	 -4.80524 	 -6.6553 	 65.7005 	 
H 	 -3.90996 	 -8.14009 	 66.0233 	 
H 	 -3.66658 	 -14.5673 	 68.3538 	 
H 	 -7.89141 	 -8.67828 	 72.0232 	 
*
