! wB97X-D3 SP def2-SVP
%pal
nprocs 16
end

* xyz 0 1
S 	 -56.9819 	 53.9443 	 135.002 	 
C 	 -55.8969 	 54.9708 	 135.963 	 
C 	 -56.2051 	 54.9887 	 137.312 	 
C 	 -57.3385 	 54.1713 	 137.534 	 
C 	 -57.9182 	 53.5845 	 136.45 	 
H 	 -57.8341 	 54.0731 	 138.487 	 
C 	 -55.3497 	 55.6308 	 138.377 	 
H 	 -56.0446 	 56.1954 	 138.97 	 
H 	 -54.6264 	 56.3232 	 137.903 	 
C 	 -54.6489 	 54.6178 	 139.332 	 
H 	 -55.4421 	 53.9383 	 139.613 	 
H 	 -54.0167 	 53.9268 	 138.716 	 
C 	 -53.9073 	 55.2442 	 140.546 	 
H 	 -53.0767 	 55.8267 	 140.088 	 
H 	 -54.6056 	 55.8462 	 141.119 	 
H 	 -53.5992 	 54.4441 	 141.22 	 
S 	 -58.8703 	 51.178 	 136.01 	 
C 	 -60.4816 	 50.6208 	 136.673 	 
C 	 -61.1276 	 51.7429 	 137.153 	 
C 	 -60.3241 	 52.9235 	 137.192 	 
C 	 -59.0978 	 52.7494 	 136.475 	 
H 	 -62.1135 	 51.7402 	 137.594 	 
C 	 -60.8122 	 54.2382 	 137.818 	 
H 	 -61.8882 	 54.2506 	 137.729 	 
H 	 -60.4399 	 55.0843 	 137.262 	 
C 	 -60.5795 	 54.337 	 139.354 	 
H 	 -61.0309 	 55.3027 	 139.533 	 
H 	 -59.5355 	 54.3842 	 139.65 	 
C 	 -61.2895 	 53.2299 	 140.168 	 
H 	 -60.5852 	 52.3792 	 140.201 	 
H 	 -62.2236 	 52.9197 	 139.668 	 
H 	 -61.4852 	 53.6199 	 141.175 	 
H 	 -55.0548 	 55.4715 	 135.513 	 
H 	 -60.8461 	 49.603 	 136.63 	 
*
