! wB97X-D3 SP def2-SVP
%pal
nprocs 16
end

* xyz 0 1
S 	 0.579292 	 23.4203 	 32.7504 	 
C 	 -0.789133 	 24.458 	 32.6376 	 
C 	 -1.847 	 23.9579 	 33.425 	 
C 	 -1.47011 	 22.7334 	 34.1153 	 
C 	 -0.248536 	 22.2157 	 33.7855 	 
H 	 -2.11169 	 22.2673 	 34.86 	 
C 	 -3.23901 	 24.603 	 33.4641 	 
H 	 -3.78599 	 24.0792 	 32.6839 	 
H 	 -2.9551 	 25.6515 	 33.1245 	 
C 	 -4.04787 	 24.572 	 34.7726 	 
H 	 -4.1573 	 23.6236 	 35.2512 	 
H 	 -3.44285 	 25.174 	 35.4405 	 
C 	 -5.38635 	 25.1987 	 34.5571 	 
H 	 -5.97649 	 24.6097 	 33.9046 	 
H 	 -5.83243 	 25.2759 	 35.5579 	 
H 	 -5.17743 	 26.2061 	 34.1826 	 
S 	 2.18939 	 21.1357 	 34.3593 	 
C 	 2.31543 	 19.4405 	 34.9001 	 
C 	 1.07586 	 18.8732 	 35.1699 	 
C 	 0.0158851 	 19.7416 	 34.7893 	 
C 	 0.429209 	 20.9959 	 34.2748 	 
H 	 0.919374 	 17.8582 	 35.6272 	 
C 	 -1.41138 	 19.2785 	 34.9282 	 
H 	 -2.07049 	 20.0953 	 34.8524 	 
H 	 -1.61602 	 18.9849 	 35.9636 	 
C 	 -1.76094 	 18.2516 	 33.7978 	 
H 	 -2.78155 	 18.009 	 34.0577 	 
H 	 -1.19301 	 17.3514 	 33.8215 	 
C 	 -1.87535 	 18.695 	 32.3469 	 
H 	 -2.28464 	 18.0077 	 31.6042 	 
H 	 -0.89423 	 18.9092 	 31.8945 	 
H 	 -2.49908 	 19.6007 	 32.3376 	 
H 	 -0.948441 	 25.2492 	 31.8925 	 
H 	 3.20818 	 18.8556 	 34.9567 	 
*
