! wB97X-D3 SP def2-SVP
%pal
nprocs 16
end

* xyz 0 1
S 	 53.4743 	 12.0809 	 52.451 	 
C 	 53.0965 	 13.666 	 51.9177 	 
C 	 51.9144 	 14.0169 	 52.5405 	 
C 	 51.1951 	 12.9279 	 53.1006 	 
C 	 51.9188 	 11.7616 	 53.0828 	 
H 	 50.1789 	 12.9497 	 53.5338 	 
C 	 51.4592 	 15.4574 	 52.4905 	 
H 	 52.0299 	 16.0853 	 51.7942 	 
H 	 51.5464 	 15.9287 	 53.4224 	 
C 	 49.9811 	 15.5928 	 52.1245 	 
H 	 49.4332 	 15.0417 	 52.9101 	 
H 	 49.8097 	 16.6654 	 52.2815 	 
C 	 49.5588 	 14.9702 	 50.7793 	 
H 	 50.229 	 15.5055 	 50.0291 	 
H 	 49.7279 	 13.8579 	 50.8477 	 
H 	 48.5436 	 15.1582 	 50.4854 	 
S 	 52.3673 	 9.47443 	 54.627 	 
C 	 51.2014 	 8.1901 	 54.5289 	 
C 	 50.1325 	 8.49148 	 53.7641 	 
C 	 50.312 	 9.72844 	 53.0241 	 
C 	 51.478 	 10.3895 	 53.415 	 
H 	 49.2164 	 7.88178 	 53.6808 	 
C 	 49.2008 	 10.3099 	 52.1252 	 
H 	 48.9974 	 11.2803 	 52.5844 	 
H 	 48.3367 	 9.73736 	 52.2883 	 
C 	 49.5747 	 10.3051 	 50.6038 	 
H 	 49.9703 	 9.32857 	 50.4198 	 
H 	 50.2629 	 11.0548 	 50.4392 	 
C 	 48.3363 	 10.542 	 49.7506 	 
H 	 47.7269 	 11.3456 	 50.0724 	 
H 	 47.5797 	 9.79154 	 49.7862 	 
H 	 48.6469 	 10.766 	 48.7571 	 
H 	 53.7914 	 14.3582 	 51.5642 	 
H 	 51.2285 	 7.34301 	 55.2497 	 
*
