! wB97X-D3 SP def2-SVP
%pal
nprocs 16
end

* xyz 0 1
S 	 6.38638 	 -9.04894 	 92.8831 	 
C 	 8.08657 	 -8.83875 	 93.4149 	 
C 	 8.82639 	 -9.90322 	 92.9252 	 
C 	 8.05372 	 -10.8294 	 92.0917 	 
C 	 6.7363 	 -10.3953 	 91.8494 	 
H 	 8.26069 	 -11.7667 	 91.559 	 
C 	 10.3303 	 -10.1045 	 93.188 	 
H 	 10.4913 	 -11.1495 	 93.614 	 
H 	 10.6844 	 -9.33775 	 93.9372 	 
C 	 11.203 	 -10.0438 	 91.9071 	 
H 	 12.1623 	 -10.4901 	 92.0759 	 
H 	 10.7177 	 -10.6594 	 91.1067 	 
C 	 11.2845 	 -8.56217 	 91.3669 	 
H 	 11.8684 	 -8.60226 	 90.4152 	 
H 	 10.2674 	 -8.10039 	 91.2367 	 
H 	 11.8541 	 -8.00939 	 92.0589 	 
S 	 5.16105 	 -12.6615 	 91.8983 	 
C 	 4.23848 	 -13.0466 	 90.502 	 
C 	 4.43978 	 -12.1662 	 89.453 	 
C 	 5.47141 	 -11.1952 	 89.7228 	 
C 	 5.79447 	 -11.203 	 91.1032 	 
H 	 3.90005 	 -12.3136 	 88.5348 	 
C 	 5.9568 	 -10.2646 	 88.6131 	 
H 	 6.1582 	 -10.9484 	 87.7915 	 
H 	 6.87952 	 -9.75224 	 88.9509 	 
C 	 4.86292 	 -9.20082 	 88.1071 	 
H 	 4.11492 	 -9.81962 	 87.6098 	 
H 	 5.35885 	 -8.63159 	 87.2222 	 
C 	 4.27317 	 -8.31182 	 89.1859 	 
H 	 3.89985 	 -9.00187 	 89.9619 	 
H 	 3.41643 	 -7.68943 	 88.9007 	 
H 	 5.01626 	 -7.66628 	 89.656 	 
H 	 8.51826 	 -8.04606 	 94.1297 	 
H 	 3.57562 	 -13.889 	 90.3849 	 
*
