! wB97X-D3 SP def2-SVP
%pal
nprocs 16
end

* xyz 0 1
S 	 -23.6626 	 50.2956 	 67.0341 	 
C 	 -22.4042 	 50.0169 	 65.8905 	 
C 	 -21.2349 	 49.7037 	 66.4691 	 
C 	 -21.4144 	 49.3311 	 67.8274 	 
C 	 -22.6352 	 49.7227 	 68.3166 	 
H 	 -20.6576 	 48.9527 	 68.5558 	 
C 	 -19.9394 	 49.7589 	 65.7199 	 
H 	 -19.1395 	 49.968 	 66.4777 	 
H 	 -19.9092 	 50.5289 	 64.9628 	 
C 	 -19.5371 	 48.5054 	 64.9617 	 
H 	 -18.4991 	 48.7641 	 64.7238 	 
H 	 -19.6107 	 47.6351 	 65.6279 	 
C 	 -20.3638 	 48.1149 	 63.7335 	 
H 	 -20.2756 	 48.8402 	 62.9893 	 
H 	 -20.0986 	 47.1895 	 63.1954 	 
H 	 -21.4203 	 48.144 	 63.9893 	 
S 	 -23.7326 	 50.7747 	 70.4866 	 
C 	 -24.1674 	 49.7536 	 71.8556 	 
C 	 -23.3984 	 48.6418 	 71.853 	 
C 	 -22.7969 	 48.4106 	 70.5695 	 
C 	 -23.0505 	 49.4486 	 69.6616 	 
H 	 -23.4002 	 48.0219 	 72.6992 	 
C 	 -22.0818 	 47.1487 	 70.2379 	 
H 	 -22.2307 	 46.9874 	 69.1416 	 
H 	 -22.74 	 46.3789 	 70.7248 	 
C 	 -20.6054 	 47.0853 	 70.6139 	 
H 	 -20.3693 	 47.53 	 71.6534 	 
H 	 -19.9777 	 47.6679 	 69.9254 	 
C 	 -20.0791 	 45.7364 	 70.6994 	 
H 	 -19.9636 	 45.2688 	 69.6742 	 
H 	 -20.5493 	 45.0054 	 71.3694 	 
H 	 -19.0739 	 45.6557 	 71.0011 	 
H 	 -22.4295 	 50.1956 	 64.7962 	 
H 	 -24.7368 	 50.106 	 72.7075 	 
*
