! wB97X-D3 SP def2-SVP
%pal
nprocs 16
end

* xyz 0 1
S 	 -113.966 	 44.9094 	 132.744 	 
C 	 -114.436 	 43.6057 	 133.825 	 
C 	 -114.646 	 44.1064 	 135.141 	 
C 	 -114.413 	 45.5227 	 135.217 	 
C 	 -114.163 	 46.1249 	 133.973 	 
H 	 -114.482 	 46.1655 	 136.106 	 
C 	 -115.137 	 43.3909 	 136.326 	 
H 	 -115.495 	 42.5298 	 135.895 	 
H 	 -116.006 	 43.8903 	 136.776 	 
C 	 -114.128 	 43.1347 	 137.443 	 
H 	 -114.66 	 42.5156 	 138.168 	 
H 	 -113.315 	 42.5221 	 137.07 	 
C 	 -113.69 	 44.3691 	 138.195 	 
H 	 -113.036 	 44.0979 	 138.911 	 
H 	 -113.159 	 45.0145 	 137.434 	 
H 	 -114.48 	 44.9783 	 138.595 	 
S 	 -112.655 	 47.8536 	 132.358 	 
C 	 -112.579 	 49.5479 	 132.793 	 
C 	 -113.517 	 49.8489 	 133.774 	 
C 	 -114.243 	 48.67 	 134.303 	 
C 	 -113.734 	 47.506 	 133.714 	 
H 	 -113.618 	 50.8395 	 134.08 	 
C 	 -115.364 	 48.7865 	 135.379 	 
H 	 -114.814 	 48.7836 	 136.359 	 
H 	 -115.966 	 47.9206 	 135.275 	 
C 	 -116.305 	 49.9605 	 135.297 	 
H 	 -115.768 	 50.9042 	 135.394 	 
H 	 -117.003 	 49.8309 	 136.097 	 
C 	 -117.231 	 49.8377 	 134.07 	 
H 	 -116.633 	 50.0767 	 133.162 	 
H 	 -118.045 	 50.5032 	 134.153 	 
H 	 -117.641 	 48.8088 	 133.961 	 
H 	 -114.586 	 42.5747 	 133.488 	 
H 	 -111.871 	 50.2697 	 132.356 	 
*
