! wB97X-D3 SP def2-SVP
%pal
nprocs 16
end

* xyz 0 1
S 	 24.019 	 9.17186 	 72.6567 	 
C 	 22.9774 	 8.03142 	 71.7662 	 
C 	 23.6173 	 6.85758 	 71.3622 	 
C 	 25.002 	 6.83059 	 71.7423 	 
C 	 25.2704 	 7.97473 	 72.518 	 
H 	 25.7899 	 6.14124 	 71.4246 	 
C 	 23.0364 	 5.8656 	 70.4425 	 
H 	 23.8786 	 5.40722 	 69.8704 	 
H 	 22.3293 	 6.32396 	 69.726 	 
C 	 22.2942 	 4.82528 	 71.1842 	 
H 	 22.3549 	 3.88853 	 70.576 	 
H 	 22.8191 	 4.66704 	 72.1103 	 
C 	 20.8099 	 5.13523 	 71.407 	 
H 	 20.6685 	 5.67069 	 72.3547 	 
H 	 20.3491 	 5.69916 	 70.5713 	 
H 	 20.2623 	 4.16349 	 71.557 	 
S 	 27.4907 	 9.47403 	 72.2236 	 
C 	 29.0236 	 9.14078 	 73.0745 	 
C 	 28.788 	 8.22032 	 74.0615 	 
C 	 27.4421 	 7.63749 	 74.0164 	 
C 	 26.6032 	 8.24382 	 73.0015 	 
H 	 29.4937 	 7.84051 	 74.7821 	 
C 	 26.9481 	 6.49763 	 74.911 	 
H 	 27.7611 	 5.76805 	 75.0711 	 
H 	 26.1019 	 6.01378 	 74.4731 	 
C 	 26.571 	 6.95455 	 76.2653 	 
H 	 27.4777 	 7.2333 	 76.7922 	 
H 	 26.3319 	 6.06315 	 76.8175 	 
C 	 25.3408 	 7.87678 	 76.3173 	 
H 	 25.111 	 8.12477 	 77.3642 	 
H 	 24.4673 	 7.28797 	 76.0096 	 
H 	 25.4476 	 8.82878 	 75.7475 	 
H 	 21.8566 	 8.16225 	 71.6666 	 
H 	 29.9962 	 9.54237 	 72.8632 	 
*
