! wB97X-D3 SP def2-SVP
%pal
nprocs 16
end

* xyz 0 1
S 	 -91.5012 	 53.549 	 122.8 	 
C 	 -91.4415 	 52.1158 	 121.846 	 
C 	 -92.5707 	 51.3191 	 122.099 	 
C 	 -93.544 	 52.0114 	 122.887 	 
C 	 -93.1392 	 53.2645 	 123.282 	 
H 	 -94.4493 	 51.6373 	 123.295 	 
C 	 -92.792 	 49.9648 	 121.53 	 
H 	 -92.3567 	 49.7093 	 120.554 	 
H 	 -93.8579 	 49.8788 	 121.388 	 
C 	 -92.352 	 48.908 	 122.526 	 
H 	 -91.2953 	 48.9848 	 122.72 	 
H 	 -92.7963 	 49.1645 	 123.503 	 
C 	 -92.5517 	 47.4066 	 122.013 	 
H 	 -93.6095 	 47.149 	 121.789 	 
H 	 -91.934 	 47.1778 	 121.065 	 
H 	 -92.2529 	 46.6149 	 122.742 	 
S 	 -94.9391 	 55.298 	 123.621 	 
C 	 -95.5491 	 55.5796 	 125.264 	 
C 	 -94.7119 	 54.9827 	 126.203 	 
C 	 -93.7083 	 54.207 	 125.614 	 
C 	 -93.804 	 54.1628 	 124.235 	 
H 	 -94.817 	 55.1259 	 127.259 	 
C 	 -92.7229 	 53.3657 	 126.368 	 
H 	 -92.176 	 52.817 	 125.646 	 
H 	 -93.2675 	 52.7022 	 127.098 	 
C 	 -91.6395 	 54.0667 	 127.18 	 
H 	 -91.0571 	 53.2337 	 127.572 	 
H 	 -91.9944 	 54.6671 	 128.065 	 
C 	 -90.7989 	 55.0038 	 126.339 	 
H 	 -90.0814 	 55.5587 	 126.926 	 
H 	 -91.2752 	 55.7663 	 125.739 	 
H 	 -90.1773 	 54.4453 	 125.705 	 
H 	 -90.6136 	 51.8505 	 121.26 	 
H 	 -96.4129 	 56.145 	 125.579 	 
*
