! wB97X-D3 SP def2-SVP
%pal
nprocs 16
end

* xyz 0 1
S 	 16.9026 	 -11.5571 	 78.9013 	 
C 	 17.2307 	 -13.1265 	 79.6142 	 
C 	 18.5036 	 -13.0273 	 80.292 	 
C 	 19.1938 	 -11.8175 	 80.1308 	 
C 	 18.4805 	 -10.8875 	 79.4222 	 
H 	 20.272 	 -11.5567 	 80.4164 	 
C 	 19.1082 	 -14.2098 	 81.0559 	 
H 	 19.9852 	 -13.8214 	 81.5818 	 
H 	 19.3871 	 -14.9692 	 80.2461 	 
C 	 18.1246 	 -14.9464 	 81.9023 	 
H 	 17.5653 	 -14.2382 	 82.5204 	 
H 	 17.3436 	 -15.3716 	 81.3169 	 
C 	 18.7178 	 -16.1307 	 82.6909 	 
H 	 19.0822 	 -16.8824 	 81.997 	 
H 	 19.54 	 -15.795 	 83.2802 	 
H 	 17.9572 	 -16.6068 	 83.3283 	 
S 	 17.6579 	 -8.21906 	 79.7525 	 
C 	 18.6739 	 -6.96758 	 79.1193 	 
C 	 19.9203 	 -7.41405 	 78.8818 	 
C 	 20.0361 	 -8.83914 	 78.9901 	 
C 	 18.8252 	 -9.44086 	 79.2425 	 
H 	 20.6111 	 -6.71847 	 78.4734 	 
C 	 21.2847 	 -9.48605 	 78.4387 	 
H 	 21.5117 	 -9.12909 	 77.4696 	 
H 	 21.0609 	 -10.5487 	 78.3528 	 
C 	 22.5817 	 -9.25962 	 79.2395 	 
H 	 22.3386 	 -9.5725 	 80.2772 	 
H 	 22.9576 	 -8.2679 	 79.1755 	 
C 	 23.62 	 -10.2078 	 78.5868 	 
H 	 23.2514 	 -11.2576 	 78.7699 	 
H 	 24.5595 	 -10.0053 	 79.1031 	 
H 	 23.758 	 -10.1236 	 77.4596 	 
H 	 16.7094 	 -14.0679 	 79.3192 	 
H 	 18.437 	 -5.9673 	 78.9994 	 
*
