! wB97X-D3 SP def2-SVP
%pal
nprocs 16
end

* xyz 0 1
S 	 27.4893 	 33.5654 	 56.7031 	 
C 	 28.4482 	 32.2542 	 56.1339 	 
C 	 29.3087 	 31.8142 	 57.0784 	 
C 	 29.2588 	 32.6424 	 58.271 	 
C 	 28.3005 	 33.6158 	 58.2061 	 
H 	 29.8346 	 32.5244 	 59.1413 	 
C 	 30.3059 	 30.6958 	 56.9299 	 
H 	 29.8148 	 29.8237 	 56.5318 	 
H 	 30.575 	 30.3654 	 57.8907 	 
C 	 31.6292 	 31.0807 	 56.2262 	 
H 	 31.383 	 31.1712 	 55.1278 	 
H 	 31.9329 	 32.0992 	 56.5855 	 
C 	 32.8362 	 30.227 	 56.4604 	 
H 	 32.4805 	 29.2045 	 56.2424 	 
H 	 33.7214 	 30.3816 	 55.8117 	 
H 	 33.1591 	 30.3075 	 57.4596 	 
S 	 28.4601 	 36.2175 	 59.1462 	 
C 	 27.7822 	 36.6382 	 60.7104 	 
C 	 27.2713 	 35.5116 	 61.3309 	 
C 	 27.5084 	 34.3098 	 60.606 	 
C 	 28.0816 	 34.5378 	 59.3427 	 
H 	 26.959 	 35.7005 	 62.3347 	 
C 	 27.1414 	 32.9619 	 61.1372 	 
H 	 27.3048 	 32.2148 	 60.4241 	 
H 	 26.0346 	 33.1203 	 61.3393 	 
C 	 27.9229 	 32.5275 	 62.3821 	 
H 	 27.3484 	 31.7498 	 62.8984 	 
H 	 27.9944 	 33.2309 	 63.1985 	 
C 	 29.3599 	 32.1555 	 61.9652 	 
H 	 29.847 	 32.886 	 61.3774 	 
H 	 29.3275 	 31.199 	 61.3716 	 
H 	 30.0153 	 31.9762 	 62.7869 	 
H 	 28.4568 	 31.7124 	 55.1962 	 
H 	 27.6892 	 37.6275 	 61.1663 	 
*
