! wB97X-D3 SP def2-SVP
%pal
nprocs 16
end

* xyz 0 1
S 	 -72.5828 	 58.5988 	 124.274 	 
C 	 -73.1454 	 60.2753 	 124.306 	 
C 	 -74.1102 	 60.478 	 125.297 	 
C 	 -74.3847 	 59.2767 	 126.013 	 
C 	 -73.5525 	 58.1941 	 125.697 	 
H 	 -75.1217 	 59.0538 	 126.749 	 
C 	 -74.9988 	 61.713 	 125.529 	 
H 	 -74.577 	 62.2875 	 126.348 	 
H 	 -75.9878 	 61.4697 	 125.712 	 
C 	 -74.9666 	 62.6482 	 124.328 	 
H 	 -74.0822 	 63.2796 	 124.476 	 
H 	 -74.9708 	 62.1869 	 123.417 	 
C 	 -76.1555 	 63.5186 	 124.385 	 
H 	 -77.1162 	 62.9439 	 124.206 	 
H 	 -76.2805 	 64.0955 	 125.267 	 
H 	 -76.1794 	 64.3967 	 123.6 	 
S 	 -75.1538 	 56.2523 	 126.638 	 
C 	 -74.4537 	 54.7806 	 127.18 	 
C 	 -73.0947 	 54.7823 	 127.344 	 
C 	 -72.53 	 55.9558 	 126.708 	 
C 	 -73.5459 	 56.8622 	 126.34 	 
H 	 -72.585 	 53.9367 	 127.717 	 
C 	 -71.0573 	 56.3175 	 126.725 	 
H 	 -70.7602 	 56.0049 	 127.73 	 
H 	 -71.0943 	 57.3704 	 126.633 	 
C 	 -70.1665 	 55.563 	 125.763 	 
H 	 -70.5971 	 55.709 	 124.726 	 
H 	 -70.2887 	 54.5085 	 126.071 	 
C 	 -68.6478 	 55.8971 	 125.772 	 
H 	 -68.3433 	 56.8946 	 125.448 	 
H 	 -68.089 	 55.1364 	 125.193 	 
H 	 -68.2579 	 55.6291 	 126.731 	 
H 	 -72.801 	 61.0003 	 123.558 	 
H 	 -74.9849 	 53.9768 	 127.609 	 
*
