! wB97X-D3 SP def2-SVP
%pal
nprocs 16
end

* xyz 0 1
S 	 44.4559 	 8.07955 	 82.9136 	 
C 	 45.0319 	 8.90323 	 81.4823 	 
C 	 45.149 	 10.283 	 81.6862 	 
C 	 44.7567 	 10.58 	 82.9698 	 
C 	 44.1451 	 9.62557 	 83.637 	 
H 	 44.6674 	 11.5482 	 83.3417 	 
C 	 45.6871 	 11.3681 	 80.733 	 
H 	 45.8989 	 10.9473 	 79.7265 	 
H 	 46.6395 	 11.6885 	 81.1446 	 
C 	 44.7955 	 12.5342 	 80.3955 	 
H 	 43.8629 	 12.0626 	 79.997 	 
H 	 44.5577 	 13.05 	 81.3263 	 
C 	 45.4156 	 13.4429 	 79.3778 	 
H 	 44.8553 	 14.4066 	 79.1875 	 
H 	 46.3858 	 13.7488 	 79.7429 	 
H 	 45.4736 	 13.076 	 78.3986 	 
S 	 44.1312 	 9.14255 	 86.4193 	 
C 	 42.7244 	 9.65264 	 87.3063 	 
C 	 41.6654 	 10.0388 	 86.4613 	 
C 	 42.1309 	 10.2375 	 85.1206 	 
C 	 43.4274 	 9.77391 	 84.9113 	 
H 	 40.6223 	 10.1161 	 86.8154 	 
C 	 41.2315 	 10.6181 	 83.9556 	 
H 	 40.5253 	 9.81907 	 83.8193 	 
H 	 41.8232 	 10.695 	 83.0196 	 
C 	 40.3886 	 11.9033 	 84.1583 	 
H 	 41.0406 	 12.6938 	 84.5811 	 
H 	 39.6853 	 11.6276 	 84.9434 	 
C 	 39.5035 	 12.2531 	 82.9315 	 
H 	 39.1029 	 13.2524 	 83.0136 	 
H 	 38.5935 	 11.6122 	 82.9488 	 
H 	 40.0263 	 12.1839 	 81.9979 	 
H 	 45.4944 	 8.37915 	 80.6478 	 
H 	 42.6594 	 9.51435 	 88.3844 	 
*
