! wB97X-D3 SP def2-SVP
%pal
nprocs 16
end

* xyz 0 1
S 	 8.60408 	 -18.5453 	 82.0255 	 
C 	 9.31262 	 -19.7136 	 83.1591 	 
C 	 9.69462 	 -18.9973 	 84.3191 	 
C 	 9.65128 	 -17.5794 	 84.1749 	 
C 	 9.11583 	 -17.1697 	 82.9685 	 
H 	 9.92377 	 -16.8634 	 84.9113 	 
C 	 10.3301 	 -19.6323 	 85.5403 	 
H 	 10.8376 	 -18.8563 	 86.03 	 
H 	 10.9877 	 -20.3889 	 85.2226 	 
C 	 9.363 	 -20.2021 	 86.5654 	 
H 	 8.84114 	 -19.3512 	 86.8879 	 
H 	 8.71819 	 -20.931 	 86.1448 	 
C 	 10.1306 	 -20.9572 	 87.6557 	 
H 	 9.52533 	 -21.2849 	 88.4597 	 
H 	 10.5891 	 -21.7958 	 87.1347 	 
H 	 10.8922 	 -20.2854 	 88.0583 	 
S 	 7.25595 	 -15.1275 	 82.3603 	 
C 	 7.92638 	 -13.5597 	 81.9699 	 
C 	 9.29086 	 -13.5533 	 81.9359 	 
C 	 9.91486 	 -14.8086 	 82.3867 	 
C 	 8.96243 	 -15.8037 	 82.5069 	 
H 	 9.82842 	 -12.6433 	 81.6057 	 
C 	 11.4095 	 -14.9539 	 82.3345 	 
H 	 11.7668 	 -14.2082 	 81.6444 	 
H 	 11.6698 	 -15.8924 	 81.9922 	 
C 	 12.1293 	 -14.6248 	 83.7288 	 
H 	 13.1642 	 -14.6538 	 83.6888 	 
H 	 11.8843 	 -15.3793 	 84.4893 	 
C 	 11.8468 	 -13.2883 	 84.4135 	 
H 	 12.4965 	 -12.5617 	 83.9983 	 
H 	 11.9828 	 -13.2017 	 85.5569 	 
H 	 10.7067 	 -12.9952 	 84.3587 	 
H 	 9.4263 	 -20.7677 	 82.9374 	 
H 	 7.32304 	 -12.7492 	 81.6799 	 
*
