! wB97X-D3 SP def2-SVP
%pal
nprocs 16
end

* xyz 0 1
S 	 -39.3284 	 19.0495 	 73.6306 	 
C 	 -37.5867 	 19.044 	 73.3068 	 
C 	 -36.8649 	 18.1003 	 74.0224 	 
C 	 -37.7467 	 17.2639 	 74.7384 	 
C 	 -39.0606 	 17.6378 	 74.6626 	 
H 	 -37.4534 	 16.2861 	 75.1344 	 
C 	 -35.3589 	 17.8217 	 73.8585 	 
H 	 -34.8812 	 17.3109 	 74.7037 	 
H 	 -34.8084 	 18.7447 	 73.834 	 
C 	 -35.0157 	 17.1546 	 72.5739 	 
H 	 -35.4233 	 17.6437 	 71.6771 	 
H 	 -33.9471 	 17.0792 	 72.4562 	 
C 	 -35.4634 	 15.652 	 72.4477 	 
H 	 -35.0131 	 14.9559 	 73.156 	 
H 	 -36.5483 	 15.6168 	 72.3656 	 
H 	 -35.1728 	 15.393 	 71.4739 	 
S 	 -41.1614 	 17.5714 	 76.3771 	 
C 	 -41.9212 	 16.0114 	 76.6921 	 
C 	 -41.5083 	 15.0614 	 75.7738 	 
C 	 -40.4889 	 15.5432 	 74.8768 	 
C 	 -40.182 	 16.8983 	 75.084 	 
H 	 -41.888 	 14.0603 	 75.9105 	 
C 	 -39.7708 	 14.7015 	 73.8456 	 
H 	 -38.7022 	 14.5307 	 74.21 	 
H 	 -39.5562 	 15.3965 	 73.0117 	 
C 	 -40.4031 	 13.3717 	 73.3809 	 
H 	 -41.4193 	 13.3894 	 73.1568 	 
H 	 -40.245 	 12.587 	 74.1438 	 
C 	 -39.6872 	 12.8438 	 72.1174 	 
H 	 -39.958 	 13.4725 	 71.2434 	 
H 	 -40.0922 	 11.8301 	 71.8561 	 
H 	 -38.6323 	 12.7562 	 72.373 	 
H 	 -37.3021 	 19.7958 	 72.5742 	 
H 	 -42.4347 	 15.6799 	 77.5873 	 
*
