! wB97X-D3 SP def2-SVP
%pal
nprocs 16
end

* xyz 0 1
S 	 -30.4223 	 54.9864 	 112.447 	 
C 	 -31.4468 	 55.7828 	 111.254 	 
C 	 -32.5273 	 54.9839 	 110.892 	 
C 	 -32.5261 	 53.7533 	 111.569 	 
C 	 -31.4684 	 53.5588 	 112.443 	 
H 	 -33.1962 	 52.9503 	 111.508 	 
C 	 -33.6673 	 55.4138 	 109.977 	 
H 	 -33.5563 	 56.4858 	 109.618 	 
H 	 -34.561 	 55.3912 	 110.633 	 
C 	 -33.6748 	 54.5075 	 108.756 	 
H 	 -32.7025 	 54.5137 	 108.265 	 
H 	 -33.9149 	 53.5444 	 109.154 	 
C 	 -34.7237 	 54.9273 	 107.685 	 
H 	 -34.4661 	 55.9536 	 107.464 	 
H 	 -34.6523 	 54.3916 	 106.744 	 
H 	 -35.7552 	 54.9508 	 107.959 	 
S 	 -32.0071 	 52.3801 	 114.977 	 
C 	 -31.4354 	 50.7 	 115.22 	 
C 	 -30.9308 	 50.0626 	 114.083 	 
C 	 -30.9267 	 50.9698 	 112.948 	 
C 	 -31.3512 	 52.3271 	 113.286 	 
H 	 -30.5908 	 49.0226 	 114.12 	 
C 	 -30.7078 	 50.4155 	 111.562 	 
H 	 -29.9034 	 49.6085 	 111.471 	 
H 	 -30.3179 	 51.2195 	 110.92 	 
C 	 -31.9686 	 49.7595 	 111.009 	 
H 	 -32.7253 	 50.4832 	 111.187 	 
H 	 -32.3043 	 48.8155 	 111.594 	 
C 	 -31.885 	 49.5156 	 109.52 	 
H 	 -31.037 	 48.9655 	 109.266 	 
H 	 -31.8919 	 50.4854 	 108.964 	 
H 	 -32.8446 	 49.0607 	 109.169 	 
H 	 -31.2272 	 56.7918 	 110.861 	 
H 	 -31.4096 	 50.1159 	 116.141 	 
*
