! wB97X-D3 SP def2-SVP
%pal
nprocs 16
end

* xyz 0 1
S 	 57.7505 	 9.70855 	 69.7008 	 
C 	 58.0157 	 11.0555 	 70.7456 	 
C 	 57.1267 	 11.1651 	 71.745 	 
C 	 56.1897 	 10.0648 	 71.7204 	 
C 	 56.3526 	 9.19354 	 70.6416 	 
H 	 55.4793 	 9.86952 	 72.4814 	 
C 	 56.959 	 12.2239 	 72.8512 	 
H 	 56.183 	 12.9566 	 72.5081 	 
H 	 57.8923 	 12.7146 	 72.9687 	 
C 	 56.7342 	 11.7802 	 74.3395 	 
H 	 55.8643 	 11.0904 	 74.3983 	 
H 	 57.5719 	 11.0771 	 74.5695 	 
C 	 56.7051 	 13.0469 	 75.2398 	 
H 	 57.6163 	 13.6684 	 75.0965 	 
H 	 55.943 	 13.7629 	 74.9493 	 
H 	 56.726 	 12.8257 	 76.3137 	 
S 	 55.5258 	 6.78172 	 71.6502 	 
C 	 54.4986 	 5.78071 	 70.7157 	 
C 	 54.0946 	 6.37255 	 69.5606 	 
C 	 54.716 	 7.64457 	 69.3056 	 
C 	 55.5424 	 8.02021 	 70.3668 	 
H 	 53.4559 	 5.83503 	 68.8901 	 
C 	 54.5198 	 8.34593 	 67.9825 	 
H 	 55.1226 	 7.72744 	 67.2803 	 
H 	 55.0863 	 9.30625 	 67.9769 	 
C 	 53.0141 	 8.62234 	 67.6566 	 
H 	 52.7774 	 9.47698 	 68.3274 	 
H 	 52.2999 	 7.80737 	 68 	 
C 	 52.6676 	 8.76651 	 66.1871 	 
H 	 52.713 	 7.8795 	 65.4994 	 
H 	 53.2614 	 9.52092 	 65.6989 	 
H 	 51.7068 	 9.09594 	 66.1506 	 
H 	 58.7613 	 11.8303 	 70.565 	 
H 	 54.0663 	 4.91241 	 71.175 	 
*
