! wB97X-D3 SP def2-SVP
%pal
nprocs 16
end

* xyz 0 1
S 	 -10.2847 	 -10.6658 	 88.091 	 
C 	 -11.4442 	 -9.95833 	 86.9235 	 
C 	 -12.6985 	 -9.89 	 87.4834 	 
C 	 -12.8361 	 -10.6174 	 88.7597 	 
C 	 -11.6226 	 -11.0884 	 89.2001 	 
H 	 -13.7385 	 -10.7572 	 89.4028 	 
C 	 -13.9022 	 -9.34445 	 86.732 	 
H 	 -14.7988 	 -9.93606 	 86.997 	 
H 	 -13.752 	 -9.51092 	 85.6534 	 
C 	 -13.9682 	 -7.81121 	 87.0237 	 
H 	 -14.5986 	 -7.65766 	 87.9564 	 
H 	 -12.9524 	 -7.34017 	 87.3806 	 
C 	 -14.3801 	 -6.92782 	 85.85 	 
H 	 -15.1895 	 -7.35754 	 85.2721 	 
H 	 -14.7056 	 -5.96259 	 86.1161 	 
H 	 -13.4894 	 -6.73027 	 85.231 	 
S 	 -9.99969 	 -11.6569 	 91.4308 	 
C 	 -10.3341 	 -13.0435 	 92.4306 	 
C 	 -11.5748 	 -13.545 	 92.1308 	 
C 	 -12.2153 	 -12.877 	 91.0071 	 
C 	 -11.4531 	 -11.8494 	 90.4413 	 
H 	 -11.9202 	 -14.4298 	 92.6572 	 
C 	 -13.5635 	 -13.5436 	 90.6553 	 
H 	 -14.277 	 -12.762 	 90.4288 	 
H 	 -14.0527 	 -13.7842 	 91.5791 	 
C 	 -13.5071 	 -14.5488 	 89.4853 	 
H 	 -13.047 	 -13.9915 	 88.6563 	 
H 	 -14.4954 	 -14.9668 	 89.1492 	 
C 	 -12.5229 	 -15.696 	 89.7084 	 
H 	 -12.0948 	 -16.0403 	 88.7942 	 
H 	 -13.0699 	 -16.5537 	 90.2565 	 
H 	 -11.6755 	 -15.3925 	 90.38 	 
H 	 -11.0918 	 -9.39461 	 86.0999 	 
H 	 -9.58766 	 -13.3547 	 93.1464 	 
*
