! wB97X-D3 SP def2-SVP
%pal
nprocs 16
end

* xyz 0 1
S 	 55.7007 	 28.0395 	 40.2598 	 
C 	 56.4953 	 28.17 	 41.8273 	 
C 	 55.5767 	 27.8027 	 42.8522 	 
C 	 54.4035 	 27.1979 	 42.3194 	 
C 	 54.3985 	 27.0942 	 40.9534 	 
H 	 53.5535 	 26.8359 	 42.8498 	 
C 	 55.7709 	 27.9471 	 44.3474 	 
H 	 56.2424 	 27.0636 	 44.7307 	 
H 	 54.8485 	 28.1825 	 44.8701 	 
C 	 56.5176 	 29.26 	 44.6173 	 
H 	 56.6159 	 29.2613 	 45.6711 	 
H 	 57.5732 	 29.2332 	 44.2892 	 
C 	 55.9219 	 30.5052 	 44.0144 	 
H 	 56.0659 	 30.5439 	 42.9627 	 
H 	 54.8734 	 30.549 	 44.1293 	 
H 	 56.3898 	 31.4107 	 44.3518 	 
S 	 52.224 	 28.2042 	 39.6404 	 
C 	 50.8939 	 27.1528 	 39.1681 	 
C 	 51.2828 	 25.8303 	 39.2175 	 
C 	 52.5088 	 25.6187 	 39.9064 	 
C 	 53.2014 	 26.7875 	 40.176 	 
H 	 50.4783 	 25.1447 	 38.8561 	 
C 	 52.956 	 24.1952 	 40.2721 	 
H 	 52.1054 	 23.6273 	 40.6057 	 
H 	 53.6304 	 24.2801 	 41.0929 	 
C 	 53.6348 	 23.573 	 39.0841 	 
H 	 54.1914 	 24.292 	 38.5276 	 
H 	 52.8405 	 23.1557 	 38.4635 	 
C 	 54.5271 	 22.327 	 39.4382 	 
H 	 55.15 	 22.1195 	 38.586 	 
H 	 54.0088 	 21.4696 	 39.8192 	 
H 	 55.3029 	 22.6254 	 40.1601 	 
H 	 57.4726 	 28.5748 	 42.0615 	 
H 	 49.8871 	 27.5358 	 38.8353 	 
*
