! wB97X-D3 SP def2-SVP
%pal
nprocs 16
end

* xyz 0 1
S 	 -39.2062 	 31.5435 	 76.4008 	 
C 	 -39.5439 	 33.2517 	 76.1321 	 
C 	 -38.7079 	 34.0974 	 76.8999 	 
C 	 -37.8012 	 33.3567 	 77.7606 	 
C 	 -38.0604 	 31.992 	 77.702 	 
H 	 -37.178 	 33.8524 	 78.5283 	 
C 	 -38.7525 	 35.5555 	 77.0208 	 
H 	 -39.2283 	 35.9372 	 76.1133 	 
H 	 -37.7266 	 35.9456 	 76.9892 	 
C 	 -39.3152 	 36.0883 	 78.3893 	 
H 	 -40.4163 	 35.8719 	 78.4515 	 
H 	 -38.8416 	 35.5278 	 79.2232 	 
C 	 -39.216 	 37.6378 	 78.467 	 
H 	 -38.2253 	 37.905 	 78.221 	 
H 	 -39.8906 	 37.9811 	 77.708 	 
H 	 -39.4935 	 37.9619 	 79.438 	 
S 	 -36.4041 	 29.8677 	 77.4779 	 
C 	 -35.7099 	 29.1294 	 78.912 	 
C 	 -36.1969 	 29.7314 	 80.0714 	 
C 	 -37.1976 	 30.676 	 79.7954 	 
C 	 -37.3973 	 30.9571 	 78.4648 	 
H 	 -36.0098 	 29.4108 	 81.1063 	 
C 	 -37.8999 	 31.4607 	 80.9237 	 
H 	 -37.6814 	 32.5045 	 80.8441 	 
H 	 -37.527 	 31.171 	 81.9383 	 
C 	 -39.4135 	 31.123 	 81.0828 	 
H 	 -39.8788 	 31.0837 	 80.1556 	 
H 	 -39.8297 	 31.9357 	 81.6485 	 
C 	 -39.6647 	 29.8265 	 81.8354 	 
H 	 -39.3924 	 29.0359 	 81.1459 	 
H 	 -40.7181 	 29.7468 	 82.1215 	 
H 	 -38.9669 	 29.7762 	 82.7457 	 
H 	 -40.3107 	 33.6567 	 75.4901 	 
H 	 -34.9523 	 28.3241 	 78.727 	 
*
