! wB97X-D3 SP def2-SVP
%pal
nprocs 16
end

* xyz 0 1
S 	 48.0969 	 16.7134 	 82.0964 	 
C 	 48.3559 	 18.3696 	 82.6714 	 
C 	 49.6703 	 18.7968 	 82.5447 	 
C 	 50.4789 	 17.8155 	 81.9755 	 
C 	 49.7393 	 16.7275 	 81.5713 	 
H 	 51.6045 	 17.975 	 81.8727 	 
C 	 50.1714 	 20.19 	 82.9031 	 
H 	 49.6357 	 20.5325 	 83.8109 	 
H 	 49.8516 	 20.9221 	 82.1318 	 
C 	 51.5971 	 20.3391 	 83.3602 	 
H 	 52.2571 	 20.1365 	 82.5338 	 
H 	 51.7393 	 21.3639 	 83.55 	 
C 	 52.0226 	 19.4979 	 84.6243 	 
H 	 53.0118 	 19.735 	 84.9713 	 
H 	 51.4428 	 19.7143 	 85.5295 	 
H 	 52.078 	 18.4203 	 84.5409 	 
S 	 49.9321 	 14.0427 	 81.6064 	 
C 	 50.744 	 13.1457 	 80.3771 	 
C 	 51.2883 	 13.935 	 79.3912 	 
C 	 51.1408 	 15.3267 	 79.7495 	 
C 	 50.3157 	 15.5768 	 80.8239 	 
H 	 51.836 	 13.5523 	 78.5452 	 
C 	 51.8815 	 16.4251 	 79.0478 	 
H 	 52.3113 	 16.9634 	 79.8632 	 
H 	 51.2889 	 17.1141 	 78.456 	 
C 	 52.9315 	 16.1215 	 78.0404 	 
H 	 53.1326 	 17.0316 	 77.5841 	 
H 	 52.5798 	 15.4236 	 77.3089 	 
C 	 54.2764 	 15.537 	 78.5849 	 
H 	 54.178 	 14.5567 	 79.0728 	 
H 	 54.8017 	 16.2258 	 79.1713 	 
H 	 54.8189 	 15.2504 	 77.7036 	 
H 	 47.5983 	 18.9653 	 83.0437 	 
H 	 50.7717 	 12.0475 	 80.3427 	 
*
