! wB97X-D3 SP def2-SVP
%pal
nprocs 16
end

* xyz 0 1
S 	 24.6839 	 -12.871 	 76.6417 	 
C 	 24.9533 	 -13.8133 	 75.2017 	 
C 	 26.2918 	 -13.704 	 74.7517 	 
C 	 26.9198 	 -12.5891 	 75.3823 	 
C 	 26.1787 	 -11.9829 	 76.3678 	 
H 	 27.9334 	 -12.2306 	 75.0818 	 
C 	 27.0138 	 -14.4038 	 73.6433 	 
H 	 26.3973 	 -15.1998 	 73.2087 	 
H 	 27.8257 	 -14.8041 	 74.1545 	 
C 	 27.4491 	 -13.5216 	 72.4532 	 
H 	 26.6868 	 -12.9449 	 71.9143 	 
H 	 28.2929 	 -12.9626 	 72.9031 	 
C 	 27.9361 	 -14.4438 	 71.3067 	 
H 	 27.3056 	 -14.9448 	 70.5995 	 
H 	 28.4789 	 -13.7302 	 70.73 	 
H 	 28.6917 	 -15.091 	 71.7178 	 
S 	 27.3288 	 -11.3559 	 78.7017 	 
C 	 27.5032 	 -9.67606 	 79.2003 	 
C 	 27.0061 	 -8.82954 	 78.2251 	 
C 	 26.5692 	 -9.49886 	 77.0135 	 
C 	 26.6245 	 -10.8694 	 77.2073 	 
H 	 26.9965 	 -7.79387 	 78.4788 	 
C 	 25.8527 	 -8.67895 	 75.9897 	 
H 	 25.6726 	 -7.65551 	 76.4564 	 
H 	 24.8869 	 -9.19922 	 75.8427 	 
C 	 26.5961 	 -8.5434 	 74.5927 	 
H 	 27.0131 	 -9.44314 	 74.3126 	 
H 	 27.4587 	 -7.89293 	 74.8164 	 
C 	 25.6564 	 -7.8883 	 73.5073 	 
H 	 24.8615 	 -8.49743 	 73.151 	 
H 	 26.2227 	 -7.59127 	 72.6225 	 
H 	 25.2045 	 -6.93858 	 73.9056 	 
H 	 24.289 	 -14.5503 	 74.9155 	 
H 	 27.8951 	 -9.36799 	 80.1671 	 
*
