! wB97X-D3 SP def2-SVP
%pal
nprocs 16
end

* xyz 0 1
S 	 28.1087 	 6.89474 	 76.7872 	 
C 	 29.5653 	 7.46108 	 77.5606 	 
C 	 30.0223 	 6.63469 	 78.6304 	 
C 	 29.1473 	 5.50487 	 78.7021 	 
C 	 28.0287 	 5.5087 	 77.8502 	 
H 	 29.2317 	 4.58591 	 79.3053 	 
C 	 31.1065 	 6.88835 	 79.5787 	 
H 	 30.7645 	 6.42549 	 80.4834 	 
H 	 31.207 	 8.01068 	 79.6547 	 
C 	 32.5301 	 6.42417 	 79.2579 	 
H 	 33.2426 	 7.10302 	 79.7793 	 
H 	 32.7705 	 5.47166 	 79.7364 	 
C 	 32.9152 	 6.24014 	 77.784 	 
H 	 32.2222 	 6.84998 	 77.1605 	 
H 	 33.9923 	 6.41645 	 77.528 	 
H 	 32.6005 	 5.2508 	 77.446 	 
S 	 26.4331 	 4.17914 	 76.0874 	 
C 	 25.2142 	 3.07312 	 76.5634 	 
C 	 25.277 	 2.84664 	 77.9354 	 
C 	 26.2775 	 3.62145 	 78.5894 	 
C 	 26.9758 	 4.47896 	 77.7143 	 
H 	 24.6162 	 2.1172 	 78.386 	 
C 	 26.3774 	 3.54442 	 80.1517 	 
H 	 27.3581 	 3.34201 	 80.3539 	 
H 	 25.8639 	 2.66748 	 80.4201 	 
C 	 25.8545 	 4.74361 	 81.0008 	 
H 	 24.7589 	 4.93478 	 80.8541 	 
H 	 26.3464 	 5.67345 	 80.6122 	 
C 	 26.1493 	 4.5203 	 82.5374 	 
H 	 25.7351 	 5.28825 	 83.1273 	 
H 	 27.1817 	 4.3732 	 82.7324 	 
H 	 25.6769 	 3.56459 	 83.0759 	 
H 	 30.0356 	 8.37637 	 77.2726 	 
H 	 24.322 	 2.82035 	 75.9227 	 
*
