! wB97X-D3 SP def2-SVP
%pal
nprocs 16
end

* xyz 0 1
S 	 12.3593 	 -6.48082 	 64.7191 	 
C 	 12.2582 	 -6.41195 	 62.9659 	 
C 	 13.011 	 -5.35895 	 62.5135 	 
C 	 13.8858 	 -4.82818 	 63.5423 	 
C 	 13.7502 	 -5.44216 	 64.82 	 
H 	 14.6583 	 -4.1145 	 63.3948 	 
C 	 13.0475 	 -4.88144 	 61.0284 	 
H 	 13.9816 	 -5.34481 	 60.6471 	 
H 	 13.1292 	 -3.80412 	 61.1523 	 
C 	 11.7478 	 -4.995 	 60.2712 	 
H 	 11.6161 	 -6.05988 	 60.1115 	 
H 	 10.8724 	 -4.54137 	 60.8165 	 
C 	 11.8861 	 -4.18377 	 58.9523 	 
H 	 12.2003 	 -3.1387 	 59.1416 	 
H 	 12.6809 	 -4.64797 	 58.4158 	 
H 	 10.96 	 -4.19728 	 58.4238 	 
S 	 15.1767 	 -6.66074 	 66.7504 	 
C 	 15.8956 	 -5.69067 	 68.0839 	 
C 	 15.7638 	 -4.32833 	 67.9039 	 
C 	 14.9034 	 -4.06767 	 66.7671 	 
C 	 14.5774 	 -5.19446 	 66.0171 	 
H 	 16.1952 	 -3.58804 	 68.637 	 
C 	 14.632 	 -2.63984 	 66.2887 	 
H 	 14.706 	 -2.70053 	 65.2024 	 
H 	 15.5371 	 -2.2683 	 66.6477 	 
C 	 13.4855 	 -1.752 	 66.8901 	 
H 	 13.7801 	 -0.709772 	 66.722 	 
H 	 13.1341 	 -1.90465 	 67.9118 	 
C 	 12.1634 	 -2.09964 	 66.179 	 
H 	 11.3231 	 -1.51552 	 66.5059 	 
H 	 11.9343 	 -3.16932 	 66.2926 	 
H 	 12.1626 	 -1.83938 	 65.0796 	 
H 	 11.7418 	 -7.08251 	 62.2216 	 
H 	 16.3366 	 -6.17826 	 68.9056 	 
*
