! wB97X-D3 SP def2-SVP
%pal
nprocs 16
end

* xyz 0 1
S 	 -8.00076 	 65.2229 	 52.3538 	 
C 	 -8.27626 	 63.5248 	 51.989 	 
C 	 -7.59365 	 62.7005 	 52.8829 	 
C 	 -6.85321 	 63.4381 	 53.8348 	 
C 	 -6.93854 	 64.8215 	 53.6548 	 
H 	 -6.37468 	 63.0442 	 54.7062 	 
C 	 -7.70899 	 61.222 	 53.0215 	 
H 	 -8.79171 	 60.8988 	 52.8048 	 
H 	 -7.61257 	 60.9119 	 54.0726 	 
C 	 -6.80938 	 60.3207 	 52.2003 	 
H 	 -7.0882 	 60.3276 	 51.1123 	 
H 	 -5.79844 	 60.6081 	 52.2454 	 
C 	 -6.77836 	 58.8295 	 52.7654 	 
H 	 -6.2634 	 58.8564 	 53.7019 	 
H 	 -7.80876 	 58.5282 	 52.7656 	 
H 	 -6.13078 	 58.1741 	 52.1344 	 
S 	 -4.77238 	 65.949 	 55.0334 	 
C 	 -5.00248 	 67.2438 	 56.15 	 
C 	 -6.38162 	 67.4646 	 56.3263 	 
C 	 -7.22659 	 66.6721 	 55.4519 	 
C 	 -6.4577 	 65.8102 	 54.6264 	 
H 	 -6.63134 	 68.1848 	 57.1193 	 
C 	 -8.73066 	 66.6637 	 55.6425 	 
H 	 -9.34519 	 66.8374 	 54.7422 	 
H 	 -9.02874 	 67.4098 	 56.3199 	 
C 	 -9.32358 	 65.3325 	 56.0373 	 
H 	 -8.8095 	 64.9441 	 56.9326 	 
H 	 -9.22413 	 64.5895 	 55.2528 	 
C 	 -10.8563 	 65.4169 	 56.3461 	 
H 	 -11.2104 	 64.4747 	 56.7756 	 
H 	 -11.3913 	 65.6007 	 55.4525 	 
H 	 -11.0455 	 66.2725 	 56.9836 	 
H 	 -8.93419 	 63.128 	 51.1686 	 
H 	 -4.24193 	 67.646 	 56.7781 	 
*
