! wB97X-D3 SP def2-SVP
%pal
nprocs 16
end

* xyz 0 1
S 	 -20.1567 	 46.4603 	 57.9247 	 
C 	 -19.4938 	 47.7101 	 59.0336 	 
C 	 -20.2469 	 47.6991 	 60.2217 	 
C 	 -21.2067 	 46.6487 	 60.2524 	 
C 	 -21.2746 	 45.8257 	 59.1066 	 
H 	 -21.7895 	 46.3554 	 61.1602 	 
C 	 -20.0288 	 48.7047 	 61.358 	 
H 	 -20.75 	 49.4711 	 61.1661 	 
H 	 -19.0582 	 49.0821 	 61.3891 	 
C 	 -20.3135 	 48.0508 	 62.7446 	 
H 	 -20.3834 	 48.8755 	 63.5062 	 
H 	 -21.3024 	 47.5709 	 62.742 	 
C 	 -19.1001 	 47.1037 	 63.2044 	 
H 	 -18.1915 	 47.6946 	 63.2071 	 
H 	 -19.2971 	 46.7676 	 64.2124 	 
H 	 -18.9771 	 46.2619 	 62.5624 	 
S 	 -22.3426 	 43.7527 	 60.4514 	 
C 	 -23.418 	 42.6157 	 59.6905 	 
C 	 -23.5297 	 42.8716 	 58.3153 	 
C 	 -22.752 	 44.0078 	 57.9174 	 
C 	 -22.0132 	 44.5811 	 58.9553 	 
H 	 -24.1447 	 42.237 	 57.72 	 
C 	 -22.8586 	 44.4899 	 56.4404 	 
H 	 -22.1208 	 45.3413 	 56.3842 	 
H 	 -23.8675 	 44.9757 	 56.3653 	 
C 	 -22.5752 	 43.5221 	 55.2703 	 
H 	 -23.2083 	 42.6636 	 55.1917 	 
H 	 -21.6378 	 42.9665 	 55.4315 	 
C 	 -22.5777 	 44.1882 	 53.8678 	 
H 	 -22.3372 	 43.5368 	 53.0322 	 
H 	 -21.906 	 45.076 	 53.7049 	 
H 	 -23.5603 	 44.5937 	 53.6059 	 
H 	 -18.7074 	 48.4057 	 58.8189 	 
H 	 -23.9629 	 41.8215 	 60.1254 	 
*
