! wB97X-D3 SP def2-SVP
%pal
nprocs 16
end

* xyz 0 1
S 	 -38.0437 	 52.6604 	 108.165 	 
C 	 -37.4177 	 52.5154 	 109.817 	 
C 	 -38.0578 	 51.5557 	 110.528 	 
C 	 -39.1302 	 50.9149 	 109.763 	 
C 	 -39.3281 	 51.4761 	 108.526 	 
H 	 -39.8395 	 50.1958 	 110.093 	 
C 	 -37.7725 	 50.911 	 111.907 	 
H 	 -36.7454 	 50.6083 	 112.053 	 
H 	 -38.2657 	 49.9862 	 112.069 	 
C 	 -38.3223 	 51.6978 	 113.067 	 
H 	 -39.2912 	 52.0663 	 112.865 	 
H 	 -38.4314 	 51.0393 	 113.964 	 
C 	 -37.3735 	 52.8677 	 113.508 	 
H 	 -37.3941 	 53.6176 	 112.737 	 
H 	 -37.7682 	 53.3596 	 114.395 	 
H 	 -36.3535 	 52.5073 	 113.711 	 
S 	 -39.2116 	 49.8046 	 106.288 	 
C 	 -40.6514 	 49.7146 	 105.253 	 
C 	 -41.7603 	 50.2669 	 105.848 	 
C 	 -41.448 	 50.9289 	 107.074 	 
C 	 -40.0855 	 50.9187 	 107.421 	 
H 	 -42.6631 	 50.1466 	 105.412 	 
C 	 -42.5561 	 51.6694 	 107.814 	 
H 	 -43.197 	 51.9638 	 106.986 	 
H 	 -42.2902 	 52.6822 	 108.244 	 
C 	 -43.3142 	 50.7737 	 108.839 	 
H 	 -42.5429 	 50.3596 	 109.558 	 
H 	 -43.6228 	 49.9511 	 108.178 	 
C 	 -44.5944 	 51.4363 	 109.455 	 
H 	 -45.1736 	 50.6852 	 109.936 	 
H 	 -45.2403 	 51.8242 	 108.632 	 
H 	 -44.3499 	 52.1246 	 110.254 	 
H 	 -36.6316 	 53.0878 	 110.213 	 
H 	 -40.789 	 49.0962 	 104.418 	 
*
