! wB97X-D3 SP def2-SVP
%pal
nprocs 16
end

* xyz 0 1
S 	 26.7539 	 5.48146 	 77.1478 	 
C 	 28.1177 	 6.66847 	 77.5193 	 
C 	 29.2169 	 6.04087 	 78.0296 	 
C 	 28.9974 	 4.61354 	 78.197 	 
C 	 27.7448 	 4.12969 	 77.8012 	 
H 	 29.8239 	 4.06435 	 78.5528 	 
C 	 30.5602 	 6.76728 	 78.3048 	 
H 	 31.3896 	 6.09093 	 78.4071 	 
H 	 30.559 	 7.25512 	 79.2085 	 
C 	 30.962 	 7.7266 	 77.1896 	 
H 	 32.0009 	 7.64134 	 76.9239 	 
H 	 30.4194 	 7.46252 	 76.3243 	 
C 	 30.5534 	 9.13708 	 77.45 	 
H 	 31.0404 	 9.78874 	 76.7501 	 
H 	 29.4545 	 9.30407 	 77.5292 	 
H 	 30.9545 	 9.50296 	 78.3834 	 
S 	 28.344 	 1.46355 	 77.438 	 
C 	 27.095 	 0.287509 	 77.6152 	 
C 	 25.8529 	 0.860625 	 77.8109 	 
C 	 25.9069 	 2.27101 	 77.978 	 
C 	 27.2502 	 2.75536 	 77.854 	 
H 	 25.03 	 0.189834 	 77.7703 	 
C 	 24.6501 	 3.08277 	 78.2516 	 
H 	 24.9686 	 3.79246 	 79.0182 	 
H 	 23.9871 	 2.38466 	 78.8099 	 
C 	 23.7587 	 3.56688 	 77.1157 	 
H 	 23.4138 	 2.59354 	 76.7099 	 
H 	 24.3975 	 3.98789 	 76.3159 	 
C 	 22.6001 	 4.55661 	 77.2917 	 
H 	 21.9982 	 4.63265 	 76.3686 	 
H 	 22.9813 	 5.45395 	 77.6867 	 
H 	 21.9609 	 4.12128 	 78.0825 	 
H 	 28.0401 	 7.72959 	 77.2692 	 
H 	 27.2699 	 -0.759686 	 77.506 	 
*
