! wB97X-D3 SP def2-SVP
%pal
nprocs 16
end

* xyz 0 1
S 	 -95.0433 	 54.0403 	 121.595 	 
C 	 -94.9673 	 52.3523 	 121.027 	 
C 	 -95.4259 	 51.5373 	 122.066 	 
C 	 -95.6124 	 52.1368 	 123.301 	 
C 	 -95.3708 	 53.5203 	 123.243 	 
H 	 -95.9646 	 51.6478 	 124.231 	 
C 	 -95.8114 	 50.0715 	 121.822 	 
H 	 -96.476 	 50.1615 	 120.979 	 
H 	 -96.4921 	 49.6831 	 122.694 	 
C 	 -94.7583 	 49.1008 	 121.504 	 
H 	 -94.4175 	 49.3383 	 120.527 	 
H 	 -93.832 	 49.3255 	 122.099 	 
C 	 -95.0595 	 47.6152 	 121.45 	 
H 	 -95.5234 	 47.3457 	 122.356 	 
H 	 -95.8404 	 47.3749 	 120.73 	 
H 	 -94.2042 	 46.9448 	 121.202 	 
S 	 -96.7796 	 55.7 	 124.063 	 
C 	 -96.7964 	 56.0948 	 125.787 	 
C 	 -96.0025 	 55.2129 	 126.495 	 
C 	 -95.257 	 54.3051 	 125.685 	 
C 	 -95.6505 	 54.4002 	 124.357 	 
H 	 -95.8354 	 55.3203 	 127.58 	 
C 	 -94.3049 	 53.3339 	 126.342 	 
H 	 -93.8811 	 52.6864 	 125.589 	 
H 	 -95.0859 	 52.7012 	 126.879 	 
C 	 -93.1702 	 53.8953 	 127.277 	 
H 	 -92.5134 	 53.0745 	 127.667 	 
H 	 -93.5587 	 54.4015 	 128.157 	 
C 	 -92.1839 	 54.8385 	 126.564 	 
H 	 -91.4195 	 55.1145 	 127.239 	 
H 	 -92.7444 	 55.7225 	 126.206 	 
H 	 -91.7097 	 54.5002 	 125.664 	 
H 	 -94.8293 	 52.0098 	 120.048 	 
H 	 -97.2817 	 56.9151 	 126.206 	 
*
