! wB97X-D3 SP def2-SVP
%pal
nprocs 16
end

* xyz 0 1
S 	 -72.2571 	 38.6888 	 113.765 	 
C 	 -72.7953 	 38.6677 	 115.484 	 
C 	 -72.1359 	 37.6431 	 116.175 	 
C 	 -71.3129 	 36.8255 	 115.301 	 
C 	 -71.1052 	 37.3473 	 114.028 	 
H 	 -70.7561 	 35.9501 	 115.585 	 
C 	 -72.1418 	 37.309 	 117.67 	 
H 	 -72.1867 	 38.3041 	 118.148 	 
H 	 -71.2459 	 36.8093 	 117.787 	 
C 	 -73.2762 	 36.4041 	 118.036 	 
H 	 -74.244 	 36.9552 	 118.049 	 
H 	 -73.4521 	 35.6987 	 117.252 	 
C 	 -73.1305 	 35.5831 	 119.301 	 
H 	 -72.8763 	 36.1784 	 120.139 	 
H 	 -74.0762 	 35.1677 	 119.626 	 
H 	 -72.3614 	 34.807 	 119.025 	 
S 	 -70.657 	 36.7298 	 111.411 	 
C 	 -69.2751 	 35.6547 	 110.962 	 
C 	 -68.3342 	 35.7534 	 111.957 	 
C 	 -68.8387 	 36.2161 	 113.204 	 
C 	 -70.1098 	 36.8242 	 113.076 	 
H 	 -67.3814 	 35.3826 	 111.684 	 
C 	 -67.9876 	 36.3741 	 114.416 	 
H 	 -68.2499 	 35.4964 	 115.007 	 
H 	 -68.4203 	 37.1923 	 115.03 	 
C 	 -66.4606 	 36.4324 	 114.274 	 
H 	 -66.0278 	 37.2674 	 113.793 	 
H 	 -66.149 	 35.4918 	 113.834 	 
C 	 -65.7163 	 36.5397 	 115.614 	 
H 	 -64.6611 	 36.686 	 115.499 	 
H 	 -65.9777 	 35.6876 	 116.225 	 
H 	 -66.1492 	 37.4118 	 116.067 	 
H 	 -73.4232 	 39.4105 	 115.978 	 
H 	 -69.0121 	 35.4476 	 109.979 	 
*
