! wB97X-D3 SP def2-SVP
%pal
nprocs 16
end

* xyz 0 1
S 	 -41.1602 	 51.3301 	 105.169 	 
C 	 -39.8763 	 52.2538 	 104.647 	 
C 	 -38.6741 	 51.5101 	 104.628 	 
C 	 -38.8676 	 50.0599 	 104.899 	 
C 	 -40.2216 	 49.8512 	 105.142 	 
H 	 -38.1965 	 49.2467 	 105.074 	 
C 	 -37.3119 	 52.1393 	 104.519 	 
H 	 -37.5326 	 53.0774 	 103.929 	 
H 	 -36.6655 	 51.6338 	 103.842 	 
C 	 -36.5196 	 52.2 	 105.775 	 
H 	 -36.5229 	 51.2064 	 106.366 	 
H 	 -35.5315 	 52.5177 	 105.503 	 
C 	 -37.0738 	 53.3416 	 106.734 	 
H 	 -37.0685 	 54.2524 	 106.115 	 
H 	 -38.0144 	 53.0442 	 107.108 	 
H 	 -36.4815 	 53.3566 	 107.593 	 
S 	 -41.7979 	 48.4764 	 106.973 	 
C 	 -41.9752 	 46.7923 	 106.77 	 
C 	 -41.3356 	 46.3257 	 105.61 	 
C 	 -40.7387 	 47.4089 	 104.902 	 
C 	 -40.8921 	 48.616 	 105.503 	 
H 	 -41.3506 	 45.2502 	 105.345 	 
C 	 -40.1212 	 47.1406 	 103.54 	 
H 	 -39.9387 	 48.0376 	 103.007 	 
H 	 -40.8718 	 46.6186 	 102.864 	 
C 	 -38.843 	 46.2406 	 103.523 	 
H 	 -38.9424 	 45.2927 	 104.1 	 
H 	 -38.0398 	 46.8201 	 104.071 	 
C 	 -38.4504 	 45.8832 	 102.116 	 
H 	 -37.8843 	 46.6978 	 101.597 	 
H 	 -39.3877 	 45.7705 	 101.606 	 
H 	 -37.7871 	 45.093 	 101.948 	 
H 	 -39.8323 	 53.3297 	 104.767 	 
H 	 -42.6252 	 46.1846 	 107.358 	 
*
