! wB97X-D3 SP def2-SVP
%pal
nprocs 16
end

* xyz 0 1
S 	 51.8476 	 19.3981 	 91.0464 	 
C 	 50.4245 	 20.3774 	 90.5163 	 
C 	 50.7801 	 21.213 	 89.4712 	 
C 	 51.987 	 20.7663 	 88.8769 	 
C 	 52.6662 	 19.7695 	 89.5994 	 
H 	 52.4185 	 21.0848 	 87.9415 	 
C 	 49.8702 	 22.2109 	 88.7907 	 
H 	 50.4832 	 22.6863 	 88.0052 	 
H 	 49.8182 	 23.0015 	 89.5966 	 
C 	 48.508 	 21.7131 	 88.1904 	 
H 	 48.7167 	 21.3497 	 87.1498 	 
H 	 48.2584 	 20.8313 	 88.7802 	 
C 	 47.4229 	 22.8617 	 88.0873 	 
H 	 47.895 	 23.6861 	 87.5535 	 
H 	 46.5079 	 22.6101 	 87.4874 	 
H 	 47.1048 	 23.2748 	 89.0524 	 
S 	 55.2485 	 20.3073 	 88.6987 	 
C 	 56.3061 	 19.0125 	 88.2009 	 
C 	 55.708 	 17.7631 	 88.3917 	 
C 	 54.3328 	 17.871 	 88.8547 	 
C 	 53.9656 	 19.1643 	 89.1802 	 
H 	 56.1895 	 16.8796 	 88.1615 	 
C 	 53.4173 	 16.6879 	 89.073 	 
H 	 53.093 	 16.7807 	 90.1334 	 
H 	 54.0003 	 15.8016 	 89.0484 	 
C 	 52.1759 	 16.5903 	 88.1448 	 
H 	 52.5033 	 16.3132 	 87.1431 	 
H 	 51.6169 	 17.5279 	 88.2046 	 
C 	 51.2022 	 15.5672 	 88.5457 	 
H 	 50.8963 	 15.562 	 89.6387 	 
H 	 51.6261 	 14.5839 	 88.3804 	 
H 	 50.2992 	 15.6906 	 88.0024 	 
H 	 49.5962 	 20.5662 	 91.1535 	 
H 	 57.3542 	 19.1299 	 87.9228 	 
*
