! wB97X-D3 SP def2-SVP
%pal
nprocs 16
end

* xyz 0 1
S 	 -104.82 	 51.6026 	 115.865 	 
C 	 -106.195 	 50.6913 	 116.364 	 
C 	 -106.753 	 51.2161 	 117.501 	 
C 	 -106.106 	 52.3869 	 117.917 	 
C 	 -105.096 	 52.8434 	 117.076 	 
H 	 -106.435 	 52.8973 	 118.833 	 
C 	 -107.944 	 50.5657 	 118.23 	 
H 	 -108.066 	 51.082 	 119.249 	 
H 	 -107.664 	 49.516 	 118.433 	 
C 	 -109.26 	 50.6662 	 117.45 	 
H 	 -109.141 	 50.127 	 116.57 	 
H 	 -110.051 	 50.0678 	 118.047 	 
C 	 -109.86 	 52.1157 	 117.281 	 
H 	 -110.835 	 51.8754 	 116.735 	 
H 	 -110.053 	 52.5277 	 118.325 	 
H 	 -109.313 	 52.8856 	 116.677 	 
S 	 -102.571 	 53.7942 	 117.143 	 
C 	 -102.196 	 55.3801 	 117.734 	 
C 	 -103.331 	 56.1164 	 117.865 	 
C 	 -104.575 	 55.402 	 117.595 	 
C 	 -104.309 	 54.076 	 117.245 	 
H 	 -103.295 	 57.1415 	 118.306 	 
C 	 -105.943 	 55.9311 	 117.822 	 
H 	 -105.985 	 56.0128 	 118.97 	 
H 	 -106.697 	 55.2038 	 117.435 	 
C 	 -106.33 	 57.3523 	 117.366 	 
H 	 -105.928 	 58.2078 	 117.903 	 
H 	 -107.398 	 57.4048 	 117.382 	 
C 	 -105.734 	 57.562 	 115.973 	 
H 	 -106.017 	 56.7368 	 115.422 	 
H 	 -104.629 	 57.5199 	 115.973 	 
H 	 -106.183 	 58.3295 	 115.344 	 
H 	 -106.427 	 49.721 	 115.938 	 
H 	 -101.229 	 55.6997 	 117.997 	 
*
