! wB97X-D3 SP def2-SVP
%pal
nprocs 16
end

* xyz 0 1
S 	 -36.3732 	 59.433 	 109.153 	 
C 	 -37.9746 	 58.7223 	 109.107 	 
C 	 -38.1378 	 57.8265 	 108.026 	 
C 	 -36.8692 	 57.5324 	 107.421 	 
C 	 -35.9047 	 58.5584 	 107.659 	 
H 	 -36.6836 	 56.7314 	 106.686 	 
C 	 -39.4083 	 57.0444 	 107.65 	 
H 	 -39.3932 	 56.758 	 106.588 	 
H 	 -40.2088 	 57.846 	 107.859 	 
C 	 -39.718 	 55.8159 	 108.53 	 
H 	 -39.4412 	 55.9829 	 109.611 	 
H 	 -40.7257 	 55.5027 	 108.426 	 
C 	 -38.922 	 54.5818 	 108.146 	 
H 	 -37.8787 	 54.9275 	 108.026 	 
H 	 -38.8635 	 53.769 	 108.938 	 
H 	 -39.2358 	 54.0934 	 107.201 	 
S 	 -33.2137 	 58.8451 	 108.497 	 
C 	 -32.093 	 59.4315 	 107.358 	 
C 	 -32.609 	 59.3896 	 106.054 	 
C 	 -34.0065 	 59.1144 	 105.966 	 
C 	 -34.474 	 58.7464 	 107.188 	 
H 	 -31.953 	 59.6648 	 105.221 	 
C 	 -34.804 	 59.142 	 104.674 	 
H 	 -35.6361 	 59.8936 	 104.769 	 
H 	 -35.3489 	 58.1773 	 104.5 	 
C 	 -34.0325 	 59.4418 	 103.328 	 
H 	 -33.2247 	 58.7986 	 103.196 	 
H 	 -33.6348 	 60.4192 	 103.374 	 
C 	 -34.9807 	 59.3845 	 102.196 	 
H 	 -35.8531 	 59.975 	 102.466 	 
H 	 -35.3326 	 58.3791 	 101.935 	 
H 	 -34.4517 	 59.8294 	 101.44 	 
H 	 -38.702 	 58.9486 	 109.859 	 
H 	 -31.0173 	 59.6647 	 107.497 	 
*
