! wB97X-D3 SP def2-SVP
%pal
nprocs 16
end

* xyz 0 1
S 	 28.5832 	 -5.80949 	 80.3714 	 
C 	 30.1859 	 -5.82837 	 79.6383 	 
C 	 30.4897 	 -4.67178 	 78.8912 	 
C 	 29.38 	 -3.72084 	 79.0879 	 
C 	 28.4334 	 -4.11064 	 80.0235 	 
H 	 29.2841 	 -2.77767 	 78.5866 	 
C 	 31.5799 	 -4.56828 	 77.7989 	 
H 	 31.0015 	 -4.09428 	 77.0483 	 
H 	 31.7511 	 -5.606 	 77.3953 	 
C 	 32.9266 	 -3.9134 	 78.2796 	 
H 	 33.3276 	 -4.55127 	 79.0979 	 
H 	 33.6092 	 -3.92479 	 77.4602 	 
C 	 32.7581 	 -2.46175 	 78.7154 	 
H 	 33.7832 	 -2.11532 	 79.0494 	 
H 	 32.3083 	 -1.83329 	 77.9375 	 
H 	 32.1056 	 -2.34881 	 79.5385 	 
S 	 26.6581 	 -2.05382 	 79.452 	 
C 	 25.4974 	 -1.54208 	 80.6645 	 
C 	 25.9358 	 -2.04775 	 81.8682 	 
C 	 26.848 	 -3.19956 	 81.7685 	 
C 	 27.3903 	 -3.29106 	 80.4978 	 
H 	 25.4197 	 -1.71299 	 82.742 	 
C 	 27.2434 	 -4.0829 	 82.9637 	 
H 	 27.335 	 -3.37471 	 83.7978 	 
H 	 28.245 	 -4.52905 	 82.8029 	 
C 	 26.1711 	 -5.22067 	 83.2259 	 
H 	 26.4044 	 -5.86799 	 84.0902 	 
H 	 26.1432 	 -5.8827 	 82.3666 	 
C 	 24.7765 	 -4.59085 	 83.4895 	 
H 	 24.3427 	 -4.15604 	 82.5533 	 
H 	 24.6478 	 -3.91046 	 84.2982 	 
H 	 24.1105 	 -5.34662 	 83.7576 	 
H 	 30.8738 	 -6.68115 	 79.5183 	 
H 	 24.6649 	 -0.91269 	 80.5257 	 
*
