! wB97X-D3 SP def2-SVP
%pal
nprocs 16
end

* xyz 0 1
S 	 4.89633 	 -7.0486 	 79.4645 	 
C 	 4.87527 	 -7.23251 	 81.184 	 
C 	 3.81593 	 -6.61522 	 81.8183 	 
C 	 3.06022 	 -5.7823 	 80.928 	 
C 	 3.44964 	 -5.98096 	 79.6215 	 
H 	 2.11982 	 -5.15406 	 81.0384 	 
C 	 3.40554 	 -6.60488 	 83.28 	 
H 	 3.24096 	 -7.64489 	 83.4898 	 
H 	 2.4725 	 -6.01235 	 83.3607 	 
C 	 4.47029 	 -6.12797 	 84.3063 	 
H 	 4.11666 	 -6.36867 	 85.332 	 
H 	 5.29476 	 -6.8976 	 84.3706 	 
C 	 4.85456 	 -4.74215 	 84.2879 	 
H 	 5.59148 	 -4.31922 	 85.0806 	 
H 	 5.11786 	 -4.52636 	 83.227 	 
H 	 4.05173 	 -4.09731 	 84.5607 	 
S 	 3.44343 	 -4.04713 	 77.709 	 
C 	 2.10495 	 -3.71653 	 76.6654 	 
C 	 1.17663 	 -4.70583 	 76.9279 	 
C 	 1.48046 	 -5.66157 	 77.9495 	 
C 	 2.7263 	 -5.39458 	 78.5134 	 
H 	 0.292257 	 -4.65093 	 76.3366 	 
C 	 0.527213 	 -6.63995 	 78.4852 	 
H 	 -0.373522 	 -6.45483 	 77.9997 	 
H 	 0.529031 	 -6.5315 	 79.5773 	 
C 	 1.0187 	 -8.02144 	 78.2057 	 
H 	 2.03571 	 -8.24434 	 78.672 	 
H 	 1.18796 	 -8.19014 	 77.1178 	 
C 	 0.0901915 	 -9.07061 	 78.8047 	 
H 	 -0.860532 	 -9.14387 	 78.3325 	 
H 	 0.0442293 	 -9.17382 	 79.9263 	 
H 	 0.552275 	 -10.0159 	 78.5925 	 
H 	 5.67269 	 -7.68956 	 81.7813 	 
H 	 2.12609 	 -3.06391 	 75.7776 	 
*
