! wB97X-D3 SP def2-SVP
%pal
nprocs 16
end

* xyz 0 1
S 	 69.8784 	 29.3188 	 70.4236 	 
C 	 69.2173 	 30.2892 	 69.1239 	 
C 	 69.8079 	 29.9236 	 67.9 	 
C 	 70.4268 	 28.6441 	 67.9434 	 
C 	 70.5621 	 28.2025 	 69.2255 	 
H 	 70.8267 	 28.1181 	 67.0592 	 
C 	 69.8151 	 30.6073 	 66.4986 	 
H 	 70.5532 	 30.1396 	 65.8856 	 
H 	 70.0497 	 31.6561 	 66.6134 	 
C 	 68.4641 	 30.6402 	 65.7159 	 
H 	 68.0893 	 29.6233 	 65.7016 	 
H 	 67.6767 	 31.2304 	 66.2517 	 
C 	 68.5523 	 31.3168 	 64.3651 	 
H 	 69.2655 	 30.8636 	 63.75 	 
H 	 67.6295 	 31.214 	 63.7748 	 
H 	 68.6988 	 32.3937 	 64.5147 	 
S 	 72.5382 	 27.1288 	 70.9229 	 
C 	 72.8998 	 25.4432 	 70.7979 	 
C 	 72.1228 	 24.7797 	 69.8522 	 
C 	 71.2608 	 25.6712 	 69.1536 	 
C 	 71.2752 	 27.0014 	 69.6556 	 
H 	 72.2465 	 23.7202 	 69.6166 	 
C 	 70.4474 	 25.1869 	 68.0184 	 
H 	 69.9335 	 26.0547 	 67.5543 	 
H 	 69.6937 	 24.5133 	 68.4709 	 
C 	 71.1343 	 24.4454 	 66.8949 	 
H 	 70.4214 	 23.9496 	 66.2272 	 
H 	 71.6657 	 23.5647 	 67.3288 	 
C 	 72.1746 	 25.2076 	 65.9304 	 
H 	 72.7036 	 24.4425 	 65.2997 	 
H 	 72.8935 	 25.6568 	 66.5923 	 
H 	 71.7814 	 25.9536 	 65.2209 	 
H 	 68.7524 	 31.2926 	 69.102 	 
H 	 73.6881 	 25.0289 	 71.3774 	 
*
