! wB97X-D3 SP def2-SVP
%pal
nprocs 16
end

* xyz 0 1
S 	 -50.6508 	 12.8033 	 79.3851 	 
C 	 -49.4468 	 11.7101 	 80.0327 	 
C 	 -48.9103 	 12.238 	 81.2021 	 
C 	 -49.715 	 13.3027 	 81.6818 	 
C 	 -50.7624 	 13.7156 	 80.8627 	 
H 	 -49.6207 	 13.8396 	 82.6216 	 
C 	 -47.6014 	 11.8347 	 81.808 	 
H 	 -47.4467 	 10.7208 	 81.8551 	 
H 	 -47.5051 	 12.1509 	 82.8642 	 
C 	 -46.2879 	 12.3864 	 81.1929 	 
H 	 -45.4327 	 12.2593 	 81.7789 	 
H 	 -46.1484 	 11.9506 	 80.2243 	 
C 	 -46.3807 	 13.9655 	 80.9117 	 
H 	 -47.335 	 14.2965 	 80.5183 	 
H 	 -46.1161 	 14.4545 	 81.8946 	 
H 	 -45.619 	 14.3085 	 80.2343 	 
S 	 -51.8773 	 15.9716 	 79.7107 	 
C 	 -52.8127 	 16.9747 	 80.7274 	 
C 	 -52.9652 	 16.4672 	 81.9388 	 
C 	 -52.2122 	 15.3187 	 82.1765 	 
C 	 -51.6015 	 14.812 	 81.028 	 
H 	 -53.5714 	 16.9235 	 82.7118 	 
C 	 -52.1876 	 14.6624 	 83.5236 	 
H 	 -51.8481 	 13.6671 	 83.2416 	 
H 	 -53.1956 	 14.5715 	 83.8635 	 
C 	 -51.4039 	 15.4545 	 84.5865 	 
H 	 -52.1698 	 16.1635 	 84.931 	 
H 	 -50.6688 	 16.012 	 84.0647 	 
C 	 -50.7867 	 14.6102 	 85.7182 	 
H 	 -50.2034 	 15.1264 	 86.4301 	 
H 	 -50.0894 	 13.8973 	 85.3008 	 
H 	 -51.6135 	 14.0302 	 86.1691 	 
H 	 -48.9318 	 10.9357 	 79.4471 	 
H 	 -53.1682 	 17.9094 	 80.4223 	 
*
