! wB97X-D3 SP def2-SVP
%pal
nprocs 16
end

* xyz 0 1
S 	 -76.1638 	 50.0063 	 136.113 	 
C 	 -74.5065 	 49.5454 	 136.236 	 
C 	 -73.753 	 50.196 	 135.272 	 
C 	 -74.5725 	 50.901 	 134.391 	 
C 	 -75.8791 	 51.0333 	 134.751 	 
H 	 -74.2983 	 51.2888 	 133.436 	 
C 	 -72.3517 	 49.9737 	 134.877 	 
H 	 -71.7997 	 50.8143 	 135.115 	 
H 	 -72.291 	 50.003 	 133.794 	 
C 	 -71.5339 	 48.7927 	 135.409 	 
H 	 -72.1344 	 47.861 	 135.107 	 
H 	 -70.7263 	 48.6912 	 134.71 	 
C 	 -71.1982 	 48.8792 	 136.926 	 
H 	 -70.2911 	 48.4225 	 137.267 	 
H 	 -71.1604 	 49.9426 	 137.257 	 
H 	 -71.911 	 48.4011 	 137.56 	 
S 	 -78.1333 	 50.7128 	 133.195 	 
C 	 -78.6579 	 52.0936 	 132.295 	 
C 	 -78.0086 	 53.2622 	 132.624 	 
C 	 -76.9332 	 53.0622 	 133.507 	 
C 	 -76.8513 	 51.7316 	 133.923 	 
H 	 -78.4101 	 54.1647 	 132.255 	 
C 	 -76.0064 	 54.2052 	 133.947 	 
H 	 -75.0445 	 53.8812 	 134.349 	 
H 	 -76.5097 	 54.7624 	 134.744 	 
C 	 -75.6009 	 55.1969 	 132.861 	 
H 	 -76.471 	 55.601 	 132.334 	 
H 	 -75.0658 	 54.5136 	 132.23 	 
C 	 -74.7713 	 56.3507 	 133.364 	 
H 	 -75.1126 	 56.7711 	 134.319 	 
H 	 -74.8004 	 57.1493 	 132.672 	 
H 	 -73.7324 	 56.1343 	 133.606 	 
H 	 -73.9628 	 48.8849 	 136.935 	 
H 	 -79.4103 	 52.1214 	 131.527 	 
*
