! wB97X-D3 SP def2-SVP
%pal
nprocs 16
end

* xyz 0 1
S 	 2.5809 	 -20.2377 	 82.4149 	 
C 	 2.25274 	 -20.4207 	 84.1731 	 
C 	 2.92427 	 -19.482 	 84.8696 	 
C 	 3.31599 	 -18.4275 	 84.0069 	 
C 	 3.33724 	 -18.6701 	 82.683 	 
H 	 3.58217 	 -17.3463 	 84.3702 	 
C 	 3.0933 	 -19.3745 	 86.3413 	 
H 	 2.1098 	 -19.6964 	 86.5961 	 
H 	 3.26902 	 -18.3155 	 86.5716 	 
C 	 4.21712 	 -20.1574 	 87.0249 	 
H 	 3.95127 	 -21.2331 	 86.9524 	 
H 	 5.12617 	 -19.9044 	 86.4303 	 
C 	 4.45714 	 -19.7036 	 88.4843 	 
H 	 3.54856 	 -19.5757 	 89.0703 	 
H 	 5.22258 	 -20.3125 	 88.9629 	 
H 	 4.90317 	 -18.7382 	 88.3743 	 
S 	 2.43781 	 -16.9493 	 80.7786 	 
C 	 3.53223 	 -15.881 	 79.9044 	 
C 	 4.78226 	 -15.8898 	 80.4524 	 
C 	 4.87857 	 -16.8637 	 81.5377 	 
C 	 3.68267 	 -17.6194 	 81.7463 	 
H 	 5.5799 	 -15.2847 	 80.0275 	 
C 	 6.19734 	 -17.0738 	 82.3062 	 
H 	 5.94043 	 -17.0858 	 83.3936 	 
H 	 6.81754 	 -16.1812 	 82.1094 	 
C 	 6.9806 	 -18.3137 	 81.8137 	 
H 	 7.17139 	 -18.3366 	 80.7057 	 
H 	 6.48038 	 -19.1895 	 82.0419 	 
C 	 8.39278 	 -18.3676 	 82.446 	 
H 	 9.06088 	 -17.6385 	 81.9884 	 
H 	 8.94198 	 -19.3309 	 82.3198 	 
H 	 8.31428 	 -18.2876 	 83.4971 	 
H 	 2.00262 	 -21.2932 	 84.681 	 
H 	 3.31519 	 -15.1881 	 79.0966 	 
*
