! wB97X-D3 SP def2-SVP
%pal
nprocs 16
end

* xyz 0 1
S 	 -63.7423 	 51.2084 	 124.127 	 
C 	 -65.2995 	 50.4702 	 124.501 	 
C 	 -65.5844 	 49.5773 	 123.537 	 
C 	 -64.6249 	 49.4067 	 122.55 	 
C 	 -63.5838 	 50.3058 	 122.635 	 
H 	 -64.5633 	 48.7597 	 121.712 	 
C 	 -66.9098 	 48.7746 	 123.491 	 
H 	 -67.7308 	 49.4588 	 123.885 	 
H 	 -66.8589 	 47.9473 	 124.081 	 
C 	 -67.3091 	 48.2913 	 122.055 	 
H 	 -67.6269 	 49.163 	 121.496 	 
H 	 -66.489 	 47.7165 	 121.571 	 
C 	 -68.5525 	 47.3431 	 122.157 	 
H 	 -68.752 	 46.8003 	 121.224 	 
H 	 -68.3536 	 46.5491 	 122.904 	 
H 	 -69.3714 	 48.0129 	 122.537 	 
S 	 -60.8837 	 50.2881 	 122.538 	 
C 	 -60.2062 	 50.3829 	 120.946 	 
C 	 -61.0829 	 50.7709 	 119.929 	 
C 	 -62.3803 	 50.9375 	 120.453 	 
C 	 -62.4459 	 50.6062 	 121.806 	 
H 	 -60.7912 	 50.8863 	 118.88 	 
C 	 -63.5489 	 51.3581 	 119.554 	 
H 	 -63.0184 	 51.9214 	 118.745 	 
H 	 -64.1535 	 52.0537 	 120.184 	 
C 	 -64.3942 	 50.2574 	 118.896 	 
H 	 -65.1052 	 49.7477 	 119.59 	 
H 	 -63.6412 	 49.5691 	 118.493 	 
C 	 -65.2394 	 50.8363 	 117.871 	 
H 	 -65.9255 	 50.1512 	 117.394 	 
H 	 -64.7036 	 51.3072 	 117.112 	 
H 	 -65.8933 	 51.6819 	 118.22 	 
H 	 -65.9107 	 50.6256 	 125.34 	 
H 	 -59.2339 	 50.093 	 120.822 	 
*
