! wB97X-D3 SP def2-SVP
%pal
nprocs 16
end

* xyz 0 1
S 	 -22.1734 	 56.8329 	 106.341 	 
C 	 -23.8054 	 56.8239 	 105.694 	 
C 	 -24.6343 	 57.7144 	 106.431 	 
C 	 -23.936 	 58.3467 	 107.486 	 
C 	 -22.6078 	 58.0539 	 107.524 	 
H 	 -24.3473 	 59.0462 	 108.176 	 
C 	 -26.1297 	 57.8018 	 106.378 	 
H 	 -26.4089 	 57.7734 	 107.419 	 
H 	 -26.52 	 56.8772 	 105.968 	 
C 	 -26.6823 	 59.024 	 105.693 	 
H 	 -27.792 	 59.0339 	 105.725 	 
H 	 -26.1891 	 59.8465 	 106.1 	 
C 	 -26.5765 	 58.971 	 104.125 	 
H 	 -25.5244 	 58.8678 	 103.842 	 
H 	 -26.9426 	 58.1343 	 103.606 	 
H 	 -26.9316 	 59.9408 	 103.786 	 
S 	 -21.2977 	 60.4319 	 107.747 	 
C 	 -20.0102 	 60.526 	 109.011 	 
C 	 -20.0367 	 59.4421 	 109.862 	 
C 	 -20.9424 	 58.4425 	 109.455 	 
C 	 -21.687 	 58.7898 	 108.351 	 
H 	 -19.3017 	 59.3271 	 110.616 	 
C 	 -20.8423 	 57.1125 	 110.088 	 
H 	 -19.8043 	 56.7692 	 109.773 	 
H 	 -21.5122 	 56.4462 	 109.538 	 
C 	 -21.1014 	 57.0165 	 111.648 	 
H 	 -20.4981 	 57.7161 	 112.197 	 
H 	 -20.8923 	 55.9783 	 112.077 	 
C 	 -22.447 	 57.5081 	 112.049 	 
H 	 -22.7427 	 58.4811 	 111.651 	 
H 	 -22.5376 	 57.559 	 113.16 	 
H 	 -23.2056 	 56.8299 	 111.745 	 
H 	 -24.136 	 56.1791 	 104.961 	 
H 	 -19.4115 	 61.3396 	 109.225 	 
*
