! wB97X-D3 SP def2-SVP
%pal
nprocs 16
end

* xyz 0 1
S 	 4.73116 	 -23.3546 	 87.1137 	 
C 	 2.96849 	 -23.5413 	 86.899 	 
C 	 2.66076 	 -23.2105 	 85.6138 	 
C 	 3.76047 	 -22.5993 	 84.934 	 
C 	 4.85835 	 -22.4176 	 85.702 	 
H 	 3.60563 	 -22.2438 	 83.9416 	 
C 	 1.34757 	 -23.5349 	 84.9079 	 
H 	 0.945885 	 -22.5969 	 84.4559 	 
H 	 0.648666 	 -23.7805 	 85.6875 	 
C 	 1.44764 	 -24.6174 	 83.8303 	 
H 	 2.20325 	 -24.1594 	 83.169 	 
H 	 2.06291 	 -25.5472 	 84.1322 	 
C 	 0.19845 	 -25.0238 	 83.0198 	 
H 	 -0.706277 	 -25.2202 	 83.6534 	 
H 	 -0.137221 	 -24.1976 	 82.4048 	 
H 	 0.476229 	 -25.8434 	 82.3499 	 
S 	 7.59959 	 -22.7366 	 85.3222 	 
C 	 8.58888 	 -21.5245 	 84.6008 	 
C 	 7.76257 	 -20.5483 	 84.1109 	 
C 	 6.40856 	 -20.6861 	 84.5058 	 
C 	 6.11093 	 -21.845 	 85.2625 	 
H 	 8.21528 	 -19.7227 	 83.5204 	 
C 	 5.37168 	 -19.5502 	 84.2742 	 
H 	 4.39071 	 -19.8884 	 84.4804 	 
H 	 5.36049 	 -19.2606 	 83.2367 	 
C 	 5.66566 	 -18.2164 	 85.0301 	 
H 	 6.71495 	 -17.8904 	 85.0153 	 
H 	 5.45126 	 -18.3792 	 86.0743 	 
C 	 4.75752 	 -17.0422 	 84.6022 	 
H 	 4.81669 	 -16.9621 	 83.5458 	 
H 	 5.02853 	 -16.0847 	 85.1717 	 
H 	 3.67892 	 -17.1954 	 84.7335 	 
H 	 2.31897 	 -24.0945 	 87.566 	 
H 	 9.65359 	 -21.4616 	 84.5066 	 
*
