! wB97X-D3 SP def2-SVP
%pal
nprocs 16
end

* xyz 0 1
S 	 7.59662 	 23.8938 	 42.3502 	 
C 	 6.30005 	 24.3572 	 43.5007 	 
C 	 5.6788 	 25.5132 	 43.0095 	 
C 	 6.22914 	 25.9768 	 41.738 	 
C 	 7.23673 	 25.2227 	 41.2546 	 
H 	 5.89382 	 26.8995 	 41.2695 	 
C 	 4.59216 	 26.249 	 43.7225 	 
H 	 4.46007 	 27.2656 	 43.3376 	 
H 	 4.8893 	 26.3213 	 44.7911 	 
C 	 3.27038 	 25.5085 	 43.6661 	 
H 	 3.03108 	 25.3001 	 42.6559 	 
H 	 3.34912 	 24.5431 	 44.147 	 
C 	 2.126 	 26.2873 	 44.3146 	 
H 	 2.29004 	 26.499 	 45.3506 	 
H 	 1.77087 	 27.0478 	 43.5966 	 
H 	 1.32152 	 25.6004 	 44.372 	 
S 	 8.98762 	 27.096 	 40.1631 	 
C 	 9.92417 	 26.6731 	 38.7523 	 
C 	 9.40316 	 25.5093 	 38.2432 	 
C 	 8.40614 	 24.8275 	 38.9846 	 
C 	 8.03676 	 25.571 	 40.0861 	 
H 	 9.7802 	 25.0838 	 37.3369 	 
C 	 7.78315 	 23.4826 	 38.6279 	 
H 	 7.80322 	 22.948 	 39.5438 	 
H 	 8.54864 	 23.0464 	 37.9402 	 
C 	 6.35126 	 23.4845 	 38.0582 	 
H 	 6.23208 	 24.476 	 37.4967 	 
H 	 5.68247 	 23.5629 	 38.8803 	 
C 	 6.17486 	 22.3034 	 37.0424 	 
H 	 6.82622 	 22.3633 	 36.1769 	 
H 	 5.11071 	 22.2327 	 36.7151 	 
H 	 6.35579 	 21.3879 	 37.6484 	 
H 	 6.08559 	 23.8216 	 44.381 	 
H 	 10.614 	 27.3456 	 38.3227 	 
*
