! wB97X-D3 SP def2-SVP
%pal
nprocs 16
end

* xyz 0 1
S 	 -54.7449 	 21.2709 	 92.0547 	 
C 	 -53.0319 	 21.1338 	 92.1539 	 
C 	 -52.4068 	 22.2788 	 91.7221 	 
C 	 -53.3884 	 23.2599 	 91.2966 	 
C 	 -54.7413 	 22.8638 	 91.3475 	 
H 	 -53.2294 	 24.2807 	 90.8951 	 
C 	 -50.945 	 22.6975 	 91.8814 	 
H 	 -50.4452 	 22.3307 	 90.9986 	 
H 	 -50.5625 	 22.2287 	 92.7844 	 
C 	 -50.5567 	 24.2143 	 91.9963 	 
H 	 -49.4552 	 24.2013 	 91.9503 	 
H 	 -50.9569 	 24.7771 	 91.2058 	 
C 	 -51.0324 	 24.8298 	 93.3068 	 
H 	 -52.1064 	 25.1286 	 93.4009 	 
H 	 -50.7925 	 24.1371 	 94.0514 	 
H 	 -50.3146 	 25.6585 	 93.5026 	 
S 	 -56.1923 	 23.8294 	 89.193 	 
C 	 -57.344 	 25.081 	 89.4586 	 
C 	 -57.5011 	 25.4022 	 90.7934 	 
C 	 -56.5777 	 24.6921 	 91.5848 	 
C 	 -55.8628 	 23.7071 	 90.9161 	 
H 	 -58.1582 	 26.2018 	 91.042 	 
C 	 -56.4717 	 25.0033 	 93.0594 	 
H 	 -56.736 	 26.0495 	 93.1663 	 
H 	 -55.4664 	 24.9271 	 93.3811 	 
C 	 -57.3852 	 24.2235 	 93.9645 	 
H 	 -57.0175 	 23.2061 	 93.7873 	 
H 	 -58.418 	 24.3379 	 93.6333 	 
C 	 -57.1573 	 24.6709 	 95.4181 	 
H 	 -56.2788 	 24.192 	 95.9088 	 
H 	 -58.0314 	 24.4071 	 96.0523 	 
H 	 -57.1507 	 25.7647 	 95.3914 	 
H 	 -52.5235 	 20.4113 	 92.7341 	 
H 	 -57.9278 	 25.5317 	 88.7084 	 
*
