! wB97X-D3 SP def2-SVP
%pal
nprocs 16
end

* xyz 0 1
S 	 -54.8378 	 32.1062 	 89.6368 	 
C 	 -56.4207 	 31.4502 	 90.0701 	 
C 	 -57.0095 	 32.2667 	 91.0396 	 
C 	 -56.1506 	 33.3664 	 91.4119 	 
C 	 -54.8859 	 33.4745 	 90.7693 	 
H 	 -56.4289 	 34.0845 	 92.1954 	 
C 	 -58.4597 	 32.2052 	 91.4324 	 
H 	 -58.7988 	 31.252 	 91.0704 	 
H 	 -58.908 	 33.0974 	 90.9183 	 
C 	 -58.8374 	 32.1536 	 92.9754 	 
H 	 -58.5645 	 33.0608 	 93.5723 	 
H 	 -59.893 	 32.0614 	 93.2425 	 
C 	 -58.061 	 31.0074 	 93.5812 	 
H 	 -58.4458 	 30.8329 	 94.5925 	 
H 	 -58.2198 	 30.0864 	 93.1216 	 
H 	 -57.0208 	 31.0266 	 93.6758 	 
S 	 -52.4486 	 33.6321 	 91.917 	 
C 	 -51.5925 	 35.2197 	 92.1103 	 
C 	 -52.3857 	 36.1719 	 91.4804 	 
C 	 -53.6363 	 35.7063 	 90.9709 	 
C 	 -53.7621 	 34.303 	 91.073 	 
H 	 -52.1927 	 37.2825 	 91.6003 	 
C 	 -54.628 	 36.7281 	 90.3788 	 
H 	 -55.2438 	 36.2571 	 89.5367 	 
H 	 -54.003 	 37.5446 	 89.902 	 
C 	 -55.4355 	 37.4394 	 91.4895 	 
H 	 -54.7971 	 38.0387 	 92.1034 	 
H 	 -55.9247 	 36.7036 	 92.1706 	 
C 	 -56.511 	 38.4159 	 90.9296 	 
H 	 -56.9928 	 39.0007 	 91.6939 	 
H 	 -57.1843 	 37.8201 	 90.4072 	 
H 	 -56.0919 	 39.1749 	 90.3044 	 
H 	 -56.9618 	 30.6045 	 89.6235 	 
H 	 -50.5582 	 35.3641 	 92.4456 	 
*
