! wB97X-D3 SP def2-SVP
%pal
nprocs 16
end

* xyz 0 1
S 	 3.28223 	 -4.13524 	 91.0555 	 
C 	 3.44175 	 -2.72715 	 92.0538 	 
C 	 2.30176 	 -2.45028 	 92.6841 	 
C 	 1.35572 	 -3.52711 	 92.5714 	 
C 	 1.623 	 -4.47316 	 91.6575 	 
H 	 0.357853 	 -3.64905 	 93.0656 	 
C 	 2.06058 	 -1.37494 	 93.6262 	 
H 	 1.00434 	 -1.23567 	 93.6058 	 
H 	 2.42906 	 -0.433275 	 93.2463 	 
C 	 2.48116 	 -1.60172 	 95.0598 	 
H 	 2.19264 	 -0.726958 	 95.6746 	 
H 	 2.04672 	 -2.51145 	 95.4201 	 
C 	 3.94643 	 -1.97905 	 95.2119 	 
H 	 4.60775 	 -1.23985 	 94.7233 	 
H 	 4.2236 	 -1.87592 	 96.2992 	 
H 	 4.23719 	 -3.0747 	 94.8682 	 
S 	 1.22319 	 -6.29402 	 89.6611 	 
C 	 -0.134761 	 -7.35723 	 89.6746 	 
C 	 -0.869328 	 -7.19809 	 90.8437 	 
C 	 -0.341256 	 -6.10797 	 91.7242 	 
C 	 0.819824 	 -5.5805 	 91.1655 	 
H 	 -1.79827 	 -7.71351 	 91.1059 	 
C 	 -1.21035 	 -5.7498 	 92.9142 	 
H 	 -0.604426 	 -5.34116 	 93.7584 	 
H 	 -1.68528 	 -6.67496 	 93.163 	 
C 	 -2.3365 	 -4.73948 	 92.4129 	 
H 	 -2.89033 	 -5.24499 	 91.701 	 
H 	 -1.81384 	 -3.82889 	 91.9599 	 
C 	 -3.40198 	 -4.14378 	 93.2927 	 
H 	 -4.06884 	 -3.45514 	 92.7774 	 
H 	 -2.85101 	 -3.59978 	 94.0825 	 
H 	 -4.03419 	 -4.82628 	 93.8853 	 
H 	 4.27355 	 -2.14112 	 91.9767 	 
H 	 -0.345428 	 -8.21924 	 88.9567 	 
*
