! wB97X-D3 SP def2-SVP
%pal
nprocs 16
end

* xyz 0 1
S 	 0.488364 	 -1.90757 	 76.8723 	 
C 	 -0.898999 	 -1.55865 	 77.8839 	 
C 	 -0.988554 	 -2.44419 	 78.9916 	 
C 	 0.0229464 	 -3.4399 	 78.8799 	 
C 	 0.985049 	 -3.20042 	 77.9632 	 
H 	 0.192891 	 -4.23837 	 79.6027 	 
C 	 -1.87196 	 -2.37759 	 80.1301 	 
H 	 -1.90405 	 -1.31836 	 80.418 	 
H 	 -1.43116 	 -2.95584 	 80.9478 	 
C 	 -3.30118 	 -2.9238 	 79.877 	 
H 	 -3.94416 	 -2.50559 	 80.5929 	 
H 	 -3.68884 	 -2.4464 	 78.956 	 
C 	 -3.4336 	 -4.52818 	 79.9653 	 
H 	 -2.71539 	 -5.05994 	 79.3696 	 
H 	 -3.2116 	 -4.87921 	 81.013 	 
H 	 -4.47651 	 -4.99228 	 79.784 	 
S 	 2.48567 	 -5.41775 	 77.6437 	 
C 	 4.21057 	 -5.28584 	 77.2736 	 
C 	 4.72514 	 -3.97272 	 77.46 	 
C 	 3.59349 	 -3.07016 	 77.842 	 
C 	 2.34018 	 -3.7275 	 77.8526 	 
H 	 5.73697 	 -3.65144 	 77.3349 	 
C 	 3.79123 	 -1.55391 	 77.787 	 
H 	 3.13745 	 -1.17748 	 77.0277 	 
H 	 4.83136 	 -1.52682 	 77.328 	 
C 	 3.91358 	 -0.906456 	 79.1407 	 
H 	 4.83602 	 -1.14264 	 79.6073 	 
H 	 3.14565 	 -1.17039 	 79.8564 	 
C 	 3.79883 	 0.565865 	 79.0618 	 
H 	 2.8296 	 0.752908 	 78.4928 	 
H 	 4.71243 	 1.04729 	 78.6592 	 
H 	 3.68188 	 1.00584 	 80.0144 	 
H 	 -1.39185 	 -0.60275 	 77.7542 	 
H 	 4.84071 	 -6.06343 	 76.8353 	 
*
