! wB97X-D3 SP def2-SVP
%pal
nprocs 16
end

* xyz 0 1
S 	 -89.1412 	 47.9999 	 130.427 	 
C 	 -90.0489 	 49.0749 	 129.391 	 
C 	 -89.2881 	 49.4905 	 128.282 	 
C 	 -87.9209 	 48.9925 	 128.286 	 
C 	 -87.6607 	 48.1454 	 129.371 	 
H 	 -87.143 	 49.2008 	 127.498 	 
C 	 -89.7096 	 50.4664 	 127.232 	 
H 	 -90.7351 	 50.7142 	 127.474 	 
H 	 -89.6199 	 50.0125 	 126.28 	 
C 	 -88.9292 	 51.7667 	 127.144 	 
H 	 -89.0673 	 52.3416 	 128.085 	 
H 	 -87.7969 	 51.7297 	 126.861 	 
C 	 -89.5849 	 52.6286 	 126.158 	 
H 	 -90.638 	 52.7443 	 126.327 	 
H 	 -89.2277 	 53.646 	 126.163 	 
H 	 -89.5745 	 52.2111 	 125.172 	 
S 	 -86.4287 	 45.7564 	 129.37 	 
C 	 -84.6488 	 45.6173 	 129.513 	 
C 	 -84.1887 	 46.7921 	 130.048 	 
C 	 -85.186 	 47.8668 	 130.107 	 
C 	 -86.4508 	 47.4307 	 129.697 	 
H 	 -83.1473 	 46.8066 	 130.344 	 
C 	 -84.846 	 49.2339 	 130.598 	 
H 	 -85.739 	 49.8914 	 130.592 	 
H 	 -83.9707 	 49.6896 	 130.056 	 
C 	 -84.4328 	 49.1572 	 132.086 	 
H 	 -84.0907 	 50.1104 	 132.326 	 
H 	 -83.6167 	 48.4762 	 132.194 	 
C 	 -85.5834 	 48.7497 	 133.07 	 
H 	 -86.4825 	 49.3664 	 132.895 	 
H 	 -85.365 	 48.8122 	 134.146 	 
H 	 -85.8868 	 47.6838 	 132.974 	 
H 	 -91.0349 	 49.4396 	 129.598 	 
H 	 -84.0817 	 44.7733 	 129.212 	 
*
