! wB97X-D3 SP def2-SVP
%pal
nprocs 16
end

* xyz 0 1
S 	 -47.0408 	 55.4721 	 99.8157 	 
C 	 -47.844 	 53.9277 	 99.4505 	 
C 	 -47.333 	 53.275 	 98.3108 	 
C 	 -46.3732 	 54.1617 	 97.684 	 
C 	 -46.0442 	 55.3297 	 98.3364 	 
H 	 -45.8049 	 53.8433 	 96.7985 	 
C 	 -47.6753 	 51.891 	 97.8871 	 
H 	 -47.8156 	 51.9782 	 96.8125 	 
H 	 -48.6497 	 51.7135 	 98.2797 	 
C 	 -46.8452 	 50.6739 	 98.29 	 
H 	 -46.9248 	 49.7904 	 97.6387 	 
H 	 -45.8394 	 50.8763 	 98.2441 	 
C 	 -47.0267 	 50.0966 	 99.6879 	 
H 	 -47.8929 	 49.4137 	 99.7088 	 
H 	 -46.0913 	 49.566 	 99.9835 	 
H 	 -47.2542 	 50.8171 	 100.479 	 
S 	 -45.1477 	 57.7346 	 97.43 	 
C 	 -43.3998 	 58.1172 	 97.5757 	 
C 	 -42.7119 	 57.0443 	 98.1204 	 
C 	 -43.5534 	 55.9126 	 98.36 	 
C 	 -44.8974 	 56.1882 	 98.0759 	 
H 	 -41.7057 	 57.0204 	 98.3708 	 
C 	 -43.0328 	 54.6217 	 98.9176 	 
H 	 -42.2696 	 54.1797 	 98.2286 	 
H 	 -43.8363 	 53.9852 	 98.7394 	 
C 	 -42.7976 	 54.515 	 100.401 	 
H 	 -42.1091 	 55.273 	 100.751 	 
H 	 -42.3701 	 53.5544 	 100.579 	 
C 	 -44.0168 	 54.8277 	 101.291 	 
H 	 -43.7977 	 54.9209 	 102.347 	 
H 	 -44.8313 	 54.0497 	 101.099 	 
H 	 -44.4033 	 55.863 	 101.066 	 
H 	 -48.6901 	 53.4918 	 100.076 	 
H 	 -43.0033 	 59.0591 	 97.2738 	 
*
