! wB97X-D3 SP def2-SVP
%pal
nprocs 16
end

* xyz 0 1
S 	 40.2189 	 16.4771 	 47.3572 	 
C 	 39.7824 	 16.2967 	 45.7043 	 
C 	 39.9828 	 17.445 	 44.9768 	 
C 	 40.4161 	 18.5131 	 45.8233 	 
C 	 40.4797 	 18.1762 	 47.1641 	 
H 	 40.4915 	 19.4998 	 45.6369 	 
C 	 39.6034 	 17.7189 	 43.5038 	 
H 	 38.7048 	 17.1245 	 43.3388 	 
H 	 40.4544 	 17.1876 	 42.9881 	 
C 	 39.423 	 19.1709 	 43.0639 	 
H 	 40.3362 	 19.7913 	 43.3144 	 
H 	 39.3735 	 19.0987 	 41.9701 	 
C 	 38.2354 	 20.0068 	 43.4804 	 
H 	 37.8574 	 20.6989 	 42.7929 	 
H 	 37.4717 	 19.3918 	 43.8563 	 
H 	 38.5387 	 20.578 	 44.3705 	 
S 	 42.2999 	 19.6227 	 48.5044 	 
C 	 41.8273 	 20.686 	 49.8451 	 
C 	 40.4759 	 20.5001 	 50.0992 	 
C 	 39.8119 	 19.5072 	 49.2847 	 
C 	 40.6594 	 19.129 	 48.271 	 
H 	 40.043 	 21.1615 	 50.8203 	 
C 	 38.3198 	 19.1095 	 49.3608 	 
H 	 38.2879 	 18.4932 	 50.2445 	 
H 	 38.0462 	 18.3639 	 48.5953 	 
C 	 37.2665 	 20.22 	 49.3419 	 
H 	 37.4332 	 20.7681 	 50.2692 	 
H 	 36.1767 	 20.0503 	 49.4407 	 
C 	 37.4305 	 21.0697 	 48.1561 	 
H 	 38.4772 	 21.3799 	 47.985 	 
H 	 36.7199 	 21.9374 	 48.2026 	 
H 	 37.1821 	 20.4915 	 47.2649 	 
H 	 39.4745 	 15.2837 	 45.2747 	 
H 	 42.4158 	 21.2824 	 50.5264 	 
*
