! wB97X-D3 SP def2-SVP
%pal
nprocs 16
end

* xyz 0 1
S 	 -36.8448 	 52.9483 	 109.517 	 
C 	 -38.5898 	 53.0091 	 109.741 	 
C 	 -39.3184 	 52.6685 	 108.643 	 
C 	 -38.51 	 52.1352 	 107.613 	 
C 	 -37.1965 	 52.0415 	 108.005 	 
H 	 -38.7592 	 51.8227 	 106.596 	 
C 	 -40.7977 	 52.8789 	 108.572 	 
H 	 -41.2716 	 52.6249 	 107.631 	 
H 	 -41.0139 	 53.8963 	 108.833 	 
C 	 -41.431 	 51.8994 	 109.6 	 
H 	 -41.0444 	 50.8789 	 109.471 	 
H 	 -41.1154 	 52.2213 	 110.659 	 
C 	 -42.9265 	 51.8539 	 109.402 	 
H 	 -43.3747 	 51.3968 	 110.342 	 
H 	 -43.359 	 52.7721 	 109.194 	 
H 	 -43.1024 	 51.2914 	 108.445 	 
S 	 -35.5153 	 49.98 	 107.356 	 
C 	 -34.8489 	 49.9489 	 105.675 	 
C 	 -35.0767 	 51.1475 	 104.999 	 
C 	 -35.8129 	 52.1009 	 105.776 	 
C 	 -36.1492 	 51.6181 	 107.073 	 
H 	 -34.875 	 51.1566 	 103.957 	 
C 	 -36.3253 	 53.4055 	 105.265 	 
H 	 -35.4725 	 53.9073 	 104.784 	 
H 	 -36.4599 	 54.0944 	 106.131 	 
C 	 -37.5727 	 53.343 	 104.288 	 
H 	 -38.5613 	 53.12 	 104.758 	 
H 	 -37.409 	 52.3889 	 103.729 	 
C 	 -37.7201 	 54.5445 	 103.331 	 
H 	 -37.9892 	 55.4977 	 103.797 	 
H 	 -38.5009 	 54.3771 	 102.601 	 
H 	 -36.8036 	 54.6164 	 102.745 	 
H 	 -39.0906 	 53.4132 	 110.664 	 
H 	 -34.2587 	 49.1708 	 105.325 	 
*
