! wB97X-D3 SP def2-SVP
%pal
nprocs 16
end

* xyz 0 1
S 	 -30.8297 	 59.8539 	 107.918 	 
C 	 -30.0301 	 60.4597 	 109.434 	 
C 	 -29.6701 	 61.814 	 109.319 	 
C 	 -30.2068 	 62.358 	 108.134 	 
C 	 -30.8941 	 61.4636 	 107.338 	 
H 	 -30.2133 	 63.3927 	 107.861 	 
C 	 -28.9372 	 62.5147 	 110.486 	 
H 	 -28.1692 	 61.8747 	 110.917 	 
H 	 -29.7429 	 62.7966 	 111.108 	 
C 	 -28.2581 	 63.7783 	 110.186 	 
H 	 -28.9705 	 64.5921 	 110.005 	 
H 	 -27.7939 	 64.055 	 111.157 	 
C 	 -27.1154 	 63.6723 	 109.223 	 
H 	 -27.3264 	 63.2811 	 108.282 	 
H 	 -26.5417 	 64.5376 	 108.972 	 
H 	 -26.3938 	 62.9168 	 109.635 	 
S 	 -33.3791 	 61.8621 	 106.254 	 
C 	 -33.4145 	 62.3251 	 104.52 	 
C 	 -32.1987 	 62.3142 	 103.984 	 
C 	 -31.1276 	 62.0982 	 104.884 	 
C 	 -31.602 	 61.7821 	 106.157 	 
H 	 -32.2087 	 62.6192 	 102.943 	 
C 	 -29.6727 	 62.0797 	 104.504 	 
H 	 -29.5192 	 62.0284 	 103.44 	 
H 	 -29.2764 	 61.1686 	 104.951 	 
C 	 -28.7916 	 63.3165 	 104.942 	 
H 	 -28.696 	 63.452 	 106.032 	 
H 	 -29.2104 	 64.2167 	 104.587 	 
C 	 -27.2751 	 63.2642 	 104.543 	 
H 	 -27.046 	 63.3028 	 103.473 	 
H 	 -26.9323 	 62.2794 	 105.017 	 
H 	 -26.7812 	 64.0669 	 105.107 	 
H 	 -29.7669 	 59.7688 	 110.202 	 
H 	 -34.2901 	 62.6221 	 103.967 	 
*
