! wB97X-D3 SP def2-SVP
%pal
nprocs 16
end

* xyz 0 1
S 	 -67.9072 	 60.9646 	 125.585 	 
C 	 -67.4167 	 60.9749 	 127.244 	 
C 	 -66.9834 	 59.6983 	 127.642 	 
C 	 -66.8827 	 58.7494 	 126.573 	 
C 	 -67.4767 	 59.2678 	 125.432 	 
H 	 -66.5326 	 57.7214 	 126.609 	 
C 	 -66.6788 	 59.2986 	 129.041 	 
H 	 -66.8205 	 58.2129 	 129.22 	 
H 	 -67.4223 	 59.7004 	 129.753 	 
C 	 -65.3138 	 59.8542 	 129.546 	 
H 	 -65.039 	 59.1938 	 130.448 	 
H 	 -64.5995 	 59.6057 	 128.77 	 
C 	 -65.3819 	 61.3954 	 129.824 	 
H 	 -64.6342 	 61.76 	 130.512 	 
H 	 -65.4225 	 61.9772 	 128.949 	 
H 	 -66.2782 	 61.6854 	 130.349 	 
S 	 -67.7414 	 59.2557 	 122.681 	 
C 	 -68.3403 	 57.8168 	 121.896 	 
C 	 -68.3968 	 56.7497 	 122.793 	 
C 	 -68.073 	 57.0617 	 124.131 	 
C 	 -67.8209 	 58.4631 	 124.271 	 
H 	 -68.7855 	 55.8149 	 122.517 	 
C 	 -68.1603 	 56.0097 	 125.257 	 
H 	 -68.6306 	 56.5766 	 126.092 	 
H 	 -67.2971 	 55.5238 	 125.7 	 
C 	 -69.2492 	 54.9201 	 125.118 	 
H 	 -68.9217 	 54.2618 	 124.237 	 
H 	 -70.269 	 55.4032 	 124.957 	 
C 	 -69.265 	 53.7917 	 126.18 	 
H 	 -69.844 	 52.9154 	 125.751 	 
H 	 -69.7625 	 54.1239 	 127.148 	 
H 	 -68.2594 	 53.5445 	 126.404 	 
H 	 -67.5301 	 61.7538 	 127.969 	 
H 	 -68.6443 	 57.6812 	 120.912 	 
*
