! wB97X-D3 SP def2-SVP
%pal
nprocs 16
end

* xyz 0 1
S 	 -14.1372 	 38.4156 	 37.5333 	 
C 	 -14.3089 	 38.2936 	 39.2804 	 
C 	 -13.9785 	 37.0441 	 39.7538 	 
C 	 -14.0124 	 36.125 	 38.6368 	 
C 	 -14.3432 	 36.6575 	 37.3732 	 
H 	 -13.8406 	 35.0571 	 38.6517 	 
C 	 -13.789 	 36.6996 	 41.2084 	 
H 	 -14.3244 	 35.7176 	 41.4462 	 
H 	 -14.3854 	 37.4035 	 41.8022 	 
C 	 -12.3505 	 36.7273 	 41.6954 	 
H 	 -11.8768 	 37.7164 	 41.3557 	 
H 	 -12.4064 	 36.6497 	 42.8004 	 
C 	 -11.6184 	 35.5876 	 40.9964 	 
H 	 -11.9374 	 34.627 	 41.4524 	 
H 	 -11.6763 	 35.3639 	 39.9367 	 
H 	 -10.5879 	 35.7118 	 41.3066 	 
S 	 -12.9364 	 35.6165 	 35.3243 	 
C 	 -13.6544 	 34.5593 	 34.2033 	 
C 	 -15.0238 	 34.3836 	 34.4588 	 
C 	 -15.4853 	 35.1385 	 35.5772 	 
C 	 -14.4777 	 35.8261 	 36.1728 	 
H 	 -15.7084 	 33.7269 	 33.9559 	 
C 	 -16.8992 	 34.887 	 36.048 	 
H 	 -17.4258 	 34.8205 	 35.0976 	 
H 	 -17.2747 	 35.7239 	 36.6952 	 
C 	 -17.1593 	 33.4828 	 36.5632 	 
H 	 -16.67 	 33.2853 	 37.4723 	 
H 	 -16.7776 	 32.7138 	 35.8167 	 
C 	 -18.697 	 33.3094 	 36.6996 	 
H 	 -19.1373 	 32.3868 	 36.4984 	 
H 	 -19.3446 	 34.0075 	 36.2717 	 
H 	 -18.8401 	 33.3628 	 37.7563 	 
H 	 -14.4012 	 39.1787 	 39.8454 	 
H 	 -13.2279 	 34.1055 	 33.3606 	 
*
