! wB97X-D3 SP def2-SVP
%pal
nprocs 16
end

* xyz 0 1
S 	 -0.00765691 	 -11.4103 	 83.4778 	 
C 	 -0.469395 	 -13.0269 	 83.9963 	 
C 	 -1.84699 	 -13.2433 	 83.9546 	 
C 	 -2.57966 	 -12.1831 	 83.3616 	 
C 	 -1.69783 	 -11.1175 	 82.9705 	 
H 	 -3.64862 	 -12.153 	 83.1514 	 
C 	 -2.58144 	 -14.5112 	 84.3801 	 
H 	 -1.80767 	 -15.1411 	 84.7284 	 
H 	 -2.94527 	 -15.0128 	 83.4238 	 
C 	 -3.74315 	 -14.2803 	 85.353 	 
H 	 -3.30259 	 -13.7331 	 86.1532 	 
H 	 -4.52295 	 -13.7742 	 85.0173 	 
C 	 -4.22201 	 -15.5542 	 86.0339 	 
H 	 -4.43876 	 -16.2516 	 85.2674 	 
H 	 -3.48686 	 -15.9891 	 86.7361 	 
H 	 -5.18815 	 -15.3714 	 86.4458 	 
S 	 -1.61953 	 -9.37784 	 80.7144 	 
C 	 -2.64743 	 -7.9966 	 80.763 	 
C 	 -3.24769 	 -7.88097 	 82.0074 	 
C 	 -2.90551 	 -8.8597 	 82.9882 	 
C 	 -2.14395 	 -9.91011 	 82.3647 	 
H 	 -3.9312 	 -6.98376 	 82.2149 	 
C 	 -3.46088 	 -8.86251 	 84.4187 	 
H 	 -3.30641 	 -7.90845 	 84.9281 	 
H 	 -2.99393 	 -9.6606 	 84.9429 	 
C 	 -4.97945 	 -8.94928 	 84.4821 	 
H 	 -5.2421 	 -9.51293 	 83.5478 	 
H 	 -5.45714 	 -7.88551 	 84.3789 	 
C 	 -5.44243 	 -9.65781 	 85.7723 	 
H 	 -5.23426 	 -10.7235 	 85.7078 	 
H 	 -6.56736 	 -9.5268 	 85.8038 	 
H 	 -4.89022 	 -9.22404 	 86.6058 	 
H 	 0.254472 	 -13.6943 	 84.369 	 
H 	 -2.70844 	 -7.28007 	 80.0027 	 
*
