! wB97X-D3 SP def2-SVP
%pal
nprocs 16
end

* xyz 0 1
S 	 12.7097 	 21.8038 	 52.059 	 
C 	 13.5355 	 21.8669 	 53.6379 	 
C 	 14.3074 	 22.9775 	 53.76 	 
C 	 14.0894 	 23.8691 	 52.6588 	 
C 	 13.3917 	 23.3374 	 51.5758 	 
H 	 14.5175 	 24.8396 	 52.5867 	 
C 	 15.1666 	 23.3639 	 54.9665 	 
H 	 15.5122 	 24.387 	 55.0095 	 
H 	 16.0576 	 22.7228 	 54.8731 	 
C 	 14.5882 	 23.1214 	 56.3267 	 
H 	 13.6361 	 23.7237 	 56.5286 	 
H 	 14.3062 	 22.0245 	 56.4402 	 
C 	 15.4979 	 23.6033 	 57.477 	 
H 	 15.6819 	 24.6671 	 57.4518 	 
H 	 15.08 	 23.2957 	 58.4356 	 
H 	 16.4327 	 23.1622 	 57.398 	 
S 	 11.7947 	 23.1019 	 49.3527 	 
C 	 11.9536 	 24.2367 	 48.034 	 
C 	 12.8158 	 25.2686 	 48.3267 	 
C 	 13.4674 	 25.0794 	 49.6134 	 
C 	 13.0082 	 23.9355 	 50.3049 	 
H 	 12.9873 	 26.0792 	 47.6159 	 
C 	 14.2725 	 26.1976 	 50.1726 	 
H 	 13.9834 	 26.2854 	 51.1786 	 
H 	 14.0768 	 27.1801 	 49.6692 	 
C 	 15.824 	 25.961 	 50.118 	 
H 	 16.1602 	 25.8769 	 49.0897 	 
H 	 15.895 	 24.9786 	 50.6251 	 
C 	 16.5367 	 27.0752 	 50.7018 	 
H 	 16.5483 	 27.9283 	 50.0123 	 
H 	 17.5615 	 26.8549 	 50.8224 	 
H 	 16.201 	 27.3768 	 51.7314 	 
H 	 13.6672 	 21.0718 	 54.2861 	 
H 	 11.3914 	 24.1408 	 47.088 	 
*
