! wB97X-D3 SP def2-SVP
%pal
nprocs 16
end

* xyz 0 1
S 	 -2.55474 	 75.2021 	 50.3028 	 
C 	 -1.35076 	 76.3933 	 49.8369 	 
C 	 -1.06159 	 77.2333 	 50.908 	 
C 	 -1.79164 	 76.8998 	 52.0873 	 
C 	 -2.61577 	 75.831 	 51.9116 	 
H 	 -1.8879 	 77.3954 	 53.0525 	 
C 	 -0.131935 	 78.4418 	 50.9126 	 
H 	 -0.687131 	 79.3555 	 51.3331 	 
H 	 0.026281 	 78.863 	 49.9 	 
C 	 1.27077 	 78.3159 	 51.4365 	 
H 	 1.7116 	 79.3283 	 51.3688 	 
H 	 1.32647 	 78.008 	 52.5044 	 
C 	 2.18803 	 77.2595 	 50.8564 	 
H 	 3.19139 	 77.2121 	 51.3576 	 
H 	 1.65171 	 76.3065 	 50.8613 	 
H 	 2.42136 	 77.3834 	 49.8185 	 
S 	 -5.37191 	 75.4007 	 52.1637 	 
C 	 -6.00415 	 74.9126 	 53.6628 	 
C 	 -5.03954 	 74.8701 	 54.655 	 
C 	 -3.70987 	 75.1503 	 54.1882 	 
C 	 -3.71845 	 75.4721 	 52.8283 	 
H 	 -5.29276 	 74.6354 	 55.578 	 
C 	 -2.59225 	 75.2318 	 55.1948 	 
H 	 -3.13465 	 75.08 	 56.209 	 
H 	 -2.28777 	 76.2842 	 55.2419 	 
C 	 -1.38189 	 74.3468 	 55.1811 	 
H 	 -0.714886 	 74.4587 	 56.069 	 
H 	 -0.892048 	 74.4978 	 54.2623 	 
C 	 -1.77608 	 72.8594 	 55.3448 	 
H 	 -0.842591 	 72.2068 	 55.1145 	 
H 	 -2.58491 	 72.5694 	 54.6275 	 
H 	 -2.00691 	 72.6718 	 56.4366 	 
H 	 -0.844893 	 76.5065 	 48.8505 	 
H 	 -7.02026 	 74.5552 	 53.7594 	 
*
