! wB97X-D3 SP def2-SVP
%pal
nprocs 16
end

* xyz 0 1
S 	 -44.0089 	 25.0829 	 92.062 	 
C 	 -44.072 	 23.3951 	 92.3987 	 
C 	 -43.0704 	 22.7245 	 91.6647 	 
C 	 -42.4359 	 23.5724 	 90.6897 	 
C 	 -42.8188 	 24.8748 	 90.8346 	 
H 	 -41.723 	 23.2564 	 89.9575 	 
C 	 -42.7517 	 21.2643 	 91.6371 	 
H 	 -42.747 	 20.891 	 92.6745 	 
H 	 -41.737 	 21.1108 	 91.2427 	 
C 	 -43.7681 	 20.257 	 91.103 	 
H 	 -43.9145 	 19.3272 	 91.6363 	 
H 	 -44.7703 	 20.7292 	 91.2247 	 
C 	 -43.575 	 19.7984 	 89.6657 	 
H 	 -43.3418 	 20.6328 	 89.031 	 
H 	 -42.721 	 19.144 	 89.6634 	 
H 	 -44.5566 	 19.3435 	 89.3279 	 
S 	 -43.553 	 26.3485 	 88.4839 	 
C 	 -42.3016 	 27.3634 	 87.7519 	 
C 	 -41.162 	 27.462 	 88.5667 	 
C 	 -41.2663 	 26.6166 	 89.7507 	 
C 	 -42.4885 	 25.9014 	 89.822 	 
H 	 -40.2807 	 28.0552 	 88.3024 	 
C 	 -40.3354 	 26.7387 	 90.9717 	 
H 	 -40.6599 	 26.1005 	 91.8531 	 
H 	 -40.5494 	 27.6664 	 91.367 	 
C 	 -38.8157 	 26.5106 	 90.6743 	 
H 	 -38.2754 	 26.6248 	 91.6859 	 
H 	 -38.5173 	 27.3539 	 90.0771 	 
C 	 -38.5679 	 25.1382 	 90.0314 	 
H 	 -38.8736 	 24.2967 	 90.5692 	 
H 	 -37.5535 	 24.8653 	 89.7409 	 
H 	 -39.0406 	 25.2255 	 89.0631 	 
H 	 -44.622 	 22.9235 	 93.1323 	 
H 	 -42.2738 	 27.8425 	 86.8333 	 
*
