! wB97X-D3 SP def2-SVP
%pal
nprocs 16
end

* xyz 0 1
S 	 -16.2219 	 -8.24144 	 86.0508 	 
C 	 -14.6447 	 -8.3206 	 85.3 	 
C 	 -13.7196 	 -8.65602 	 86.2547 	 
C 	 -14.2282 	 -8.71138 	 87.5973 	 
C 	 -15.5901 	 -8.59188 	 87.6306 	 
H 	 -13.7229 	 -9.05763 	 88.4686 	 
C 	 -12.3007 	 -9.10712 	 85.8629 	 
H 	 -11.558 	 -8.63929 	 86.5091 	 
H 	 -12.0737 	 -8.75551 	 84.8819 	 
C 	 -12.0215 	 -10.5959 	 85.7516 	 
H 	 -12.5276 	 -11.0896 	 86.6157 	 
H 	 -12.5934 	 -10.9881 	 84.9673 	 
C 	 -10.5059 	 -10.8394 	 85.7619 	 
H 	 -10.0272 	 -10.6086 	 86.7189 	 
H 	 -10.2292 	 -11.9019 	 85.5013 	 
H 	 -10.0103 	 -10.1639 	 85.0518 	 
S 	 -17.7486 	 -9.86227 	 88.6629 	 
C 	 -18.3485 	 -9.55764 	 90.2572 	 
C 	 -17.4723 	 -8.68089 	 90.9921 	 
C 	 -16.3607 	 -8.3148 	 90.1379 	 
C 	 -16.5182 	 -8.73733 	 88.769 	 
H 	 -17.679 	 -8.27485 	 91.9543 	 
C 	 -15.3263 	 -7.23049 	 90.5057 	 
H 	 -15.8397 	 -6.20498 	 90.495 	 
H 	 -14.5429 	 -7.18982 	 89.7954 	 
C 	 -14.5992 	 -7.42762 	 91.8123 	 
H 	 -13.8948 	 -8.37766 	 91.838 	 
H 	 -15.2933 	 -7.55139 	 92.6354 	 
C 	 -13.647 	 -6.25683 	 91.9666 	 
H 	 -14.1391 	 -5.36436 	 92.1795 	 
H 	 -12.9578 	 -5.95408 	 91.1909 	 
H 	 -12.979 	 -6.37776 	 92.8052 	 
H 	 -14.4758 	 -8.33814 	 84.2036 	 
H 	 -19.2784 	 -10.0351 	 90.6214 	 
*
