! wB97X-D3 SP def2-SVP
%pal
nprocs 16
end

* xyz 0 1
S 	 27.9417 	 33.1135 	 57.8468 	 
C 	 27.3135 	 31.6117 	 57.174 	 
C 	 27.858 	 31.3389 	 55.9271 	 
C 	 28.8314 	 32.3314 	 55.6175 	 
C 	 28.935 	 33.4222 	 56.4621 	 
H 	 29.4437 	 32.3324 	 54.7702 	 
C 	 27.5257 	 30.1766 	 54.9929 	 
H 	 28.3536 	 29.5416 	 55.0363 	 
H 	 27.4681 	 30.5293 	 53.9973 	 
C 	 26.2944 	 29.3778 	 55.3418 	 
H 	 26.251 	 29.3067 	 56.4658 	 
H 	 25.4142 	 29.9213 	 55.0551 	 
C 	 26.3248 	 27.9787 	 54.792 	 
H 	 25.321 	 27.588 	 54.6648 	 
H 	 26.7888 	 27.8694 	 53.7969 	 
H 	 26.9123 	 27.2229 	 55.3738 	 
S 	 29.5943 	 35.8552 	 55.328 	 
C 	 31.0787 	 36.5658 	 55.69 	 
C 	 31.7208 	 35.9236 	 56.6996 	 
C 	 30.9781 	 34.781 	 57.1572 	 
C 	 29.8592 	 34.5799 	 56.4428 	 
H 	 32.6496 	 36.2542 	 57.0266 	 
C 	 31.6492 	 33.8902 	 58.1871 	 
H 	 31.1644 	 32.9217 	 58.0811 	 
H 	 31.2055 	 34.0417 	 59.1612 	 
C 	 33.1608 	 33.7739 	 58.1743 	 
H 	 33.5858 	 33.3207 	 59.0987 	 
H 	 33.6223 	 34.8219 	 58.0903 	 
C 	 33.7565 	 33.0239 	 56.8801 	 
H 	 34.8926 	 32.8215 	 56.9191 	 
H 	 33.5545 	 33.5744 	 55.959 	 
H 	 33.2747 	 32.0249 	 56.8229 	 
H 	 26.5047 	 31.1487 	 57.6464 	 
H 	 31.4582 	 37.5406 	 55.2756 	 
*
