! wB97X-D3 SP def2-SVP
%pal
nprocs 16
end

* xyz 0 1
S 	 -44.2527 	 17.3715 	 79.3424 	 
C 	 -43.8578 	 19.0436 	 79.2414 	 
C 	 -43.6298 	 19.5179 	 77.9797 	 
C 	 -43.7974 	 18.5681 	 76.9389 	 
C 	 -43.9565 	 17.3191 	 77.5623 	 
H 	 -43.6328 	 18.7939 	 75.8836 	 
C 	 -43.1396 	 20.8903 	 77.7168 	 
H 	 -43.6483 	 21.5776 	 78.4612 	 
H 	 -43.5193 	 21.213 	 76.722 	 
C 	 -41.5638 	 20.9853 	 77.8842 	 
H 	 -41.4031 	 20.4687 	 78.7931 	 
H 	 -41.1829 	 20.3543 	 77.0689 	 
C 	 -41.1046 	 22.4661 	 77.7906 	 
H 	 -41.7382 	 23.1505 	 78.2837 	 
H 	 -40.1033 	 22.481 	 78.2468 	 
H 	 -41.1629 	 22.5741 	 76.7063 	 
S 	 -45.7807 	 15.3267 	 77.0493 	 
C 	 -45.1358 	 13.8389 	 76.4299 	 
C 	 -43.8272 	 13.9371 	 76.052 	 
C 	 -43.2887 	 15.2386 	 76.1391 	 
C 	 -44.1783 	 16.014 	 76.8998 	 
H 	 -43.3179 	 13.0834 	 75.561 	 
C 	 -41.9333 	 15.7932 	 75.6213 	 
H 	 -42.2015 	 16.7588 	 75.2623 	 
H 	 -41.5358 	 15.2225 	 74.8329 	 
C 	 -40.8857 	 15.8222 	 76.7452 	 
H 	 -40.702 	 14.7983 	 77.1114 	 
H 	 -41.2091 	 16.5113 	 77.5818 	 
C 	 -39.5735 	 16.3997 	 76.2301 	 
H 	 -39.6837 	 17.4469 	 75.9518 	 
H 	 -39.0508 	 15.8108 	 75.4785 	 
H 	 -38.8364 	 16.4791 	 76.9769 	 
H 	 -43.5682 	 19.641 	 80.1014 	 
H 	 -45.6693 	 12.8358 	 76.4115 	 
*
