! wB97X-D3 SP def2-SVP
%pal
nprocs 16
end

* xyz 0 1
S 	 3.6045 	 -5.19925 	 80.1104 	 
C 	 3.72349 	 -5.95764 	 81.6754 	 
C 	 2.57885 	 -5.62506 	 82.4372 	 
C 	 1.66044 	 -4.73562 	 81.7476 	 
C 	 2.0543 	 -4.45893 	 80.3913 	 
H 	 0.740633 	 -4.34874 	 82.203 	 
C 	 2.22919 	 -6.15251 	 83.7501 	 
H 	 2.76438 	 -7.07077 	 83.7614 	 
H 	 1.22761 	 -6.48686 	 83.5837 	 
C 	 2.61189 	 -5.36971 	 85.0429 	 
H 	 2.18818 	 -5.95534 	 85.8203 	 
H 	 3.7075 	 -5.28037 	 85.086 	 
C 	 2.01752 	 -3.9382 	 85.0857 	 
H 	 2.30626 	 -3.38671 	 84.1952 	 
H 	 0.917816 	 -3.90335 	 84.967 	 
H 	 2.22954 	 -3.36077 	 85.9457 	 
S 	 2.42126 	 -2.0619 	 79.1156 	 
C 	 0.992965 	 -1.23194 	 78.514 	 
C 	 -0.176829 	 -1.98932 	 78.6666 	 
C 	 0.100601 	 -3.30494 	 79.1674 	 
C 	 1.44005 	 -3.47584 	 79.4888 	 
H 	 -1.18093 	 -1.54016 	 78.5416 	 
C 	 -0.987473 	 -4.21037 	 79.527 	 
H 	 -1.80909 	 -3.55222 	 79.7954 	 
H 	 -0.724373 	 -4.74303 	 80.3594 	 
C 	 -1.41619 	 -5.10874 	 78.3283 	 
H 	 -1.50583 	 -4.48197 	 77.4289 	 
H 	 -2.38888 	 -5.53833 	 78.5528 	 
C 	 -0.462436 	 -6.28384 	 78.1314 	 
H 	 -0.221758 	 -6.57804 	 79.1527 	 
H 	 0.431773 	 -6.05874 	 77.5875 	 
H 	 -0.975001 	 -7.18492 	 77.6857 	 
H 	 4.51785 	 -6.6181 	 81.9732 	 
H 	 1.04433 	 -0.192117 	 78.2304 	 
*
