! wB97X-D3 SP def2-SVP
%pal
nprocs 16
end

* xyz 0 1
S 	 -13.5135 	 32.5302 	 36.5623 	 
C 	 -12.4621 	 32.394 	 35.2454 	 
C 	 -13.1041 	 31.8657 	 34.127 	 
C 	 -14.4578 	 31.5927 	 34.394 	 
C 	 -14.8904 	 32.0413 	 35.5899 	 
H 	 -15.1303 	 31.1364 	 33.6911 	 
C 	 -12.419 	 31.6052 	 32.8097 	 
H 	 -12.326 	 30.503 	 32.7097 	 
H 	 -11.3492 	 32.0194 	 32.7898 	 
C 	 -13.1304 	 32.1888 	 31.5551 	 
H 	 -14.0222 	 31.6242 	 31.2376 	 
H 	 -13.5319 	 33.1589 	 31.9533 	 
C 	 -12.1561 	 32.5017 	 30.42 	 
H 	 -11.3419 	 31.7682 	 30.2505 	 
H 	 -12.645 	 32.6428 	 29.3994 	 
H 	 -11.7098 	 33.4194 	 30.7453 	 
S 	 -16.7653 	 33.499 	 36.9023 	 
C 	 -18.3915 	 33.0675 	 36.8214 	 
C 	 -18.611 	 31.8203 	 36.3213 	 
C 	 -17.3948 	 31.1908 	 35.8172 	 
C 	 -16.2578 	 32.036 	 36.0761 	 
H 	 -19.6113 	 31.4195 	 36.4698 	 
C 	 -17.2858 	 29.8333 	 35.1314 	 
H 	 -17.7836 	 29.037 	 35.7156 	 
H 	 -16.2124 	 29.5483 	 35.0996 	 
C 	 -17.9393 	 29.6167 	 33.7832 	 
H 	 -17.7437 	 28.5749 	 33.4554 	 
H 	 -17.471 	 30.3768 	 33.2232 	 
C 	 -19.434 	 29.8529 	 33.7204 	 
H 	 -19.8908 	 29.3387 	 34.5482 	 
H 	 -19.8855 	 29.3929 	 32.8548 	 
H 	 -19.6077 	 30.9621 	 33.7218 	 
H 	 -11.4189 	 32.513 	 35.2345 	 
H 	 -19.1258 	 33.641 	 37.311 	 
*
