! wB97X-D3 SP def2-SVP
%pal
nprocs 16
end

* xyz 0 1
S 	 32.8649 	 -1.69863 	 68.8786 	 
C 	 32.1949 	 -0.729237 	 67.5643 	 
C 	 33.1129 	 0.250142 	 67.2945 	 
C 	 34.2673 	 0.27656 	 68.1396 	 
C 	 34.2744 	 -0.770446 	 69.0326 	 
H 	 34.9978 	 1.06132 	 68.1816 	 
C 	 32.8756 	 1.4667 	 66.4276 	 
H 	 31.7607 	 1.51781 	 66.0602 	 
H 	 33.525 	 1.43446 	 65.547 	 
C 	 32.8261 	 2.80666 	 67.2989 	 
H 	 32.2789 	 2.77014 	 68.2782 	 
H 	 33.8011 	 2.88648 	 67.6189 	 
C 	 32.6207 	 4.11251 	 66.437 	 
H 	 32.9302 	 3.92434 	 65.4174 	 
H 	 31.6521 	 4.6446 	 66.4448 	 
H 	 33.3108 	 4.85048 	 66.8223 	 
S 	 34.612 	 -1.62576 	 71.5907 	 
C 	 36.2012 	 -1.77862 	 72.2124 	 
C 	 37.1468 	 -1.47829 	 71.2972 	 
C 	 36.6419 	 -1.23257 	 69.9704 	 
C 	 35.2451 	 -1.21605 	 70.0051 	 
H 	 38.1452 	 -1.52275 	 71.6195 	 
C 	 37.5351 	 -0.714092 	 68.8784 	 
H 	 38.5065 	 -0.69042 	 69.2631 	 
H 	 37.2095 	 0.273746 	 68.6263 	 
C 	 37.5233 	 -1.60899 	 67.6437 	 
H 	 36.5483 	 -1.70909 	 67.1707 	 
H 	 37.9313 	 -2.54104 	 67.9566 	 
C 	 38.304 	 -1.17533 	 66.4363 	 
H 	 38.4951 	 -1.93654 	 65.6891 	 
H 	 39.2694 	 -0.686148 	 66.7588 	 
H 	 37.786 	 -0.349953 	 66.0008 	 
H 	 31.2119 	 -0.820263 	 67.0704 	 
H 	 36.5088 	 -2.09311 	 73.1956 	 
*
