! wB97X-D3 SP def2-SVP
%pal
nprocs 16
end

* xyz 0 1
S 	 -54.3811 	 25.7244 	 92.9649 	 
C 	 -52.8317 	 24.8762 	 92.5801 	 
C 	 -52.017 	 25.6033 	 91.7324 	 
C 	 -52.5254 	 26.9352 	 91.5735 	 
C 	 -53.8084 	 27.1874 	 92.104 	 
H 	 -51.9555 	 27.6671 	 90.9929 	 
C 	 -50.6747 	 25.2298 	 91.1767 	 
H 	 -50.6356 	 25.6384 	 90.1531 	 
H 	 -50.5721 	 24.1574 	 91.0462 	 
C 	 -49.422 	 25.8019 	 91.9455 	 
H 	 -49.483 	 26.8383 	 92.2326 	 
H 	 -49.5196 	 25.2499 	 92.8941 	 
C 	 -48.0778 	 25.5737 	 91.1686 	 
H 	 -47.2025 	 25.6779 	 91.8674 	 
H 	 -48.0628 	 24.5452 	 90.7522 	 
H 	 -47.8051 	 26.3604 	 90.3766 	 
S 	 -56.1615 	 28.3302 	 91.5448 	 
C 	 -56.3472 	 30.0791 	 91.5715 	 
C 	 -55.2208 	 30.7315 	 91.9369 	 
C 	 -54.0931 	 29.8384 	 92.0754 	 
C 	 -54.4872 	 28.494 	 91.9447 	 
H 	 -55.0639 	 31.7653 	 91.896 	 
C 	 -52.6462 	 30.217 	 92.3171 	 
H 	 -52.218 	 29.9777 	 91.3443 	 
H 	 -52.1717 	 29.4803 	 93.0078 	 
C 	 -52.3964 	 31.7323 	 92.694 	 
H 	 -52.9178 	 31.9783 	 93.5599 	 
H 	 -52.7783 	 32.2789 	 91.8157 	 
C 	 -50.8788 	 32.0148 	 92.818 	 
H 	 -50.3276 	 31.4617 	 93.5757 	 
H 	 -50.8202 	 33.0277 	 93.155 	 
H 	 -50.4074 	 31.8647 	 91.8641 	 
H 	 -52.5623 	 23.9698 	 93.0828 	 
H 	 -57.2861 	 30.6099 	 91.282 	 
*
