! wB97X-D3 SP def2-SVP
%pal
nprocs 16
end

* xyz 0 1
S 	 -38.1944 	 48.4803 	 106.547 	 
C 	 -37.392 	 48.8667 	 108.112 	 
C 	 -37.9518 	 50.0717 	 108.587 	 
C 	 -39.0148 	 50.548 	 107.76 	 
C 	 -39.3428 	 49.7891 	 106.634 	 
H 	 -39.5477 	 51.5306 	 107.944 	 
C 	 -37.5882 	 50.5995 	 110.003 	 
H 	 -37.4457 	 51.7132 	 109.995 	 
H 	 -36.5529 	 50.2105 	 110.133 	 
C 	 -38.4731 	 50.1483 	 111.183 	 
H 	 -38.8527 	 49.1202 	 111.095 	 
H 	 -37.8579 	 50.1598 	 112.054 	 
C 	 -39.7895 	 50.811 	 111.302 	 
H 	 -39.6453 	 51.7183 	 111.873 	 
H 	 -40.1276 	 51.0131 	 110.361 	 
H 	 -40.5839 	 50.2257 	 111.744 	 
S 	 -41.7654 	 51.041 	 106.336 	 
C 	 -42.7517 	 50.6663 	 104.931 	 
C 	 -42.2108 	 49.688 	 104.174 	 
C 	 -41.0202 	 49.1937 	 104.699 	 
C 	 -40.5385 	 49.8426 	 105.829 	 
H 	 -42.7405 	 49.4388 	 103.204 	 
C 	 -40.2658 	 48.06 	 104.044 	 
H 	 -39.2156 	 48.3102 	 104.039 	 
H 	 -40.3701 	 48.0573 	 102.947 	 
C 	 -40.4658 	 46.7426 	 104.634 	 
H 	 -41.5587 	 46.4599 	 104.822 	 
H 	 -40.0275 	 46.8115 	 105.578 	 
C 	 -39.8011 	 45.5731 	 103.92 	 
H 	 -39.9643 	 44.648 	 104.45 	 
H 	 -38.7491 	 45.6734 	 103.919 	 
H 	 -40.1969 	 45.3526 	 102.921 	 
H 	 -36.6657 	 48.2656 	 108.613 	 
H 	 -43.6189 	 51.1872 	 104.561 	 
*
