! wB97X-D3 SP def2-SVP
%pal
nprocs 16
end

* xyz 0 1
S 	 27.7253 	 31.2776 	 58.227 	 
C 	 28.7781 	 29.8577 	 57.9963 	 
C 	 30.0536 	 30.2902 	 57.7898 	 
C 	 30.1664 	 31.7002 	 57.6483 	 
C 	 28.9539 	 32.3473 	 57.7639 	 
H 	 31.0411 	 32.3192 	 57.4418 	 
C 	 31.1533 	 29.2545 	 57.4022 	 
H 	 31.2115 	 29.1044 	 56.3247 	 
H 	 30.9053 	 28.3562 	 57.8529 	 
C 	 32.5891 	 29.8142 	 57.6329 	 
H 	 32.7225 	 30.8025 	 57.183 	 
H 	 32.6333 	 30.0627 	 58.6729 	 
C 	 33.7168 	 28.9185 	 57.0985 	 
H 	 33.4962 	 28.699 	 56.0758 	 
H 	 34.7543 	 29.294 	 57.2047 	 
H 	 33.8089 	 27.9747 	 57.6235 	 
S 	 27.5783 	 34.26 	 56.3352 	 
C 	 27.6982 	 35.916 	 56.9018 	 
C 	 28.4882 	 36.0319 	 58.0183 	 
C 	 29.08 	 34.8228 	 58.3557 	 
C 	 28.7284 	 33.7895 	 57.5402 	 
H 	 28.6169 	 36.9831 	 58.4952 	 
C 	 29.7398 	 34.5493 	 59.7201 	 
H 	 29.9697 	 33.4821 	 59.7129 	 
H 	 28.8468 	 34.7474 	 60.3509 	 
C 	 31.0027 	 35.3106 	 60.1018 	 
H 	 31.2276 	 35.2574 	 61.1532 	 
H 	 30.9841 	 36.3339 	 59.8222 	 
C 	 32.3135 	 34.8033 	 59.3613 	 
H 	 32.1745 	 34.6809 	 58.2636 	 
H 	 32.7233 	 33.7907 	 59.6803 	 
H 	 33.0794 	 35.4695 	 59.5196 	 
H 	 28.3977 	 28.8861 	 58.0231 	 
H 	 27.2338 	 36.798 	 56.4559 	 
*
