! wB97X-D3 SP def2-SVP
%pal
nprocs 16
end

* xyz 0 1
S 	 55.0905 	 4.48625 	 88.2484 	 
C 	 55.4153 	 5.21303 	 86.6714 	 
C 	 55.5005 	 4.30267 	 85.6469 	 
C 	 55.0977 	 3.01391 	 86.2023 	 
C 	 54.6642 	 2.98288 	 87.4595 	 
H 	 55.0021 	 2.08488 	 85.7018 	 
C 	 55.9022 	 4.45622 	 84.1721 	 
H 	 55.956 	 5.53524 	 83.8268 	 
H 	 55.0705 	 4.08737 	 83.5574 	 
C 	 57.2105 	 3.74144 	 83.7581 	 
H 	 58.1002 	 3.95174 	 84.3766 	 
H 	 57.0647 	 2.65612 	 83.772 	 
C 	 57.6367 	 4.0398 	 82.3263 	 
H 	 57.477 	 5.08894 	 82.1465 	 
H 	 58.6135 	 3.7182 	 82.1219 	 
H 	 56.909 	 3.56946 	 81.6052 	 
S 	 52.2375 	 2.26558 	 88.675 	 
C 	 52.0589 	 0.494913 	 89.0728 	 
C 	 53.1674 	 -0.177744 	 88.906 	 
C 	 54.247 	 0.589387 	 88.2808 	 
C 	 53.8736 	 1.92032 	 88.073 	 
H 	 53.1669 	 -1.25483 	 89.0142 	 
C 	 55.6028 	 -0.0248508 	 87.9804 	 
H 	 56.2762 	 0.799737 	 88.1969 	 
H 	 55.6524 	 -0.275611 	 86.9262 	 
C 	 55.9844 	 -1.30889 	 88.8154 	 
H 	 55.2097 	 -2.11267 	 88.6043 	 
H 	 55.9919 	 -1.0836 	 89.8393 	 
C 	 57.305 	 -1.93925 	 88.3166 	 
H 	 57.26 	 -2.17919 	 87.1841 	 
H 	 57.4863 	 -2.8926 	 88.8693 	 
H 	 58.1215 	 -1.30198 	 88.4871 	 
H 	 55.6152 	 6.27722 	 86.6676 	 
H 	 51.1508 	 0.0714556 	 89.4822 	 
*
