! wB97X-D3 SP def2-SVP
%pal
nprocs 16
end

* xyz 0 1
S 	 -110.34 	 59.5126 	 120.154 	 
C 	 -108.969 	 59.1087 	 121.208 	 
C 	 -108.875 	 57.7336 	 121.372 	 
C 	 -109.896 	 57.0164 	 120.627 	 
C 	 -110.782 	 57.8457 	 119.895 	 
H 	 -109.947 	 55.9275 	 120.496 	 
C 	 -107.858 	 57.0328 	 122.189 	 
H 	 -108.37 	 56.4804 	 122.987 	 
H 	 -107.353 	 57.7263 	 122.792 	 
C 	 -107.029 	 56.0627 	 121.41 	 
H 	 -106.298 	 55.6051 	 122.048 	 
H 	 -107.604 	 55.2321 	 121.01 	 
C 	 -106.241 	 56.7382 	 120.285 	 
H 	 -105.745 	 56.1693 	 119.562 	 
H 	 -106.939 	 57.4185 	 119.695 	 
H 	 -105.468 	 57.4248 	 120.67 	 
S 	 -112.164 	 55.728 	 119.093 	 
C 	 -113.494 	 55.9079 	 117.99 	 
C 	 -113.607 	 57.222 	 117.548 	 
C 	 -112.726 	 58.0875 	 118.259 	 
C 	 -111.948 	 57.4331 	 119.137 	 
H 	 -114.396 	 57.3967 	 116.89 	 
C 	 -112.646 	 59.566 	 117.826 	 
H 	 -113.125 	 59.7122 	 116.832 	 
H 	 -111.615 	 59.9024 	 117.832 	 
C 	 -113.468 	 60.371 	 118.841 	 
H 	 -113.402 	 61.3904 	 118.524 	 
H 	 -113.166 	 60.3998 	 119.912 	 
C 	 -114.976 	 60.1612 	 118.719 	 
H 	 -115.189 	 59.0949 	 118.935 	 
H 	 -115.591 	 60.5955 	 117.9 	 
H 	 -115.441 	 60.689 	 119.554 	 
H 	 -108.336 	 59.8921 	 121.599 	 
H 	 -113.975 	 55.0562 	 117.48 	 
*
