! wB97X-D3 SP def2-SVP
%pal
nprocs 16
end

* xyz 0 1
S 	 -36.8789 	 66.6467 	 171.805 	 
C 	 -36.0275 	 66.8575 	 170.302 	 
C 	 -35.0428 	 67.8335 	 170.356 	 
C 	 -35.0751 	 68.5371 	 171.618 	 
C 	 -36.0218 	 68.0212 	 172.511 	 
H 	 -34.4145 	 69.3419 	 171.986 	 
C 	 -34.1219 	 68.333 	 169.271 	 
H 	 -34.3108 	 67.5882 	 168.452 	 
H 	 -33.0186 	 68.2595 	 169.53 	 
C 	 -34.451 	 69.7896 	 168.746 	 
H 	 -35.5144 	 69.8873 	 168.618 	 
H 	 -34.3156 	 70.6026 	 169.509 	 
C 	 -33.66 	 70.2434 	 167.495 	 
H 	 -33.8964 	 71.1624 	 167.13 	 
H 	 -32.5229 	 70.3702 	 167.707 	 
H 	 -33.718 	 69.4754 	 166.725 	 
S 	 -36.8136 	 70.09 	 174.161 	 
C 	 -36.734 	 69.8082 	 175.909 	 
C 	 -36.5517 	 68.5214 	 176.203 	 
C 	 -36.2921 	 67.7166 	 175.046 	 
C 	 -36.1939 	 68.4486 	 173.886 	 
H 	 -36.6325 	 68.157 	 177.232 	 
C 	 -36.0466 	 66.2482 	 175.179 	 
H 	 -35.7832 	 65.8176 	 174.236 	 
H 	 -36.9804 	 65.8148 	 175.43 	 
C 	 -34.9853 	 65.7302 	 176.204 	 
H 	 -35.0801 	 64.6447 	 176.437 	 
H 	 -35.0392 	 66.1607 	 177.241 	 
C 	 -33.5224 	 65.744 	 175.81 	 
H 	 -33.0192 	 66.7488 	 175.793 	 
H 	 -33.3256 	 65.3435 	 174.79 	 
H 	 -33.0222 	 65.0667 	 176.526 	 
H 	 -36.2114 	 66.2792 	 169.414 	 
H 	 -36.7852 	 70.5966 	 176.599 	 
*
