! wB97X-D3 SP def2-SVP
%pal
nprocs 16
end

* xyz 0 1
S 	 46.7258 	 15.7201 	 77.9446 	 
C 	 46.6767 	 16.0643 	 79.6372 	 
C 	 47.9576 	 16.1814 	 80.2367 	 
C 	 48.965 	 15.9139 	 79.231 	 
C 	 48.516 	 15.8465 	 77.9484 	 
H 	 50.0732 	 15.7531 	 79.4898 	 
C 	 48.2801 	 16.6818 	 81.6505 	 
H 	 49.3307 	 16.3629 	 81.8426 	 
H 	 47.5674 	 16.2315 	 82.3389 	 
C 	 48.0157 	 18.2339 	 81.848 	 
H 	 47.1876 	 18.5479 	 81.2208 	 
H 	 47.8322 	 18.534 	 82.8777 	 
C 	 49.1067 	 19.1145 	 81.3171 	 
H 	 49.954 	 19.1727 	 81.9746 	 
H 	 49.6112 	 18.8976 	 80.3962 	 
H 	 48.6488 	 20.1041 	 81.0308 	 
S 	 49.174 	 14.1287 	 75.8746 	 
C 	 50.6372 	 14.3715 	 74.9674 	 
C 	 51.1171 	 15.6258 	 75.2162 	 
C 	 50.4816 	 16.3154 	 76.3072 	 
C 	 49.3266 	 15.6313 	 76.7408 	 
H 	 52.0501 	 15.9487 	 74.6554 	 
C 	 50.9445 	 17.7175 	 76.8049 	 
H 	 50.2555 	 18.0808 	 77.528 	 
H 	 50.7867 	 18.442 	 75.9477 	 
C 	 52.3762 	 17.8025 	 77.4637 	 
H 	 52.5547 	 18.731 	 77.8108 	 
H 	 53.1533 	 17.6954 	 76.6567 	 
C 	 52.5304 	 16.8105 	 78.6909 	 
H 	 53.5617 	 16.8046 	 78.9229 	 
H 	 52.2767 	 15.7734 	 78.4778 	 
H 	 52.0048 	 17.1684 	 79.5509 	 
H 	 45.7193 	 16.2386 	 80.1791 	 
H 	 51.2033 	 13.6446 	 74.3684 	 
*
