! wB97X-D3 SP def2-SVP
%pal
nprocs 16
end

* xyz 0 1
S 	 -63.4623 	 50.9843 	 122.829 	 
C 	 -63.7303 	 50.3252 	 124.451 	 
C 	 -63.495 	 51.2169 	 125.509 	 
C 	 -62.966 	 52.42 	 125.003 	 
C 	 -63.0874 	 52.5405 	 123.612 	 
H 	 -62.521 	 53.2057 	 125.63 	 
C 	 -63.4137 	 50.8708 	 127.012 	 
H 	 -62.7217 	 51.5579 	 127.554 	 
H 	 -62.9315 	 49.8886 	 127.233 	 
C 	 -64.7232 	 50.8379 	 127.8 	 
H 	 -64.9195 	 49.7569 	 128.097 	 
H 	 -64.6113 	 51.3153 	 128.788 	 
C 	 -65.9404 	 51.3004 	 127.063 	 
H 	 -66.2039 	 50.6865 	 126.147 	 
H 	 -66.7856 	 51.2621 	 127.786 	 
H 	 -65.7438 	 52.3058 	 126.762 	 
S 	 -61.3364 	 53.4038 	 121.58 	 
C 	 -61.1196 	 55.0833 	 121.278 	 
C 	 -61.9622 	 55.8159 	 122.043 	 
C 	 -62.8761 	 55.072 	 122.848 	 
C 	 -62.6591 	 53.6973 	 122.791 	 
H 	 -61.9732 	 56.8771 	 122.066 	 
C 	 -63.8594 	 55.7044 	 123.809 	 
H 	 -63.6181 	 56.8363 	 123.676 	 
H 	 -63.6291 	 55.3571 	 124.808 	 
C 	 -65.334 	 55.5502 	 123.61 	 
H 	 -65.5508 	 54.4434 	 123.601 	 
H 	 -65.5943 	 55.8765 	 122.547 	 
C 	 -66.2018 	 56.1992 	 124.752 	 
H 	 -67.2494 	 56.106 	 124.622 	 
H 	 -65.9521 	 57.2454 	 124.883 	 
H 	 -66.142 	 55.6914 	 125.819 	 
H 	 -63.8235 	 49.2664 	 124.647 	 
H 	 -60.3113 	 55.4314 	 120.72 	 
*
