! wB97X-D3 SP def2-SVP
%pal
nprocs 16
end

* xyz 0 1
S 	 -74.0814 	 54.4117 	 138.6 	 
C 	 -73.1882 	 53.6423 	 139.901 	 
C 	 -72.7355 	 52.3561 	 139.576 	 
C 	 -73.4165 	 51.898 	 138.35 	 
C 	 -74.1519 	 52.876 	 137.664 	 
H 	 -73.3456 	 50.9399 	 137.798 	 
C 	 -71.9028 	 51.4085 	 140.438 	 
H 	 -71.8855 	 51.6304 	 141.474 	 
H 	 -70.8472 	 51.6321 	 140.12 	 
C 	 -72.1204 	 49.853 	 140.263 	 
H 	 -72.115 	 49.5687 	 139.234 	 
H 	 -71.3256 	 49.2938 	 140.753 	 
C 	 -73.4646 	 49.398 	 140.891 	 
H 	 -73.4678 	 48.3058 	 141.064 	 
H 	 -73.7743 	 49.9102 	 141.747 	 
H 	 -74.2779 	 49.5698 	 140.274 	 
S 	 -75.1479 	 51.1319 	 135.798 	 
C 	 -76.0199 	 51.7621 	 134.386 	 
C 	 -75.9741 	 53.1346 	 134.359 	 
C 	 -75.3109 	 53.6731 	 135.502 	 
C 	 -74.8166 	 52.726 	 136.392 	 
H 	 -76.4778 	 53.6292 	 133.561 	 
C 	 -75.1189 	 55.1896 	 135.643 	 
H 	 -74.246 	 55.2871 	 136.316 	 
H 	 -76.028 	 55.4967 	 136.145 	 
C 	 -74.9756 	 55.9578 	 134.342 	 
H 	 -75.9117 	 55.8584 	 133.784 	 
H 	 -74.2474 	 55.5148 	 133.726 	 
C 	 -74.6481 	 57.4227 	 134.563 	 
H 	 -75.0678 	 58.128 	 133.797 	 
H 	 -73.6109 	 57.3631 	 134.594 	 
H 	 -74.8672 	 57.7679 	 135.558 	 
H 	 -72.8203 	 54.077 	 140.76 	 
H 	 -76.5754 	 51.1819 	 133.657 	 
*
