! wB97X-D3 SP def2-SVP
%pal
nprocs 16
end

* xyz 0 1
S 	 -3.3463 	 -22.4864 	 86.6378 	 
C 	 -2.29475 	 -23.3115 	 85.5429 	 
C 	 -1.38731 	 -22.3317 	 85.0411 	 
C 	 -1.50809 	 -20.9834 	 85.4921 	 
C 	 -2.53859 	 -20.969 	 86.416 	 
H 	 -0.833257 	 -20.1341 	 85.3026 	 
C 	 -0.291268 	 -22.8285 	 84.0804 	 
H 	 -0.448214 	 -22.2366 	 83.2127 	 
H 	 -0.553434 	 -23.7379 	 83.634 	 
C 	 1.16771 	 -22.5811 	 84.4506 	 
H 	 1.77102 	 -22.7561 	 83.4806 	 
H 	 1.27732 	 -21.591 	 84.6292 	 
C 	 1.70385 	 -23.42 	 85.6139 	 
H 	 1.13304 	 -23.0645 	 86.5151 	 
H 	 1.54744 	 -24.4388 	 85.3948 	 
H 	 2.76898 	 -23.1851 	 85.9503 	 
S 	 -3.49734 	 -19.7497 	 88.7638 	 
C 	 -3.68898 	 -17.9663 	 88.8532 	 
C 	 -3.65116 	 -17.4197 	 87.5849 	 
C 	 -3.32552 	 -18.4095 	 86.5847 	 
C 	 -3.0431 	 -19.7053 	 87.0554 	 
H 	 -4.0186 	 -16.3781 	 87.4768 	 
C 	 -3.35472 	 -18.0577 	 85.1267 	 
H 	 -2.80043 	 -18.8059 	 84.4702 	 
H 	 -2.96683 	 -17.0999 	 84.919 	 
C 	 -4.70444 	 -18.0876 	 84.3745 	 
H 	 -5.45176 	 -17.4054 	 84.8709 	 
H 	 -5.0772 	 -19.0474 	 84.3751 	 
C 	 -4.3436 	 -17.6616 	 83.0133 	 
H 	 -5.23746 	 -17.5654 	 82.4231 	 
H 	 -3.76687 	 -18.4822 	 82.5271 	 
H 	 -3.77514 	 -16.7098 	 83.0265 	 
H 	 -2.38005 	 -24.2532 	 85.1149 	 
H 	 -3.88938 	 -17.3848 	 89.7629 	 
*
