! wB97X-D3 SP def2-SVP
%pal
nprocs 16
end

* xyz 0 1
S 	 -99.7213 	 40.6197 	 122.416 	 
C 	 -100.877 	 41.2623 	 123.611 	 
C 	 -100.244 	 42.1134 	 124.552 	 
C 	 -98.8648 	 42.0811 	 124.407 	 
C 	 -98.4037 	 41.3323 	 123.342 	 
H 	 -98.2036 	 42.6778 	 125.04 	 
C 	 -100.876 	 42.7438 	 125.701 	 
H 	 -101.847 	 43.0883 	 125.462 	 
H 	 -100.277 	 43.6615 	 125.837 	 
C 	 -100.715 	 41.9043 	 126.993 	 
H 	 -99.7036 	 41.6641 	 127.15 	 
H 	 -101.039 	 42.5271 	 127.855 	 
C 	 -101.427 	 40.5197 	 127.054 	 
H 	 -101.184 	 39.8688 	 126.27 	 
H 	 -101.206 	 40.1185 	 128.084 	 
H 	 -102.495 	 40.6263 	 127.019 	 
S 	 -96.0132 	 39.9074 	 123.4 	 
C 	 -94.5588 	 40.7204 	 122.849 	 
C 	 -94.847 	 42.0399 	 122.381 	 
C 	 -96.2383 	 42.2998 	 122.404 	 
C 	 -97.0221 	 41.2427 	 122.913 	 
H 	 -94.0442 	 42.7261 	 122.265 	 
C 	 -96.7221 	 43.6616 	 122.017 	 
H 	 -97.6167 	 43.9929 	 122.621 	 
H 	 -97.0804 	 43.5207 	 120.991 	 
C 	 -95.6404 	 44.8123 	 121.964 	 
H 	 -96.1326 	 45.6159 	 121.516 	 
H 	 -94.8816 	 44.5533 	 121.286 	 
C 	 -95.1756 	 45.2713 	 123.417 	 
H 	 -94.5094 	 46.1914 	 123.382 	 
H 	 -94.5703 	 44.4874 	 123.878 	 
H 	 -96.0166 	 45.5437 	 124.038 	 
H 	 -101.971 	 41.0225 	 123.537 	 
H 	 -93.616 	 40.3456 	 123.08 	 
*
