! wB97X-D3 SP def2-SVP
%pal
nprocs 16
end

* xyz 0 1
S 	 -58.5367 	 49.8641 	 135.196 	 
C 	 -56.8682 	 50.1781 	 135.433 	 
C 	 -56.5675 	 50.4859 	 136.759 	 
C 	 -57.7511 	 50.4681 	 137.535 	 
C 	 -58.9327 	 50.1443 	 136.862 	 
H 	 -57.8317 	 50.7541 	 138.574 	 
C 	 -55.1706 	 50.8248 	 137.307 	 
H 	 -54.5527 	 50.2196 	 136.63 	 
H 	 -55.0577 	 50.3992 	 138.33 	 
C 	 -54.7531 	 52.3179 	 137.261 	 
H 	 -55.335 	 52.827 	 138.11 	 
H 	 -53.6327 	 52.4148 	 137.526 	 
C 	 -54.939 	 53.0674 	 135.974 	 
H 	 -55.9786 	 53.2804 	 136.13 	 
H 	 -54.3705 	 53.9765 	 135.868 	 
H 	 -54.8105 	 52.3886 	 135.149 	 
S 	 -60.6879 	 48.2958 	 137.839 	 
C 	 -61.9392 	 48.7658 	 138.964 	 
C 	 -61.9807 	 50.1503 	 138.993 	 
C 	 -60.9236 	 50.8109 	 138.316 	 
C 	 -60.1984 	 49.9385 	 137.522 	 
H 	 -62.7663 	 50.6729 	 139.47 	 
C 	 -60.5731 	 52.3028 	 138.314 	 
H 	 -60.7117 	 52.6682 	 137.283 	 
H 	 -59.5147 	 52.2888 	 138.404 	 
C 	 -61.2321 	 53.145 	 139.378 	 
H 	 -61.0458 	 52.6652 	 140.34 	 
H 	 -62.3687 	 53.0235 	 139.248 	 
C 	 -60.8272 	 54.6148 	 139.39 	 
H 	 -61.0524 	 55.0188 	 138.406 	 
H 	 -59.8108 	 54.703 	 139.526 	 
H 	 -61.3288 	 55.2166 	 140.095 	 
H 	 -56.0905 	 50.0667 	 134.714 	 
H 	 -62.7573 	 48.1158 	 139.328 	 
*
