! wB97X-D3 SP def2-SVP
%pal
nprocs 16
end

* xyz 0 1
S 	 -4.99156 	 -12.8728 	 84.1876 	 
C 	 -3.72717 	 -14.0286 	 84.7644 	 
C 	 -4.24018 	 -14.7727 	 85.8275 	 
C 	 -5.64286 	 -14.6244 	 85.9707 	 
C 	 -6.19479 	 -13.6862 	 85.1356 	 
H 	 -6.21881 	 -15.1026 	 86.7449 	 
C 	 -3.48791 	 -15.7666 	 86.7018 	 
H 	 -3.93811 	 -15.7037 	 87.7259 	 
H 	 -2.47378 	 -15.5207 	 86.8823 	 
C 	 -3.4019 	 -17.229 	 86.2178 	 
H 	 -4.43057 	 -17.5826 	 85.9452 	 
H 	 -2.80741 	 -17.2014 	 85.2973 	 
C 	 -2.83485 	 -18.22 	 87.2113 	 
H 	 -2.70363 	 -19.1787 	 86.7623 	 
H 	 -1.78254 	 -18.0046 	 87.3571 	 
H 	 -3.33634 	 -18.237 	 88.1484 	 
S 	 -7.80052 	 -11.5352 	 85.6369 	 
C 	 -9.51675 	 -11.8129 	 85.9014 	 
C 	 -9.87935 	 -13.1494 	 85.736 	 
C 	 -8.75429 	 -13.9443 	 85.3379 	 
C 	 -7.5424 	 -13.2242 	 85.2474 	 
H 	 -10.939 	 -13.4676 	 85.8139 	 
C 	 -8.89059 	 -15.4059 	 85.1891 	 
H 	 -7.95176 	 -15.917 	 84.9002 	 
H 	 -9.5797 	 -15.6147 	 84.4101 	 
C 	 -9.45305 	 -16.1568 	 86.3994 	 
H 	 -10.4333 	 -15.7039 	 86.6613 	 
H 	 -8.81182 	 -15.9916 	 87.2609 	 
C 	 -9.7335 	 -17.6808 	 86.2456 	 
H 	 -8.87714 	 -18.1761 	 85.8318 	 
H 	 -10.5473 	 -17.8377 	 85.5793 	 
H 	 -9.85515 	 -18.2775 	 87.1066 	 
H 	 -2.66848 	 -13.9435 	 84.3756 	 
H 	 -10.2617 	 -11.0371 	 86.2146 	 
*
