! wB97X-D3 SP def2-SVP
%pal
nprocs 16
end

* xyz 0 1
S 	 -39.8138 	 68.9833 	 142.677 	 
C 	 -40.2524 	 69.2139 	 141.034 	 
C 	 -39.13 	 69.6661 	 140.306 	 
C 	 -37.9706 	 70.0326 	 141.065 	 
C 	 -38.1999 	 69.6878 	 142.342 	 
H 	 -37.0805 	 70.4197 	 140.64 	 
C 	 -39.2361 	 69.9876 	 138.825 	 
H 	 -38.7443 	 70.8653 	 138.485 	 
H 	 -40.2656 	 70.3476 	 138.688 	 
C 	 -38.8174 	 68.8095 	 137.924 	 
H 	 -39.5731 	 67.972 	 138.076 	 
H 	 -39.011 	 69.2237 	 136.895 	 
C 	 -37.4366 	 68.1637 	 138.075 	 
H 	 -36.6603 	 68.7864 	 137.733 	 
H 	 -37.2022 	 67.8399 	 139.086 	 
H 	 -37.3361 	 67.2826 	 137.412 	 
S 	 -37.6356 	 71.3795 	 144.396 	 
C 	 -36.4581 	 70.8875 	 145.538 	 
C 	 -35.7256 	 69.7368 	 145.127 	 
C 	 -36.1242 	 69.2906 	 143.801 	 
C 	 -37.285 	 69.9129 	 143.405 	 
H 	 -34.9414 	 69.323 	 145.766 	 
C 	 -35.3792 	 68.1604 	 143.134 	 
H 	 -35.5764 	 68.0854 	 142.099 	 
H 	 -35.7728 	 67.2476 	 143.534 	 
C 	 -33.8778 	 68.0305 	 143.267 	 
H 	 -33.3927 	 67.1915 	 142.712 	 
H 	 -33.6212 	 67.9942 	 144.329 	 
C 	 -33.2631 	 69.213 	 142.639 	 
H 	 -33.7762 	 70.0926 	 143.136 	 
H 	 -33.3447 	 69.3571 	 141.537 	 
H 	 -32.1465 	 69.277 	 142.709 	 
H 	 -41.2314 	 68.9713 	 140.591 	 
H 	 -36.2989 	 71.4151 	 146.484 	 
*
