! wB97X-D3 SP def2-SVP
%pal
nprocs 16
end

* xyz 0 1
S 	 -31.2367 	 60.0385 	 105.064 	 
C 	 -30.2737 	 59.508 	 106.49 	 
C 	 -29.6264 	 60.5659 	 107.044 	 
C 	 -29.9592 	 61.8186 	 106.432 	 
C 	 -30.8966 	 61.728 	 105.418 	 
H 	 -29.5831 	 62.7468 	 106.748 	 
C 	 -28.6872 	 60.3737 	 108.169 	 
H 	 -28.6189 	 59.331 	 108.329 	 
H 	 -29.0666 	 60.855 	 109.089 	 
C 	 -27.2064 	 60.8696 	 107.958 	 
H 	 -27.1965 	 62.0063 	 107.924 	 
H 	 -26.7498 	 60.693 	 108.902 	 
C 	 -26.3709 	 60.2864 	 106.77 	 
H 	 -26.094 	 59.2893 	 106.836 	 
H 	 -26.9811 	 60.2575 	 105.861 	 
H 	 -25.4669 	 60.8396 	 106.484 	 
S 	 -33.1639 	 62.8967 	 104.52 	 
C 	 -33.0676 	 64.4026 	 103.628 	 
C 	 -31.7834 	 64.9012 	 103.56 	 
C 	 -30.8553 	 63.9938 	 104.169 	 
C 	 -31.4293 	 62.8269 	 104.605 	 
H 	 -31.5996 	 65.8949 	 103.103 	 
C 	 -29.3358 	 64.3708 	 104.23 	 
H 	 -28.8934 	 63.3893 	 103.742 	 
H 	 -29.0687 	 64.3483 	 105.271 	 
C 	 -28.916 	 65.7471 	 103.765 	 
H 	 -29.4666 	 66.4894 	 104.335 	 
H 	 -29.1769 	 65.8454 	 102.683 	 
C 	 -27.3849 	 65.8866 	 103.859 	 
H 	 -27.0934 	 66.8766 	 103.446 	 
H 	 -26.837 	 65.1628 	 103.225 	 
H 	 -27.0938 	 65.8255 	 104.929 	 
H 	 -30.2038 	 58.4506 	 106.853 	 
H 	 -33.9264 	 65.0004 	 103.387 	 
*
