! wB97X-D3 SP def2-SVP
%pal
nprocs 16
end

* xyz 0 1
S 	 -68.6871 	 38.7961 	 124.588 	 
C 	 -69.1698 	 40.1176 	 125.603 	 
C 	 -68.2836 	 41.1571 	 125.679 	 
C 	 -67.1594 	 40.8302 	 124.861 	 
C 	 -67.1737 	 39.6256 	 124.195 	 
H 	 -66.2783 	 41.4323 	 124.773 	 
C 	 -68.4167 	 42.2775 	 126.663 	 
H 	 -67.5702 	 42.4147 	 127.293 	 
H 	 -69.2073 	 41.9427 	 127.306 	 
C 	 -68.8228 	 43.6686 	 126.084 	 
H 	 -69.701 	 43.4544 	 125.47 	 
H 	 -69.1801 	 44.3452 	 126.871 	 
C 	 -67.7332 	 44.4785 	 125.388 	 
H 	 -68.0785 	 45.3844 	 124.858 	 
H 	 -66.9446 	 44.8054 	 126.068 	 
H 	 -67.2389 	 43.8335 	 124.659 	 
S 	 -66.7162 	 37.9822 	 122.144 	 
C 	 -65.1718 	 37.7741 	 121.433 	 
C 	 -64.2087 	 38.4719 	 122.088 	 
C 	 -64.7996 	 39.3644 	 123.039 	 
C 	 -66.1514 	 39.0547 	 123.357 	 
H 	 -63.1654 	 38.4445 	 121.808 	 
C 	 -63.868 	 40.349 	 123.785 	 
H 	 -62.9146 	 39.8163 	 124.036 	 
H 	 -64.3094 	 40.5726 	 124.714 	 
C 	 -63.4947 	 41.6854 	 122.979 	 
H 	 -63.0639 	 41.4274 	 122.083 	 
H 	 -62.734 	 42.2661 	 123.56 	 
C 	 -64.6933 	 42.5747 	 122.611 	 
H 	 -64.3244 	 43.4244 	 122.122 	 
H 	 -65.2135 	 43.0534 	 123.432 	 
H 	 -65.3875 	 42.0962 	 121.972 	 
H 	 -70.0614 	 40.2428 	 126.224 	 
H 	 -65.0964 	 37.1941 	 120.464 	 
*
