! wB97X-D3 SP def2-SVP
%pal
nprocs 16
end

* xyz 0 1
S 	 -11.7308 	 -13.7508 	 88.4554 	 
C 	 -13.0548 	 -13.0904 	 87.541 	 
C 	 -13.6008 	 -11.9561 	 88.0685 	 
C 	 -13.0463 	 -11.5896 	 89.3265 	 
C 	 -11.9741 	 -12.4615 	 89.6506 	 
H 	 -13.3164 	 -10.7485 	 89.871 	 
C 	 -14.6397 	 -10.9613 	 87.4552 	 
H 	 -14.9858 	 -10.2383 	 88.2947 	 
H 	 -15.6162 	 -11.4846 	 87.291 	 
C 	 -14.0602 	 -10.0642 	 86.3346 	 
H 	 -13.2791 	 -9.53122 	 86.8104 	 
H 	 -13.5662 	 -10.6628 	 85.595 	 
C 	 -15.0504 	 -9.18267 	 85.5711 	 
H 	 -15.8549 	 -8.76099 	 86.2126 	 
H 	 -14.6143 	 -8.4486 	 84.9343 	 
H 	 -15.5689 	 -9.87682 	 84.8892 	 
S 	 -9.38442 	 -12.5346 	 90.6379 	 
C 	 -9.15717 	 -12.3666 	 92.42 	 
C 	 -10.4038 	 -12.3799 	 93.0281 	 
C 	 -11.497 	 -12.2414 	 92.1604 	 
C 	 -11.1639 	 -12.4277 	 90.8164 	 
H 	 -10.4524 	 -12.273 	 94.1065 	 
C 	 -12.8798 	 -12.1255 	 92.6788 	 
H 	 -13.2147 	 -11.2056 	 92.2004 	 
H 	 -12.8592 	 -11.8777 	 93.759 	 
C 	 -13.9233 	 -13.2859 	 92.426 	 
H 	 -14.1969 	 -13.3315 	 91.3423 	 
H 	 -14.8538 	 -12.9805 	 92.923 	 
C 	 -13.3662 	 -14.66 	 92.8685 	 
H 	 -14.1088 	 -15.4428 	 92.7303 	 
H 	 -13.1135 	 -14.6517 	 93.9447 	 
H 	 -12.4652 	 -14.9635 	 92.3508 	 
H 	 -13.1752 	 -13.425 	 86.4915 	 
H 	 -8.26369 	 -12.3514 	 93.065 	 
*
