! wB97X-D3 SP def2-SVP
%pal
nprocs 16
end

* xyz 0 1
S 	 -12.0376 	 -10.9659 	 91.5815 	 
C 	 -13.4254 	 -11.3701 	 92.4783 	 
C 	 -14.5066 	 -11.7383 	 91.6579 	 
C 	 -14.1209 	 -11.709 	 90.3071 	 
C 	 -12.8158 	 -11.4125 	 90.083 	 
H 	 -14.6951 	 -11.9935 	 89.4264 	 
C 	 -15.8705 	 -12.2877 	 92.1581 	 
H 	 -16.4676 	 -12.5438 	 91.2496 	 
H 	 -16.3501 	 -11.3849 	 92.5671 	 
C 	 -15.8251 	 -13.4542 	 93.1858 	 
H 	 -15.1335 	 -14.1922 	 92.7847 	 
H 	 -15.2898 	 -12.9709 	 94.0401 	 
C 	 -17.2201 	 -14.0248 	 93.6075 	 
H 	 -17.8838 	 -13.2369 	 93.9362 	 
H 	 -17.6027 	 -14.4889 	 92.722 	 
H 	 -17.2894 	 -14.8098 	 94.348 	 
S 	 -11.3844 	 -9.4599 	 88.6391 	 
C 	 -11.1168 	 -9.68376 	 86.9468 	 
C 	 -11.4866 	 -10.9363 	 86.501 	 
C 	 -12.216 	 -11.7386 	 87.4881 	 
C 	 -12.2262 	 -11.0956 	 88.7581 	 
H 	 -11.0875 	 -11.2213 	 85.499 	 
C 	 -12.5121 	 -13.1818 	 87.0872 	 
H 	 -13.1469 	 -13.1294 	 86.195 	 
H 	 -13.0167 	 -13.7448 	 87.8427 	 
C 	 -11.2487 	 -13.9882 	 86.8412 	 
H 	 -10.7989 	 -14.0887 	 87.836 	 
H 	 -10.5606 	 -13.4867 	 86.1775 	 
C 	 -11.5298 	 -15.4487 	 86.2947 	 
H 	 -12.1932 	 -16.1172 	 86.9534 	 
H 	 -10.6048 	 -16.0072 	 86.1769 	 
H 	 -11.8694 	 -15.5502 	 85.2201 	 
H 	 -13.5631 	 -11.284 	 93.4823 	 
H 	 -10.4444 	 -9.04668 	 86.3632 	 
*
