! wB97X-D3 SP def2-SVP
%pal
nprocs 16
end

* xyz 0 1
S 	 -91.127 	 51.6179 	 123.74 	 
C 	 -89.9192 	 51.2819 	 125.014 	 
C 	 -90.5435 	 50.8641 	 126.149 	 
C 	 -91.9744 	 50.574 	 125.954 	 
C 	 -92.4405 	 50.9837 	 124.705 	 
H 	 -92.5529 	 50.3928 	 126.881 	 
C 	 -89.8551 	 50.394 	 127.396 	 
H 	 -88.8 	 50.7426 	 127.265 	 
H 	 -89.6396 	 49.3261 	 127.316 	 
C 	 -90.34 	 51.0044 	 128.767 	 
H 	 -90.3431 	 52.1405 	 128.652 	 
H 	 -91.4113 	 50.6289 	 128.821 	 
C 	 -89.4939 	 50.4611 	 129.924 	 
H 	 -88.4375 	 50.8743 	 129.951 	 
H 	 -89.9213 	 50.8193 	 130.934 	 
H 	 -89.5581 	 49.3933 	 129.881 	 
S 	 -94.0554 	 50.2649 	 122.614 	 
C 	 -95.7677 	 50.6124 	 122.788 	 
C 	 -96.1048 	 51.1777 	 124.001 	 
C 	 -94.9736 	 51.4862 	 124.819 	 
C 	 -93.7976 	 50.9535 	 124.263 	 
H 	 -97.1243 	 51.4449 	 124.21 	 
C 	 -95.0676 	 52.0831 	 126.168 	 
H 	 -94.5346 	 53.0564 	 126.067 	 
H 	 -94.3685 	 51.6005 	 126.876 	 
C 	 -96.4106 	 52.3036 	 126.903 	 
H 	 -96.3792 	 52.4509 	 127.93 	 
H 	 -96.9808 	 51.3852 	 126.784 	 
C 	 -97.2841 	 53.5237 	 126.404 	 
H 	 -96.6824 	 54.3992 	 126.636 	 
H 	 -98.2614 	 53.7228 	 126.758 	 
H 	 -97.3899 	 53.4626 	 125.339 	 
H 	 -88.8761 	 51.4507 	 124.924 	 
H 	 -96.5796 	 50.3367 	 122.173 	 
*
