! wB97X-D3 SP def2-SVP
%pal
nprocs 16
end

* xyz 0 1
S 	 11.3422 	 -6.10649 	 63.91 	 
C 	 10.6969 	 -4.72781 	 63.1108 	 
C 	 11.2355 	 -3.54583 	 63.5041 	 
C 	 12.0133 	 -3.7267 	 64.7069 	 
C 	 12.0289 	 -5.04347 	 65.1573 	 
H 	 12.4354 	 -3.00174 	 65.3551 	 
C 	 10.9145 	 -2.17744 	 62.8908 	 
H 	 11.2336 	 -2.10718 	 61.8239 	 
H 	 11.6388 	 -1.4948 	 63.3816 	 
C 	 9.44396 	 -1.67553 	 62.9302 	 
H 	 9.46069 	 -0.864647 	 62.2113 	 
H 	 8.87151 	 -2.49486 	 62.4977 	 
C 	 9.19686 	 -1.23398 	 64.3276 	 
H 	 10.0778 	 -0.643461 	 64.6696 	 
H 	 8.31536 	 -0.580506 	 64.3527 	 
H 	 9.03784 	 -2.12297 	 64.9655 	 
S 	 14.0179 	 -6.65969 	 65.9699 	 
C 	 14.418 	 -6.76493 	 67.6999 	 
C 	 13.6455 	 -5.89177 	 68.489 	 
C 	 12.6846 	 -5.26052 	 67.6371 	 
C 	 12.7581 	 -5.52277 	 66.2945 	 
H 	 13.7029 	 -5.91425 	 69.5845 	 
C 	 11.5595 	 -4.39161 	 68.2145 	 
H 	 11.2052 	 -3.67898 	 67.4969 	 
H 	 12.0276 	 -3.77508 	 69.0091 	 
C 	 10.3327 	 -5.24574 	 68.7516 	 
H 	 9.84306 	 -4.60724 	 69.5026 	 
H 	 10.8528 	 -6.03502 	 69.2889 	 
C 	 9.37886 	 -5.83357 	 67.6165 	 
H 	 8.38066 	 -6.19221 	 67.8517 	 
H 	 9.92041 	 -6.64712 	 67.0444 	 
H 	 9.15715 	 -5.06447 	 66.8758 	 
H 	 10.1151 	 -4.78216 	 62.1853 	 
H 	 15.1306 	 -7.47228 	 68.0998 	 
*
