! wB97X-D3 SP def2-SVP
%pal
nprocs 16
end

* xyz 0 1
S 	 9.40386 	 21.3561 	 38.6559 	 
C 	 10.3246 	 21.1179 	 37.2154 	 
C 	 11.6883 	 21.0924 	 37.4303 	 
C 	 12.0241 	 21.0978 	 38.8301 	 
C 	 10.8801 	 21.2265 	 39.5413 	 
H 	 12.9695 	 21.085 	 39.3584 	 
C 	 12.8127 	 21.1413 	 36.4617 	 
H 	 12.3708 	 20.9071 	 35.5641 	 
H 	 13.5751 	 20.3617 	 36.6388 	 
C 	 13.4656 	 22.508 	 36.1918 	 
H 	 12.6642 	 23.26 	 35.704 	 
H 	 13.6533 	 22.9552 	 37.218 	 
C 	 14.8091 	 22.3398 	 35.4216 	 
H 	 15.4487 	 23.1509 	 35.6307 	 
H 	 15.3599 	 21.4894 	 35.8625 	 
H 	 14.683 	 22.3761 	 34.3624 	 
S 	 10.3395 	 19.5675 	 41.6526 	 
C 	 10.8767 	 20.0789 	 43.2705 	 
C 	 11.2682 	 21.3528 	 43.2998 	 
C 	 11.2395 	 21.9889 	 42.0167 	 
C 	 10.7432 	 21.127 	 41.0241 	 
H 	 11.7097 	 21.7286 	 44.1834 	 
C 	 11.7736 	 23.3998 	 41.7041 	 
H 	 10.8902 	 24.078 	 41.61 	 
H 	 12.2459 	 23.4008 	 40.6911 	 
C 	 12.8778 	 23.9231 	 42.674 	 
H 	 13.8053 	 23.4578 	 42.47 	 
H 	 12.6563 	 23.6322 	 43.7539 	 
C 	 12.9466 	 25.4651 	 42.5524 	 
H 	 13.731 	 25.7741 	 43.1901 	 
H 	 12.0409 	 25.9391 	 42.9306 	 
H 	 13.1667 	 25.7479 	 41.5375 	 
H 	 9.98782 	 21.1565 	 36.249 	 
H 	 10.7692 	 19.4716 	 44.0902 	 
*
