! wB97X-D3 SP def2-SVP
%pal
nprocs 16
end

* xyz 0 1
S 	 3.3109 	 22.5116 	 56.721 	 
C 	 4.7676 	 22.7067 	 55.8367 	 
C 	 5.76776 	 21.9179 	 56.369 	 
C 	 5.23613 	 20.8753 	 57.1882 	 
C 	 3.89653 	 21.0921 	 57.5239 	 
H 	 5.84507 	 20.0701 	 57.5746 	 
C 	 7.1979 	 21.7939 	 55.802 	 
H 	 7.13245 	 22.4274 	 54.8711 	 
H 	 7.5648 	 20.8434 	 55.4837 	 
C 	 8.19808 	 22.4338 	 56.7545 	 
H 	 9.05703 	 22.6754 	 56.1357 	 
H 	 7.74398 	 23.3525 	 57.0782 	 
C 	 8.62044 	 21.639 	 57.9408 	 
H 	 9.32209 	 20.8976 	 57.6417 	 
H 	 9.08006 	 22.1577 	 58.7903 	 
H 	 7.77578 	 21.1772 	 58.4829 	 
S 	 2.88963 	 18.5792 	 57.7644 	 
C 	 2.01311 	 18.1169 	 59.1377 	 
C 	 1.71822 	 19.1935 	 59.96 	 
C 	 2.29341 	 20.4154 	 59.4679 	 
C 	 3.05848 	 20.2044 	 58.3528 	 
H 	 1.14672 	 19.0282 	 60.9595 	 
C 	 2.20966 	 21.7171 	 60.22 	 
H 	 1.1432 	 21.8575 	 60.5609 	 
H 	 2.46286 	 22.5155 	 59.5354 	 
C 	 3.30303 	 21.7491 	 61.3549 	 
H 	 3.29021 	 20.7723 	 61.8908 	 
H 	 2.97926 	 22.4031 	 62.1111 	 
C 	 4.71168 	 22.0442 	 60.9131 	 
H 	 5.46116 	 22.1405 	 61.6274 	 
H 	 4.70054 	 22.9498 	 60.301 	 
H 	 5.06798 	 21.3506 	 60.1679 	 
H 	 4.87437 	 23.4279 	 55.1148 	 
H 	 1.70724 	 17.0932 	 59.3661 	 
*
