! wB97X-D3 SP def2-SVP
%pal
nprocs 16
end

* xyz 0 1
S 	 -83.2615 	 49.8473 	 136.843 	 
C 	 -83.7823 	 48.4259 	 137.659 	 
C 	 -83.1527 	 48.2409 	 138.85 	 
C 	 -82.102 	 49.1978 	 139.127 	 
C 	 -82.1039 	 50.1896 	 138.129 	 
H 	 -81.5489 	 49.3044 	 140.032 	 
C 	 -83.3637 	 47.0908 	 139.851 	 
H 	 -82.3657 	 46.9112 	 140.274 	 
H 	 -83.6434 	 46.146 	 139.283 	 
C 	 -84.5403 	 47.3747 	 140.832 	 
H 	 -85.4278 	 47.2201 	 140.213 	 
H 	 -84.4528 	 46.5547 	 141.577 	 
C 	 -84.486 	 48.5475 	 141.729 	 
H 	 -84.0649 	 49.4608 	 141.221 	 
H 	 -85.4104 	 48.6877 	 142.214 	 
H 	 -83.7363 	 48.322 	 142.541 	 
S 	 -82.0021 	 52.7864 	 138.932 	 
C 	 -80.5194 	 53.721 	 138.673 	 
C 	 -79.4707 	 52.9504 	 138.156 	 
C 	 -79.9217 	 51.6107 	 137.935 	 
C 	 -81.2531 	 51.3415 	 138.244 	 
H 	 -78.4954 	 53.3163 	 138.009 	 
C 	 -78.9599 	 50.4281 	 137.55 	 
H 	 -78.7661 	 50.3313 	 136.471 	 
H 	 -79.4097 	 49.4901 	 137.753 	 
C 	 -77.5551 	 50.5118 	 138.186 	 
H 	 -77.0813 	 51.344 	 137.632 	 
H 	 -76.9625 	 49.582 	 138.019 	 
C 	 -77.5139 	 50.7784 	 139.651 	 
H 	 -78.2453 	 50.3088 	 140.288 	 
H 	 -77.5454 	 51.8261 	 139.829 	 
H 	 -76.5467 	 50.3779 	 139.98 	 
H 	 -84.5384 	 47.6813 	 137.447 	 
H 	 -80.3237 	 54.7523 	 138.933 	 
*
