! wB97X-D3 SP def2-SVP
%pal
nprocs 16
end

* xyz 0 1
S 	 -3.88172 	 -4.00355 	 78.8511 	 
C 	 -3.73109 	 -5.04731 	 80.2179 	 
C 	 -4.89517 	 -5.78981 	 80.4656 	 
C 	 -5.91359 	 -5.48718 	 79.4978 	 
C 	 -5.49098 	 -4.53896 	 78.519 	 
H 	 -6.88842 	 -5.87852 	 79.5544 	 
C 	 -5.03363 	 -6.8963 	 81.476 	 
H 	 -4.23966 	 -7.5552 	 81.3266 	 
H 	 -5.8867 	 -7.46614 	 81.3962 	 
C 	 -5.06161 	 -6.38464 	 82.9119 	 
H 	 -4.09602 	 -5.84248 	 83.0661 	 
H 	 -5.78026 	 -5.65461 	 83.1468 	 
C 	 -5.1652 	 -7.53437 	 83.926 	 
H 	 -6.01142 	 -8.22162 	 83.7474 	 
H 	 -4.30964 	 -8.13019 	 83.9188 	 
H 	 -5.39032 	 -7.26491 	 84.8856 	 
S 	 -5.77508 	 -2.25853 	 77.0367 	 
C 	 -6.88366 	 -2.26554 	 75.6702 	 
C 	 -7.80113 	 -3.2524 	 75.8084 	 
C 	 -7.50897 	 -4.24233 	 76.8241 	 
C 	 -6.32856 	 -3.86673 	 77.5507 	 
H 	 -8.57247 	 -3.2537 	 75.0779 	 
C 	 -8.4073 	 -5.48961 	 76.9809 	 
H 	 -7.72311 	 -6.21861 	 77.1715 	 
H 	 -8.76796 	 -5.63154 	 75.9676 	 
C 	 -9.43169 	 -5.48378 	 78.0804 	 
H 	 -10.1922 	 -4.74015 	 77.8359 	 
H 	 -8.93649 	 -5.10683 	 79.0207 	 
C 	 -10.0856 	 -6.8718 	 78.3923 	 
H 	 -9.56806 	 -7.6132 	 79.0464 	 
H 	 -10.3354 	 -7.32818 	 77.4562 	 
H 	 -11.0434 	 -6.74347 	 78.974 	 
H 	 -2.80229 	 -5.19365 	 80.6988 	 
H 	 -7.1073 	 -1.39575 	 75.1509 	 
*
