! wB97X-D3 SP def2-SVP
%pal
nprocs 16
end

* xyz 0 1
S 	 59.9732 	 5.16661 	 75.2869 	 
C 	 59.1308 	 6.29099 	 76.3464 	 
C 	 58.0389 	 6.89582 	 75.6984 	 
C 	 57.7307 	 6.1507 	 74.5228 	 
C 	 58.5775 	 5.1246 	 74.1909 	 
H 	 56.897 	 6.40546 	 73.8674 	 
C 	 57.1864 	 8.04109 	 76.1667 	 
H 	 56.7514 	 8.44619 	 75.2771 	 
H 	 57.7503 	 8.83133 	 76.5951 	 
C 	 56.0522 	 7.65436 	 77.0745 	 
H 	 55.8299 	 6.67381 	 76.7456 	 
H 	 56.6192 	 7.53773 	 78.0788 	 
C 	 54.9058 	 8.71288 	 77.0602 	 
H 	 55.2868 	 9.735 	 77.0944 	 
H 	 54.3554 	 8.60867 	 76.1648 	 
H 	 54.0538 	 8.51844 	 77.7096 	 
S 	 57.8808 	 2.77847 	 73.0659 	 
C 	 58.582 	 2.24636 	 71.5302 	 
C 	 59.1892 	 3.36507 	 70.9577 	 
C 	 59.2637 	 4.5272 	 71.8168 	 
C 	 58.5838 	 4.3487 	 72.9942 	 
H 	 59.5709 	 3.1755 	 69.9453 	 
C 	 60.1194 	 5.68429 	 71.5783 	 
H 	 60.8567 	 5.36761 	 70.7997 	 
H 	 60.7711 	 5.92633 	 72.5066 	 
C 	 59.4069 	 6.89879 	 70.9964 	 
H 	 60.0871 	 7.61135 	 70.5577 	 
H 	 58.941 	 7.35802 	 71.9152 	 
C 	 58.2099 	 6.67548 	 70.0644 	 
H 	 57.8976 	 7.64129 	 69.6773 	 
H 	 57.3615 	 6.18609 	 70.5437 	 
H 	 58.3313 	 6.07825 	 69.1383 	 
H 	 59.421 	 6.59397 	 77.3107 	 
H 	 58.2091 	 1.34209 	 70.9774 	 
*
