! wB97X-D3 SP def2-SVP
%pal
nprocs 16
end

* xyz 0 1
S 	 41.7113 	 15.7674 	 49.5584 	 
C 	 42.2503 	 15.2891 	 51.1191 	 
C 	 41.2525 	 15.4756 	 52.0396 	 
C 	 40.0139 	 15.825 	 51.3997 	 
C 	 40.0144 	 15.8408 	 50.03 	 
H 	 39.0649 	 16.0207 	 51.9839 	 
C 	 41.2954 	 15.1556 	 53.52 	 
H 	 40.4857 	 15.698 	 53.9903 	 
H 	 42.1839 	 15.5885 	 54.0146 	 
C 	 40.9813 	 13.6647 	 53.8206 	 
H 	 40.0203 	 13.525 	 53.2521 	 
H 	 41.753 	 12.9057 	 53.4876 	 
C 	 40.5744 	 13.3977 	 55.2871 	 
H 	 41.4693 	 13.4473 	 55.954 	 
H 	 39.8231 	 14.1854 	 55.6784 	 
H 	 40.136 	 12.3661 	 55.4463 	 
S 	 39.1341 	 16.9244 	 47.6571 	 
C 	 37.4416 	 16.4941 	 47.1091 	 
C 	 36.7191 	 15.9434 	 48.1274 	 
C 	 37.5262 	 15.7451 	 49.3543 	 
C 	 38.87 	 16.0405 	 49.1587 	 
H 	 35.6848 	 15.6994 	 47.983 	 
C 	 36.9563 	 14.9976 	 50.6158 	 
H 	 36.5594 	 15.8262 	 51.3589 	 
H 	 37.689 	 14.4815 	 51.1691 	 
C 	 35.7411 	 14.1002 	 50.3774 	 
H 	 34.9996 	 14.7235 	 49.7698 	 
H 	 35.2223 	 13.8744 	 51.2823 	 
C 	 36.1683 	 12.7689 	 49.642 	 
H 	 35.2276 	 12.278 	 49.2557 	 
H 	 36.8283 	 12.1896 	 50.2813 	 
H 	 36.6865 	 12.9772 	 48.7536 	 
H 	 43.2718 	 14.8995 	 51.3272 	 
H 	 36.9944 	 16.72 	 46.1861 	 
*
