! wB97X-D3 SP def2-SVP
%pal
nprocs 16
end

* xyz 0 1
S 	 -109.952 	 41.511 	 134.072 	 
C 	 -109.224 	 41.5024 	 135.636 	 
C 	 -109.511 	 42.6683 	 136.316 	 
C 	 -110.149 	 43.6426 	 135.514 	 
C 	 -110.321 	 43.2063 	 134.226 	 
H 	 -110.281 	 44.6816 	 135.716 	 
C 	 -109.046 	 42.9909 	 137.715 	 
H 	 -109.337 	 42.0591 	 138.232 	 
H 	 -109.608 	 43.7826 	 138.215 	 
C 	 -107.641 	 43.2878 	 137.963 	 
H 	 -107.422 	 43.3115 	 139.008 	 
H 	 -107.097 	 42.5148 	 137.445 	 
C 	 -107.198 	 44.6654 	 137.401 	 
H 	 -106.128 	 44.872 	 137.491 	 
H 	 -107.575 	 44.6827 	 136.384 	 
H 	 -107.781 	 45.3782 	 138.013 	 
S 	 -109.656 	 44.2544 	 131.804 	 
C 	 -110.626 	 45.6491 	 131.287 	 
C 	 -111.79 	 45.8201 	 132.024 	 
C 	 -111.866 	 44.9181 	 133.081 	 
C 	 -110.762 	 44.072 	 133.16 	 
H 	 -112.577 	 46.56 	 131.775 	 
C 	 -112.966 	 44.926 	 134.087 	 
H 	 -113.029 	 45.8989 	 134.567 	 
H 	 -112.838 	 44.3858 	 135.021 	 
C 	 -114.366 	 44.6674 	 133.601 	 
H 	 -114.392 	 43.6925 	 133.03 	 
H 	 -114.648 	 45.4264 	 132.861 	 
C 	 -115.474 	 44.6699 	 134.6 	 
H 	 -116.365 	 44.4007 	 134.178 	 
H 	 -115.555 	 45.6796 	 135.008 	 
H 	 -115.298 	 44.0308 	 135.482 	 
H 	 -108.672 	 40.7343 	 136.172 	 
H 	 -110.212 	 46.3348 	 130.621 	 
*
