! wB97X-D3 SP def2-SVP
%pal
nprocs 16
end

* xyz 0 1
S 	 6.1058 	 19.2811 	 52.0686 	 
C 	 5.087 	 18.1998 	 53.0384 	 
C 	 4.54015 	 17.1908 	 52.246 	 
C 	 4.9169 	 17.3483 	 50.871 	 
C 	 5.85725 	 18.3507 	 50.6133 	 
H 	 4.6137 	 16.816 	 49.9546 	 
C 	 3.644 	 16.133 	 52.808 	 
H 	 4.10161 	 15.747 	 53.6805 	 
H 	 3.66789 	 15.3488 	 52.1215 	 
C 	 2.11826 	 16.6046 	 52.8665 	 
H 	 2.14581 	 17.5704 	 53.2924 	 
H 	 1.77536 	 16.7276 	 51.82 	 
C 	 1.16849 	 15.6926 	 53.678 	 
H 	 0.217022 	 16.1144 	 53.7634 	 
H 	 1.11371 	 14.7157 	 53.1198 	 
H 	 1.62259 	 15.5655 	 54.6606 	 
S 	 8.13842 	 18.8981 	 49.1511 	 
C 	 7.97063 	 19.3032 	 47.4991 	 
C 	 6.6474 	 19.2509 	 47.078 	 
C 	 5.71472 	 19.0233 	 48.143 	 
C 	 6.34632 	 18.708 	 49.3108 	 
H 	 6.40679 	 19.475 	 46.0344 	 
C 	 4.19591 	 18.943 	 47.9395 	 
H 	 3.86237 	 18.2259 	 48.6189 	 
H 	 4.16897 	 18.4763 	 46.9715 	 
C 	 3.34132 	 20.2584 	 47.9368 	 
H 	 2.37535 	 20.0293 	 47.4901 	 
H 	 3.97999 	 20.8762 	 47.3116 	 
C 	 3.20154 	 20.716 	 49.4607 	 
H 	 2.71282 	 19.8837 	 50.067 	 
H 	 2.51675 	 21.5318 	 49.4347 	 
H 	 4.12348 	 21.0796 	 49.9909 	 
H 	 4.92384 	 18.4014 	 54.0595 	 
H 	 8.82248 	 19.3786 	 46.8541 	 
*
