! wB97X-D3 SP def2-SVP
%pal
nprocs 16
end

* xyz 0 1
S 	 -43.9152 	 38.4725 	 79.9759 	 
C 	 -42.6277 	 39.5391 	 79.8247 	 
C 	 -41.4259 	 38.9042 	 80.2674 	 
C 	 -41.5488 	 37.5565 	 80.6162 	 
C 	 -42.8368 	 37.1875 	 80.4306 	 
H 	 -40.8354 	 36.8509 	 80.9337 	 
C 	 -40.089 	 39.5089 	 80.2789 	 
H 	 -39.3204 	 38.9454 	 79.7932 	 
H 	 -39.7839 	 39.3942 	 81.2699 	 
C 	 -39.7952 	 40.8943 	 79.7602 	 
H 	 -39.9967 	 40.8275 	 78.6927 	 
H 	 -40.4309 	 41.5384 	 80.4364 	 
C 	 -38.3439 	 41.3417 	 80.0897 	 
H 	 -37.4913 	 40.7451 	 79.7602 	 
H 	 -38.1043 	 42.3338 	 79.7931 	 
H 	 -38.2466 	 41.4226 	 81.1707 	 
S 	 -44.5024 	 35.3311 	 79.189 	 
C 	 -44.4702 	 33.7051 	 79.8086 	 
C 	 -43.5996 	 33.5017 	 80.824 	 
C 	 -42.977 	 34.7308 	 81.2945 	 
C 	 -43.3481 	 35.8134 	 80.4894 	 
H 	 -43.5036 	 32.5234 	 81.2842 	 
C 	 -41.9724 	 34.6592 	 82.3488 	 
H 	 -42.3159 	 34.0104 	 83.186 	 
H 	 -41.8179 	 35.5975 	 82.8259 	 
C 	 -40.5093 	 34.1826 	 82.0661 	 
H 	 -40.1678 	 34.5589 	 81.1341 	 
H 	 -40.5377 	 33.0478 	 82.0622 	 
C 	 -39.4814 	 34.694 	 83.1439 	 
H 	 -39.4148 	 34.0624 	 84.0534 	 
H 	 -39.6479 	 35.8122 	 83.3545 	 
H 	 -38.4896 	 34.7595 	 82.6608 	 
H 	 -42.6528 	 40.5643 	 79.509 	 
H 	 -44.9937 	 32.9023 	 79.3246 	 
*
