! wB97X-D3 SP def2-SVP
%pal
nprocs 16
end

* xyz 0 1
S 	 -27.6391 	 55.6296 	 111.945 	 
C 	 -28.5902 	 54.2143 	 112.36 	 
C 	 -29.7161 	 54.4397 	 113.215 	 
C 	 -29.8036 	 55.8335 	 113.55 	 
C 	 -28.8433 	 56.6065 	 112.933 	 
H 	 -30.5459 	 56.2573 	 114.135 	 
C 	 -30.841 	 53.4673 	 113.628 	 
H 	 -30.4895 	 52.4404 	 113.441 	 
H 	 -31.6831 	 53.6442 	 112.877 	 
C 	 -31.3648 	 53.2754 	 115.043 	 
H 	 -32.0381 	 52.4161 	 115.222 	 
H 	 -30.5354 	 53.3302 	 115.742 	 
C 	 -32.3784 	 54.3545 	 115.288 	 
H 	 -33.0675 	 54.4221 	 114.394 	 
H 	 -33.0425 	 54.1387 	 116.151 	 
H 	 -31.8719 	 55.2559 	 115.437 	 
S 	 -28.4318 	 58.845 	 111.29 	 
C 	 -28.4474 	 60.4026 	 111.994 	 
C 	 -28.7668 	 60.3308 	 113.367 	 
C 	 -28.9103 	 59.0002 	 113.867 	 
C 	 -28.7361 	 58.0786 	 112.861 	 
H 	 -28.9399 	 61.2264 	 113.809 	 
C 	 -29.1941 	 58.7868 	 115.334 	 
H 	 -30.1267 	 58.1181 	 115.336 	 
H 	 -29.5652 	 59.7473 	 115.525 	 
C 	 -28.0402 	 58.4346 	 116.3 	 
H 	 -28.385 	 58.265 	 117.311 	 
H 	 -27.3311 	 59.3065 	 116.418 	 
C 	 -27.4001 	 57.135 	 115.933 	 
H 	 -28.1279 	 56.3677 	 116.246 	 
H 	 -26.5054 	 57.0317 	 116.548 	 
H 	 -27.0724 	 57.1837 	 114.886 	 
H 	 -28.4231 	 53.2288 	 111.935 	 
H 	 -28.2463 	 61.3381 	 111.561 	 
*
