! wB97X-D3 SP def2-SVP
%pal
nprocs 16
end

* xyz 0 1
S 	 -81.3296 	 45.2161 	 134.767 	 
C 	 -81.3967 	 44.0547 	 136.048 	 
C 	 -81.8324 	 44.5075 	 137.269 	 
C 	 -82.3957 	 45.8384 	 137.089 	 
C 	 -82.1579 	 46.3737 	 135.814 	 
H 	 -82.9291 	 46.3886 	 137.879 	 
C 	 -81.7319 	 43.5556 	 138.481 	 
H 	 -80.7038 	 43.2233 	 138.766 	 
H 	 -82.2881 	 42.6477 	 138.226 	 
C 	 -82.3623 	 44.039 	 139.729 	 
H 	 -83.4042 	 44.367 	 139.513 	 
H 	 -82.5036 	 43.2546 	 140.498 	 
C 	 -81.5625 	 45.1061 	 140.443 	 
H 	 -81.4617 	 46.0822 	 139.979 	 
H 	 -81.985 	 45.2961 	 141.402 	 
H 	 -80.553 	 44.7431 	 140.473 	 
S 	 -83.3312 	 47.8335 	 133.743 	 
C 	 -83.3374 	 49.6227 	 133.81 	 
C 	 -82.9234 	 50.0621 	 135.03 	 
C 	 -82.4058 	 48.9751 	 135.786 	 
C 	 -82.6095 	 47.6843 	 135.298 	 
H 	 -82.908 	 51.1322 	 135.203 	 
C 	 -81.5953 	 49.3055 	 137.024 	 
H 	 -81.9698 	 48.6733 	 137.856 	 
H 	 -81.8835 	 50.2296 	 137.434 	 
C 	 -80.0888 	 49.1347 	 136.874 	 
H 	 -79.9875 	 48.1607 	 136.459 	 
H 	 -79.5503 	 49.1452 	 137.827 	 
C 	 -79.4749 	 50.0886 	 135.83 	 
H 	 -79.3045 	 51.0062 	 136.386 	 
H 	 -80.1982 	 50.4605 	 135.08 	 
H 	 -78.5299 	 49.7754 	 135.487 	 
H 	 -80.8515 	 43.0598 	 135.892 	 
H 	 -83.7307 	 50.2871 	 133.098 	 
*
