! wB97X-D3 SP def2-SVP
%pal
nprocs 16
end

* xyz 0 1
S 	 -9.94869 	 -7.47247 	 75.9756 	 
C 	 -9.52887 	 -9.19588 	 76.2888 	 
C 	 -10.4477 	 -10.0384 	 75.651 	 
C 	 -11.4239 	 -9.31834 	 74.9057 	 
C 	 -11.2445 	 -7.92372 	 74.9032 	 
H 	 -12.286 	 -9.74437 	 74.4441 	 
C 	 -10.5423 	 -11.5082 	 75.8017 	 
H 	 -11.4711 	 -11.8629 	 75.3799 	 
H 	 -10.4841 	 -11.9127 	 76.8905 	 
C 	 -9.44215 	 -12.2092 	 75.0376 	 
H 	 -9.33696 	 -11.8998 	 73.9424 	 
H 	 -8.48587 	 -11.775 	 75.4106 	 
C 	 -9.11456 	 -13.6982 	 75.2121 	 
H 	 -9.07162 	 -13.7852 	 76.3166 	 
H 	 -9.85046 	 -14.3939 	 74.8624 	 
H 	 -8.08866 	 -13.952 	 74.9022 	 
S 	 -13.1688 	 -5.91806 	 75.1488 	 
C 	 -13.6563 	 -5.01156 	 73.7374 	 
C 	 -13.2909 	 -5.68043 	 72.5581 	 
C 	 -12.5136 	 -6.88978 	 72.8705 	 
C 	 -12.1351 	 -6.98326 	 74.2042 	 
H 	 -13.6987 	 -5.36976 	 71.6419 	 
C 	 -12.0659 	 -7.82096 	 71.7586 	 
H 	 -12.8366 	 -7.96741 	 70.9658 	 
H 	 -11.8707 	 -8.81238 	 72.1808 	 
C 	 -10.8572 	 -7.39699 	 70.9423 	 
H 	 -10.8073 	 -6.33407 	 70.7012 	 
H 	 -11.0584 	 -7.75344 	 69.8994 	 
C 	 -9.60743 	 -7.93512 	 71.5068 	 
H 	 -9.58315 	 -8.98969 	 71.5931 	 
H 	 -9.45709 	 -7.53434 	 72.4752 	 
H 	 -8.70931 	 -7.65477 	 70.8997 	 
H 	 -8.71172 	 -9.41137 	 76.9007 	 
H 	 -14.2364 	 -4.11232 	 73.67 	 
*
