! wB97X-D3 SP def2-SVP
%pal
nprocs 16
end

* xyz 0 1
S 	 69.8734 	 22.3141 	 78.52 	 
C 	 70.9911 	 21.0726 	 77.9686 	 
C 	 71.2372 	 21.1544 	 76.623 	 
C 	 70.5776 	 22.3016 	 76.1065 	 
C 	 69.9607 	 23.1611 	 76.9836 	 
H 	 70.5569 	 22.5175 	 75.0412 	 
C 	 72.1005 	 20.1757 	 75.8082 	 
H 	 71.8943 	 20.3513 	 74.808 	 
H 	 71.6738 	 19.1486 	 75.8538 	 
C 	 73.6342 	 20.217 	 76.0838 	 
H 	 73.741 	 19.5638 	 76.9003 	 
H 	 74.2044 	 19.6631 	 75.2782 	 
C 	 74.337 	 21.5678 	 76.1761 	 
H 	 75.277 	 21.3538 	 76.613 	 
H 	 74.3521 	 22.0527 	 75.2497 	 
H 	 73.7153 	 22.2281 	 76.8857 	 
S 	 67.4337 	 24.15 	 76.795 	 
C 	 67.2021 	 25.6975 	 76.0623 	 
C 	 68.3702 	 26.3221 	 75.6988 	 
C 	 69.4929 	 25.476 	 76.0621 	 
C 	 69.126 	 24.3031 	 76.6616 	 
H 	 68.4748 	 27.3235 	 75.2594 	 
C 	 70.9533 	 25.9132 	 75.833 	 
H 	 70.955 	 26.5639 	 74.8297 	 
H 	 71.5001 	 24.996 	 75.6252 	 
C 	 71.5777 	 26.6162 	 77.0632 	 
H 	 71.5618 	 25.9228 	 77.8684 	 
H 	 70.8443 	 27.4284 	 77.3018 	 
C 	 73.0484 	 27.0042 	 76.6884 	 
H 	 73.3317 	 27.8056 	 77.418 	 
H 	 73.073 	 27.5068 	 75.6863 	 
H 	 73.7638 	 26.2663 	 76.7263 	 
H 	 71.4174 	 20.2832 	 78.6143 	 
H 	 66.2506 	 26.1236 	 76.0164 	 
*
