! wB97X-D3 SP def2-SVP
%pal
nprocs 16
end

* xyz 0 1
S 	 6.97185 	 -10.5665 	 95.2535 	 
C 	 8.23795 	 -9.45828 	 95.9331 	 
C 	 9.19852 	 -9.255 	 94.9782 	 
C 	 8.81867 	 -9.72813 	 93.6885 	 
C 	 7.61128 	 -10.4241 	 93.676 	 
H 	 9.41549 	 -9.46695 	 92.8125 	 
C 	 10.4584 	 -8.41357 	 95.2007 	 
H 	 11.351 	 -9.07141 	 95.0288 	 
H 	 10.627 	 -8.11315 	 96.2836 	 
C 	 10.3946 	 -7.15901 	 94.3359 	 
H 	 11.3257 	 -6.59546 	 94.4717 	 
H 	 10.3848 	 -7.50249 	 93.3003 	 
C 	 9.29314 	 -6.17099 	 94.732 	 
H 	 8.3908 	 -6.32719 	 94.1263 	 
H 	 9.10932 	 -6.28275 	 95.8431 	 
H 	 9.59225 	 -5.13073 	 94.61 	 
S 	 7.06083 	 -12.7054 	 92.2696 	 
C 	 5.77264 	 -12.5737 	 91.0733 	 
C 	 5.38849 	 -11.2885 	 90.8714 	 
C 	 6.00526 	 -10.3759 	 91.7295 	 
C 	 6.90652 	 -11.0086 	 92.5676 	 
H 	 4.71769 	 -11.035 	 90.0549 	 
C 	 5.65729 	 -8.9373 	 91.7442 	 
H 	 5.52288 	 -8.70752 	 90.6828 	 
H 	 6.47476 	 -8.25933 	 92.0877 	 
C 	 4.33 	 -8.57231 	 92.4658 	 
H 	 3.54102 	 -9.2427 	 92.2061 	 
H 	 4.06647 	 -7.48821 	 92.3899 	 
C 	 4.52037 	 -8.665 	 93.987 	 
H 	 4.6689 	 -9.70144 	 94.3454 	 
H 	 3.68116 	 -8.29347 	 94.5754 	 
H 	 5.32576 	 -8.14161 	 94.3784 	 
H 	 8.37722 	 -9.15209 	 96.9834 	 
H 	 5.45135 	 -13.4008 	 90.532 	 
*
