! wB97X-D3 SP def2-SVP
%pal
nprocs 16
end

* xyz 0 1
S 	 16.0628 	 11.7329 	 89.7279 	 
C 	 17.6108 	 11.5938 	 88.8559 	 
C 	 17.4103 	 11.7631 	 87.5129 	 
C 	 16.0497 	 11.7979 	 87.1879 	 
C 	 15.1532 	 11.858 	 88.294 	 
H 	 15.6742 	 11.9588 	 86.1701 	 
C 	 18.4719 	 11.8077 	 86.4455 	 
H 	 18.1688 	 11.3971 	 85.4703 	 
H 	 19.2366 	 11.1686 	 86.7332 	 
C 	 18.9902 	 13.1878 	 86.2166 	 
H 	 19.0642 	 13.8068 	 87.104 	 
H 	 20.0004 	 13.1314 	 85.7894 	 
C 	 18.0625 	 13.8769 	 85.1745 	 
H 	 18.4174 	 14.942 	 85.1633 	 
H 	 18.0866 	 13.3024 	 84.1717 	 
H 	 17.0065 	 13.8969 	 85.3033 	 
S 	 13.3248 	 13.8293 	 88.2411 	 
C 	 11.6589 	 13.5073 	 88.2757 	 
C 	 11.3932 	 12.1821 	 88.437 	 
C 	 12.5933 	 11.3381 	 88.3519 	 
C 	 13.7081 	 12.126 	 88.3488 	 
H 	 10.368 	 11.9499 	 88.45 	 
C 	 12.5777 	 9.86535 	 88.3758 	 
H 	 13.309 	 9.62486 	 87.616 	 
H 	 11.5911 	 9.4627 	 88.0372 	 
C 	 12.8784 	 9.13826 	 89.7219 	 
H 	 13.5995 	 9.72202 	 90.2738 	 
H 	 13.2792 	 8.14348 	 89.5833 	 
C 	 11.619 	 8.78862 	 90.596 	 
H 	 10.8294 	 8.21723 	 90.0434 	 
H 	 11.2606 	 9.66428 	 91.1125 	 
H 	 11.9504 	 8.13295 	 91.3707 	 
H 	 18.6085 	 11.4247 	 89.312 	 
H 	 10.9554 	 14.3166 	 88.3659 	 
*
