! wB97X-D3 SP def2-SVP
%pal
nprocs 16
end

* xyz 0 1
S 	 -92.2844 	 55.32 	 126.954 	 
C 	 -91.1416 	 54.6612 	 128.083 	 
C 	 -89.8146 	 54.9342 	 127.676 	 
C 	 -89.7959 	 55.8137 	 126.586 	 
C 	 -91.071 	 56.179 	 126.034 	 
H 	 -88.8366 	 56.0876 	 126.077 	 
C 	 -88.6401 	 54.6664 	 128.528 	 
H 	 -88.6729 	 55.3647 	 129.374 	 
H 	 -87.785 	 54.9837 	 127.914 	 
C 	 -88.5197 	 53.2864 	 129.166 	 
H 	 -89.4611 	 53.1866 	 129.722 	 
H 	 -88.4868 	 52.5257 	 128.37 	 
C 	 -87.3263 	 53.2239 	 130.124 	 
H 	 -87.3504 	 54.1201 	 130.834 	 
H 	 -87.2985 	 52.2706 	 130.678 	 
H 	 -86.3749 	 53.4442 	 129.602 	 
S 	 -90.5678 	 58.3653 	 124.41 	 
C 	 -91.0681 	 58.1983 	 122.72 	 
C 	 -91.892 	 57.0552 	 122.507 	 
C 	 -91.9702 	 56.2524 	 123.669 	 
C 	 -91.313 	 56.8212 	 124.752 	 
H 	 -92.4041 	 56.7647 	 121.577 	 
C 	 -92.6415 	 54.9006 	 123.512 	 
H 	 -93.3328 	 54.8609 	 122.706 	 
H 	 -93.1856 	 54.7066 	 124.442 	 
C 	 -91.6023 	 53.7259 	 123.397 	 
H 	 -90.6884 	 53.9546 	 123.933 	 
H 	 -91.2609 	 53.634 	 122.401 	 
C 	 -92.0994 	 52.3719 	 123.915 	 
H 	 -92.6079 	 52.426 	 124.868 	 
H 	 -91.2867 	 51.7575 	 124.086 	 
H 	 -92.8144 	 51.8892 	 123.28 	 
H 	 -91.4478 	 53.9562 	 128.899 	 
H 	 -90.8131 	 58.9081 	 121.937 	 
*
