! wB97X-D3 SP def2-SVP
%pal
nprocs 16
end

* xyz 0 1
S 	 -32.6824 	 31.9569 	 40.0722 	 
C 	 -31.2104 	 32.8924 	 40.1913 	 
C 	 -30.5438 	 32.6715 	 41.4041 	 
C 	 -31.2657 	 31.8556 	 42.2828 	 
C 	 -32.5071 	 31.4718 	 41.7531 	 
H 	 -31.1291 	 31.5758 	 43.2775 	 
C 	 -29.1397 	 33.2079 	 41.8115 	 
H 	 -29.0706 	 33.2792 	 42.9151 	 
H 	 -29.1509 	 34.1383 	 41.3576 	 
C 	 -27.8745 	 32.4784 	 41.2119 	 
H 	 -27.8346 	 32.4608 	 40.18 	 
H 	 -26.9941 	 33.0608 	 41.4995 	 
C 	 -27.7766 	 31.1444 	 41.8019 	 
H 	 -28.5039 	 30.4055 	 41.3954 	 
H 	 -26.962 	 30.4793 	 41.6897 	 
H 	 -28.1137 	 31.1412 	 42.9121 	 
S 	 -33.9583 	 29.1101 	 41.5165 	 
C 	 -35.0393 	 28.6712 	 42.837 	 
C 	 -34.9275 	 29.4455 	 43.9221 	 
C 	 -34.0531 	 30.5992 	 43.6724 	 
C 	 -33.4893 	 30.5302 	 42.39 	 
H 	 -35.491 	 29.2785 	 44.8272 	 
C 	 -33.868 	 31.7421 	 44.7098 	 
H 	 -34.8835 	 32.128 	 44.8919 	 
H 	 -33.387 	 32.429 	 44.0148 	 
C 	 -33.3016 	 31.5625 	 46.1208 	 
H 	 -33.7821 	 30.6822 	 46.5456 	 
H 	 -33.5498 	 32.4083 	 46.7809 	 
C 	 -31.8055 	 31.3327 	 46.2074 	 
H 	 -31.5124 	 30.3879 	 45.6951 	 
H 	 -31.5005 	 31.2644 	 47.2289 	 
H 	 -31.1911 	 32.0486 	 45.7545 	 
H 	 -30.7152 	 33.324 	 39.4104 	 
H 	 -35.6631 	 27.7796 	 42.6653 	 
*
