! wB97X-D3 SP def2-SVP
%pal
nprocs 16
end

* xyz 0 1
S 	 -1.29405 	 -10.345 	 70.4843 	 
C 	 -1.66088 	 -11.5797 	 69.3045 	 
C 	 -2.6925 	 -11.2207 	 68.4992 	 
C 	 -3.20691 	 -9.87932 	 68.7282 	 
C 	 -2.50542 	 -9.29191 	 69.7224 	 
H 	 -3.95933 	 -9.29878 	 68.2419 	 
C 	 -3.15634 	 -12.1759 	 67.4259 	 
H 	 -2.27639 	 -12.7952 	 67.2578 	 
H 	 -3.25023 	 -11.6453 	 66.4947 	 
C 	 -4.44843 	 -12.9613 	 67.8575 	 
H 	 -4.09992 	 -13.5184 	 68.7187 	 
H 	 -5.28504 	 -12.3365 	 68.0883 	 
C 	 -4.90032 	 -13.9551 	 66.6882 	 
H 	 -5.33935 	 -13.4115 	 65.83 	 
H 	 -4.11065 	 -14.5515 	 66.2742 	 
H 	 -5.76804 	 -14.4773 	 67.1338 	 
S 	 -2.76276 	 -7.51911 	 71.8016 	 
C 	 -3.12893 	 -5.89776 	 71.3958 	 
C 	 -3.01202 	 -5.57714 	 70.0506 	 
C 	 -2.82517 	 -6.77085 	 69.2788 	 
C 	 -2.68282 	 -7.92023 	 70.0899 	 
H 	 -3.0902 	 -4.55147 	 69.6178 	 
C 	 -2.59295 	 -6.78375 	 67.8155 	 
H 	 -2.67634 	 -5.76308 	 67.49 	 
H 	 -3.37126 	 -7.3442 	 67.2373 	 
C 	 -1.17212 	 -7.24848 	 67.367 	 
H 	 -0.963669 	 -8.31361 	 67.6112 	 
H 	 -0.381628 	 -6.71477 	 67.9652 	 
C 	 -0.827908 	 -7.15931 	 65.8532 	 
H 	 -1.36213 	 -6.34993 	 65.4058 	 
H 	 -1.082 	 -8.07586 	 65.3311 	 
H 	 0.297587 	 -7.02699 	 65.8022 	 
H 	 -1.34372 	 -12.5687 	 69.3988 	 
H 	 -3.3431 	 -5.06735 	 72.0807 	 
*
