! wB97X-D3 SP def2-SVP
%pal
nprocs 16
end

* xyz 0 1
S 	 -32.4997 	 63.9149 	 107.75 	 
C 	 -31.3782 	 65.0667 	 107.032 	 
C 	 -30.858 	 64.5834 	 105.905 	 
C 	 -31.5635 	 63.3806 	 105.516 	 
C 	 -32.4212 	 62.7908 	 106.464 	 
H 	 -31.3478 	 62.8452 	 104.552 	 
C 	 -30.0205 	 65.3853 	 104.974 	 
H 	 -29.8456 	 66.4328 	 105.441 	 
H 	 -30.6223 	 65.6242 	 104.021 	 
C 	 -28.6788 	 64.787 	 104.537 	 
H 	 -28.1321 	 64.7293 	 105.46 	 
H 	 -28.8284 	 63.8577 	 104.088 	 
C 	 -27.8642 	 65.6796 	 103.534 	 
H 	 -27.8214 	 66.6653 	 103.986 	 
H 	 -26.8994 	 65.1949 	 103.534 	 
H 	 -28.2865 	 65.7314 	 102.491 	 
S 	 -34.617 	 61.4303 	 107.529 	 
C 	 -34.8475 	 59.7801 	 106.917 	 
C 	 -34.1804 	 59.4779 	 105.749 	 
C 	 -33.1942 	 60.5316 	 105.533 	 
C 	 -33.321 	 61.6296 	 106.371 	 
H 	 -34.2589 	 58.5139 	 105.251 	 
C 	 -32.1554 	 60.2288 	 104.446 	 
H 	 -31.2415 	 60.4849 	 105.003 	 
H 	 -32.2497 	 60.9464 	 103.619 	 
C 	 -32.13 	 58.8173 	 103.8 	 
H 	 -33.0323 	 58.6645 	 103.215 	 
H 	 -32.0201 	 58.0774 	 104.612 	 
C 	 -31.0133 	 58.499 	 102.871 	 
H 	 -31.1439 	 57.5018 	 102.426 	 
H 	 -29.962 	 58.3613 	 103.332 	 
H 	 -31.0144 	 59.2351 	 102.083 	 
H 	 -31.0902 	 66.0407 	 107.428 	 
H 	 -35.6978 	 59.1762 	 107.217 	 
*
