! wB97X-D3 SP def2-SVP
%pal
nprocs 16
end

* xyz 0 1
S 	 43.7606 	 17.5526 	 86.5751 	 
C 	 42.4171 	 18.6911 	 86.7036 	 
C 	 41.776 	 18.8011 	 85.457 	 
C 	 42.2693 	 17.882 	 84.4916 	 
C 	 43.2724 	 17.0687 	 84.9876 	 
H 	 41.9687 	 17.8291 	 83.476 	 
C 	 40.6361 	 19.7665 	 85.0873 	 
H 	 40.4775 	 19.7612 	 84.0081 	 
H 	 40.8631 	 20.7861 	 85.3317 	 
C 	 39.2105 	 19.4179 	 85.6283 	 
H 	 39.2813 	 18.3384 	 85.8559 	 
H 	 39.0099 	 19.9202 	 86.5669 	 
C 	 37.963 	 19.4575 	 84.7199 	 
H 	 37.6871 	 20.5269 	 84.5768 	 
H 	 38.1702 	 19.0077 	 83.7758 	 
H 	 37.0856 	 18.9197 	 85.0883 	 
S 	 45.7737 	 16.4016 	 84.1399 	 
C 	 45.9969 	 15.179 	 82.8808 	 
C 	 44.7925 	 14.6403 	 82.506 	 
C 	 43.7371 	 15.2568 	 83.2082 	 
C 	 44.0574 	 16.2043 	 84.1571 	 
H 	 44.8636 	 13.9372 	 81.6598 	 
C 	 42.3539 	 14.8265 	 82.7878 	 
H 	 42.4341 	 14.4159 	 81.7233 	 
H 	 41.8159 	 15.8242 	 82.6484 	 
C 	 41.7005 	 14.0434 	 83.9289 	 
H 	 41.7303 	 14.5389 	 84.8644 	 
H 	 42.3329 	 13.203 	 84.1162 	 
C 	 40.2418 	 13.749 	 83.4784 	 
H 	 40.1382 	 13.202 	 82.5187 	 
H 	 39.7032 	 14.7075 	 83.2346 	 
H 	 39.8405 	 13.1227 	 84.2972 	 
H 	 42.247 	 19.4254 	 87.4835 	 
H 	 46.9997 	 14.9701 	 82.629 	 
*
