! wB97X-D3 SP def2-SVP
%pal
nprocs 16
end

* xyz 0 1
S 	 0.344364 	 -14.144 	 76.607 	 
C 	 -0.522802 	 -14.0987 	 78.1344 	 
C 	 0.34742 	 -14.207 	 79.1954 	 
C 	 1.65227 	 -14.5417 	 78.7248 	 
C 	 1.81094 	 -14.6197 	 77.3804 	 
H 	 2.47516 	 -14.5456 	 79.4477 	 
C 	 0.085687 	 -13.8527 	 80.6811 	 
H 	 0.869309 	 -13.0652 	 80.8939 	 
H 	 0.319293 	 -14.699 	 81.2939 	 
C 	 -1.33198 	 -13.3778 	 81.0666 	 
H 	 -1.53521 	 -12.4987 	 80.4556 	 
H 	 -2.09984 	 -14.0392 	 80.7955 	 
C 	 -1.4317 	 -12.9707 	 82.5757 	 
H 	 -0.473176 	 -12.4989 	 82.9177 	 
H 	 -2.25167 	 -12.3427 	 82.7799 	 
H 	 -1.384 	 -13.9412 	 83.0911 	 
S 	 3.00435 	 -13.6037 	 75.1761 	 
C 	 4.65188 	 -14.0418 	 74.753 	 
C 	 5.17664 	 -14.9813 	 75.5863 	 
C 	 4.20397 	 -15.3235 	 76.606 	 
C 	 2.98726 	 -14.642 	 76.5636 	 
H 	 6.21186 	 -15.2842 	 75.4884 	 
C 	 4.48664 	 -16.3681 	 77.6368 	 
H 	 4.96111 	 -17.2282 	 77.1943 	 
H 	 3.53143 	 -16.8463 	 77.9219 	 
C 	 5.32771 	 -15.8518 	 78.9398 	 
H 	 4.76473 	 -15.0709 	 79.3763 	 
H 	 6.27072 	 -15.5533 	 78.5304 	 
C 	 5.58292 	 -16.9819 	 79.9598 	 
H 	 6.635 	 -16.8129 	 80.3276 	 
H 	 5.54637 	 -17.9216 	 79.5925 	 
H 	 4.91503 	 -16.9499 	 80.7476 	 
H 	 -1.52631 	 -13.6457 	 78.2408 	 
H 	 5.14911 	 -13.8108 	 73.9092 	 
*
