! wB97X-D3 SP def2-SVP
%pal
nprocs 16
end

* xyz 0 1
S 	 -10.5778 	 60.1201 	 60.4017 	 
C 	 -9.15725 	 59.2154 	 59.864 	 
C 	 -9.50471 	 57.8832 	 59.5998 	 
C 	 -10.8202 	 57.5849 	 59.9601 	 
C 	 -11.5643 	 58.691 	 60.3802 	 
H 	 -11.2138 	 56.5251 	 59.9077 	 
C 	 -8.55562 	 56.8936 	 59.0203 	 
H 	 -7.75135 	 57.3654 	 58.3774 	 
H 	 -9.07262 	 56.1397 	 58.4511 	 
C 	 -7.781 	 56.1421 	 60.0762 	 
H 	 -7.07343 	 55.4455 	 59.5421 	 
H 	 -7.19482 	 56.8937 	 60.6432 	 
C 	 -8.49931 	 55.3799 	 61.0748 	 
H 	 -9.27472 	 55.926 	 61.5492 	 
H 	 -9.08355 	 54.6145 	 60.6178 	 
H 	 -7.83326 	 54.9452 	 61.8627 	 
S 	 -13.0873 	 58.9364 	 62.6729 	 
C 	 -14.5819 	 58.0033 	 62.7414 	 
C 	 -14.8938 	 57.4433 	 61.5389 	 
C 	 -13.9332 	 57.6858 	 60.507 	 
C 	 -12.9078 	 58.5506 	 60.97 	 
H 	 -15.7215 	 56.803 	 61.5736 	 
C 	 -14.0075 	 56.9519 	 59.1842 	 
H 	 -14.5155 	 56.026 	 59.1958 	 
H 	 -12.9973 	 56.6076 	 58.9137 	 
C 	 -14.5826 	 57.8169 	 58.0667 	 
H 	 -15.3391 	 58.3741 	 58.5737 	 
H 	 -14.9603 	 57.1491 	 57.3426 	 
C 	 -13.5684 	 58.8637 	 57.5235 	 
H 	 -14.0406 	 59.598 	 56.9059 	 
H 	 -12.8308 	 58.3424 	 56.8701 	 
H 	 -13.0261 	 59.4764 	 58.2809 	 
H 	 -8.20502 	 59.7258 	 59.6496 	 
H 	 -15.1619 	 57.9564 	 63.692 	 
*
