! wB97X-D3 SP def2-SVP
%pal
nprocs 16
end

* xyz 0 1
S 	 -19.9461 	 0.339195 	 78.9124 	 
C 	 -19.2676 	 -0.103637 	 77.408 	 
C 	 -19.6411 	 0.725578 	 76.3604 	 
C 	 -20.7206 	 1.64665 	 76.8067 	 
C 	 -21.0946 	 1.37287 	 78.1172 	 
H 	 -21.2433 	 2.35417 	 76.1087 	 
C 	 -19.1747 	 0.694518 	 74.933 	 
H 	 -20.1276 	 0.882139 	 74.3583 	 
H 	 -18.7425 	 -0.313764 	 74.6749 	 
C 	 -18.3052 	 1.80777 	 74.5045 	 
H 	 -17.4229 	 1.45647 	 74.9381 	 
H 	 -18.2796 	 1.65568 	 73.4013 	 
C 	 -18.618 	 3.28785 	 75.0372 	 
H 	 -19.6004 	 3.68116 	 74.6447 	 
H 	 -18.5314 	 3.46848 	 76.0585 	 
H 	 -17.7788 	 3.77434 	 74.5309 	 
S 	 -21.5504 	 3.15366 	 80.2002 	 
C 	 -23.1551 	 3.69741 	 80.514 	 
C 	 -24.016 	 3.23954 	 79.5363 	 
C 	 -23.4344 	 2.31966 	 78.633 	 
C 	 -22.0945 	 2.11711 	 78.8408 	 
H 	 -25.0975 	 3.60736 	 79.4459 	 
C 	 -24.2347 	 1.67462 	 77.4799 	 
H 	 -23.6304 	 1.30549 	 76.6729 	 
H 	 -24.9131 	 2.32273 	 76.9868 	 
C 	 -24.8909 	 0.369173 	 77.9486 	 
H 	 -25.3139 	 0.341088 	 78.9186 	 
H 	 -24.1025 	 -0.440786 	 77.9705 	 
C 	 -25.9588 	 -0.122567 	 77.0467 	 
H 	 -27.0412 	 0.104617 	 77.2858 	 
H 	 -26.097 	 -1.21204 	 77.0514 	 
H 	 -25.8253 	 0.217041 	 75.9722 	 
H 	 -18.5196 	 -0.886647 	 77.2316 	 
H 	 -23.4002 	 4.41283 	 81.3472 	 
*
