! wB97X-D3 SP def2-SVP
%pal
nprocs 16
end

* xyz 0 1
S 	 -69.7804 	 41.2682 	 122.324 	 
C 	 -71.3982 	 40.4944 	 122.572 	 
C 	 -72.4282 	 41.4655 	 122.553 	 
C 	 -71.9161 	 42.8036 	 122.367 	 
C 	 -70.5183 	 42.8757 	 122.247 	 
H 	 -72.4868 	 43.7505 	 122.31 	 
C 	 -73.8958 	 41.1719 	 122.77 	 
H 	 -73.9967 	 41.1957 	 123.882 	 
H 	 -74.2689 	 40.1786 	 122.447 	 
C 	 -74.9028 	 42.2313 	 122.359 	 
H 	 -74.5944 	 43.1631 	 122.933 	 
H 	 -74.7763 	 42.5747 	 121.359 	 
C 	 -76.4176 	 41.746 	 122.502 	 
H 	 -76.7032 	 41.7014 	 123.577 	 
H 	 -77.1414 	 42.4799 	 122.093 	 
H 	 -76.5536 	 40.7656 	 121.914 	 
S 	 -68.5116 	 44.4921 	 123.278 	 
C 	 -67.7125 	 45.6088 	 122.144 	 
C 	 -68.4481 	 45.8188 	 120.992 	 
C 	 -69.5696 	 44.9088 	 120.964 	 
C 	 -69.6703 	 44.0857 	 122.064 	 
H 	 -68.0804 	 46.5694 	 120.271 	 
C 	 -70.4873 	 44.7416 	 119.718 	 
H 	 -71.4561 	 44.8929 	 120.19 	 
H 	 -70.5221 	 43.6217 	 119.497 	 
C 	 -70.0916 	 45.5405 	 118.418 	 
H 	 -68.9804 	 45.3712 	 118.356 	 
H 	 -70.0332 	 46.5924 	 118.695 	 
C 	 -71.0314 	 45.4594 	 117.154 	 
H 	 -71.4845 	 44.4839 	 117.07 	 
H 	 -70.4438 	 45.4877 	 116.27 	 
H 	 -71.7095 	 46.2804 	 117.083 	 
H 	 -71.4977 	 39.4302 	 122.604 	 
H 	 -66.7994 	 46.0966 	 122.332 	 
*
