! wB97X-D3 SP def2-SVP
%pal
nprocs 16
end

* xyz 0 1
S 	 -30.3221 	 58.2562 	 106.138 	 
C 	 -29.9408 	 57.3812 	 107.638 	 
C 	 -30.5562 	 58.0181 	 108.738 	 
C 	 -31.2147 	 59.2706 	 108.455 	 
C 	 -31.0045 	 59.6024 	 107.128 	 
H 	 -31.6575 	 60.0036 	 109.134 	 
C 	 -30.4149 	 57.502 	 110.176 	 
H 	 -29.6638 	 56.7464 	 110.222 	 
H 	 -31.3565 	 57.0146 	 110.38 	 
C 	 -30.1307 	 58.5933 	 111.191 	 
H 	 -30.9474 	 59.2246 	 111.367 	 
H 	 -30.1144 	 58.0285 	 112.13 	 
C 	 -28.798 	 59.4028 	 110.989 	 
H 	 -27.9749 	 58.9394 	 111.619 	 
H 	 -28.6013 	 59.3964 	 109.952 	 
H 	 -28.8613 	 60.4495 	 111.298 	 
S 	 -32.1212 	 60.8623 	 104.981 	 
C 	 -31.9908 	 62.6279 	 104.943 	 
C 	 -31.1995 	 63.1569 	 105.976 	 
C 	 -30.7895 	 62.1677 	 106.883 	 
C 	 -31.2998 	 60.9265 	 106.565 	 
H 	 -31.1273 	 64.2606 	 106.05 	 
C 	 -29.75 	 62.5416 	 107.917 	 
H 	 -30.0215 	 62.0904 	 108.831 	 
H 	 -29.8054 	 63.5156 	 108.368 	 
C 	 -28.3641 	 62.1517 	 107.508 	 
H 	 -28.1407 	 62.6339 	 106.523 	 
H 	 -28.3486 	 61.0371 	 107.294 	 
C 	 -27.1925 	 62.3482 	 108.486 	 
H 	 -26.8426 	 63.3465 	 108.52 	 
H 	 -26.3957 	 61.6981 	 108.137 	 
H 	 -27.623 	 61.9547 	 109.49 	 
H 	 -29.2358 	 56.5579 	 107.792 	 
H 	 -32.3215 	 63.2996 	 104.191 	 
*
