! wB97X-D3 SP def2-SVP
%pal
nprocs 16
end

* xyz 0 1
S 	 58.8032 	 22.0017 	 79.37 	 
C 	 57.8321 	 22.874 	 80.5101 	 
C 	 57.433 	 22.1094 	 81.6257 	 
C 	 57.8779 	 20.7431 	 81.4375 	 
C 	 58.4028 	 20.5293 	 80.221 	 
H 	 57.7687 	 19.9926 	 82.1459 	 
C 	 56.7919 	 22.5961 	 82.9129 	 
H 	 56.7875 	 23.6385 	 82.8175 	 
H 	 57.315 	 22.2074 	 83.7902 	 
C 	 55.3281 	 22.2616 	 83.1221 	 
H 	 54.9066 	 22.7696 	 84.0107 	 
H 	 54.7591 	 22.5892 	 82.3245 	 
C 	 55.1381 	 20.7408 	 83.2229 	 
H 	 54.1675 	 20.4975 	 83.494 	 
H 	 55.3477 	 20.3269 	 82.2343 	 
H 	 55.8255 	 20.2581 	 83.9395 	 
S 	 60.5704 	 18.9443 	 79.6095 	 
C 	 60.3816 	 17.1969 	 79.7429 	 
C 	 59.0488 	 16.8488 	 79.9919 	 
C 	 58.1669 	 17.9935 	 79.9159 	 
C 	 58.8559 	 19.222 	 79.7673 	 
H 	 58.7841 	 15.8276 	 80.1502 	 
C 	 56.7518 	 17.9422 	 80.1209 	 
H 	 56.4572 	 17.327 	 79.3029 	 
H 	 56.4328 	 18.97 	 79.9907 	 
C 	 56.2973 	 17.2893 	 81.4196 	 
H 	 56.8707 	 17.7176 	 82.2621 	 
H 	 56.5726 	 16.2471 	 81.6365 	 
C 	 54.7868 	 17.5126 	 81.6762 	 
H 	 54.4941 	 17.3215 	 82.7535 	 
H 	 54.2418 	 16.9014 	 80.9419 	 
H 	 54.3621 	 18.566 	 81.6094 	 
H 	 57.9029 	 23.9322 	 80.5559 	 
H 	 61.1251 	 16.4406 	 79.5697 	 
*
