! wB97X-D3 SP def2-SVP
%pal
nprocs 16
end

* xyz 0 1
S 	 43.8479 	 5.35686 	 86.7418 	 
C 	 44.3917 	 4.77799 	 88.2941 	 
C 	 43.4452 	 5.15592 	 89.244 	 
C 	 42.3862 	 6.00453 	 88.7666 	 
C 	 42.4219 	 6.21551 	 87.4273 	 
H 	 41.6048 	 6.47076 	 89.2993 	 
C 	 43.5824 	 4.90123 	 90.719 	 
H 	 43.3972 	 5.86451 	 91.1493 	 
H 	 44.6248 	 4.68441 	 90.9439 	 
C 	 42.6518 	 3.90747 	 91.4708 	 
H 	 42.8754 	 3.79102 	 92.5153 	 
H 	 41.648 	 4.38823 	 91.3538 	 
C 	 42.6169 	 2.52683 	 90.8996 	 
H 	 41.6342 	 2.04708 	 91.1044 	 
H 	 42.9415 	 2.42426 	 89.8471 	 
H 	 43.4091 	 1.96566 	 91.4035 	 
S 	 42.0924 	 7.60171 	 85.0451 	 
C 	 40.5458 	 8.37663 	 84.6374 	 
C 	 39.6129 	 7.97698 	 85.5382 	 
C 	 40.1274 	 7.2812 	 86.6471 	 
C 	 41.5158 	 7.00655 	 86.5505 	 
H 	 38.6475 	 8.41733 	 85.5347 	 
C 	 39.2058 	 6.95139 	 87.8415 	 
H 	 38.9992 	 7.88941 	 88.3013 	 
H 	 39.5747 	 6.29965 	 88.6273 	 
C 	 37.9777 	 6.22514 	 87.5506 	 
H 	 37.2308 	 6.96016 	 87.1771 	 
H 	 37.4285 	 6.0477 	 88.4622 	 
C 	 38.1891 	 4.90497 	 86.766 	 
H 	 38.7812 	 4.22673 	 87.3556 	 
H 	 38.7247 	 5.09121 	 85.7935 	 
H 	 37.2782 	 4.43485 	 86.4255 	 
H 	 45.2539 	 4.15243 	 88.4044 	 
H 	 40.2648 	 8.88696 	 83.7309 	 
*
