! wB97X-D3 SP def2-SVP
%pal
nprocs 16
end

* xyz 0 1
S 	 41.0461 	 29.8673 	 52.6829 	 
C 	 41.8522 	 31.0061 	 51.7299 	 
C 	 41.1462 	 32.1927 	 51.6635 	 
C 	 39.8586 	 32.0896 	 52.281 	 
C 	 39.668 	 30.9029 	 52.9279 	 
H 	 39.1331 	 32.8873 	 52.1901 	 
C 	 41.5962 	 33.428 	 50.919 	 
H 	 42.6285 	 33.3519 	 50.6057 	 
H 	 41.4627 	 34.3035 	 51.5483 	 
C 	 40.8616 	 33.6786 	 49.5766 	 
H 	 39.8229 	 33.848 	 49.6343 	 
H 	 41.2028 	 34.6094 	 49.0941 	 
C 	 40.9142 	 32.5458 	 48.4996 	 
H 	 41.8715 	 32.4664 	 48.0309 	 
H 	 40.8278 	 31.593 	 49.0142 	 
H 	 40.2637 	 32.5649 	 47.6496 	 
S 	 38.6558 	 29.8987 	 55.327 	 
C 	 36.9495 	 29.5056 	 55.4671 	 
C 	 36.2636 	 29.9172 	 54.3021 	 
C 	 37.1068 	 30.4384 	 53.3103 	 
C 	 38.4893 	 30.4164 	 53.6343 	 
H 	 35.1779 	 29.8492 	 54.3197 	 
C 	 36.603 	 31.0052 	 51.8951 	 
H 	 37.4701 	 31.0875 	 51.2182 	 
H 	 36.2753 	 31.9585 	 52.1238 	 
C 	 35.3878 	 30.184 	 51.2903 	 
H 	 34.5234 	 30.429 	 51.8696 	 
H 	 35.4036 	 29.0892 	 51.3338 	 
C 	 35.0959 	 30.4655 	 49.823 	 
H 	 35.0554 	 31.5397 	 49.6356 	 
H 	 34.138 	 30.1883 	 49.5028 	 
H 	 35.8436 	 29.9249 	 49.2454 	 
H 	 42.7595 	 30.8084 	 51.1557 	 
H 	 36.463 	 29.2318 	 56.3852 	 
*
