! wB97X-D3 SP def2-SVP
%pal
nprocs 16
end

* xyz 0 1
S 	 -8.35963 	 51.8085 	 43.9851 	 
C 	 -9.95802 	 52.0247 	 44.5705 	 
C 	 -10.6595 	 50.7742 	 44.6885 	 
C 	 -9.80769 	 49.7239 	 44.2231 	 
C 	 -8.50266 	 50.0436 	 43.9517 	 
H 	 -10.0435 	 48.6717 	 44.0838 	 
C 	 -12.1503 	 50.6154 	 44.9382 	 
H 	 -12.6169 	 50.9881 	 44.0923 	 
H 	 -12.3473 	 51.3487 	 45.7289 	 
C 	 -12.6509 	 49.2468 	 45.2956 	 
H 	 -13.7269 	 49.3272 	 45.3665 	 
H 	 -12.3771 	 48.6097 	 44.5192 	 
C 	 -12.008 	 48.641 	 46.5449 	 
H 	 -12.3503 	 49.1385 	 47.4593 	 
H 	 -12.2454 	 47.5876 	 46.6253 	 
H 	 -10.9563 	 48.699 	 46.7425 	 
S 	 -6.68424 	 49.4493 	 41.9235 	 
C 	 -5.57882 	 48.0851 	 42.0952 	 
C 	 -5.72459 	 47.5492 	 43.342 	 
C 	 -6.81175 	 48.1228 	 44.1206 	 
C 	 -7.38929 	 49.1888 	 43.4741 	 
H 	 -5.03142 	 46.7887 	 43.6164 	 
C 	 -7.16511 	 47.5301 	 45.4854 	 
H 	 -6.52012 	 46.636 	 45.7607 	 
H 	 -8.18765 	 47.255 	 45.4255 	 
C 	 -6.89035 	 48.5011 	 46.6068 	 
H 	 -7.12492 	 49.5055 	 46.454 	 
H 	 -5.81394 	 48.4995 	 46.7708 	 
C 	 -7.52213 	 48.0321 	 47.9294 	 
H 	 -7.35392 	 46.9682 	 48.0752 	 
H 	 -8.63749 	 48.0583 	 47.7633 	 
H 	 -7.29736 	 48.6502 	 48.8205 	 
H 	 -10.4192 	 52.9672 	 44.6957 	 
H 	 -4.89345 	 47.8012 	 41.3332 	 
*
