! wB97X-D3 SP def2-SVP
%pal
nprocs 16
end

* xyz 0 1
S 	 -21.5657 	 -3.31046 	 86.4685 	 
C 	 -21.9863 	 -3.7661 	 84.8124 	 
C 	 -21.1005 	 -4.6701 	 84.3205 	 
C 	 -20.1109 	 -5.06573 	 85.2613 	 
C 	 -20.2289 	 -4.42914 	 86.5019 	 
H 	 -19.2753 	 -5.77453 	 85.2861 	 
C 	 -21.1979 	 -5.26952 	 82.9124 	 
H 	 -20.5379 	 -6.12649 	 82.8038 	 
H 	 -20.8545 	 -4.58761 	 82.1655 	 
C 	 -22.6612 	 -5.6706 	 82.537 	 
H 	 -23.3783 	 -4.89879 	 82.734 	 
H 	 -22.5991 	 -5.71928 	 81.4691 	 
C 	 -23.1787 	 -6.97674 	 83.2089 	 
H 	 -22.9371 	 -6.97933 	 84.326 	 
H 	 -24.3019 	 -7.07137 	 83.2013 	 
H 	 -22.6679 	 -7.82375 	 82.7299 	 
S 	 -19.9456 	 -4.30645 	 89.2036 	 
C 	 -18.3841 	 -4.43627 	 89.9497 	 
C 	 -17.4292 	 -4.59198 	 88.9743 	 
C 	 -17.9282 	 -4.76417 	 87.6578 	 
C 	 -19.2644 	 -4.46427 	 87.5744 	 
H 	 -16.4628 	 -4.71816 	 89.3169 	 
C 	 -16.9967 	 -5.07971 	 86.4684 	 
H 	 -17.3036 	 -6.04223 	 86.0076 	 
H 	 -16.012 	 -5.33746 	 86.8313 	 
C 	 -16.7008 	 -4.02032 	 85.4165 	 
H 	 -16.0936 	 -3.25855 	 85.9255 	 
H 	 -17.6098 	 -3.52656 	 84.8984 	 
C 	 -15.8696 	 -4.70582 	 84.3027 	 
H 	 -16.565 	 -5.14131 	 83.5486 	 
H 	 -14.9607 	 -5.16975 	 84.5873 	 
H 	 -15.5197 	 -3.72789 	 83.8178 	 
H 	 -22.7091 	 -3.23986 	 84.1952 	 
H 	 -18.1852 	 -4.30844 	 90.9802 	 
*
