! wB97X-D3 SP def2-SVP
%pal
nprocs 16
end

* xyz 0 1
S 	 10.49 	 24.7016 	 36.1007 	 
C 	 11.4197 	 23.834 	 34.8732 	 
C 	 11.447 	 22.4594 	 35.2036 	 
C 	 10.8502 	 22.2203 	 36.4304 	 
C 	 10.246 	 23.2928 	 37.0553 	 
H 	 10.8618 	 21.2622 	 36.9861 	 
C 	 12.0657 	 21.434 	 34.3715 	 
H 	 11.986 	 21.7798 	 33.3416 	 
H 	 11.5035 	 20.5206 	 34.5532 	 
C 	 13.4883 	 21.1726 	 34.7015 	 
H 	 14.1029 	 22.0935 	 34.6051 	 
H 	 13.692 	 20.7993 	 35.6707 	 
C 	 14.0981 	 20.0975 	 33.8234 	 
H 	 13.7221 	 19.0642 	 34.1305 	 
H 	 13.8962 	 20.4323 	 32.8201 	 
H 	 15.2278 	 20.0117 	 33.7963 	 
S 	 7.96189 	 23.9256 	 38.3215 	 
C 	 7.79223 	 23.7416 	 40.0474 	 
C 	 9.02879 	 23.4095 	 40.579 	 
C 	 10.0465 	 23.166 	 39.5921 	 
C 	 9.56621 	 23.3426 	 38.317 	 
H 	 9.13619 	 23.4914 	 41.5583 	 
C 	 11.4918 	 22.7802 	 39.9651 	 
H 	 12.08 	 22.8429 	 39.0666 	 
H 	 11.579 	 21.694 	 40.2824 	 
C 	 12.1715 	 23.6928 	 40.9995 	 
H 	 11.6697 	 23.7555 	 41.9243 	 
H 	 12.345 	 24.6732 	 40.5467 	 
C 	 13.613 	 23.2176 	 41.2563 	 
H 	 13.9849 	 23.8321 	 42.1534 	 
H 	 14.1703 	 23.2567 	 40.3689 	 
H 	 13.636 	 22.1963 	 41.5937 	 
H 	 11.6906 	 24.1896 	 33.9144 	 
H 	 7.04783 	 24.1112 	 40.7815 	 
*
