! wB97X-D3 SP def2-SVP
%pal
nprocs 16
end

* xyz 0 1
S 	 -1.09016 	 -12.353 	 80.7438 	 
C 	 -1.59035 	 -13.8503 	 81.5539 	 
C 	 -2.83114 	 -13.6398 	 82.1395 	 
C 	 -3.39013 	 -12.3461 	 81.9108 	 
C 	 -2.61017 	 -11.5508 	 81.0946 	 
H 	 -4.31552 	 -11.9277 	 82.3327 	 
C 	 -3.58717 	 -14.6421 	 82.9507 	 
H 	 -3.71769 	 -14.3312 	 84.0001 	 
H 	 -2.98481 	 -15.5244 	 82.9858 	 
C 	 -4.98657 	 -15.1033 	 82.3863 	 
H 	 -4.89275 	 -15.188 	 81.3148 	 
H 	 -5.19405 	 -16.0608 	 82.7111 	 
C 	 -6.10395 	 -14.1306 	 82.7452 	 
H 	 -6.09174 	 -13.9562 	 83.8263 	 
H 	 -5.99974 	 -13.2434 	 82.084 	 
H 	 -7.0731 	 -14.5523 	 82.6209 	 
S 	 -1.76471 	 -9.08372 	 80.0986 	 
C 	 -2.94295 	 -7.92663 	 79.5771 	 
C 	 -4.1931 	 -8.46729 	 79.5718 	 
C 	 -4.24875 	 -9.7385 	 80.2623 	 
C 	 -2.98376 	 -10.2448 	 80.5317 	 
H 	 -5.06203 	 -7.86816 	 79.268 	 
C 	 -5.5643 	 -10.4365 	 80.2905 	 
H 	 -6.31333 	 -9.68972 	 79.9657 	 
H 	 -5.78072 	 -10.5895 	 81.3426 	 
C 	 -5.60986 	 -11.7365 	 79.4711 	 
H 	 -5.11696 	 -12.5311 	 80.058 	 
H 	 -5.01211 	 -11.7889 	 78.6126 	 
C 	 -7.10344 	 -12.2501 	 79.3296 	 
H 	 -7.2117 	 -12.936 	 78.5407 	 
H 	 -7.66603 	 -11.4289 	 78.8625 	 
H 	 -7.6236 	 -12.6501 	 80.2398 	 
H 	 -1.11195 	 -14.7808 	 81.5244 	 
H 	 -2.67315 	 -6.87597 	 79.2695 	 
*
