! wB97X-D3 SP def2-SVP
%pal
nprocs 16
end

* xyz 0 1
S 	 -18.1934 	 57.0307 	 64.8082 	 
C 	 -17.9624 	 55.7206 	 63.7136 	 
C 	 -17.1577 	 54.7728 	 64.2454 	 
C 	 -16.6267 	 55.1388 	 65.5332 	 
C 	 -17.1903 	 56.301 	 66.0212 	 
H 	 -15.8133 	 54.5852 	 66.0805 	 
C 	 -16.6514 	 53.5131 	 63.5425 	 
H 	 -15.8154 	 53.0356 	 63.923 	 
H 	 -16.2693 	 53.8268 	 62.5524 	 
C 	 -17.6998 	 52.4664 	 63.1275 	 
H 	 -18.2553 	 52.2478 	 64.0075 	 
H 	 -18.3657 	 52.9628 	 62.4492 	 
C 	 -17.112 	 51.1435 	 62.526 	 
H 	 -16.6473 	 51.2925 	 61.4631 	 
H 	 -16.524 	 50.6056 	 63.1746 	 
H 	 -17.9105 	 50.4728 	 62.2274 	 
S 	 -16.5521 	 58.7496 	 67.1359 	 
C 	 -16.324 	 58.9006 	 68.8732 	 
C 	 -16.5475 	 57.6651 	 69.443 	 
C 	 -16.7808 	 56.6038 	 68.5117 	 
C 	 -16.8468 	 57.0411 	 67.2232 	 
H 	 -16.6048 	 57.5169 	 70.4941 	 
C 	 -16.9282 	 55.1687 	 68.9964 	 
H 	 -16.8492 	 55.2817 	 70.0578 	 
H 	 -16.0913 	 54.6043 	 68.5827 	 
C 	 -18.269 	 54.401 	 68.8301 	 
H 	 -18.3755 	 54.1609 	 67.7761 	 
H 	 -19.0895 	 55.059 	 69.0868 	 
C 	 -18.4458 	 53.0929 	 69.5927 	 
H 	 -18.3166 	 53.2716 	 70.6457 	 
H 	 -17.7552 	 52.3535 	 69.2322 	 
H 	 -19.4334 	 52.7017 	 69.4371 	 
H 	 -18.5722 	 55.6402 	 62.8043 	 
H 	 -16.358 	 59.7745 	 69.5198 	 
*
