! wB97X-D3 SP def2-SVP
%pal
nprocs 16
end

* xyz 0 1
S 	 1.44734 	 16.7082 	 52.7496 	 
C 	 2.47481 	 16.3402 	 51.4097 	 
C 	 2.61235 	 17.4478 	 50.5785 	 
C 	 1.79057 	 18.4906 	 50.991 	 
C 	 1.14934 	 18.3346 	 52.2543 	 
H 	 1.60656 	 19.3214 	 50.306 	 
C 	 3.69084 	 17.7097 	 49.5402 	 
H 	 4.55615 	 17.3098 	 49.9967 	 
H 	 3.83479 	 18.7974 	 49.2392 	 
C 	 3.34923 	 16.9777 	 48.2147 	 
H 	 3.1201 	 15.8951 	 48.4449 	 
H 	 2.39355 	 17.3328 	 47.7498 	 
C 	 4.46033 	 17.05 	 47.1755 	 
H 	 5.37721 	 16.8092 	 47.6621 	 
H 	 4.22044 	 16.2895 	 46.4408 	 
H 	 4.52709 	 17.9775 	 46.5752 	 
S 	 -0.708687 	 18.6962 	 54.2463 	 
C 	 -1.44054 	 20.2463 	 54.6632 	 
C 	 -0.690366 	 21.1734 	 54.002 	 
C 	 0.295875 	 20.6659 	 53.0655 	 
C 	 0.337492 	 19.2637 	 53.0047 	 
H 	 -0.972245 	 22.1703 	 54.2427 	 
C 	 1.13803 	 21.571 	 52.2374 	 
H 	 0.533824 	 21.9456 	 51.4586 	 
H 	 1.92089 	 20.9721 	 51.7777 	 
C 	 1.91024 	 22.6772 	 52.9358 	 
H 	 1.28174 	 23.5224 	 53.2867 	 
H 	 2.56878 	 23.1608 	 52.2895 	 
C 	 2.80906 	 22.1308 	 54.1032 	 
H 	 3.37963 	 22.918 	 54.6291 	 
H 	 3.56415 	 21.4337 	 53.7789 	 
H 	 2.14446 	 21.6098 	 54.8527 	 
H 	 3.0178 	 15.3917 	 51.2802 	 
H 	 -2.06831 	 20.4207 	 55.5411 	 
*
