! wB97X-D3 SP def2-SVP
%pal
nprocs 16
end

* xyz 0 1
S 	 6.49662 	 22.5914 	 65.964 	 
C 	 5.25471 	 22.3707 	 64.8184 	 
C 	 4.56412 	 23.5212 	 64.5118 	 
C 	 4.99725 	 24.6046 	 65.3249 	 
C 	 6.09213 	 24.3531 	 66.082 	 
H 	 4.57224 	 25.5444 	 65.3451 	 
C 	 3.43411 	 23.5941 	 63.4893 	 
H 	 2.48537 	 23.42 	 63.9226 	 
H 	 3.62754 	 22.7184 	 62.8209 	 
C 	 3.35824 	 24.8767 	 62.479 	 
H 	 2.79335 	 24.6638 	 61.5806 	 
H 	 2.8573 	 25.6426 	 62.9891 	 
C 	 4.73741 	 25.4334 	 61.945 	 
H 	 5.41862 	 24.5783 	 61.5865 	 
H 	 4.60294 	 26.2109 	 61.2048 	 
H 	 5.17076 	 25.936 	 62.8356 	 
S 	 8.37065 	 25.6338 	 66.6386 	 
C 	 8.52542 	 26.836 	 67.8956 	 
C 	 7.20761 	 27.1665 	 68.2576 	 
C 	 6.18152 	 26.3564 	 67.7224 	 
C 	 6.70258 	 25.352 	 66.9346 	 
H 	 7.00348 	 27.965 	 69.002 	 
C 	 4.73227 	 26.5401 	 68.1871 	 
H 	 4.81688 	 26.3207 	 69.2546 	 
H 	 4.00757 	 25.8378 	 67.8194 	 
C 	 4.10318 	 27.9718 	 68.1136 	 
H 	 4.13881 	 28.388 	 67.0737 	 
H 	 4.68495 	 28.6351 	 68.713 	 
C 	 2.60625 	 27.8732 	 68.4775 	 
H 	 2.19628 	 28.8039 	 68.3033 	 
H 	 2.50241 	 27.6487 	 69.5652 	 
H 	 2.02188 	 27.1402 	 67.8984 	 
H 	 4.98786 	 21.4217 	 64.4196 	 
H 	 9.36601 	 27.3771 	 68.2679 	 
*
