! wB97X-D3 SP def2-SVP
%pal
nprocs 16
end

* xyz 0 1
S 	 4.58275 	 -12.9679 	 57.2512 	 
C 	 5.28876 	 -12.5152 	 58.793 	 
C 	 4.86239 	 -13.383 	 59.8016 	 
C 	 3.93887 	 -14.3374 	 59.2831 	 
C 	 3.67209 	 -14.2721 	 57.9403 	 
H 	 3.27851 	 -15.0093 	 59.821 	 
C 	 5.04282 	 -13.2136 	 61.2901 	 
H 	 4.51392 	 -12.2624 	 61.5792 	 
H 	 6.06782 	 -13.1207 	 61.4626 	 
C 	 4.68476 	 -14.3949 	 62.1117 	 
H 	 4.97459 	 -14.0837 	 63.0913 	 
H 	 3.61779 	 -14.5302 	 61.9982 	 
C 	 5.46822 	 -15.6485 	 61.7672 	 
H 	 6.49365 	 -15.4909 	 61.4533 	 
H 	 5.48267 	 -16.4007 	 62.5057 	 
H 	 5.0804 	 -16.2301 	 60.8523 	 
S 	 1.8508 	 -14.2008 	 55.8923 	 
C 	 1.22961 	 -15.7958 	 55.3846 	 
C 	 1.48184 	 -16.8124 	 56.2324 	 
C 	 2.35306 	 -16.4127 	 57.2414 	 
C 	 2.68099 	 -15.0603 	 57.1568 	 
H 	 1.26063 	 -17.8248 	 55.9931 	 
C 	 2.82031 	 -17.4476 	 58.2628 	 
H 	 1.87576 	 -17.7921 	 58.6658 	 
H 	 3.35054 	 -17.0954 	 59.1144 	 
C 	 3.61278 	 -18.6275 	 57.6866 	 
H 	 3.16487 	 -19.0491 	 56.7941 	 
H 	 3.73699 	 -19.3638 	 58.4774 	 
C 	 5.04446 	 -18.1508 	 57.3715 	 
H 	 5.46577 	 -17.5572 	 58.2412 	 
H 	 5.06049 	 -17.4311 	 56.5497 	 
H 	 5.79628 	 -18.8685 	 57.0474 	 
H 	 6.15219 	 -11.8857 	 58.9521 	 
H 	 0.50458 	 -15.8419 	 54.5768 	 
*
