! wB97X-D3 SP def2-SVP
%pal
nprocs 16
end

* xyz 0 1
S 	 -37.4709 	 70.8334 	 154.071 	 
C 	 -37.9767 	 72.2276 	 153.188 	 
C 	 -36.9521 	 73.1043 	 152.982 	 
C 	 -35.8122 	 72.7119 	 153.76 	 
C 	 -35.9408 	 71.51 	 154.435 	 
H 	 -34.9963 	 73.3394 	 153.873 	 
C 	 -37.0168 	 74.4167 	 152.146 	 
H 	 -38.0117 	 74.8641 	 152.431 	 
H 	 -37.1001 	 74.1649 	 151.056 	 
C 	 -35.9263 	 75.4133 	 152.412 	 
H 	 -36.016 	 75.6287 	 153.458 	 
H 	 -34.961 	 75.0646 	 152.14 	 
C 	 -36.0492 	 76.8227 	 151.762 	 
H 	 -36.897 	 77.4809 	 152.054 	 
H 	 -35.253 	 77.3464 	 152.218 	 
H 	 -36.0651 	 76.9525 	 150.678 	 
S 	 -34.3053 	 69.2215 	 154.798 	 
C 	 -33.0309 	 69.2951 	 155.889 	 
C 	 -32.9922 	 70.4693 	 156.644 	 
C 	 -34.0623 	 71.3165 	 156.25 	 
C 	 -34.8869 	 70.8648 	 155.235 	 
H 	 -32.2785 	 70.5682 	 157.445 	 
C 	 -34.2117 	 72.6145 	 157.022 	 
H 	 -34.1474 	 72.3899 	 158.08 	 
H 	 -35.1522 	 73.0881 	 156.767 	 
C 	 -33.0647 	 73.6362 	 156.913 	 
H 	 -32.8497 	 73.8024 	 155.86 	 
H 	 -32.218 	 73.1692 	 157.42 	 
C 	 -33.3493 	 74.9545 	 157.63 	 
H 	 -33.7172 	 74.9934 	 158.638 	 
H 	 -33.9811 	 75.5611 	 157.107 	 
H 	 -32.4226 	 75.4184 	 157.75 	 
H 	 -38.9192 	 72.3012 	 152.62 	 
H 	 -32.2775 	 68.5771 	 156.051 	 
*
