! wB97X-D3 SP def2-SVP
%pal
nprocs 16
end

* xyz 0 1
S 	 -41.1677 	 27.753 	 78.4781 	 
C 	 -41.2127 	 28.7721 	 79.9127 	 
C 	 -41.6842 	 28.0761 	 80.9554 	 
C 	 -42.0158 	 26.7088 	 80.6576 	 
C 	 -41.829 	 26.2921 	 79.3513 	 
H 	 -42.4473 	 25.9189 	 81.2669 	 
C 	 -41.8637 	 28.6414 	 82.3387 	 
H 	 -41.3146 	 29.5408 	 82.2195 	 
H 	 -41.2715 	 28.0592 	 83.0691 	 
C 	 -43.2669 	 29.0209 	 82.8496 	 
H 	 -44.0089 	 29.4931 	 82.0942 	 
H 	 -43.8083 	 28.0874 	 83.0135 	 
C 	 -43.1573 	 29.806 	 84.1592 	 
H 	 -42.905 	 30.8422 	 83.8533 	 
H 	 -44.102 	 29.8039 	 84.6776 	 
H 	 -42.4746 	 29.3548 	 84.8547 	 
S 	 -43.5028 	 25.3612 	 77.3191 	 
C 	 -43.5556 	 23.6076 	 77.0877 	 
C 	 -42.7553 	 22.9048 	 78.0348 	 
C 	 -42.1178 	 23.7882 	 78.9666 	 
C 	 -42.2661 	 25.145 	 78.6066 	 
H 	 -42.5842 	 21.8429 	 78.0691 	 
C 	 -41.3124 	 23.2819 	 80.0792 	 
H 	 -42.0279 	 22.8724 	 80.76 	 
H 	 -40.9234 	 24.1623 	 80.5867 	 
C 	 -40.128 	 22.3176 	 79.6696 	 
H 	 -39.4641 	 22.8883 	 79.05 	 
H 	 -40.496 	 21.518 	 79.0379 	 
C 	 -39.3784 	 21.6735 	 80.8572 	 
H 	 -38.961 	 22.5464 	 81.4409 	 
H 	 -38.5735 	 21.0464 	 80.5361 	 
H 	 -39.9363 	 21.1208 	 81.478 	 
H 	 -40.9122 	 29.8411 	 79.9805 	 
H 	 -44.2177 	 23.0793 	 76.4274 	 
*
