! wB97X-D3 SP def2-SVP
%pal
nprocs 16
end

* xyz 0 1
S 	 14.5833 	 19.6702 	 40.8837 	 
C 	 15.447 	 19.6375 	 39.365 	 
C 	 14.9997 	 18.547 	 38.5821 	 
C 	 13.909 	 17.8617 	 39.152 	 
C 	 13.5776 	 18.2582 	 40.4555 	 
H 	 13.3298 	 17.0272 	 38.6291 	 
C 	 15.7563 	 18.1475 	 37.2968 	 
H 	 15.992 	 17.075 	 37.365 	 
H 	 16.6358 	 18.7373 	 37.3784 	 
C 	 14.9674 	 18.4738 	 36.061 	 
H 	 15.4256 	 17.8656 	 35.2899 	 
H 	 13.9223 	 18.1053 	 36.1636 	 
C 	 15.1313 	 19.8928 	 35.6597 	 
H 	 14.9723 	 20.5818 	 36.4395 	 
H 	 16.1341 	 20.1536 	 35.2166 	 
H 	 14.4354 	 20.1254 	 34.8094 	 
S 	 12.7003 	 16.4122 	 42.3115 	 
C 	 11.0112 	 16.5643 	 42.8819 	 
C 	 10.3145 	 17.572 	 42.2398 	 
C 	 11.0872 	 18.3149 	 41.3181 	 
C 	 12.3834 	 17.8292 	 41.2006 	 
H 	 9.24089 	 17.7891 	 42.5172 	 
C 	 10.4074 	 19.3962 	 40.5472 	 
H 	 9.33504 	 19.1131 	 40.3381 	 
H 	 10.8479 	 19.5348 	 39.592 	 
C 	 10.4393 	 20.7109 	 41.2584 	 
H 	 10.1706 	 21.3904 	 40.5323 	 
H 	 11.3789 	 20.8569 	 41.7201 	 
C 	 9.35337 	 20.7995 	 42.3485 	 
H 	 9.49331 	 20.1297 	 43.1883 	 
H 	 8.3979 	 20.6999 	 41.8587 	 
H 	 9.18176 	 21.8301 	 42.6371 	 
H 	 15.9772 	 20.4341 	 38.9423 	 
H 	 10.6112 	 16.0044 	 43.7301 	 
*
