! wB97X-D3 SP def2-SVP
%pal
nprocs 16
end

* xyz 0 1
S 	 25.6198 	 6.82959 	 73.0963 	 
C 	 25.8397 	 5.17131 	 72.8341 	 
C 	 25.5279 	 4.42503 	 73.9472 	 
C 	 25.1989 	 5.29817 	 75.0078 	 
C 	 25.3228 	 6.64613 	 74.829 	 
H 	 24.7656 	 5.02469 	 75.9726 	 
C 	 25.4289 	 2.93998 	 73.9367 	 
H 	 25.5848 	 2.64333 	 74.9216 	 
H 	 26.2807 	 2.58451 	 73.3744 	 
C 	 24.1426 	 2.38654 	 73.3644 	 
H 	 24.1891 	 1.31868 	 73.5981 	 
H 	 23.3782 	 2.7846 	 73.9458 	 
C 	 23.8503 	 2.69398 	 71.8455 	 
H 	 24.6656 	 2.32619 	 71.2116 	 
H 	 22.8183 	 2.23413 	 71.6223 	 
H 	 23.7762 	 3.7435 	 71.7801 	 
S 	 23.933 	 9.04828 	 74.7564 	 
C 	 23.6936 	 9.9543 	 76.2354 	 
C 	 24.2989 	 9.32934 	 77.2489 	 
C 	 24.9176 	 8.05251 	 76.9369 	 
C 	 24.7971 	 7.75857 	 75.5843 	 
H 	 24.2531 	 9.6147 	 78.3082 	 
C 	 25.604 	 7.28609 	 77.9909 	 
H 	 26.5745 	 7.8151 	 78.0223 	 
H 	 25.7817 	 6.25128 	 77.6552 	 
C 	 24.8658 	 6.83908 	 79.3031 	 
H 	 24.4636 	 7.77233 	 79.6754 	 
H 	 25.5322 	 6.40808 	 80.0526 	 
C 	 23.7499 	 5.85359 	 79.0369 	 
H 	 23.2401 	 5.92168 	 79.9984 	 
H 	 24.1696 	 4.85478 	 78.7941 	 
H 	 23.0176 	 6.15811 	 78.3073 	 
H 	 26.081 	 4.75987 	 71.8188 	 
H 	 23.3456 	 10.9798 	 76.238 	 
*
