! wB97X-D3 SP def2-SVP
%pal
nprocs 16
end

* xyz 0 1
S 	 -81.767 	 32.559 	 136.096 	 
C 	 -80.0006 	 32.5794 	 136.036 	 
C 	 -79.5307 	 33.5924 	 135.186 	 
C 	 -80.6465 	 34.2472 	 134.531 	 
C 	 -81.925 	 33.8564 	 134.947 	 
H 	 -80.6223 	 35.0723 	 133.792 	 
C 	 -78.0922 	 34.1539 	 135.02 	 
H 	 -77.828 	 34.3746 	 133.948 	 
H 	 -77.333 	 33.4434 	 135.323 	 
C 	 -77.7656 	 35.4918 	 135.773 	 
H 	 -77.9971 	 35.3349 	 136.829 	 
H 	 -76.7314 	 35.6262 	 135.767 	 
C 	 -78.4996 	 36.768 	 135.263 	 
H 	 -78.6197 	 36.914 	 134.252 	 
H 	 -79.584 	 36.6385 	 135.485 	 
H 	 -78.0474 	 37.7131 	 135.675 	 
S 	 -84.337 	 33.1235 	 134.023 	 
C 	 -85.5524 	 34.2444 	 133.445 	 
C 	 -85.0804 	 35.5056 	 133.631 	 
C 	 -83.7217 	 35.5678 	 134.138 	 
C 	 -83.2111 	 34.3564 	 134.525 	 
H 	 -85.6496 	 36.3024 	 133.275 	 
C 	 -83.0231 	 36.8818 	 134.236 	 
H 	 -83.6149 	 37.6953 	 133.803 	 
H 	 -82.1272 	 36.7209 	 133.674 	 
C 	 -82.5608 	 37.2738 	 135.717 	 
H 	 -81.6792 	 37.8484 	 135.623 	 
H 	 -82.2453 	 36.3362 	 136.215 	 
C 	 -83.5509 	 37.9843 	 136.598 	 
H 	 -84.4792 	 37.3899 	 136.743 	 
H 	 -83.8219 	 38.8906 	 136.101 	 
H 	 -82.9025 	 38.0109 	 137.484 	 
H 	 -79.3895 	 31.8636 	 136.567 	 
H 	 -86.5357 	 33.9612 	 133.059 	 
*
