! wB97X-D3 SP def2-SVP
%pal
nprocs 16
end

* xyz 0 1
S 	 -30.3172 	 63.5718 	 106.983 	 
C 	 -30.1444 	 64.93 	 108.055 	 
C 	 -30.4962 	 66.019 	 107.327 	 
C 	 -30.7754 	 65.8104 	 105.965 	 
C 	 -30.8951 	 64.4999 	 105.672 	 
H 	 -30.9662 	 66.4583 	 105.176 	 
C 	 -30.4613 	 67.3956 	 107.894 	 
H 	 -30.7041 	 67.3209 	 109.005 	 
H 	 -31.3365 	 67.924 	 107.529 	 
C 	 -29.1729 	 68.2213 	 107.596 	 
H 	 -28.9686 	 68.4934 	 106.552 	 
H 	 -29.2328 	 69.224 	 107.903 	 
C 	 -28.0214 	 67.5814 	 108.149 	 
H 	 -27.9067 	 66.6183 	 107.723 	 
H 	 -27.0863 	 67.9809 	 107.85 	 
H 	 -27.9839 	 67.3895 	 109.211 	 
S 	 -32.8323 	 64.5009 	 103.757 	 
C 	 -32.7242 	 63.4332 	 102.373 	 
C 	 -31.6025 	 62.741 	 102.435 	 
C 	 -30.8507 	 62.8705 	 103.659 	 
C 	 -31.2704 	 63.9602 	 104.316 	 
H 	 -31.3152 	 62.1517 	 101.569 	 
C 	 -29.5522 	 62.1527 	 104.033 	 
H 	 -29.8638 	 61.5102 	 104.797 	 
H 	 -28.913 	 62.9638 	 104.375 	 
C 	 -28.8644 	 61.4201 	 102.845 	 
H 	 -28.9842 	 62.0355 	 101.948 	 
H 	 -29.4385 	 60.5216 	 102.514 	 
C 	 -27.4762 	 60.9648 	 103.162 	 
H 	 -27.3625 	 60.2647 	 103.945 	 
H 	 -26.7572 	 61.7565 	 103.298 	 
H 	 -27.0964 	 60.5067 	 102.299 	 
H 	 -29.9225 	 64.8466 	 109.069 	 
H 	 -33.3546 	 63.4962 	 101.521 	 
*
