! wB97X-D3 SP def2-SVP
%pal
nprocs 16
end

* xyz 0 1
S 	 10.3633 	 -7.12708 	 67.665 	 
C 	 9.83128 	 -5.82022 	 68.7564 	 
C 	 10.7809 	 -5.48261 	 69.6914 	 
C 	 11.9029 	 -6.34252 	 69.5611 	 
C 	 11.9052 	 -7.21098 	 68.467 	 
H 	 12.8516 	 -6.35721 	 70.2201 	 
C 	 10.6528 	 -4.44513 	 70.7441 	 
H 	 10.3009 	 -4.9898 	 71.6348 	 
H 	 9.85251 	 -3.75105 	 70.395 	 
C 	 11.9553 	 -3.79993 	 71.1681 	 
H 	 12.5929 	 -4.68723 	 71.5156 	 
H 	 12.3919 	 -3.318 	 70.2366 	 
C 	 11.8877 	 -2.7378 	 72.2685 	 
H 	 11.3272 	 -3.1232 	 73.1126 	 
H 	 12.9187 	 -2.48477 	 72.5859 	 
H 	 11.4319 	 -1.81129 	 71.9047 	 
S 	 13.7177 	 -9.04531 	 69.4547 	 
C 	 14.8055 	 -9.84992 	 68.3575 	 
C 	 14.5898 	 -9.41468 	 67.0653 	 
C 	 13.4599 	 -8.58969 	 66.8862 	 
C 	 12.9979 	 -8.14501 	 68.097 	 
H 	 15.2519 	 -9.57766 	 66.2289 	 
C 	 13.048 	 -7.97789 	 65.5853 	 
H 	 13.942 	 -7.8375 	 64.9402 	 
H 	 12.6541 	 -6.93497 	 65.5909 	 
C 	 12.1116 	 -8.87842 	 64.6315 	 
H 	 11.1793 	 -9.07435 	 65.1327 	 
H 	 12.4486 	 -9.89394 	 64.2921 	 
C 	 11.6227 	 -8.13233 	 63.3406 	 
H 	 10.7143 	 -8.57311 	 62.9019 	 
H 	 12.4481 	 -8.15848 	 62.5706 	 
H 	 11.4348 	 -7.13815 	 63.6099 	 
H 	 8.86543 	 -5.2983 	 68.6771 	 
H 	 15.5632 	 -10.5384 	 68.7201 	 
*
