! wB97X-D3 SP def2-SVP
%pal
nprocs 16
end

* xyz 0 1
S 	 13.3854 	 18.3681 	 39.6604 	 
C 	 13.4224 	 17.0296 	 38.5319 	 
C 	 12.5862 	 17.3048 	 37.4194 	 
C 	 11.7948 	 18.4982 	 37.6414 	 
C 	 12.0006 	 19.1397 	 38.829 	 
H 	 11.2452 	 19.0888 	 36.8817 	 
C 	 12.5808 	 16.4916 	 36.1529 	 
H 	 13.6147 	 16.3291 	 35.9265 	 
H 	 12.1755 	 17.1516 	 35.3476 	 
C 	 11.8388 	 15.1394 	 36.2099 	 
H 	 12.0808 	 14.5079 	 35.2672 	 
H 	 12.2786 	 14.6489 	 37.1071 	 
C 	 10.3254 	 15.2809 	 36.4339 	 
H 	 10.0122 	 14.2738 	 36.3876 	 
H 	 10.0461 	 15.6482 	 37.4493 	 
H 	 9.8136 	 15.8447 	 35.6868 	 
S 	 12.9076 	 21.6559 	 39.3808 	 
C 	 11.7488 	 22.8993 	 39.7871 	 
C 	 10.4416 	 22.4724 	 39.5745 	 
C 	 10.3835 	 21.1054 	 39.1339 	 
C 	 11.623 	 20.5145 	 39.0825 	 
H 	 9.68499 	 23.1856 	 39.8311 	 
C 	 9.08656 	 20.4175 	 38.8496 	 
H 	 9.21136 	 19.654 	 38.0876 	 
H 	 8.45756 	 21.1314 	 38.352 	 
C 	 8.50857 	 19.7153 	 40.0782 	 
H 	 9.16842 	 19.0644 	 40.6594 	 
H 	 7.70139 	 18.9838 	 39.7948 	 
C 	 7.80937 	 20.6489 	 41.0876 	 
H 	 7.31779 	 19.9995 	 41.7863 	 
H 	 7.06957 	 21.2991 	 40.6761 	 
H 	 8.58125 	 21.3128 	 41.6414 	 
H 	 14.1776 	 16.2679 	 38.6374 	 
H 	 11.9893 	 23.8507 	 40.17 	 
*
