! wB97X-D3 SP def2-SVP
%pal
nprocs 16
end

* xyz 0 1
S 	 -28.7428 	 -0.385873 	 106.402 	 
C 	 -27.4667 	 -1.41535 	 106.996 	 
C 	 -27.0351 	 -2.25303 	 105.974 	 
C 	 -27.6233 	 -1.94598 	 104.72 	 
C 	 -28.7003 	 -1.06538 	 104.823 	 
H 	 -27.3699 	 -2.22983 	 103.669 	 
C 	 -25.935 	 -3.23914 	 106.108 	 
H 	 -26.2694 	 -4.24402 	 106.308 	 
H 	 -25.3918 	 -2.98964 	 107.082 	 
C 	 -24.8811 	 -3.22975 	 104.94 	 
H 	 -24.681 	 -2.24791 	 104.532 	 
H 	 -23.9591 	 -3.52537 	 105.391 	 
C 	 -25.0953 	 -4.16932 	 103.795 	 
H 	 -26.1195 	 -4.23923 	 103.448 	 
H 	 -24.4674 	 -3.97974 	 102.953 	 
H 	 -24.9028 	 -5.17866 	 104.094 	 
S 	 -28.9648 	 1.15803 	 103.255 	 
C 	 -30.1536 	 1.18064 	 102.009 	 
C 	 -30.7963 	 -0.00772218 	 101.942 	 
C 	 -30.5014 	 -0.977997 	 102.962 	 
C 	 -29.4956 	 -0.48748 	 103.784 	 
H 	 -31.4174 	 -0.145479 	 101.071 	 
C 	 -31.2539 	 -2.32198 	 103.159 	 
H 	 -32.3443 	 -2.00099 	 103.098 	 
H 	 -31.136 	 -2.76526 	 104.156 	 
C 	 -30.9349 	 -3.30924 	 102.041 	 
H 	 -29.9676 	 -3.63019 	 102.183 	 
H 	 -30.8814 	 -2.65261 	 101.201 	 
C 	 -32.0494 	 -4.36819 	 101.974 	 
H 	 -32.9265 	 -4.14572 	 101.338 	 
H 	 -32.3765 	 -4.77498 	 102.901 	 
H 	 -31.6449 	 -5.26574 	 101.487 	 
H 	 -27.1683 	 -1.49058 	 108.038 	 
H 	 -30.1705 	 2.06491 	 101.317 	 
*
