! wB97X-D3 SP def2-SVP
%pal
nprocs 16
end

* xyz 0 1
S 	 49.3582 	 29.5692 	 44.5262 	 
C 	 50.7832 	 30.4654 	 45.0583 	 
C 	 51.8419 	 29.6812 	 45.4446 	 
C 	 51.4197 	 28.3159 	 45.4031 	 
C 	 50.1239 	 28.0658 	 44.9895 	 
H 	 51.9812 	 27.5088 	 45.8004 	 
C 	 53.1177 	 30.1817 	 46.013 	 
H 	 53.2706 	 29.5066 	 46.7937 	 
H 	 53.171 	 31.2091 	 46.4277 	 
C 	 54.315 	 30.0076 	 45.1123 	 
H 	 54.3834 	 28.9522 	 44.6832 	 
H 	 54.2341 	 30.7142 	 44.261 	 
C 	 55.6512 	 30.2083 	 45.8764 	 
H 	 55.5167 	 29.7748 	 46.8422 	 
H 	 56.5701 	 29.7796 	 45.3354 	 
H 	 55.7576 	 31.2758 	 46.0781 	 
S 	 47.9206 	 26.9628 	 45.855 	 
C 	 47.7584 	 25.2129 	 45.9547 	 
C 	 48.9167 	 24.5395 	 45.6666 	 
C 	 49.8807 	 25.4761 	 45.2225 	 
C 	 49.4658 	 26.8295 	 45.1719 	 
H 	 48.9397 	 23.442 	 45.9025 	 
C 	 51.1731 	 25.0216 	 44.5388 	 
H 	 51.6093 	 25.7763 	 43.9539 	 
H 	 50.8081 	 24.231 	 43.8531 	 
C 	 52.1599 	 24.4084 	 45.6011 	 
H 	 51.5898 	 23.5674 	 46.07 	 
H 	 52.3592 	 25.1672 	 46.3312 	 
C 	 53.5264 	 23.8373 	 45.0458 	 
H 	 54.21 	 24.5904 	 44.6578 	 
H 	 53.3602 	 22.965 	 44.4244 	 
H 	 54.0515 	 23.2746 	 45.8321 	 
H 	 50.8231 	 31.5462 	 45.1243 	 
H 	 46.8984 	 24.6331 	 46.3434 	 
*
