! wB97X-D3 SP def2-SVP
%pal
nprocs 16
end

* xyz 0 1
S 	 -2.55323 	 7.43453 	 83.0653 	 
C 	 -1.97195 	 6.91328 	 81.4948 	 
C 	 -2.9286 	 6.67388 	 80.5654 	 
C 	 -4.22833 	 6.9586 	 81.0593 	 
C 	 -4.2229 	 7.35279 	 82.4294 	 
H 	 -5.1443 	 6.84456 	 80.5368 	 
C 	 -2.65708 	 6.22188 	 79.131 	 
H 	 -3.05022 	 5.24962 	 79.0345 	 
H 	 -1.53851 	 6.20296 	 78.9847 	 
C 	 -3.2556 	 7.11924 	 78.036 	 
H 	 -3.2405 	 6.55643 	 77.1697 	 
H 	 -4.26666 	 7.50225 	 78.319 	 
C 	 -2.24247 	 8.24944 	 77.6267 	 
H 	 -1.26702 	 7.8391 	 77.507 	 
H 	 -2.43027 	 8.61403 	 76.5825 	 
H 	 -2.32062 	 9.21279 	 78.2448 	 
S 	 -5.22234 	 8.95459 	 84.4858 	 
C 	 -6.8365 	 8.83133 	 84.9523 	 
C 	 -7.48534 	 7.93709 	 84.1741 	 
C 	 -6.73682 	 7.28353 	 83.1609 	 
C 	 -5.38481 	 7.7514 	 83.1997 	 
H 	 -8.52487 	 7.78717 	 84.3987 	 
C 	 -7.39772 	 6.31424 	 82.1042 	 
H 	 -8.13428 	 5.73278 	 82.6647 	 
H 	 -6.55781 	 5.57917 	 81.8564 	 
C 	 -8.1198 	 6.91169 	 80.9288 	 
H 	 -7.44525 	 7.62668 	 80.4103 	 
H 	 -9.12375 	 7.46977 	 81.0481 	 
C 	 -8.46784 	 5.88394 	 79.821 	 
H 	 -7.62372 	 5.41338 	 79.3092 	 
H 	 -8.9536 	 6.42221 	 79.0151 	 
H 	 -9.13218 	 5.13752 	 80.2113 	 
H 	 -0.946093 	 6.94551 	 81.263 	 
H 	 -7.25057 	 9.38373 	 85.8281 	 
*
