! wB97X-D3 SP def2-SVP
%pal
nprocs 16
end

* xyz 0 1
S 	 -10.5835 	 61.9109 	 55.8661 	 
C 	 -9.06979 	 61.3605 	 56.5392 	 
C 	 -9.0508 	 61.6232 	 57.9227 	 
C 	 -10.278 	 62.0932 	 58.4198 	 
C 	 -11.1978 	 62.4052 	 57.4268 	 
H 	 -10.4611 	 62.3342 	 59.4928 	 
C 	 -7.85958 	 61.4524 	 58.8564 	 
H 	 -7.67739 	 62.4718 	 59.1156 	 
H 	 -7.07821 	 60.9735 	 58.2719 	 
C 	 -8.10884 	 60.6202 	 60.1293 	 
H 	 -7.07689 	 60.5172 	 60.6086 	 
H 	 -8.73735 	 61.1325 	 60.8723 	 
C 	 -8.74386 	 59.2797 	 59.8923 	 
H 	 -8.12843 	 58.6293 	 59.2355 	 
H 	 -9.08886 	 58.8383 	 60.8229 	 
H 	 -9.70281 	 59.4215 	 59.3495 	 
S 	 -13.7526 	 62.0374 	 58.3979 	 
C 	 -14.9692 	 63.2856 	 58.1428 	 
C 	 -14.5135 	 64.199 	 57.2082 	 
C 	 -13.0601 	 64.1453 	 56.953 	 
C 	 -12.5203 	 63.0019 	 57.5668 	 
H 	 -15.2916 	 64.9018 	 56.8581 	 
C 	 -12.4244 	 65.2422 	 56.0714 	 
H 	 -12.785 	 65.177 	 55.0203 	 
H 	 -11.3398 	 65.0795 	 56.0907 	 
C 	 -12.7796 	 66.6937 	 56.4333 	 
H 	 -13.8562 	 66.7364 	 56.7329 	 
H 	 -12.5338 	 67.3492 	 55.6156 	 
C 	 -12.0744 	 67.191 	 57.7014 	 
H 	 -10.9975 	 67.086 	 57.5796 	 
H 	 -12.4357 	 66.6637 	 58.5971 	 
H 	 -12.1342 	 68.3212 	 57.7294 	 
H 	 -8.23701 	 61.0326 	 55.8605 	 
H 	 -16.0062 	 63.2191 	 58.3865 	 
*
