! wB97X-D3 SP def2-SVP
%pal
nprocs 16
end

* xyz 0 1
S 	 2.66216 	 -26.2089 	 60.5896 	 
C 	 1.21321 	 -26.7352 	 61.4968 	 
C 	 1.62642 	 -27.3704 	 62.6543 	 
C 	 3.04989 	 -27.469 	 62.7727 	 
C 	 3.73431 	 -26.7818 	 61.799 	 
H 	 3.64951 	 -27.912 	 63.5357 	 
C 	 0.689712 	 -28.1114 	 63.555 	 
H 	 0.13776 	 -28.8518 	 62.9982 	 
H 	 0.0577502 	 -27.258 	 63.6535 	 
C 	 1.24466 	 -28.6289 	 64.9571 	 
H 	 1.96164 	 -27.8569 	 65.2769 	 
H 	 0.470948 	 -28.6672 	 65.6749 	 
C 	 1.83403 	 -30.0071 	 64.797 	 
H 	 2.16593 	 -30.3336 	 65.8441 	 
H 	 1.26112 	 -30.8678 	 64.3844 	 
H 	 2.73471 	 -29.9157 	 64.1535 	 
S 	 5.87662 	 -27.4584 	 60.4119 	 
C 	 7.50331 	 -26.9735 	 60.8707 	 
C 	 7.48718 	 -26.2882 	 62.102 	 
C 	 6.12389 	 -26.0348 	 62.568 	 
C 	 5.19559 	 -26.5824 	 61.681 	 
H 	 8.40766 	 -26.0337 	 62.569 	 
C 	 5.80363 	 -25.1378 	 63.7763 	 
H 	 4.71738 	 -24.9253 	 63.7179 	 
H 	 6.34024 	 -24.1559 	 63.7394 	 
C 	 6.1681 	 -25.7611 	 65.1887 	 
H 	 5.77194 	 -25.0492 	 65.9574 	 
H 	 7.26829 	 -25.8607 	 65.2477 	 
C 	 5.72064 	 -27.1878 	 65.4476 	 
H 	 6.14949 	 -27.6518 	 66.3038 	 
H 	 6.12677 	 -27.796 	 64.6119 	 
H 	 4.65599 	 -27.3744 	 65.5413 	 
H 	 0.13487 	 -26.7116 	 61.2309 	 
H 	 8.3768 	 -27.3747 	 60.3758 	 
*
