! wB97X-D3 SP def2-SVP
%pal
nprocs 16
end

* xyz 0 1
S 	 46.2904 	 9.39291 	 89.9951 	 
C 	 47.3223 	 10.03 	 91.3263 	 
C 	 47.8245 	 11.3023 	 90.9945 	 
C 	 47.2804 	 11.8434 	 89.7542 	 
C 	 46.4538 	 10.9257 	 89.087 	 
H 	 47.4186 	 12.7533 	 89.2238 	 
C 	 48.8765 	 12.0265 	 91.7581 	 
H 	 49.5579 	 12.5159 	 91.026 	 
H 	 49.5373 	 11.2842 	 92.2608 	 
C 	 48.4118 	 13.1142 	 92.7467 	 
H 	 49.2748 	 13.6317 	 93.0849 	 
H 	 47.6667 	 13.7705 	 92.2911 	 
C 	 47.6675 	 12.5553 	 94.0013 	 
H 	 46.8287 	 12.0497 	 93.5632 	 
H 	 48.2463 	 11.8003 	 94.5614 	 
H 	 47.3817 	 13.2826 	 94.7841 	 
S 	 45.8065 	 9.57464 	 86.8533 	 
C 	 44.956 	 10.3424 	 85.5621 	 
C 	 44.84 	 11.698 	 85.7914 	 
C 	 45.2952 	 12.0982 	 87.1009 	 
C 	 45.754 	 11.0086 	 87.8464 	 
H 	 44.426 	 12.3777 	 85.0832 	 
C 	 45.27 	 13.5297 	 87.559 	 
H 	 46.3185 	 13.9295 	 87.3635 	 
H 	 45.1026 	 13.4975 	 88.6741 	 
C 	 44.2925 	 14.458 	 86.8538 	 
H 	 44.4976 	 14.6898 	 85.7844 	 
H 	 44.3612 	 15.4834 	 87.1867 	 
C 	 42.7876 	 14.0228 	 87.1722 	 
H 	 42.014 	 14.6834 	 86.8587 	 
H 	 42.7549 	 13.8837 	 88.3085 	 
H 	 42.533 	 13.1119 	 86.6128 	 
H 	 47.5155 	 9.51396 	 92.2508 	 
H 	 44.5599 	 9.94759 	 84.6403 	 
*
