! wB97X-D3 SP def2-SVP
%pal
nprocs 16
end

* xyz 0 1
S 	 -25.3868 	 46.7102 	 61.4436 	 
C 	 -26.3704 	 48.1418 	 61.8273 	 
C 	 -26.2714 	 49.0945 	 60.8338 	 
C 	 -25.3409 	 48.6819 	 59.8713 	 
C 	 -24.854 	 47.3453 	 59.9698 	 
H 	 -25.0887 	 49.2531 	 59.0145 	 
C 	 -26.8096 	 50.5154 	 60.9366 	 
H 	 -26.058 	 51.2253 	 60.6152 	 
H 	 -26.9996 	 50.6652 	 62.0165 	 
C 	 -28.0558 	 50.803 	 60.0923 	 
H 	 -28.4871 	 51.7808 	 60.2878 	 
H 	 -27.7963 	 50.9124 	 59.0323 	 
C 	 -29.1187 	 49.7115 	 60.3492 	 
H 	 -30.1508 	 50.0446 	 59.9479 	 
H 	 -28.8433 	 48.7671 	 59.9347 	 
H 	 -29.2843 	 49.5407 	 61.3818 	 
S 	 -22.7284 	 45.6446 	 59.8462 	 
C 	 -22.0938 	 45.2217 	 58.234 	 
C 	 -23.0102 	 45.5306 	 57.224 	 
C 	 -24.0961 	 46.4087 	 57.6606 	 
C 	 -23.9952 	 46.5874 	 59.0687 	 
H 	 -22.8577 	 45.2267 	 56.228 	 
C 	 -25.1429 	 46.9992 	 56.7453 	 
H 	 -24.7829 	 46.9273 	 55.6976 	 
H 	 -25.2642 	 48.0637 	 56.9396 	 
C 	 -26.5657 	 46.3066 	 56.7935 	 
H 	 -27.2184 	 46.8968 	 56.1376 	 
H 	 -27.0551 	 46.365 	 57.7804 	 
C 	 -26.6183 	 44.8603 	 56.3653 	 
H 	 -25.9812 	 44.6947 	 55.5494 	 
H 	 -27.6454 	 44.4788 	 56.1543 	 
H 	 -26.2244 	 44.125 	 57.0169 	 
H 	 -26.9962 	 48.1822 	 62.763 	 
H 	 -21.3395 	 44.4345 	 58.1375 	 
*
