! wB97X-D3 SP def2-SVP
%pal
nprocs 16
end

* xyz 0 1
S 	 51.106 	 20.4905 	 89.3594 	 
C 	 49.413 	 20.5782 	 88.8536 	 
C 	 48.7355 	 21.3263 	 89.7978 	 
C 	 49.5739 	 22.0613 	 90.67 	 
C 	 50.9179 	 21.7131 	 90.5599 	 
H 	 49.3262 	 22.8346 	 91.4036 	 
C 	 47.2381 	 21.393 	 89.9346 	 
H 	 46.8319 	 20.93 	 89.0382 	 
H 	 47.046 	 22.4585 	 90.0001 	 
C 	 46.5276 	 20.5616 	 91.0407 	 
H 	 46.7605 	 19.4853 	 90.9004 	 
H 	 46.877 	 20.7077 	 92.0752 	 
C 	 45.0495 	 20.7929 	 91.0898 	 
H 	 44.7494 	 21.7962 	 91.2351 	 
H 	 44.5213 	 20.503 	 90.1768 	 
H 	 44.5691 	 20.3084 	 91.924 	 
S 	 53.0723 	 23.4578 	 90.5412 	 
C 	 53.8929 	 23.826 	 92.0515 	 
C 	 53.2372 	 23.1987 	 93.066 	 
C 	 52.202 	 22.3748 	 92.6298 	 
C 	 52.0089 	 22.2972 	 91.326 	 
H 	 53.5814 	 23.4634 	 94.1087 	 
C 	 51.3181 	 21.6706 	 93.6554 	 
H 	 51.7151 	 20.6644 	 93.8849 	 
H 	 50.3518 	 21.5894 	 93.2677 	 
C 	 51.2419 	 22.2425 	 95.0896 	 
H 	 51.156 	 23.3186 	 94.9769 	 
H 	 52.156 	 22.0274 	 95.6692 	 
C 	 50.1018 	 21.5294 	 95.9092 	 
H 	 49.1868 	 22.1527 	 95.9753 	 
H 	 50.5062 	 21.2978 	 96.9568 	 
H 	 49.7122 	 20.6024 	 95.4322 	 
H 	 48.946 	 19.8648 	 88.192 	 
H 	 54.7264 	 24.4855 	 92.2643 	 
*
