! wB97X-D3 SP def2-SVP
%pal
nprocs 16
end

* xyz 0 1
S 	 18.2225 	 20.1011 	 39.9995 	 
C 	 18.1122 	 20.1351 	 38.2822 	 
C 	 16.8 	 19.9402 	 37.8006 	 
C 	 15.9288 	 19.5789 	 38.8372 	 
C 	 16.5377 	 19.5521 	 40.0854 	 
H 	 14.8629 	 19.3427 	 38.7012 	 
C 	 16.277 	 20.0281 	 36.3649 	 
H 	 15.6166 	 19.2091 	 36.2196 	 
H 	 17.1452 	 19.8529 	 35.8115 	 
C 	 15.4942 	 21.3292 	 36.024 	 
H 	 14.9628 	 21.2568 	 35.0866 	 
H 	 14.6842 	 21.501 	 36.7123 	 
C 	 16.3886 	 22.6277 	 36.1285 	 
H 	 16.8481 	 22.7055 	 37.1459 	 
H 	 17.189 	 22.6286 	 35.3973 	 
H 	 15.8411 	 23.5608 	 36.1247 	 
S 	 16.5642 	 17.8151 	 42.1474 	 
C 	 15.3863 	 17.868 	 43.3918 	 
C 	 14.4516 	 18.8587 	 43.1202 	 
C 	 14.6923 	 19.548 	 41.8901 	 
C 	 15.902 	 19.2158 	 41.3373 	 
H 	 13.6075 	 19.0298 	 43.7974 	 
C 	 13.775 	 20.6538 	 41.3338 	 
H 	 12.7138 	 20.5617 	 41.6933 	 
H 	 13.7084 	 20.3354 	 40.2334 	 
C 	 14.4975 	 22.0713 	 41.3417 	 
H 	 13.8538 	 22.8077 	 40.8479 	 
H 	 15.4641 	 21.9934 	 40.7693 	 
C 	 14.9602 	 22.6064 	 42.6898 	 
H 	 15.7207 	 21.9557 	 43.1044 	 
H 	 14.0304 	 22.5143 	 43.2787 	 
H 	 15.3061 	 23.7293 	 42.5638 	 
H 	 18.906 	 20.4413 	 37.6448 	 
H 	 15.3057 	 17.0776 	 44.1523 	 
*
