! wB97X-D3 SP def2-SVP
%pal
nprocs 16
end

* xyz 0 1
S 	 8.68481 	 23.74 	 65.9709 	 
C 	 8.04409 	 23.1111 	 64.465 	 
C 	 7.06292 	 23.9039 	 64.0365 	 
C 	 6.76064 	 25.0112 	 64.8562 	 
C 	 7.46365 	 24.9714 	 66.0223 	 
H 	 6.0293 	 25.8117 	 64.6558 	 
C 	 6.30458 	 23.6281 	 62.7283 	 
H 	 5.40017 	 24.2664 	 62.8243 	 
H 	 5.92465 	 22.5916 	 62.5458 	 
C 	 7.09185 	 24.1324 	 61.5059 	 
H 	 6.40389 	 23.9695 	 60.6285 	 
H 	 7.23564 	 25.1731 	 61.5229 	 
C 	 8.32991 	 23.2649 	 61.089 	 
H 	 8.05088 	 22.2423 	 60.8478 	 
H 	 8.63145 	 23.6652 	 60.1196 	 
H 	 9.20701 	 23.4263 	 61.8201 	 
S 	 8.81461 	 26.5538 	 67.72 	 
C 	 7.86912 	 27.6419 	 68.6505 	 
C 	 6.51831 	 27.7625 	 68.3233 	 
C 	 6.16032 	 26.7339 	 67.4431 	 
C 	 7.27923 	 26.0341 	 67.0183 	 
H 	 5.88948 	 28.5102 	 68.8007 	 
C 	 4.70715 	 26.5051 	 67.0166 	 
H 	 4.69163 	 25.4378 	 66.8793 	 
H 	 4.48171 	 27.1132 	 66.0431 	 
C 	 3.59527 	 26.8148 	 67.9899 	 
H 	 3.82354 	 27.8877 	 68.2009 	 
H 	 3.5432 	 26.2072 	 68.8894 	 
C 	 2.29104 	 26.7105 	 67.3151 	 
H 	 1.57982 	 26.9539 	 68.0599 	 
H 	 2.11002 	 25.6832 	 67.0729 	 
H 	 2.08285 	 27.2946 	 66.4626 	 
H 	 8.28541 	 22.1561 	 63.9636 	 
H 	 8.20551 	 28.2575 	 69.4807 	 
*
