! wB97X-D3 SP def2-SVP
%pal
nprocs 16
end

* xyz 0 1
S 	 49.2872 	 6.21405 	 80.5767 	 
C 	 47.6744 	 6.85728 	 80.3621 	 
C 	 46.7585 	 5.78766 	 80.3349 	 
C 	 47.4111 	 4.5203 	 80.3445 	 
C 	 48.7739 	 4.54932 	 80.6699 	 
H 	 46.8885 	 3.62748 	 80.267 	 
C 	 45.2366 	 6.01541 	 80.2727 	 
H 	 44.9147 	 6.17893 	 79.2337 	 
H 	 45.125 	 6.9592 	 80.7148 	 
C 	 44.2941 	 4.94613 	 80.8785 	 
H 	 43.2959 	 5.20023 	 80.5931 	 
H 	 44.399 	 4.04514 	 80.3831 	 
C 	 44.4123 	 4.67113 	 82.4121 	 
H 	 44.0661 	 5.53379 	 83.0456 	 
H 	 43.6969 	 3.94938 	 82.7137 	 
H 	 45.3472 	 4.22508 	 82.7395 	 
S 	 51.1877 	 3.48099 	 79.852 	 
C 	 51.7826 	 2.02693 	 80.5468 	 
C 	 50.8354 	 1.50815 	 81.4166 	 
C 	 49.6275 	 2.29102 	 81.5226 	 
C 	 49.7061 	 3.45008 	 80.7683 	 
H 	 51.0064 	 0.578377 	 81.9168 	 
C 	 48.6651 	 1.96407 	 82.582 	 
H 	 47.7535 	 2.64531 	 82.4856 	 
H 	 49.1577 	 1.99205 	 83.5054 	 
C 	 47.9706 	 0.544466 	 82.632 	 
H 	 48.6891 	 -0.178735 	 82.9201 	 
H 	 47.6224 	 0.201817 	 81.6642 	 
C 	 46.7206 	 0.616885 	 83.5443 	 
H 	 46.2671 	 -0.344122 	 83.4168 	 
H 	 46.0776 	 1.45775 	 83.3494 	 
H 	 46.949 	 0.491637 	 84.6357 	 
H 	 47.2661 	 7.82299 	 80.518 	 
H 	 52.7478 	 1.70704 	 80.5043 	 
*
