! wB97X-D3 SP def2-SVP
%pal
nprocs 16
end

* xyz 0 1
S 	 -61.8266 	 53.0128 	 128.76 	 
C 	 -63.5258 	 53.3057 	 129.075 	 
C 	 -64.061 	 52.3185 	 129.897 	 
C 	 -63.0743 	 51.3586 	 130.222 	 
C 	 -61.8713 	 51.4946 	 129.606 	 
H 	 -63.2323 	 50.3912 	 130.795 	 
C 	 -65.4941 	 52.1945 	 130.424 	 
H 	 -65.8208 	 51.2363 	 129.992 	 
H 	 -66.0624 	 53.0497 	 129.954 	 
C 	 -65.6616 	 52.1224 	 131.952 	 
H 	 -65.2592 	 51.1929 	 132.293 	 
H 	 -65.1541 	 52.9906 	 132.463 	 
C 	 -67.1325 	 52.2046 	 132.211 	 
H 	 -67.3533 	 52.2557 	 133.222 	 
H 	 -67.5473 	 53.2434 	 131.923 	 
H 	 -67.7778 	 51.5379 	 131.668 	 
S 	 -61.1645 	 48.9039 	 130.019 	 
C 	 -59.5049 	 48.4496 	 129.894 	 
C 	 -58.6337 	 49.4801 	 129.572 	 
C 	 -59.3562 	 50.6943 	 129.399 	 
C 	 -60.7571 	 50.5539 	 129.64 	 
H 	 -57.5701 	 49.2817 	 129.461 	 
C 	 -58.5836 	 51.9942 	 129 	 
H 	 -57.5831 	 51.9827 	 129.358 	 
H 	 -59.1321 	 52.8214 	 129.42 	 
C 	 -58.4775 	 52.091 	 127.467 	 
H 	 -58.5486 	 53.1928 	 127.084 	 
H 	 -59.275 	 51.5541 	 127.019 	 
C 	 -57.1505 	 51.5224 	 126.968 	 
H 	 -56.9786 	 51.9163 	 125.924 	 
H 	 -57.1298 	 50.4002 	 126.951 	 
H 	 -56.3958 	 51.9801 	 127.62 	 
H 	 -64.0742 	 54.201 	 128.736 	 
H 	 -59.2807 	 47.4102 	 130.082 	 
*
