! wB97X-D3 SP def2-SVP
%pal
nprocs 16
end

* xyz 0 1
S 	 -40.1799 	 26.6168 	 77.9335 	 
C 	 -41.3437 	 27.9346 	 78.2676 	 
C 	 -42.3078 	 27.5202 	 79.1381 	 
C 	 -42.3014 	 26.1129 	 79.415 	 
C 	 -41.1829 	 25.4145 	 78.9274 	 
H 	 -43.032 	 25.6033 	 80.0245 	 
C 	 -43.4566 	 28.441 	 79.7183 	 
H 	 -43.7326 	 27.9706 	 80.7014 	 
H 	 -44.2626 	 28.3316 	 78.9647 	 
C 	 -43.0521 	 29.9478 	 79.9463 	 
H 	 -42.1173 	 29.8925 	 80.5175 	 
H 	 -42.751 	 30.4207 	 78.9597 	 
C 	 -44.0626 	 30.8673 	 80.6599 	 
H 	 -45.0453 	 30.78 	 80.2496 	 
H 	 -44.192 	 30.5548 	 81.7063 	 
H 	 -43.6394 	 31.8785 	 80.6283 	 
S 	 -39.9852 	 23.243 	 77.8322 	 
C 	 -39.9087 	 21.7048 	 78.6123 	 
C 	 -40.3081 	 21.8795 	 79.9158 	 
C 	 -40.8694 	 23.1348 	 80.2048 	 
C 	 -40.8077 	 23.993 	 79.1115 	 
H 	 -40.2831 	 20.9612 	 80.3913 	 
C 	 -41.6936 	 23.3636 	 81.5163 	 
H 	 -41.8988 	 22.4505 	 82.042 	 
H 	 -42.6984 	 23.598 	 81.2453 	 
C 	 -41.1543 	 24.4152 	 82.4319 	 
H 	 -40.9324 	 25.273 	 81.8843 	 
H 	 -40.1936 	 24.0107 	 82.829 	 
C 	 -42.106 	 24.7142 	 83.5185 	 
H 	 -43.0908 	 25.1696 	 83.285 	 
H 	 -41.5157 	 25.1726 	 84.3839 	 
H 	 -42.3934 	 23.7026 	 83.8434 	 
H 	 -41.1426 	 28.9558 	 77.9118 	 
H 	 -39.492 	 20.8079 	 78.2369 	 
*
