! wB97X-D3 SP def2-SVP
%pal
nprocs 16
end

* xyz 0 1
S 	 -29.865 	 59.898 	 108.569 	 
C 	 -29.4398 	 59.365 	 106.896 	 
C 	 -30.4429 	 59.7449 	 106.046 	 
C 	 -31.6461 	 60.1536 	 106.734 	 
C 	 -31.4816 	 60.2538 	 108.077 	 
H 	 -32.5399 	 60.3501 	 106.223 	 
C 	 -30.3989 	 59.5626 	 104.526 	 
H 	 -31.3031 	 60.1403 	 104.204 	 
H 	 -30.5055 	 58.5361 	 104.231 	 
C 	 -29.1427 	 60.1144 	 103.795 	 
H 	 -28.8243 	 61.1225 	 104.112 	 
H 	 -28.3443 	 59.4907 	 104.115 	 
C 	 -29.2426 	 60.1599 	 102.335 	 
H 	 -28.4301 	 60.7065 	 101.851 	 
H 	 -29.2084 	 59.1175 	 101.994 	 
H 	 -30.1205 	 60.6589 	 101.976 	 
S 	 -32.2305 	 62.1272 	 110.028 	 
C 	 -33.5922 	 61.7338 	 111.094 	 
C 	 -34.2212 	 60.6076 	 110.641 	 
C 	 -33.6148 	 60.0457 	 109.441 	 
C 	 -32.4431 	 60.6991 	 109.069 	 
H 	 -35.1788 	 60.3961 	 111.081 	 
C 	 -34.0087 	 58.753 	 108.825 	 
H 	 -34.4526 	 58.1975 	 109.64 	 
H 	 -33.255 	 58.1232 	 108.441 	 
C 	 -35.0766 	 58.9433 	 107.67 	 
H 	 -34.4965 	 59.4776 	 106.959 	 
H 	 -35.9722 	 59.544 	 107.875 	 
C 	 -35.5019 	 57.5695 	 107.123 	 
H 	 -34.5765 	 56.9765 	 106.976 	 
H 	 -36.0293 	 57.651 	 106.113 	 
H 	 -36.1244 	 57.0063 	 107.743 	 
H 	 -28.3736 	 59.13 	 106.565 	 
H 	 -33.9339 	 62.3855 	 111.806 	 
*
