! wB97X-D3 SP def2-SVP
%pal
nprocs 16
end

* xyz 0 1
S 	 -1.24152 	 9.32619 	 79.7331 	 
C 	 -0.428626 	 9.30576 	 78.2259 	 
C 	 -0.0789913 	 7.98581 	 77.926 	 
C 	 -0.765448 	 7.00002 	 78.7842 	 
C 	 -1.49335 	 7.61522 	 79.8232 	 
H 	 -0.832102 	 5.97257 	 78.5606 	 
C 	 0.753958 	 7.57629 	 76.7392 	 
H 	 0.722694 	 6.4843 	 76.6285 	 
H 	 1.73626 	 7.79423 	 77.1482 	 
C 	 0.548348 	 8.51577 	 75.5496 	 
H 	 -0.52026 	 8.55698 	 75.2318 	 
H 	 0.795937 	 9.52534 	 75.8831 	 
C 	 1.37401 	 8.0801 	 74.387 	 
H 	 2.41018 	 8.20975 	 74.6412 	 
H 	 1.10069 	 7.11627 	 74.0237 	 
H 	 1.2689 	 8.65994 	 73.4999 	 
S 	 -1.73737 	 6.6789 	 82.3976 	 
C 	 -3.31898 	 6.10112 	 82.9788 	 
C 	 -4.2055 	 5.97866 	 81.9503 	 
C 	 -3.6673 	 6.53592 	 80.684 	 
C 	 -2.33297 	 6.97522 	 80.8076 	 
H 	 -5.19807 	 5.55877 	 82.117 	 
C 	 -4.45412 	 6.51746 	 79.3858 	 
H 	 -5.32738 	 5.87109 	 79.6599 	 
H 	 -3.74841 	 5.98086 	 78.7458 	 
C 	 -4.97996 	 7.88289 	 78.8273 	 
H 	 -4.16447 	 8.52401 	 78.4533 	 
H 	 -5.43492 	 8.34761 	 79.7418 	 
C 	 -5.9889 	 7.58612 	 77.7876 	 
H 	 -5.57677 	 7.22976 	 76.8458 	 
H 	 -6.51376 	 8.56753 	 77.5724 	 
H 	 -6.85295 	 7.0785 	 78.1703 	 
H 	 0.0036447 	 10.1637 	 77.6971 	 
H 	 -3.48908 	 5.94565 	 84.0055 	 
*
