! wB97X-D3 SP def2-SVP
%pal
nprocs 16
end

* xyz 0 1
S 	 -41.3378 	 52.5021 	 107.688 	 
C 	 -40.0637 	 53.7143 	 107.928 	 
C 	 -38.9648 	 53.087 	 108.443 	 
C 	 -39.1358 	 51.6687 	 108.434 	 
C 	 -40.3198 	 51.154 	 107.955 	 
H 	 -38.4419 	 50.8623 	 108.741 	 
C 	 -37.5149 	 53.6603 	 108.637 	 
H 	 -37.558 	 54.6932 	 108.488 	 
H 	 -36.9321 	 53.304 	 107.795 	 
C 	 -36.8279 	 53.5068 	 109.963 	 
H 	 -36.6172 	 52.4752 	 110.23 	 
H 	 -35.8187 	 53.9325 	 109.699 	 
C 	 -37.4991 	 54.3704 	 111.067 	 
H 	 -37.6745 	 55.4393 	 110.918 	 
H 	 -38.5003 	 54.0038 	 111.3 	 
H 	 -36.9202 	 54.3668 	 112.04 	 
S 	 -41.931 	 49.1696 	 108.98 	 
C 	 -41.6024 	 47.4952 	 108.634 	 
C 	 -40.6205 	 47.3462 	 107.701 	 
C 	 -40.0734 	 48.5938 	 107.339 	 
C 	 -40.7027 	 49.728 	 107.899 	 
H 	 -40.2927 	 46.3968 	 107.286 	 
C 	 -38.8724 	 48.6793 	 106.453 	 
H 	 -38.7202 	 49.6999 	 106.09 	 
H 	 -39.1269 	 47.9405 	 105.679 	 
C 	 -37.5202 	 48.1304 	 107.024 	 
H 	 -37.6201 	 47.161 	 107.57 	 
H 	 -37.1342 	 48.8458 	 107.735 	 
C 	 -36.3133 	 47.9765 	 105.997 	 
H 	 -36.0067 	 48.9418 	 105.704 	 
H 	 -36.6194 	 47.4032 	 105.068 	 
H 	 -35.4707 	 47.4531 	 106.339 	 
H 	 -40.151 	 54.7644 	 107.657 	 
H 	 -41.8962 	 46.5726 	 109.073 	 
*
