! wB97X-D3 SP def2-SVP
%pal
nprocs 16
end

* xyz 0 1
S 	 41.7034 	 13.8986 	 86.5597 	 
C 	 43.012 	 14.9318 	 86.4812 	 
C 	 43.9742 	 14.5297 	 85.586 	 
C 	 43.5797 	 13.3847 	 84.8738 	 
C 	 42.3604 	 12.8726 	 85.274 	 
H 	 44.1204 	 12.8352 	 84.0981 	 
C 	 45.2999 	 15.1405 	 85.3872 	 
H 	 46.0109 	 14.3548 	 85.6607 	 
H 	 45.4839 	 15.9281 	 86.1654 	 
C 	 45.6129 	 15.7256 	 84.0435 	 
H 	 46.6204 	 16.1048 	 84.021 	 
H 	 45.6028 	 14.9465 	 83.223 	 
C 	 44.5964 	 16.7982 	 83.7425 	 
H 	 43.6109 	 16.5825 	 83.9875 	 
H 	 44.8255 	 17.665 	 84.3523 	 
H 	 44.5907 	 17.116 	 82.6745 	 
S 	 42.6951 	 10.7794 	 83.4607 	 
C 	 41.3142 	 9.8776 	 82.8625 	 
C 	 40.1435 	 10.2406 	 83.507 	 
C 	 40.3344 	 11.2721 	 84.4763 	 
C 	 41.6808 	 11.7413 	 84.597 	 
H 	 39.2394 	 9.747 	 83.2798 	 
C 	 39.1673 	 11.8748 	 85.189 	 
H 	 38.7112 	 12.4413 	 84.3987 	 
H 	 39.4839 	 12.608 	 85.9608 	 
C 	 38.0405 	 10.863 	 85.6524 	 
H 	 37.6023 	 10.3835 	 84.7375 	 
H 	 37.2191 	 11.385 	 86.1751 	 
C 	 38.556 	 9.71602 	 86.5909 	 
H 	 39.4774 	 9.18238 	 86.4377 	 
H 	 37.7273 	 9.05111 	 86.8397 	 
H 	 38.7787 	 10.2626 	 87.5249 	 
H 	 43.3109 	 15.7013 	 87.2533 	 
H 	 41.2734 	 9.08852 	 82.1439 	 
*
