! wB97X-D3 SP def2-SVP
%pal
nprocs 16
end

* xyz 0 1
S 	 47.5162 	 12.2449 	 77.9057 	 
C 	 47.1472 	 11.3398 	 79.4083 	 
C 	 47.4868 	 11.9495 	 80.6185 	 
C 	 48.1622 	 13.167 	 80.2765 	 
C 	 48.1757 	 13.541 	 78.9198 	 
H 	 48.5942 	 13.85 	 81.0252 	 
C 	 47.2758 	 11.4188 	 82.0552 	 
H 	 48.0583 	 11.7506 	 82.6792 	 
H 	 47.2812 	 10.3314 	 81.895 	 
C 	 45.9203 	 11.6817 	 82.7644 	 
H 	 45.8537 	 12.7255 	 83.1283 	 
H 	 45.0991 	 11.5109 	 82.0727 	 
C 	 45.7059 	 10.8609 	 84.0861 	 
H 	 44.8598 	 11.3278 	 84.6168 	 
H 	 45.5417 	 9.82365 	 83.8939 	 
H 	 46.6137 	 10.8808 	 84.7751 	 
S 	 49.6311 	 14.8013 	 76.9117 	 
C 	 49.7657 	 16.5429 	 77.0076 	 
C 	 49.0706 	 17.065 	 78.0522 	 
C 	 48.2328 	 16.097 	 78.7364 	 
C 	 48.5835 	 14.8039 	 78.3333 	 
H 	 49.1962 	 18.1539 	 78.2088 	 
C 	 47.1317 	 16.3407 	 79.73 	 
H 	 46.8632 	 15.3713 	 80.193 	 
H 	 46.2829 	 16.6036 	 79.1816 	 
C 	 47.4305 	 17.3163 	 80.9433 	 
H 	 46.6056 	 17.7263 	 81.4096 	 
H 	 47.9387 	 18.2347 	 80.5871 	 
C 	 48.3348 	 16.7596 	 82.0225 	 
H 	 47.7694 	 15.9757 	 82.5569 	 
H 	 48.572 	 17.6624 	 82.6326 	 
H 	 49.2358 	 16.3146 	 81.5373 	 
H 	 46.7633 	 10.2953 	 79.4058 	 
H 	 50.3147 	 17.0399 	 76.3166 	 
*
