! wB97X-D3 SP def2-SVP
%pal
nprocs 16
end

* xyz 0 1
S 	 -2.34725 	 -14.1727 	 87.5106 	 
C 	 -1.33647 	 -15.5978 	 87.6116 	 
C 	 -1.73897 	 -16.6017 	 86.7771 	 
C 	 -2.99237 	 -16.3472 	 86.2069 	 
C 	 -3.54756 	 -15.0892 	 86.5205 	 
H 	 -3.51476 	 -16.9965 	 85.6087 	 
C 	 -1.04811 	 -17.8614 	 86.4172 	 
H 	 0.0276527 	 -17.7113 	 86.5617 	 
H 	 -1.05557 	 -17.8437 	 85.3252 	 
C 	 -1.57124 	 -19.2654 	 86.9654 	 
H 	 -1.08106 	 -19.399 	 87.9069 	 
H 	 -2.6177 	 -19.0885 	 87.1586 	 
C 	 -1.19575 	 -20.4735 	 86.0708 	 
H 	 -1.61767 	 -21.3462 	 86.5518 	 
H 	 -1.70009 	 -20.4035 	 85.1293 	 
H 	 -0.222714 	 -20.644 	 85.8392 	 
S 	 -4.88327 	 -12.696 	 86.2464 	 
C 	 -6.38543 	 -12.6251 	 85.3966 	 
C 	 -6.78864 	 -13.881 	 84.9966 	 
C 	 -5.95972 	 -14.9482 	 85.5076 	 
C 	 -4.75266 	 -14.4752 	 86.008 	 
H 	 -7.72078 	 -14.0077 	 84.4632 	 
C 	 -6.46731 	 -16.3974 	 85.4623 	 
H 	 -6.48785 	 -16.6861 	 86.4952 	 
H 	 -5.74536 	 -16.9977 	 84.9976 	 
C 	 -7.91757 	 -16.7398 	 84.9565 	 
H 	 -7.85501 	 -16.3362 	 83.9903 	 
H 	 -8.52378 	 -16.2763 	 85.5963 	 
C 	 -8.12878 	 -18.2779 	 84.8391 	 
H 	 -8.15224 	 -18.8294 	 85.8166 	 
H 	 -7.45349 	 -18.7385 	 84.1758 	 
H 	 -9.1477 	 -18.4606 	 84.4693 	 
H 	 -0.585606 	 -15.7792 	 88.3376 	 
H 	 -6.84856 	 -11.6783 	 85.1269 	 
*
