! wB97X-D3 SP def2-SVP
%pal
nprocs 16
end

* xyz 0 1
S 	 8.21747 	 -6.39921 	 89.048 	 
C 	 9.05585 	 -5.01899 	 88.3628 	 
C 	 8.47257 	 -4.46923 	 87.2802 	 
C 	 7.35166 	 -5.19362 	 86.9121 	 
C 	 7.07157 	 -6.22883 	 87.754 	 
H 	 6.56133 	 -4.92953 	 86.1541 	 
C 	 8.86606 	 -3.19351 	 86.5405 	 
H 	 8.51567 	 -3.18298 	 85.4783 	 
H 	 9.97169 	 -3.13917 	 86.432 	 
C 	 8.31917 	 -1.96329 	 87.2211 	 
H 	 8.50481 	 -1.18578 	 86.5046 	 
H 	 7.31192 	 -2.1175 	 87.396 	 
C 	 9.03202 	 -1.59528 	 88.4415 	 
H 	 8.89324 	 -0.562149 	 88.8259 	 
H 	 8.73565 	 -2.34037 	 89.1995 	 
H 	 10.0835 	 -1.62718 	 88.2943 	 
S 	 5.62166 	 -8.02803 	 86.293 	 
C 	 4.23083 	 -8.72519 	 87.009 	 
C 	 4.08199 	 -8.50283 	 88.3228 	 
C 	 5.15384 	 -7.63151 	 88.7672 	 
C 	 5.87781 	 -7.08366 	 87.7223 	 
H 	 3.37687 	 -9.07484 	 88.9221 	 
C 	 5.14387 	 -7.12421 	 90.128 	 
H 	 4.10553 	 -6.82224 	 90.3322 	 
H 	 5.71695 	 -6.22097 	 90.2129 	 
C 	 5.8079 	 -8.04388 	 91.1019 	 
H 	 6.84396 	 -8.22129 	 90.9225 	 
H 	 5.39193 	 -9.03873 	 91.119 	 
C 	 5.63167 	 -7.62539 	 92.5956 	 
H 	 5.89152 	 -8.45502 	 93.3437 	 
H 	 4.64413 	 -7.4897 	 92.8481 	 
H 	 6.24999 	 -6.79691 	 92.7907 	 
H 	 10.0072 	 -4.67613 	 88.7752 	 
H 	 3.68036 	 -9.57082 	 86.5519 	 
*
