! wB97X-D3 SP def2-SVP
%pal
nprocs 16
end

* xyz 0 1
S 	 22.7596 	 7.44521 	 73.3225 	 
C 	 22.5334 	 6.74623 	 71.6797 	 
C 	 21.2965 	 7.03235 	 71.1707 	 
C 	 20.5355 	 7.95826 	 71.9868 	 
C 	 21.1732 	 8.23592 	 73.1922 	 
H 	 19.5025 	 8.25604 	 71.8158 	 
C 	 20.7082 	 6.36582 	 69.9326 	 
H 	 19.6021 	 6.53151 	 70.086 	 
H 	 20.83 	 5.30907 	 70.0013 	 
C 	 21.1104 	 7.00605 	 68.6515 	 
H 	 20.5736 	 6.57519 	 67.7708 	 
H 	 20.7436 	 8.05895 	 68.7034 	 
C 	 22.5615 	 6.95594 	 68.2391 	 
H 	 22.9715 	 5.94772 	 68.1698 	 
H 	 22.6073 	 7.37931 	 67.259 	 
H 	 23.2195 	 7.64255 	 68.8884 	 
S 	 19.202 	 7.99977 	 75.0103 	 
C 	 19.174 	 9.0459 	 76.3748 	 
C 	 19.9769 	 10.1495 	 76.2415 	 
C 	 20.8235 	 9.97228 	 75.1508 	 
C 	 20.4899 	 8.86333 	 74.3637 	 
H 	 20.0677 	 10.9704 	 76.944 	 
C 	 22.0773 	 10.8179 	 74.8617 	 
H 	 22.861 	 10.0817 	 74.697 	 
H 	 22.3157 	 11.4854 	 75.6615 	 
C 	 21.9983 	 11.5821 	 73.5378 	 
H 	 21.6165 	 10.8689 	 72.7559 	 
H 	 23.0306 	 11.8122 	 73.2604 	 
C 	 21.1901 	 12.8895 	 73.3761 	 
H 	 20.085 	 12.7027 	 73.4969 	 
H 	 21.3296 	 13.3374 	 72.3898 	 
H 	 21.483 	 13.6466 	 74.0976 	 
H 	 23.2287 	 6.12135 	 71.1752 	 
H 	 18.5219 	 8.89587 	 77.2311 	 
*
