! wB97X-D3 SP def2-SVP
%pal
nprocs 16
end

* xyz 0 1
S 	 -106.36 	 57.5921 	 121.561 	 
C 	 -105.33 	 58.8533 	 120.935 	 
C 	 -105.314 	 58.8157 	 119.529 	 
C 	 -106.133 	 57.7674 	 118.991 	 
C 	 -106.79 	 57.0612 	 119.931 	 
H 	 -106.227 	 57.62 	 117.906 	 
C 	 -104.325 	 59.5693 	 118.612 	 
H 	 -104.173 	 58.9726 	 117.743 	 
H 	 -103.352 	 59.571 	 118.913 	 
C 	 -104.841 	 60.8966 	 118.142 	 
H 	 -104.005 	 61.3532 	 117.63 	 
H 	 -105.56 	 60.7654 	 117.38 	 
C 	 -105.172 	 61.7943 	 119.391 	 
H 	 -104.286 	 61.9371 	 119.967 	 
H 	 -105.609 	 62.7267 	 118.977 	 
H 	 -105.838 	 61.3979 	 120.156 	 
S 	 -107.265 	 54.5277 	 120.8 	 
C 	 -107.989 	 53.357 	 119.835 	 
C 	 -108.331 	 53.8619 	 118.609 	 
C 	 -108.178 	 55.2713 	 118.547 	 
C 	 -107.503 	 55.8324 	 119.653 	 
H 	 -108.724 	 53.2466 	 117.803 	 
C 	 -108.385 	 55.9309 	 117.159 	 
H 	 -108.497 	 57.0667 	 117.187 	 
H 	 -109.292 	 55.5227 	 116.839 	 
C 	 -107.251 	 55.5248 	 116.228 	 
H 	 -107.209 	 54.4502 	 116.092 	 
H 	 -106.268 	 55.8991 	 116.521 	 
C 	 -107.405 	 56.258 	 114.94 	 
H 	 -106.579 	 55.9989 	 114.224 	 
H 	 -107.276 	 57.3535 	 115.073 	 
H 	 -108.406 	 56.1166 	 114.516 	 
H 	 -104.758 	 59.5231 	 121.459 	 
H 	 -108.068 	 52.2891 	 120.164 	 
*
