! wB97X-D3 SP def2-SVP
%pal
nprocs 16
end

* xyz 0 1
S 	 -44.4049 	 31.8054 	 83.1411 	 
C 	 -45.3162 	 32.7247 	 81.9929 	 
C 	 -45.305 	 32.1269 	 80.7711 	 
C 	 -44.2449 	 31.1625 	 80.7199 	 
C 	 -43.6397 	 30.8609 	 81.8984 	 
H 	 -44.0129 	 30.6099 	 79.8124 	 
C 	 -46.1511 	 32.4806 	 79.6125 	 
H 	 -45.5964 	 32.6312 	 78.7087 	 
H 	 -46.6234 	 33.4755 	 79.8454 	 
C 	 -47.316 	 31.4544 	 79.4458 	 
H 	 -46.8752 	 30.4232 	 79.3909 	 
H 	 -47.8678 	 31.3911 	 80.4042 	 
C 	 -48.1967 	 31.851 	 78.2517 	 
H 	 -48.5181 	 32.8361 	 78.416 	 
H 	 -47.7283 	 31.759 	 77.2842 	 
H 	 -49.0911 	 31.248 	 78.3211 	 
S 	 -40.9068 	 30.7029 	 81.6562 	 
C 	 -40.1106 	 29.3307 	 82.3654 	 
C 	 -40.9981 	 28.4342 	 82.8451 	 
C 	 -42.3848 	 28.7577 	 82.8193 	 
C 	 -42.5108 	 30.0021 	 82.154 	 
H 	 -40.6074 	 27.5324 	 83.2991 	 
C 	 -43.4578 	 27.9401 	 83.3653 	 
H 	 -44.4627 	 28.2947 	 83.0365 	 
H 	 -43.3803 	 27.9731 	 84.3807 	 
C 	 -43.3784 	 26.4168 	 83.0738 	 
H 	 -43.9079 	 25.7392 	 83.7618 	 
H 	 -42.3816 	 26.0972 	 83.4973 	 
C 	 -43.7386 	 25.9982 	 81.6919 	 
H 	 -43.01 	 26.5324 	 81.0198 	 
H 	 -44.842 	 26.2754 	 81.3973 	 
H 	 -43.62 	 24.9051 	 81.572 	 
H 	 -45.9785 	 33.5357 	 82.1944 	 
H 	 -39.0577 	 29.1853 	 82.4382 	 
*
