! wB97X-D3 SP def2-SVP
%pal
nprocs 16
end

* xyz 0 1
S 	 -24.5145 	 52.1637 	 65.1226 	 
C 	 -24.3643 	 51.3654 	 63.6084 	 
C 	 -24.2033 	 49.9973 	 63.8271 	 
C 	 -24.7495 	 49.5677 	 65.0321 	 
C 	 -24.9699 	 50.6414 	 65.8719 	 
H 	 -24.9637 	 48.5194 	 65.3411 	 
C 	 -23.8291 	 49.0572 	 62.7219 	 
H 	 -23.0162 	 48.4752 	 63.1386 	 
H 	 -23.4451 	 49.5618 	 61.8322 	 
C 	 -24.8908 	 48.0582 	 62.2375 	 
H 	 -24.4536 	 47.6857 	 61.3378 	 
H 	 -25.0317 	 47.1851 	 62.8765 	 
C 	 -26.2695 	 48.594 	 62.1267 	 
H 	 -26.3834 	 49.656 	 61.7966 	 
H 	 -26.9333 	 47.9681 	 61.4979 	 
H 	 -26.7531 	 48.4901 	 63.0757 	 
S 	 -24.8511 	 51.6363 	 68.4599 	 
C 	 -25.8614 	 50.9476 	 69.6747 	 
C 	 -26.6157 	 49.8655 	 69.2426 	 
C 	 -26.318 	 49.6388 	 67.8742 	 
C 	 -25.5063 	 50.5895 	 67.2434 	 
H 	 -27.2869 	 49.2462 	 69.9264 	 
C 	 -26.9888 	 48.515 	 67.1593 	 
H 	 -26.4691 	 47.6206 	 67.3378 	 
H 	 -26.9848 	 48.8575 	 66.1369 	 
C 	 -28.4443 	 48.1949 	 67.581 	 
H 	 -28.9399 	 49.223 	 67.7265 	 
H 	 -28.434 	 47.8112 	 68.5828 	 
C 	 -29.0206 	 47.2744 	 66.456 	 
H 	 -28.2714 	 46.5023 	 66.0601 	 
H 	 -29.2752 	 47.8889 	 65.6558 	 
H 	 -29.9303 	 46.8878 	 66.8519 	 
H 	 -24.1311 	 51.8303 	 62.6852 	 
H 	 -25.8381 	 51.2491 	 70.7418 	 
*
