! wB97X-D3 SP def2-SVP
%pal
nprocs 16
end

* xyz 0 1
S 	 8.33167 	 -5.67032 	 91.8598 	 
C 	 8.29503 	 -6.09953 	 93.5779 	 
C 	 9.28281 	 -7.07683 	 93.8727 	 
C 	 10.138 	 -7.35714 	 92.768 	 
C 	 9.70012 	 -6.77247 	 91.5764 	 
H 	 10.9771 	 -8.0268 	 92.8806 	 
C 	 9.42567 	 -7.82872 	 95.1737 	 
H 	 9.14329 	 -7.05842 	 96.0308 	 
H 	 10.3941 	 -8.24679 	 95.4053 	 
C 	 8.44807 	 -9.04343 	 95.2061 	 
H 	 8.48995 	 -9.43253 	 96.1763 	 
H 	 7.41468 	 -8.76472 	 95.0338 	 
C 	 8.83886 	 -10.1643 	 94.1528 	 
H 	 9.88818 	 -10.294 	 94.2379 	 
H 	 8.31213 	 -11.0791 	 94.4283 	 
H 	 8.5316 	 -9.87733 	 93.1209 	 
S 	 10.3665 	 -5.30437 	 89.3023 	 
C 	 11.003 	 -6.09724 	 87.9153 	 
C 	 11.2028 	 -7.43713 	 88.0994 	 
C 	 10.751 	 -7.88242 	 89.3799 	 
C 	 10.3205 	 -6.83792 	 90.2097 	 
H 	 11.5578 	 -8.03297 	 87.2989 	 
C 	 10.8758 	 -9.38081 	 89.8257 	 
H 	 10.9116 	 -9.35005 	 90.8817 	 
H 	 11.7821 	 -9.79734 	 89.4913 	 
C 	 9.71415 	 -10.2453 	 89.4891 	 
H 	 9.65786 	 -10.3137 	 88.3852 	 
H 	 8.77758 	 -9.92778 	 89.8734 	 
C 	 9.97116 	 -11.7102 	 89.867 	 
H 	 9.28655 	 -12.505 	 89.4883 	 
H 	 10.1205 	 -11.8027 	 91.0103 	 
H 	 10.9827 	 -11.9771 	 89.5226 	 
H 	 7.52061 	 -5.69507 	 94.2359 	 
H 	 11.1533 	 -5.75736 	 86.9596 	 
*
