! wB97X-D3 SP def2-SVP
%pal
nprocs 16
end

* xyz 0 1
S 	 -0.748097 	 -19.6426 	 61.5983 	 
C 	 -0.150998 	 -20.0299 	 59.9966 	 
C 	 -1.14154 	 -20.5465 	 59.1381 	 
C 	 -2.37973 	 -20.5289 	 59.8239 	 
C 	 -2.36778 	 -20.1211 	 61.1404 	 
H 	 -3.27409 	 -20.7823 	 59.3707 	 
C 	 -0.989286 	 -20.9382 	 57.7607 	 
H 	 -0.131384 	 -20.3188 	 57.3054 	 
H 	 -1.91231 	 -20.5111 	 57.2657 	 
C 	 -0.830317 	 -22.4246 	 57.4427 	 
H 	 -0.785246 	 -22.5658 	 56.3772 	 
H 	 0.164838 	 -22.8275 	 57.7825 	 
C 	 -1.94943 	 -23.374 	 57.9129 	 
H 	 -2.80055 	 -23.2427 	 57.2522 	 
H 	 -1.66975 	 -24.4091 	 57.9102 	 
H 	 -2.20782 	 -23.3069 	 58.9561 	 
S 	 -3.5513 	 -20.6338 	 63.6208 	 
C 	 -5.22695 	 -20.3408 	 63.8307 	 
C 	 -5.75438 	 -19.7193 	 62.7428 	 
C 	 -4.84198 	 -19.4707 	 61.6591 	 
C 	 -3.57011 	 -19.9447 	 61.9952 	 
H 	 -6.76646 	 -19.4315 	 62.7183 	 
C 	 -5.27029 	 -18.7537 	 60.4393 	 
H 	 -6.3761 	 -18.9806 	 60.3037 	 
H 	 -4.68289 	 -19.1767 	 59.6088 	 
C 	 -4.97273 	 -17.295 	 60.4672 	 
H 	 -3.96925 	 -17.064 	 60.1099 	 
H 	 -5.13525 	 -16.8642 	 61.4372 	 
C 	 -5.78711 	 -16.4897 	 59.512 	 
H 	 -6.85537 	 -16.4769 	 59.5739 	 
H 	 -5.57254 	 -16.7984 	 58.4969 	 
H 	 -5.4175 	 -15.4621 	 59.6655 	 
H 	 0.859943 	 -19.9202 	 59.6584 	 
H 	 -5.81631 	 -20.4334 	 64.7441 	 
*
