! wB97X-D3 SP def2-SVP
%pal
nprocs 16
end

* xyz 0 1
S 	 -62.7931 	 37.0971 	 116.718 	 
C 	 -63.2982 	 35.973 	 117.976 	 
C 	 -64.4021 	 36.5028 	 118.672 	 
C 	 -64.8355 	 37.7622 	 118.123 	 
C 	 -64.1243 	 38.2413 	 117.047 	 
H 	 -65.6695 	 38.28 	 118.524 	 
C 	 -65.0792 	 35.6434 	 119.757 	 
H 	 -65.4564 	 36.4173 	 120.487 	 
H 	 -64.4454 	 35.0643 	 120.381 	 
C 	 -66.2327 	 34.722 	 119.252 	 
H 	 -66.6758 	 34.2658 	 120.158 	 
H 	 -67.0246 	 35.2749 	 118.685 	 
C 	 -65.8606 	 33.4933 	 118.291 	 
H 	 -65.526 	 33.7566 	 117.293 	 
H 	 -65.0031 	 32.9984 	 118.701 	 
H 	 -66.7437 	 32.8775 	 118.275 	 
S 	 -63.8043 	 41.005 	 116.801 	 
C 	 -63.8794 	 41.6512 	 115.176 	 
C 	 -64.4427 	 40.7412 	 114.268 	 
C 	 -64.584 	 39.4542 	 114.874 	 
C 	 -64.308 	 39.4287 	 116.207 	 
H 	 -64.6241 	 40.9033 	 113.191 	 
C 	 -65.3072 	 38.3928 	 114.024 	 
H 	 -66.4245 	 38.5137 	 114.194 	 
H 	 -65.0987 	 37.4785 	 114.557 	 
C 	 -64.8893 	 38.2628 	 112.564 	 
H 	 -64.8861 	 39.2315 	 112.103 	 
H 	 -65.5703 	 37.6098 	 112.07 	 
C 	 -63.4049 	 37.767 	 112.425 	 
H 	 -63.3707 	 36.6883 	 112.539 	 
H 	 -62.7407 	 38.0653 	 113.255 	 
H 	 -62.9035 	 37.95 	 111.377 	 
H 	 -62.9286 	 34.911 	 118.015 	 
H 	 -63.4656 	 42.6098 	 114.933 	 
*
