! wB97X-D3 SP def2-SVP
%pal
nprocs 16
end

* xyz 0 1
S 	 -49.2887 	 64.2404 	 145.348 	 
C 	 -48.2691 	 63.4551 	 144.202 	 
C 	 -47.0684 	 64.1278 	 143.985 	 
C 	 -47.1688 	 65.4512 	 144.509 	 
C 	 -48.2697 	 65.6745 	 145.307 	 
H 	 -46.4683 	 66.205 	 144.263 	 
C 	 -45.8985 	 63.6603 	 143.195 	 
H 	 -45.8066 	 64.3808 	 142.379 	 
H 	 -46.1415 	 62.777 	 142.634 	 
C 	 -44.6302 	 63.42 	 144.045 	 
H 	 -44.8254 	 62.8074 	 144.915 	 
H 	 -43.9429 	 62.729 	 143.489 	 
C 	 -43.7454 	 64.681 	 144.305 	 
H 	 -43.421 	 65.2016 	 143.403 	 
H 	 -44.4005 	 65.3659 	 144.777 	 
H 	 -42.8664 	 64.3216 	 144.946 	 
S 	 -50.3709 	 67.4362 	 145.576 	 
C 	 -50.0589 	 68.9537 	 146.449 	 
C 	 -48.838 	 68.9919 	 147.074 	 
C 	 -48.0534 	 67.8047 	 146.769 	 
C 	 -48.7452 	 66.901 	 145.916 	 
H 	 -48.6121 	 69.7756 	 147.727 	 
C 	 -46.6338 	 67.7658 	 147.284 	 
H 	 -46.4455 	 68.7465 	 147.55 	 
H 	 -45.9609 	 67.6441 	 146.43 	 
C 	 -46.4752 	 66.6792 	 148.385 	 
H 	 -47.0489 	 65.6999 	 148.415 	 
H 	 -46.7742 	 67.091 	 149.356 	 
C 	 -45.0207 	 66.3276 	 148.522 	 
H 	 -44.9313 	 65.7774 	 149.433 	 
H 	 -44.4556 	 67.2082 	 148.598 	 
H 	 -44.6523 	 65.6557 	 147.71 	 
H 	 -48.3473 	 62.4674 	 143.853 	 
H 	 -50.8448 	 69.6958 	 146.547 	 
*
