! wB97X-D3 SP def2-SVP
%pal
nprocs 16
end

* xyz 0 1
S 	 -32.536 	 72.2651 	 167.225 	 
C 	 -31.9871 	 71.5034 	 165.733 	 
C 	 -33.0956 	 70.8673 	 165.112 	 
C 	 -34.2929 	 71.2738 	 165.768 	 
C 	 -34.2345 	 72.0772 	 166.864 	 
H 	 -35.2978 	 71.0946 	 165.469 	 
C 	 -33.1173 	 69.9528 	 163.938 	 
H 	 -33.7561 	 70.6052 	 163.324 	 
H 	 -33.6391 	 69.0423 	 164.202 	 
C 	 -31.7482 	 69.7234 	 163.211 	 
H 	 -31.3709 	 70.7521 	 163.074 	 
H 	 -31.0034 	 69.3083 	 163.899 	 
C 	 -32.0098 	 68.949 	 161.867 	 
H 	 -32.6531 	 68.0688 	 162.064 	 
H 	 -32.5475 	 69.6041 	 161.121 	 
H 	 -31.1042 	 68.5068 	 161.458 	 
S 	 -34.8269 	 74.102 	 168.543 	 
C 	 -36.4159 	 74.3422 	 169.154 	 
C 	 -37.1894 	 73.2113 	 168.901 	 
C 	 -36.5713 	 72.3351 	 167.937 	 
C 	 -35.2768 	 72.7149 	 167.645 	 
H 	 -38.2373 	 73.1779 	 169.31 	 
C 	 -37.2435 	 71.0127 	 167.425 	 
H 	 -36.6546 	 70.0895 	 167.443 	 
H 	 -37.4294 	 71.2322 	 166.38 	 
C 	 -38.5884 	 70.6523 	 168.159 	 
H 	 -39.1661 	 69.7987 	 167.728 	 
H 	 -39.2821 	 71.4394 	 168.007 	 
C 	 -38.3537 	 70.2801 	 169.65 	 
H 	 -39.3073 	 70.5255 	 170.243 	 
H 	 -37.6759 	 70.9871 	 170.024 	 
H 	 -37.9246 	 69.2853 	 169.792 	 
H 	 -30.9282 	 71.2618 	 165.655 	 
H 	 -36.7343 	 75.0724 	 169.931 	 
*
