! wB97X-D3 SP def2-SVP
%pal
nprocs 16
end

* xyz 0 1
S 	 -18.9046 	 0.65672 	 77.1118 	 
C 	 -18.3122 	 -0.900989 	 76.6655 	 
C 	 -19.2184 	 -1.59789 	 75.8605 	 
C 	 -20.3812 	 -0.814023 	 75.7037 	 
C 	 -20.4284 	 0.461102 	 76.2523 	 
H 	 -21.2709 	 -1.06773 	 75.107 	 
C 	 -19.0235 	 -2.98295 	 75.3989 	 
H 	 -18.0368 	 -3.29321 	 75.236 	 
H 	 -19.5696 	 -2.9739 	 74.3867 	 
C 	 -19.771 	 -4.06179 	 76.1645 	 
H 	 -20.8045 	 -3.76403 	 76.4079 	 
H 	 -19.9439 	 -4.92514 	 75.5499 	 
C 	 -19.0496 	 -4.5128 	 77.4224 	 
H 	 -18.1715 	 -5.05445 	 77.2331 	 
H 	 -18.8416 	 -3.6277 	 78.0317 	 
H 	 -19.6546 	 -5.21242 	 78.0396 	 
S 	 -21.1808 	 3.05349 	 76.7169 	 
C 	 -22.8552 	 3.49649 	 76.5533 	 
C 	 -23.6918 	 2.40783 	 76.3631 	 
C 	 -22.9203 	 1.20116 	 76.1853 	 
C 	 -21.5379 	 1.36829 	 76.3413 	 
H 	 -24.7601 	 2.39579 	 76.3235 	 
C 	 -23.6293 	 -0.0622231 	 76.1679 	 
H 	 -23.3607 	 -0.651889 	 75.3294 	 
H 	 -24.6128 	 0.223219 	 75.8644 	 
C 	 -23.6688 	 -0.817192 	 77.4752 	 
H 	 -24.3673 	 -0.370896 	 78.1783 	 
H 	 -22.7241 	 -0.71859 	 77.9848 	 
C 	 -24.005 	 -2.24494 	 77.2158 	 
H 	 -24.9896 	 -2.4442 	 76.6854 	 
H 	 -23.8539 	 -2.84545 	 78.1026 	 
H 	 -23.2796 	 -2.65283 	 76.523 	 
H 	 -17.471 	 -1.3388 	 77.0678 	 
H 	 -23.205 	 4.50671 	 76.825 	 
*
