! wB97X-D3 SP def2-SVP
%pal
nprocs 16
end

* xyz 0 1
S 	 -63.9849 	 60.5444 	 123.18 	 
C 	 -63.6087 	 61.3347 	 124.714 	 
C 	 -62.4576 	 60.9055 	 125.278 	 
C 	 -61.8383 	 59.9578 	 124.394 	 
C 	 -62.5523 	 59.5597 	 123.361 	 
H 	 -60.9172 	 59.4652 	 124.52 	 
C 	 -62.0525 	 61.4065 	 126.63 	 
H 	 -62.0785 	 62.5127 	 126.629 	 
H 	 -60.9846 	 61.0237 	 126.884 	 
C 	 -62.9428 	 60.8675 	 127.745 	 
H 	 -63.9756 	 61.0399 	 127.501 	 
H 	 -62.7355 	 59.7969 	 127.988 	 
C 	 -62.8241 	 61.7203 	 128.991 	 
H 	 -63.446 	 61.3954 	 129.81 	 
H 	 -61.7801 	 61.6843 	 129.392 	 
H 	 -63.2395 	 62.7496 	 128.863 	 
S 	 -61.8216 	 58.991 	 120.711 	 
C 	 -60.9246 	 57.418 	 120.502 	 
C 	 -61.1883 	 56.6387 	 121.537 	 
C 	 -61.824 	 57.2754 	 122.678 	 
C 	 -62.1216 	 58.5692 	 122.435 	 
H 	 -60.843 	 55.6172 	 121.526 	 
C 	 -62.2369 	 56.5296 	 123.853 	 
H 	 -62.0276 	 57.258 	 124.645 	 
H 	 -61.3691 	 55.8919 	 123.986 	 
C 	 -63.73 	 55.9612 	 123.788 	 
H 	 -63.9231 	 55.6518 	 122.736 	 
H 	 -64.3216 	 56.9182 	 123.868 	 
C 	 -64.1743 	 55.0013 	 124.875 	 
H 	 -64.2419 	 55.4077 	 125.908 	 
H 	 -63.539 	 54.1123 	 124.862 	 
H 	 -65.2205 	 54.7733 	 124.639 	 
H 	 -64.2464 	 62.1245 	 125.09 	 
H 	 -60.4619 	 57.127 	 119.591 	 
*
