! wB97X-D3 SP def2-SVP
%pal
nprocs 16
end

* xyz 0 1
S 	 -0.36549 	 -8.80866 	 92.0654 	 
C 	 0.381377 	 -9.05798 	 93.6074 	 
C 	 0.0775797 	 -10.3026 	 94.0955 	 
C 	 -0.871069 	 -11.0186 	 93.3521 	 
C 	 -1.38071 	 -10.2387 	 92.283 	 
H 	 -1.34843 	 -11.9277 	 93.6263 	 
C 	 0.655389 	 -10.9075 	 95.3554 	 
H 	 1.47135 	 -10.2098 	 95.5667 	 
H 	 1.11629 	 -11.8417 	 94.9701 	 
C 	 -0.48932 	 -11.1977 	 96.4025 	 
H 	 -1.34509 	 -10.4219 	 96.2601 	 
H 	 -1.05489 	 -12.0904 	 96.1135 	 
C 	 0.00450465 	 -11.1144 	 97.8774 	 
H 	 -0.863405 	 -11.2769 	 98.5174 	 
H 	 0.79245 	 -11.8669 	 98.0767 	 
H 	 0.43258 	 -10.2028 	 98.3216 	 
S 	 -3.70072 	 -9.41618 	 90.9354 	 
C 	 -4.67908 	 -10.5562 	 90.0221 	 
C 	 -4.13852 	 -11.8143 	 90.1191 	 
C 	 -2.94435 	 -11.9149 	 90.9109 	 
C 	 -2.49476 	 -10.6412 	 91.3526 	 
H 	 -4.69272 	 -12.6319 	 89.6432 	 
C 	 -2.39084 	 -13.2894 	 91.1514 	 
H 	 -2.96549 	 -14.1471 	 90.8208 	 
H 	 -2.35824 	 -13.329 	 92.2114 	 
C 	 -1.05347 	 -13.5446 	 90.4944 	 
H 	 -0.19332 	 -12.9662 	 90.963 	 
H 	 -1.1939 	 -13.1855 	 89.4721 	 
C 	 -0.497666 	 -15.0352 	 90.6038 	 
H 	 -0.220992 	 -15.2501 	 91.6214 	 
H 	 0.369469 	 -15.1921 	 89.9575 	 
H 	 -1.33186 	 -15.7299 	 90.3413 	 
H 	 1.08209 	 -8.33075 	 94.0059 	 
H 	 -5.60623 	 -10.2774 	 89.5686 	 
*
