! wB97X-D3 SP def2-SVP
%pal
nprocs 16
end

* xyz 0 1
S 	 14.6086 	 -13.1773 	 76.5009 	 
C 	 14.4669 	 -14.3275 	 77.7436 	 
C 	 13.1013 	 -14.7054 	 77.9456 	 
C 	 12.2596 	 -13.9136 	 77.0949 	 
C 	 12.9512 	 -12.9285 	 76.4212 	 
H 	 11.239 	 -14.1032 	 76.8026 	 
C 	 12.6461 	 -15.8479 	 78.8562 	 
H 	 13.3781 	 -16.5848 	 79.0777 	 
H 	 11.8118 	 -16.5098 	 78.4615 	 
C 	 12.1817 	 -15.3316 	 80.2701 	 
H 	 12.9674 	 -14.6181 	 80.5081 	 
H 	 11.3401 	 -14.7021 	 80.2161 	 
C 	 11.9035 	 -16.3224 	 81.4015 	 
H 	 10.9478 	 -16.8617 	 81.3525 	 
H 	 12.7802 	 -16.9143 	 81.3829 	 
H 	 11.88 	 -15.7575 	 82.3477 	 
S 	 10.7837 	 -11.3184 	 75.9491 	 
C 	 10.6174 	 -10.6048 	 74.2932 	 
C 	 11.8001 	 -10.7408 	 73.62 	 
C 	 12.756 	 -11.5432 	 74.2306 	 
C 	 12.3558 	 -12.0129 	 75.4545 	 
H 	 11.9145 	 -10.2762 	 72.7002 	 
C 	 13.9742 	 -11.8465 	 73.4455 	 
H 	 14.932 	 -11.8121 	 73.9817 	 
H 	 14.0571 	 -11.0705 	 72.774 	 
C 	 13.8739 	 -13.1752 	 72.5864 	 
H 	 12.9876 	 -13.1805 	 71.9541 	 
H 	 13.701 	 -13.9559 	 73.267 	 
C 	 15.2231 	 -13.5386 	 71.8183 	 
H 	 15.4668 	 -12.8 	 71.0403 	 
H 	 15.2507 	 -14.4301 	 71.3511 	 
H 	 16.1267 	 -13.5463 	 72.4183 	 
H 	 15.2364 	 -14.7467 	 78.3766 	 
H 	 9.77619 	 -10.074 	 73.9028 	 
*
