! wB97X-D3 SP def2-SVP
%pal
nprocs 16
end

* xyz 0 1
S 	 -1.46979 	 79.3324 	 50.8242 	 
C 	 -0.0859469 	 78.7234 	 51.7514 	 
C 	 1.09694 	 78.7309 	 51.0497 	 
C 	 0.816752 	 79.115 	 49.6584 	 
C 	 -0.441056 	 79.5272 	 49.4194 	 
H 	 1.62015 	 79.2522 	 48.943 	 
C 	 2.43087 	 78.189 	 51.4613 	 
H 	 2.67049 	 77.2867 	 50.9001 	 
H 	 2.32474 	 77.8627 	 52.4408 	 
C 	 3.64645 	 79.142 	 51.3601 	 
H 	 4.53311 	 78.5258 	 51.5933 	 
H 	 3.78463 	 79.512 	 50.3003 	 
C 	 3.55546 	 80.3423 	 52.335 	 
H 	 3.179 	 80.0039 	 53.3092 	 
H 	 4.54582 	 80.8373 	 52.545 	 
H 	 2.8857 	 81.1067 	 51.908 	 
S 	 -2.4584 	 78.9664 	 47.582 	 
C 	 -2.38812 	 79.6701 	 46.027 	 
C 	 -1.3721 	 80.6021 	 45.9545 	 
C 	 -0.497534 	 80.6054 	 47.0869 	 
C 	 -1.01248 	 79.8939 	 48.1439 	 
H 	 -1.27919 	 81.162 	 45.0335 	 
C 	 0.691998 	 81.5574 	 47.1925 	 
H 	 1.21147 	 81.548 	 48.2353 	 
H 	 0.215071 	 82.5305 	 47.1941 	 
C 	 1.72128 	 81.6471 	 46.037 	 
H 	 2.39515 	 82.4974 	 46.2136 	 
H 	 1.15064 	 81.9706 	 45.1003 	 
C 	 2.46948 	 80.3374 	 45.8119 	 
H 	 1.76868 	 79.5743 	 45.5101 	 
H 	 2.97601 	 79.9731 	 46.7406 	 
H 	 3.27894 	 80.4516 	 45.1639 	 
H 	 -0.138152 	 78.2988 	 52.7494 	 
H 	 -3.12506 	 79.4717 	 45.2735 	 
*
