! wB97X-D3 SP def2-SVP
%pal
nprocs 16
end

* xyz 0 1
S 	 -8.48519 	 62.1664 	 53.58 	 
C 	 -9.42829 	 62.641 	 54.9739 	 
C 	 -9.27703 	 63.9818 	 55.2073 	 
C 	 -8.4178 	 64.6374 	 54.2638 	 
C 	 -7.92208 	 63.8063 	 53.2739 	 
H 	 -8.06212 	 65.6527 	 54.272 	 
C 	 -9.78199 	 64.7651 	 56.3669 	 
H 	 -10.1064 	 63.9978 	 57.1479 	 
H 	 -10.6024 	 65.3205 	 56.0478 	 
C 	 -8.77708 	 65.7105 	 57.0552 	 
H 	 -8.29166 	 66.4137 	 56.3908 	 
H 	 -9.23807 	 66.3047 	 57.7886 	 
C 	 -7.56095 	 64.9914 	 57.6976 	 
H 	 -6.891 	 65.8362 	 58.07 	 
H 	 -7.89129 	 64.4108 	 58.5618 	 
H 	 -6.93413 	 64.4872 	 56.9183 	 
S 	 -6.71419 	 65.6335 	 51.5856 	 
C 	 -5.51641 	 65.1616 	 50.4044 	 
C 	 -5.16391 	 63.8917 	 50.5602 	 
C 	 -5.92805 	 63.2531 	 51.643 	 
C 	 -6.89283 	 64.0629 	 52.2609 	 
H 	 -4.39246 	 63.5173 	 49.8993 	 
C 	 -5.59145 	 61.8188 	 52.0137 	 
H 	 -5.09029 	 61.3701 	 51.2012 	 
H 	 -6.55769 	 61.1843 	 52.1055 	 
C 	 -4.81253 	 61.6717 	 53.343 	 
H 	 -4.80211 	 60.6428 	 53.6289 	 
H 	 -5.43687 	 62.1266 	 54.1112 	 
C 	 -3.41406 	 62.1989 	 53.447 	 
H 	 -3.43971 	 63.2746 	 53.3237 	 
H 	 -2.73357 	 61.7089 	 52.7411 	 
H 	 -3.03988 	 61.9813 	 54.4884 	 
H 	 -9.95257 	 61.996 	 55.6985 	 
H 	 -5.10708 	 65.8197 	 49.6438 	 
*
