! wB97X-D3 SP def2-SVP
%pal
nprocs 16
end

* xyz 0 1
S 	 -107.674 	 43.7691 	 132.161 	 
C 	 -106.71 	 44.317 	 133.542 	 
C 	 -105.732 	 45.1516 	 133.089 	 
C 	 -105.492 	 45.0064 	 131.676 	 
C 	 -106.475 	 44.211 	 131.063 	 
H 	 -104.683 	 45.4006 	 131.137 	 
C 	 -104.867 	 45.9497 	 134.01 	 
H 	 -105.407 	 45.9955 	 134.984 	 
H 	 -104.752 	 46.9887 	 133.689 	 
C 	 -103.528 	 45.3724 	 134.323 	 
H 	 -102.938 	 46.0149 	 135.021 	 
H 	 -103.772 	 44.3896 	 134.762 	 
C 	 -102.686 	 45.0019 	 133.143 	 
H 	 -103.1 	 44.3548 	 132.359 	 
H 	 -102.488 	 45.9478 	 132.627 	 
H 	 -101.715 	 44.6535 	 133.57 	 
S 	 -107.583 	 44.6515 	 128.646 	 
C 	 -106.805 	 44.0607 	 127.206 	 
C 	 -105.747 	 43.2268 	 127.526 	 
C 	 -105.668 	 42.9773 	 128.946 	 
C 	 -106.54 	 43.7311 	 129.688 	 
H 	 -105.079 	 42.6918 	 126.813 	 
C 	 -104.732 	 41.9793 	 129.522 	 
H 	 -104.482 	 41.1624 	 128.809 	 
H 	 -105.252 	 41.4596 	 130.328 	 
C 	 -103.433 	 42.5124 	 130.087 	 
H 	 -102.935 	 41.7463 	 130.67 	 
H 	 -103.702 	 43.3782 	 130.734 	 
C 	 -102.411 	 42.9713 	 129.066 	 
H 	 -102.036 	 42.1247 	 128.475 	 
H 	 -101.622 	 43.4144 	 129.66 	 
H 	 -102.869 	 43.5809 	 128.248 	 
H 	 -107.091 	 44.1964 	 134.54 	 
H 	 -107.05 	 44.5144 	 126.271 	 
*
