! wB97X-D3 SP def2-SVP
%pal
nprocs 16
end

* xyz 0 1
S 	 7.9887 	 -13.3313 	 69.7294 	 
C 	 7.86571 	 -13.1916 	 67.9794 	 
C 	 7.6849 	 -11.8882 	 67.5693 	 
C 	 7.85313 	 -10.9494 	 68.6492 	 
C 	 7.96131 	 -11.5406 	 69.899 	 
H 	 7.8268 	 -9.85328 	 68.5884 	 
C 	 7.48091 	 -11.5148 	 66.0971 	 
H 	 7.56799 	 -12.3008 	 65.4082 	 
H 	 8.33226 	 -10.872 	 65.757 	 
C 	 6.28098 	 -10.5695 	 65.9376 	 
H 	 6.26421 	 -9.74768 	 66.6804 	 
H 	 6.42674 	 -10.0476 	 64.997 	 
C 	 4.89889 	 -11.2634 	 66.072 	 
H 	 4.01196 	 -10.6054 	 65.8667 	 
H 	 4.94518 	 -12.094 	 65.3556 	 
H 	 4.85411 	 -11.7149 	 67.1165 	 
S 	 9.54526 	 -11.1344 	 72.1239 	 
C 	 9.10168 	 -10.1629 	 73.4323 	 
C 	 8.0116 	 -9.38858 	 73.0486 	 
C 	 7.56178 	 -9.67737 	 71.676 	 
C 	 8.17715 	 -10.8324 	 71.1621 	 
H 	 7.57231 	 -8.69238 	 73.7202 	 
C 	 6.26439 	 -9.03591 	 71.073 	 
H 	 5.44421 	 -9.76521 	 71.1327 	 
H 	 6.43668 	 -8.91666 	 69.9993 	 
C 	 5.72729 	 -7.71339 	 71.688 	 
H 	 5.16932 	 -7.33393 	 70.8652 	 
H 	 6.60361 	 -7.04336 	 71.8447 	 
C 	 4.71877 	 -7.89923 	 72.8104 	 
H 	 4.56235 	 -6.99949 	 73.2912 	 
H 	 5.17188 	 -8.52419 	 73.5989 	 
H 	 3.76765 	 -8.37951 	 72.6424 	 
H 	 7.64809 	 -14.0363 	 67.3429 	 
H 	 9.57457 	 -10.1012 	 74.3733 	 
*
