! wB97X-D3 SP def2-SVP
%pal
nprocs 16
end

* xyz 0 1
S 	 -67.9339 	 44.1698 	 125.823 	 
C 	 -68.6709 	 45.6143 	 125.301 	 
C 	 -67.8587 	 46.2606 	 124.44 	 
C 	 -66.6468 	 45.5929 	 124.085 	 
C 	 -66.5433 	 44.405 	 124.747 	 
H 	 -65.8589 	 45.9695 	 123.48 	 
C 	 -67.8941 	 47.7171 	 124.006 	 
H 	 -68.7968 	 47.7863 	 123.368 	 
H 	 -67.0847 	 47.9981 	 123.26 	 
C 	 -67.9639 	 48.7003 	 125.131 	 
H 	 -68.8452 	 48.4747 	 125.669 	 
H 	 -67.1451 	 48.5792 	 125.796 	 
C 	 -67.9278 	 50.1583 	 124.604 	 
H 	 -66.9723 	 50.2614 	 124.077 	 
H 	 -68.7254 	 50.2588 	 123.871 	 
H 	 -68.0584 	 50.9266 	 125.3 	 
S 	 -65.2204 	 42.519 	 126.187 	 
C 	 -63.8648 	 41.7378 	 125.412 	 
C 	 -63.4717 	 42.257 	 124.198 	 
C 	 -64.4602 	 43.2042 	 123.717 	 
C 	 -65.412 	 43.4929 	 124.713 	 
H 	 -62.6115 	 41.8535 	 123.658 	 
C 	 -64.3835 	 43.8516 	 122.368 	 
H 	 -63.4018 	 43.5877 	 121.968 	 
H 	 -64.2569 	 44.9037 	 122.421 	 
C 	 -65.5225 	 43.5485 	 121.412 	 
H 	 -66.4768 	 43.9472 	 121.709 	 
H 	 -65.6416 	 42.4388 	 121.511 	 
C 	 -65.2493 	 43.7474 	 119.893 	 
H 	 -65.2608 	 42.8425 	 119.366 	 
H 	 -64.1937 	 44.1289 	 119.742 	 
H 	 -65.9103 	 44.4928 	 119.53 	 
H 	 -69.5505 	 46.0278 	 125.67 	 
H 	 -63.284 	 40.9409 	 125.869 	 
*
