! wB97X-D3 SP def2-SVP
%pal
nprocs 16
end

* xyz 0 1
S 	 46.1178 	 11.6696 	 50.6551 	 
C 	 45.916 	 12.2878 	 49.06 	 
C 	 45.9418 	 13.6998 	 49.0238 	 
C 	 46.2276 	 14.2729 	 50.2841 	 
C 	 46.2688 	 13.3374 	 51.3089 	 
H 	 46.3187 	 15.3723 	 50.4541 	 
C 	 45.6764 	 14.5955 	 47.839 	 
H 	 45.2018 	 13.9451 	 47.18 	 
H 	 46.5317 	 14.8717 	 47.1955 	 
C 	 44.8986 	 15.848 	 48.1315 	 
H 	 45.478 	 16.5882 	 48.7811 	 
H 	 44.7937 	 16.4291 	 47.2515 	 
C 	 43.4014 	 15.568 	 48.436 	 
H 	 43.3482 	 14.8509 	 49.25 	 
H 	 42.83 	 16.4169 	 48.6497 	 
H 	 43.0039 	 14.9352 	 47.523 	 
S 	 48.0955 	 12.7528 	 53.381 	 
C 	 48.0498 	 13.7479 	 54.8331 	 
C 	 46.9337 	 14.5188 	 54.8584 	 
C 	 46.1214 	 14.4606 	 53.6784 	 
C 	 46.6877 	 13.6157 	 52.6995 	 
H 	 46.5879 	 15.1195 	 55.7185 	 
C 	 44.9139 	 15.4185 	 53.5191 	 
H 	 44.8063 	 15.7262 	 52.5045 	 
H 	 45.1812 	 16.3112 	 54.0362 	 
C 	 43.6334 	 14.807 	 54.0843 	 
H 	 43.7865 	 14.7179 	 55.1338 	 
H 	 43.4433 	 13.8027 	 53.6674 	 
C 	 42.4333 	 15.7006 	 53.8681 	 
H 	 42.1601 	 15.8658 	 52.847 	 
H 	 42.4969 	 16.6928 	 54.2726 	 
H 	 41.5943 	 15.2333 	 54.4754 	 
H 	 45.6862 	 11.6722 	 48.1967 	 
H 	 48.6538 	 13.6739 	 55.7534 	 
*
