! wB97X-D3 SP def2-SVP
%pal
nprocs 16
end

* xyz 0 1
S 	 -80.9272 	 44.7977 	 130.149 	 
C 	 -82.5664 	 45.0991 	 129.633 	 
C 	 -83.1732 	 46.0701 	 130.396 	 
C 	 -82.3422 	 46.6367 	 131.394 	 
C 	 -81.0333 	 46.1341 	 131.333 	 
H 	 -82.5307 	 47.4879 	 132.064 	 
C 	 -84.6202 	 46.5789 	 130.149 	 
H 	 -85.0569 	 46.5489 	 131.109 	 
H 	 -85.2029 	 45.8906 	 129.57 	 
C 	 -84.8205 	 48.0439 	 129.646 	 
H 	 -85.7989 	 48.4058 	 129.807 	 
H 	 -84.1799 	 48.7891 	 130.198 	 
C 	 -84.2917 	 48.2675 	 128.197 	 
H 	 -84.1327 	 49.2388 	 127.97 	 
H 	 -83.391 	 47.7741 	 127.938 	 
H 	 -85.0285 	 47.8155 	 127.449 	 
S 	 -78.6835 	 47.5145 	 131.041 	 
C 	 -77.8263 	 48.0157 	 132.424 	 
C 	 -78.3581 	 47.4592 	 133.536 	 
C 	 -79.5485 	 46.6971 	 133.386 	 
C 	 -79.867 	 46.6188 	 132.036 	 
H 	 -77.7746 	 47.4866 	 134.401 	 
C 	 -80.3586 	 46.1572 	 134.516 	 
H 	 -79.7143 	 45.6111 	 135.204 	 
H 	 -81.0011 	 45.3689 	 134.042 	 
C 	 -81.2734 	 47.1537 	 135.263 	 
H 	 -81.7314 	 47.8694 	 134.637 	 
H 	 -80.7049 	 47.7477 	 136.04 	 
C 	 -82.5067 	 46.5001 	 135.944 	 
H 	 -83.1815 	 47.2801 	 136.381 	 
H 	 -82.2436 	 45.8564 	 136.75 	 
H 	 -83.1137 	 45.8723 	 135.317 	 
H 	 -83.0083 	 44.8733 	 128.645 	 
H 	 -77.0577 	 48.744 	 132.439 	 
*
