! wB97X-D3 SP def2-SVP
%pal
nprocs 16
end

* xyz 0 1
S 	 1.01599 	 14.5577 	 47.1368 	 
C 	 1.38127 	 12.9489 	 46.4851 	 
C 	 2.73067 	 12.6611 	 46.6548 	 
C 	 3.41604 	 13.6648 	 47.4158 	 
C 	 2.60902 	 14.7961 	 47.6118 	 
H 	 4.43395 	 13.6814 	 47.7548 	 
C 	 3.49462 	 11.4739 	 46.0428 	 
H 	 2.77035 	 10.6859 	 45.6564 	 
H 	 4.02547 	 10.9086 	 46.7919 	 
C 	 4.29893 	 11.779 	 44.8265 	 
H 	 3.60513 	 11.9971 	 43.9725 	 
H 	 4.82819 	 12.6817 	 45.0528 	 
C 	 5.26966 	 10.7545 	 44.3074 	 
H 	 5.92933 	 11.2633 	 43.5877 	 
H 	 5.99054 	 10.3616 	 45.0498 	 
H 	 4.84486 	 9.96096 	 43.6902 	 
S 	 2.38885 	 16.5182 	 49.8118 	 
C 	 3.56627 	 17.8496 	 49.8811 	 
C 	 4.58439 	 17.7748 	 48.9354 	 
C 	 4.29615 	 16.6844 	 48.013 	 
C 	 3.11581 	 15.9844 	 48.2826 	 
H 	 5.2677 	 18.5628 	 48.9986 	 
C 	 5.30677 	 16.5768 	 46.9198 	 
H 	 6.05832 	 15.7949 	 47.1733 	 
H 	 5.80489 	 17.5542 	 46.8701 	 
C 	 4.63208 	 16.3922 	 45.5852 	 
H 	 3.86107 	 17.0297 	 45.4412 	 
H 	 4.16038 	 15.3882 	 45.5632 	 
C 	 5.55267 	 16.6533 	 44.4486 	 
H 	 6.23563 	 17.4904 	 44.518 	 
H 	 4.97376 	 16.9079 	 43.4891 	 
H 	 6.14095 	 15.7652 	 44.271 	 
H 	 0.688053 	 12.3824 	 45.9064 	 
H 	 3.5691 	 18.6174 	 50.662 	 
*
