! wB97X-D3 SP def2-SVP
%pal
nprocs 16
end

* xyz 0 1
S 	 -47.7952 	 31.5217 	 96.647 	 
C 	 -48.1397 	 33.0431 	 95.7912 	 
C 	 -48.5495 	 34.0368 	 96.6339 	 
C 	 -48.5532 	 33.722 	 98.0089 	 
C 	 -48.0963 	 32.4212 	 98.2745 	 
H 	 -48.5582 	 34.402 	 98.8651 	 
C 	 -48.7359 	 35.4709 	 96.1443 	 
H 	 -48.0726 	 35.66 	 95.2252 	 
H 	 -48.2901 	 36.2385 	 96.8555 	 
C 	 -50.152 	 35.7671 	 95.7948 	 
H 	 -50.2627 	 36.7164 	 95.3493 	 
H 	 -50.399 	 35.056 	 95.0208 	 
C 	 -51.0704 	 35.6488 	 97.0556 	 
H 	 -50.6005 	 36.2307 	 97.8943 	 
H 	 -52.0529 	 35.9154 	 96.8047 	 
H 	 -51.094 	 34.5794 	 97.4088 	 
S 	 -46.1811 	 31.036 	 99.7387 	 
C 	 -46.4215 	 30.7951 	 101.422 	 
C 	 -47.6619 	 31.3043 	 101.847 	 
C 	 -48.3967 	 31.9991 	 100.833 	 
C 	 -47.7267 	 31.8733 	 99.5728 	 
H 	 -48.0052 	 31.1494 	 102.839 	 
C 	 -49.7728 	 32.5484 	 100.995 	 
H 	 -50.36 	 31.7253 	 101.385 	 
H 	 -50.104 	 32.7981 	 100.028 	 
C 	 -49.9415 	 33.6812 	 102.066 	 
H 	 -49.8034 	 33.1837 	 102.993 	 
H 	 -50.9605 	 34.0075 	 102.149 	 
C 	 -49.0379 	 34.8494 	 101.929 	 
H 	 -49.332 	 35.6128 	 102.769 	 
H 	 -49.2211 	 35.4333 	 101.068 	 
H 	 -47.9506 	 34.4916 	 101.993 	 
H 	 -47.8942 	 33.2787 	 94.79 	 
H 	 -45.729 	 30.1599 	 102.013 	 
*
