! wB97X-D3 SP def2-SVP
%pal
nprocs 16
end

* xyz 0 1
S 	 -34.4811 	 34.8305 	 42.8342 	 
C 	 -34.7201 	 34.8941 	 44.534 	 
C 	 -33.7343 	 35.5994 	 45.2062 	 
C 	 -32.6512 	 35.9851 	 44.3423 	 
C 	 -32.834 	 35.5524 	 43.0049 	 
H 	 -31.8213 	 36.6243 	 44.4239 	 
C 	 -33.7645 	 36.1176 	 46.6252 	 
H 	 -34.6439 	 35.6744 	 47.1521 	 
H 	 -33.9251 	 37.2108 	 46.5989 	 
C 	 -32.4541 	 35.7669 	 47.4365 	 
H 	 -31.5793 	 36.1234 	 46.9056 	 
H 	 -32.6294 	 36.3245 	 48.3874 	 
C 	 -32.2649 	 34.2873 	 47.6067 	 
H 	 -31.2942 	 34.1061 	 48.1976 	 
H 	 -32.9648 	 33.8023 	 48.2189 	 
H 	 -32.1467 	 33.742 	 46.6789 	 
S 	 -32.3342 	 37.1548 	 40.7619 	 
C 	 -30.8525 	 37.0138 	 39.8736 	 
C 	 -30.0368 	 36.0141 	 40.4328 	 
C 	 -30.6288 	 35.4756 	 41.6146 	 
C 	 -31.9478 	 35.9394 	 41.9326 	 
H 	 -28.9719 	 35.7899 	 40.081 	 
C 	 -29.932 	 34.4312 	 42.4948 	 
H 	 -29.8074 	 33.4137 	 42.0646 	 
H 	 -30.6332 	 34.1962 	 43.2743 	 
C 	 -28.5544 	 34.7397 	 42.9557 	 
H 	 -28.0336 	 35.2321 	 42.1073 	 
H 	 -27.9728 	 33.8709 	 43.0173 	 
C 	 -28.4723 	 35.4364 	 44.253 	 
H 	 -29.198 	 36.2974 	 44.3221 	 
H 	 -27.4464 	 35.6953 	 44.375 	 
H 	 -28.758 	 34.6474 	 45.0124 	 
H 	 -35.702 	 34.515 	 44.9475 	 
H 	 -30.5302 	 37.6051 	 39.0383 	 
*
