! wB97X-D3 SP def2-SVP
%pal
nprocs 16
end

* xyz 0 1
S 	 -4.87651 	 -10.6123 	 80.4339 	 
C 	 -5.07592 	 -10.6514 	 78.6899 	 
C 	 -6.15767 	 -9.88142 	 78.2925 	 
C 	 -6.77093 	 -9.19747 	 79.403 	 
C 	 -6.23144 	 -9.53051 	 80.6822 	 
H 	 -7.54856 	 -8.43695 	 79.2878 	 
C 	 -6.76049 	 -9.75553 	 76.8906 	 
H 	 -5.91749 	 -9.56784 	 76.1911 	 
H 	 -7.34394 	 -8.79949 	 76.9249 	 
C 	 -7.54236 	 -11.0122 	 76.4651 	 
H 	 -7.99142 	 -10.7529 	 75.4894 	 
H 	 -6.77996 	 -11.8036 	 76.456 	 
C 	 -8.66199 	 -11.409 	 77.4588 	 
H 	 -8.5584 	 -11.0833 	 78.57 	 
H 	 -9.59149 	 -10.9961 	 77.0908 	 
H 	 -8.83526 	 -12.4617 	 77.5402 	 
S 	 -5.4631 	 -8.12349 	 82.9065 	 
C 	 -6.48056 	 -8.02828 	 84.2549 	 
C 	 -7.81063 	 -8.34886 	 83.8384 	 
C 	 -7.84855 	 -8.92962 	 82.5322 	 
C 	 -6.59471 	 -9.03682 	 81.9616 	 
H 	 -8.64309 	 -8.25804 	 84.4755 	 
C 	 -9.11861 	 -9.31162 	 81.8084 	 
H 	 -9.67665 	 -10.1234 	 82.3224 	 
H 	 -8.88581 	 -9.75899 	 80.862 	 
C 	 -10.0893 	 -8.09578 	 81.6028 	 
H 	 -9.74609 	 -7.30603 	 80.9386 	 
H 	 -10.1069 	 -7.68006 	 82.6333 	 
C 	 -11.4168 	 -8.66335 	 81.1587 	 
H 	 -11.3837 	 -9.16886 	 80.234 	 
H 	 -12.1011 	 -7.83472 	 80.9883 	 
H 	 -11.9074 	 -9.27815 	 81.9405 	 
H 	 -4.6022 	 -11.2961 	 77.958 	 
H 	 -6.10348 	 -7.73212 	 85.2327 	 
*
