! wB97X-D3 SP def2-SVP
%pal
nprocs 16
end

* xyz 0 1
S 	 -38.7223 	 29.6432 	 81.3818 	 
C 	 -37.9117 	 29.4034 	 79.8539 	 
C 	 -38.3723 	 30.3556 	 78.9778 	 
C 	 -39.6496 	 30.8626 	 79.3477 	 
C 	 -40.1158 	 30.3847 	 80.5277 	 
H 	 -40.3235 	 31.6063 	 78.7806 	 
C 	 -37.674 	 30.7933 	 77.6866 	 
H 	 -37.0107 	 30.0176 	 77.3931 	 
H 	 -37.0538 	 31.606 	 77.9862 	 
C 	 -38.6215 	 31.056 	 76.5218 	 
H 	 -39.1852 	 30.1567 	 76.1472 	 
H 	 -39.3998 	 31.7497 	 76.9492 	 
C 	 -38.0802 	 31.7131 	 75.282 	 
H 	 -37.3991 	 31.103 	 74.7782 	 
H 	 -38.8515 	 32.0114 	 74.5225 	 
H 	 -37.4716 	 32.5901 	 75.4934 	 
S 	 -41.2124 	 31.5646 	 82.8237 	 
C 	 -42.9349 	 31.5402 	 83.0039 	 
C 	 -43.5768 	 31.1015 	 81.7912 	 
C 	 -42.6186 	 30.8047 	 80.7641 	 
C 	 -41.3084 	 30.8402 	 81.1959 	 
H 	 -44.5878 	 30.9359 	 81.6771 	 
C 	 -43.1271 	 30.1922 	 79.45 	 
H 	 -42.4443 	 30.5013 	 78.6773 	 
H 	 -44.1353 	 30.4818 	 79.1824 	 
C 	 -43.1467 	 28.6817 	 79.2752 	 
H 	 -43.9579 	 28.2983 	 79.9552 	 
H 	 -42.1206 	 28.4772 	 79.5669 	 
C 	 -43.7396 	 28.2552 	 77.9047 	 
H 	 -43.5735 	 27.2397 	 77.5816 	 
H 	 -43.6149 	 28.8756 	 77.0736 	 
H 	 -44.8121 	 28.1886 	 78.1638 	 
H 	 -36.8223 	 29.1218 	 79.8106 	 
H 	 -43.4771 	 31.9064 	 83.8149 	 
*
