! wB97X-D3 SP def2-SVP
%pal
nprocs 16
end

* xyz 0 1
S 	 -30.1232 	 0.203643 	 105.064 	 
C 	 -29.3825 	 -0.555901 	 106.479 	 
C 	 -28.3997 	 -1.48019 	 106.095 	 
C 	 -28.1575 	 -1.43693 	 104.696 	 
C 	 -29.0572 	 -0.695052 	 103.983 	 
H 	 -27.3519 	 -1.98279 	 104.166 	 
C 	 -27.5731 	 -2.35425 	 107.058 	 
H 	 -27.4599 	 -3.3456 	 106.581 	 
H 	 -28.1488 	 -2.53612 	 107.945 	 
C 	 -26.1959 	 -1.76765 	 107.388 	 
H 	 -26.3211 	 -0.661938 	 107.605 	 
H 	 -25.8972 	 -2.29994 	 108.317 	 
C 	 -25.1351 	 -2.08744 	 106.325 	 
H 	 -25.0876 	 -3.13372 	 106.112 	 
H 	 -25.3397 	 -1.67371 	 105.365 	 
H 	 -24.2507 	 -1.63001 	 106.703 	 
S 	 -27.599 	 -0.384104 	 101.748 	 
C 	 -28.3839 	 -0.119564 	 100.238 	 
C 	 -29.75 	 -0.170628 	 100.34 	 
C 	 -30.1685 	 -0.584285 	 101.649 	 
C 	 -29.0819 	 -0.592594 	 102.568 	 
H 	 -30.353 	 0.12473 	 99.5238 	 
C 	 -31.6299 	 -0.668157 	 102.062 	 
H 	 -31.7956 	 0.217265 	 102.686 	 
H 	 -31.654 	 -1.54386 	 102.711 	 
C 	 -32.6655 	 -0.810017 	 100.983 	 
H 	 -32.4923 	 -1.49049 	 100.229 	 
H 	 -32.728 	 0.128457 	 100.444 	 
C 	 -33.9955 	 -1.19076 	 101.613 	 
H 	 -34.1938 	 -0.406521 	 102.322 	 
H 	 -34.0297 	 -2.21873 	 102.104 	 
H 	 -34.6544 	 -1.19033 	 100.806 	 
H 	 -29.6301 	 -0.373819 	 107.501 	 
H 	 -27.9503 	 0.314653 	 99.2661 	 
*
