! wB97X-D3 SP def2-SVP
%pal
nprocs 16
end

* xyz 0 1
S 	 -112.758 	 42.4673 	 132.121 	 
C 	 -113.514 	 41.1013 	 132.831 	 
C 	 -114.23 	 41.4225 	 133.977 	 
C 	 -114.123 	 42.8242 	 134.282 	 
C 	 -113.332 	 43.5729 	 133.407 	 
H 	 -114.721 	 43.2662 	 135.092 	 
C 	 -115.215 	 40.4843 	 134.656 	 
H 	 -115.691 	 39.7287 	 134.011 	 
H 	 -116.035 	 41.0798 	 135.065 	 
C 	 -114.683 	 39.6721 	 135.848 	 
H 	 -115.358 	 38.8785 	 136.037 	 
H 	 -113.756 	 39.2723 	 135.485 	 
C 	 -114.366 	 40.5325 	 137.085 	 
H 	 -114.142 	 39.848 	 137.958 	 
H 	 -113.499 	 41.1744 	 137.12 	 
H 	 -115.227 	 41.0798 	 137.365 	 
S 	 -111.522 	 45.681 	 133.147 	 
C 	 -112.069 	 47.3309 	 133.151 	 
C 	 -113.434 	 47.2983 	 133.012 	 
C 	 -114.111 	 46.0618 	 133.091 	 
C 	 -113.156 	 45.0328 	 133.271 	 
H 	 -113.92 	 48.1962 	 132.884 	 
C 	 -115.634 	 45.8807 	 132.923 	 
H 	 -115.873 	 44.9584 	 132.409 	 
H 	 -115.838 	 46.7301 	 132.259 	 
C 	 -116.464 	 45.9866 	 134.194 	 
H 	 -116.409 	 46.9276 	 134.668 	 
H 	 -116.183 	 45.2049 	 134.856 	 
C 	 -117.957 	 45.7548 	 133.73 	 
H 	 -118.105 	 46.2978 	 132.815 	 
H 	 -118.745 	 45.9812 	 134.422 	 
H 	 -118.149 	 44.7513 	 133.377 	 
H 	 -113.636 	 40.1077 	 132.353 	 
H 	 -111.565 	 48.29 	 133.167 	 
*
