! wB97X-D3 SP def2-SVP
%pal
nprocs 16
end

* xyz 0 1
S 	 -14.6379 	 74.5752 	 57.6243 	 
C 	 -15.8969 	 73.7052 	 56.7249 	 
C 	 -15.2961 	 72.7759 	 55.8639 	 
C 	 -13.8808 	 72.7077 	 56.0109 	 
C 	 -13.3455 	 73.7621 	 56.7042 	 
H 	 -13.2705 	 72.108 	 55.4733 	 
C 	 -16.0178 	 71.9279 	 54.8634 	 
H 	 -16.8837 	 71.5825 	 55.3508 	 
H 	 -15.4804 	 71.0901 	 54.6723 	 
C 	 -16.5905 	 72.6855 	 53.6036 	 
H 	 -17.277 	 73.4901 	 53.9775 	 
H 	 -15.773 	 73.1386 	 53.001 	 
C 	 -17.4728 	 71.7801 	 52.7003 	 
H 	 -17.9247 	 72.4897 	 52.028 	 
H 	 -16.8147 	 71.0738 	 52.1506 	 
H 	 -18.3276 	 71.3542 	 53.2174 	 
S 	 -11.1805 	 73.7819 	 58.583 	 
C 	 -9.61693 	 73.9133 	 57.8823 	 
C 	 -9.65284 	 74.0506 	 56.5269 	 
C 	 -10.9373 	 74.1123 	 55.961 	 
C 	 -11.96 	 73.9272 	 56.9468 	 
H 	 -8.82255 	 74.2835 	 55.9819 	 
C 	 -11.1545 	 74.3312 	 54.4884 	 
H 	 -11.7925 	 73.5405 	 54.099 	 
H 	 -10.1964 	 74.1399 	 53.9444 	 
C 	 -11.638 	 75.723 	 54.0453 	 
H 	 -10.9377 	 76.4972 	 54.1465 	 
H 	 -12.48 	 75.851 	 54.721 	 
C 	 -12.2336 	 75.8401 	 52.6553 	 
H 	 -11.5672 	 75.3911 	 51.8886 	 
H 	 -12.2006 	 76.9089 	 52.4251 	 
H 	 -13.1762 	 75.399 	 52.5381 	 
H 	 -16.9692 	 73.8321 	 56.9936 	 
H 	 -8.67467 	 73.9125 	 58.4198 	 
*
