! wB97X-D3 SP def2-SVP
%pal
nprocs 16
end

* xyz 0 1
S 	 -92.7771 	 57.2616 	 130.091 	 
C 	 -91.4006 	 56.7012 	 131.059 	 
C 	 -90.311 	 56.2596 	 130.278 	 
C 	 -90.7785 	 56.1878 	 128.907 	 
C 	 -92.0929 	 56.6089 	 128.569 	 
H 	 -90.2092 	 56.0051 	 127.991 	 
C 	 -88.8907 	 55.8996 	 130.718 	 
H 	 -88.7689 	 56.3196 	 131.732 	 
H 	 -88.258 	 56.4587 	 130.103 	 
C 	 -88.5186 	 54.3584 	 130.691 	 
H 	 -88.9303 	 54.0485 	 131.633 	 
H 	 -88.9718 	 53.7598 	 129.891 	 
C 	 -87.0291 	 54.0928 	 130.605 	 
H 	 -86.5756 	 54.5482 	 131.522 	 
H 	 -86.8217 	 52.9866 	 130.612 	 
H 	 -86.7604 	 54.5384 	 129.642 	 
S 	 -93.1693 	 58.3585 	 126.676 	 
C 	 -93.5985 	 57.7665 	 125.093 	 
C 	 -93.5203 	 56.3895 	 125.033 	 
C 	 -92.9521 	 55.856 	 126.271 	 
C 	 -92.7128 	 56.8148 	 127.283 	 
H 	 -93.9339 	 55.8504 	 124.184 	 
C 	 -92.7776 	 54.4258 	 126.483 	 
H 	 -93.5021 	 54.0049 	 125.79 	 
H 	 -93.1011 	 54.1383 	 127.566 	 
C 	 -91.4466 	 53.8415 	 125.994 	 
H 	 -91.465 	 52.7639 	 126.051 	 
H 	 -90.7342 	 54.035 	 126.822 	 
C 	 -90.9808 	 54.4045 	 124.672 	 
H 	 -89.9297 	 54.0887 	 124.463 	 
H 	 -90.9202 	 55.4892 	 124.713 	 
H 	 -91.5883 	 54.221 	 123.761 	 
H 	 -91.3512 	 56.7654 	 132.122 	 
H 	 -94.0344 	 58.4156 	 124.379 	 
*
