! wB97X-D3 SP def2-SVP
%pal
nprocs 16
end

* xyz 0 1
S 	 -70.465 	 47.7213 	 135.277 	 
C 	 -70.533 	 49.1379 	 134.233 	 
C 	 -71.3146 	 48.9985 	 133.105 	 
C 	 -71.7216 	 47.6543 	 132.889 	 
C 	 -71.4553 	 46.9239 	 134.068 	 
H 	 -72.1925 	 47.3497 	 131.967 	 
C 	 -71.5167 	 50.1129 	 132.104 	 
H 	 -71.3893 	 49.7585 	 131.137 	 
H 	 -70.7384 	 50.8652 	 132.237 	 
C 	 -72.9447 	 50.669 	 132.062 	 
H 	 -73.6229 	 49.8722 	 131.731 	 
H 	 -73.2905 	 50.8684 	 133.087 	 
C 	 -73.1733 	 51.8717 	 131.104 	 
H 	 -74.1717 	 52.1687 	 131.136 	 
H 	 -72.6404 	 52.8141 	 131.334 	 
H 	 -72.8404 	 51.6365 	 130.141 	 
S 	 -73.5723 	 45.1176 	 134.435 	 
C 	 -73.2031 	 43.4446 	 134.607 	 
C 	 -71.9066 	 43.176 	 134.476 	 
C 	 -71.1318 	 44.3338 	 134.204 	 
C 	 -71.8305 	 45.5233 	 134.203 	 
H 	 -71.4545 	 42.2072 	 134.595 	 
C 	 -69.5906 	 44.2538 	 134.093 	 
H 	 -69.2951 	 43.2558 	 134.367 	 
H 	 -69.1877 	 45.027 	 134.721 	 
C 	 -69.0468 	 44.5661 	 132.684 	 
H 	 -69.4981 	 45.51 	 132.396 	 
H 	 -69.4806 	 43.7685 	 132.049 	 
C 	 -67.479 	 44.4622 	 132.558 	 
H 	 -67.0284 	 43.5785 	 133.042 	 
H 	 -66.937 	 45.3176 	 132.82 	 
H 	 -67.2901 	 44.1657 	 131.519 	 
H 	 -70.1611 	 50.0664 	 134.51 	 
H 	 -73.9571 	 42.6601 	 134.554 	 
*
