! wB97X-D3 SP def2-SVP
%pal
nprocs 16
end

* xyz 0 1
S 	 52.285 	 0.37924 	 79.8649 	 
C 	 51.3308 	 -0.450701 	 81.117 	 
C 	 51.9991 	 -0.621168 	 82.276 	 
C 	 53.2673 	 -0.0336629 	 82.1084 	 
C 	 53.6176 	 0.672927 	 80.9985 	 
H 	 53.9643 	 0.00281673 	 82.9645 	 
C 	 51.429 	 -1.21441 	 83.5378 	 
H 	 51.6129 	 -2.26805 	 83.3471 	 
H 	 50.3223 	 -0.992706 	 83.528 	 
C 	 52.0708 	 -0.830607 	 84.9153 	 
H 	 53.1472 	 -1.03043 	 84.9635 	 
H 	 51.9677 	 0.234396 	 85.1712 	 
C 	 51.3235 	 -1.70111 	 85.9815 	 
H 	 51.1968 	 -2.69485 	 85.6723 	 
H 	 51.808 	 -1.72671 	 87.0002 	 
H 	 50.3129 	 -1.33051 	 86.0929 	 
S 	 54.6915 	 3.20349 	 81.0064 	 
C 	 56.4108 	 3.39335 	 80.7574 	 
C 	 57.0795 	 2.18639 	 80.6611 	 
C 	 56.1856 	 1.0466 	 80.6496 	 
C 	 54.8232 	 1.46247 	 80.8397 	 
H 	 58.1914 	 2.21328 	 80.4923 	 
C 	 56.6614 	 -0.374527 	 80.3668 	 
H 	 55.9072 	 -1.06544 	 80.8569 	 
H 	 57.5223 	 -0.518262 	 80.9584 	 
C 	 57.0989 	 -0.704962 	 78.9087 	 
H 	 57.9396 	 -0.0329181 	 78.6068 	 
H 	 56.3072 	 -0.425778 	 78.262 	 
C 	 57.4494 	 -2.19249 	 78.8181 	 
H 	 56.5919 	 -2.81187 	 78.8292 	 
H 	 58.1127 	 -2.56032 	 79.6082 	 
H 	 57.9092 	 -2.30911 	 77.7974 	 
H 	 50.3964 	 -0.960545 	 80.863 	 
H 	 56.8175 	 4.42219 	 80.7557 	 
*
