! wB97X-D3 SP def2-SVP
%pal
nprocs 16
end

* xyz 0 1
S 	 -55.6457 	 40.0595 	 112.036 	 
C 	 -54.6823 	 41.3048 	 111.246 	 
C 	 -55.3059 	 41.8268 	 110.091 	 
C 	 -56.5001 	 41.0426 	 109.755 	 
C 	 -56.8741 	 40.1721 	 110.8 	 
H 	 -57.1685 	 41.3102 	 108.9 	 
C 	 -54.9304 	 43.0289 	 109.306 	 
H 	 -54.6657 	 43.7161 	 110.125 	 
H 	 -55.8724 	 43.314 	 108.878 	 
C 	 -53.7757 	 42.7343 	 108.304 	 
H 	 -52.9519 	 43.3501 	 108.602 	 
H 	 -53.3195 	 41.727 	 108.402 	 
C 	 -54.2277 	 43.0187 	 106.886 	 
H 	 -54.6459 	 44.0821 	 106.796 	 
H 	 -53.3893 	 42.967 	 106.227 	 
H 	 -54.776 	 42.1565 	 106.447 	 
S 	 -58.2135 	 37.7717 	 111.331 	 
C 	 -59.9405 	 37.8232 	 111.363 	 
C 	 -60.4115 	 39.0767 	 111.086 	 
C 	 -59.3975 	 40.0342 	 111.011 	 
C 	 -58.1513 	 39.4519 	 111.006 	 
H 	 -61.469 	 39.3017 	 111.284 	 
C 	 -59.7727 	 41.4544 	 110.929 	 
H 	 -60.2893 	 41.7312 	 110.054 	 
H 	 -58.8575 	 42.1416 	 110.895 	 
C 	 -60.6604 	 41.8701 	 112.126 	 
H 	 -60.0412 	 41.7963 	 112.999 	 
H 	 -61.5662 	 41.2974 	 112.353 	 
C 	 -61.0892 	 43.2692 	 111.949 	 
H 	 -60.4568 	 43.9594 	 111.425 	 
H 	 -61.2238 	 43.6391 	 112.981 	 
H 	 -61.9702 	 43.2387 	 111.315 	 
H 	 -53.8587 	 41.7399 	 111.8 	 
H 	 -60.6569 	 37.0886 	 111.668 	 
*
