! wB97X-D3 SP def2-SVP
%pal
nprocs 16
end

* xyz 0 1
S 	 -69.5021 	 60.7517 	 128.262 	 
C 	 -68.695 	 62.337 	 128.161 	 
C 	 -69.1194 	 63.0019 	 127.089 	 
C 	 -69.977 	 62.2642 	 126.209 	 
C 	 -70.2148 	 60.9633 	 126.655 	 
H 	 -70.3882 	 62.6095 	 125.281 	 
C 	 -68.655 	 64.4619 	 126.839 	 
H 	 -67.5994 	 64.5153 	 126.535 	 
H 	 -68.658 	 64.9959 	 127.754 	 
C 	 -69.3226 	 65.1579 	 125.629 	 
H 	 -68.6376 	 66.0364 	 125.451 	 
H 	 -69.3172 	 64.5497 	 124.737 	 
C 	 -70.7349 	 65.6949 	 125.928 	 
H 	 -70.7403 	 66.4911 	 126.693 	 
H 	 -71.0645 	 66.0894 	 124.965 	 
H 	 -71.5145 	 65.0679 	 126.171 	 
S 	 -71.8592 	 58.795 	 126.706 	 
C 	 -72.1992 	 57.8546 	 125.302 	 
C 	 -71.6244 	 58.4691 	 124.236 	 
C 	 -70.7256 	 59.5792 	 124.485 	 
C 	 -70.7841 	 59.8544 	 125.855 	 
H 	 -71.885 	 57.9285 	 123.335 	 
C 	 -69.9561 	 60.1542 	 123.321 	 
H 	 -69.771 	 59.2821 	 122.697 	 
H 	 -69.0324 	 60.6271 	 123.641 	 
C 	 -70.8227 	 61.2442 	 122.593 	 
H 	 -71.1751 	 62.0656 	 123.308 	 
H 	 -71.6535 	 60.6945 	 122.1 	 
C 	 -70.0434 	 62.1079 	 121.626 	 
H 	 -69.1031 	 62.4616 	 122.113 	 
H 	 -70.6348 	 62.9552 	 121.264 	 
H 	 -69.6148 	 61.6586 	 120.713 	 
H 	 -68.0557 	 62.786 	 128.877 	 
H 	 -72.9982 	 57.1598 	 125.2 	 
*
