! wB97X-D3 SP def2-SVP
%pal
nprocs 16
end

* xyz 0 1
S 	 -95.031 	 39.2359 	 124.499 	 
C 	 -93.5274 	 38.8989 	 123.66 	 
C 	 -93.7581 	 38.6525 	 122.345 	 
C 	 -95.1058 	 38.9498 	 121.961 	 
C 	 -95.9335 	 39.3948 	 122.995 	 
H 	 -95.5808 	 38.7845 	 120.973 	 
C 	 -92.5978 	 38.3895 	 121.401 	 
H 	 -92.0009 	 37.5875 	 121.82 	 
H 	 -92.1218 	 39.4187 	 121.33 	 
C 	 -92.9098 	 37.8883 	 119.976 	 
H 	 -93.3266 	 36.8643 	 119.872 	 
H 	 -93.6972 	 38.5726 	 119.513 	 
C 	 -91.643 	 37.9081 	 119.055 	 
H 	 -91.7889 	 37.4659 	 118.055 	 
H 	 -91.1815 	 38.8612 	 118.813 	 
H 	 -90.9334 	 37.2689 	 119.544 	 
S 	 -98.2785 	 39.5832 	 124.379 	 
C 	 -99.6239 	 40.4853 	 123.781 	 
C 	 -99.3128 	 40.9792 	 122.55 	 
C 	 -98.0335 	 40.5686 	 122.029 	 
C 	 -97.261 	 39.9389 	 122.98 	 
H 	 -100.002 	 41.6168 	 122.008 	 
C 	 -97.5928 	 41.0125 	 120.675 	 
H 	 -96.4858 	 40.8942 	 120.675 	 
H 	 -97.8076 	 42.0864 	 120.724 	 
C 	 -98.3429 	 40.2986 	 119.475 	 
H 	 -99.4571 	 40.4723 	 119.528 	 
H 	 -98.199 	 39.2102 	 119.497 	 
C 	 -97.8061 	 40.8001 	 118.126 	 
H 	 -96.8029 	 40.5613 	 117.848 	 
H 	 -97.7433 	 41.8834 	 118.296 	 
H 	 -98.5254 	 40.559 	 117.442 	 
H 	 -92.6063 	 38.8362 	 124.182 	 
H 	 -100.537 	 40.7965 	 124.359 	 
*
