! wB97X-D3 SP def2-SVP
%pal
nprocs 16
end

* xyz 0 1
S 	 -2.8233 	 -7.72062 	 83.4649 	 
C 	 -2.76061 	 -9.46383 	 83.4754 	 
C 	 -3.23209 	 -10.0066 	 84.6392 	 
C 	 -3.64746 	 -8.95794 	 85.5476 	 
C 	 -3.51172 	 -7.70682 	 85.0573 	 
H 	 -4.03964 	 -9.15129 	 86.5573 	 
C 	 -3.46733 	 -11.4759 	 84.9141 	 
H 	 -3.72654 	 -11.9709 	 84.0089 	 
H 	 -4.33733 	 -11.5607 	 85.5141 	 
C 	 -2.27288 	 -12.2868 	 85.4348 	 
H 	 -2.40638 	 -13.3269 	 85.321 	 
H 	 -1.3636 	 -11.9612 	 84.8525 	 
C 	 -1.89265 	 -11.9782 	 86.8509 	 
H 	 -1.07624 	 -12.6409 	 87.1472 	 
H 	 -1.57342 	 -10.9166 	 86.9636 	 
H 	 -2.77807 	 -12.0938 	 87.4124 	 
S 	 -4.77527 	 -5.42883 	 84.3778 	 
C 	 -5.26951 	 -4.24847 	 85.6005 	 
C 	 -4.94416 	 -4.71333 	 86.8952 	 
C 	 -4.11114 	 -5.89405 	 86.9271 	 
C 	 -3.99293 	 -6.39455 	 85.6288 	 
H 	 -5.3223 	 -4.13864 	 87.7495 	 
C 	 -3.44382 	 -6.41023 	 88.1888 	 
H 	 -2.75801 	 -5.64227 	 88.6386 	 
H 	 -2.85696 	 -7.22365 	 88.0225 	 
C 	 -4.42007 	 -6.90663 	 89.2507 	 
H 	 -4.93923 	 -7.83055 	 88.9097 	 
H 	 -5.23867 	 -6.18654 	 89.3947 	 
C 	 -3.75047 	 -6.98459 	 90.6438 	 
H 	 -3.18578 	 -6.10091 	 90.8463 	 
H 	 -3.10422 	 -7.89051 	 90.781 	 
H 	 -4.47096 	 -7.07562 	 91.527 	 
H 	 -2.38764 	 -10.0289 	 82.5848 	 
H 	 -6.01798 	 -3.45877 	 85.4527 	 
*
