! wB97X-D3 SP def2-SVP
%pal
nprocs 16
end

* xyz 0 1
S 	 0.513557 	 7.27912 	 79.9086 	 
C 	 0.842811 	 6.39712 	 78.4282 	 
C 	 -1.68091e-05 	 6.73175 	 77.3597 	 
C 	 -0.998205 	 7.64823 	 77.8254 	 
C 	 -0.888591 	 8.02085 	 79.1696 	 
H 	 -1.72504 	 8.13772 	 77.2391 	 
C 	 0.298479 	 6.39765 	 75.938 	 
H 	 0.203785 	 5.36712 	 75.7368 	 
H 	 1.4247 	 6.56594 	 75.8521 	 
C 	 -0.185833 	 7.35579 	 74.8268 	 
H 	 -1.3144 	 7.41803 	 74.9286 	 
H 	 0.299723 	 8.30711 	 74.991 	 
C 	 0.15215 	 6.76409 	 73.4565 	 
H 	 1.18035 	 6.33308 	 73.3357 	 
H 	 -0.599543 	 6.10532 	 73.1666 	 
H 	 0.222041 	 7.70891 	 72.843 	 
S 	 -0.951572 	 10.1413 	 80.8793 	 
C 	 -2.3003 	 11.2001 	 80.9637 	 
C 	 -3.37704 	 10.5902 	 80.41 	 
C 	 -3.03878 	 9.38339 	 79.6778 	 
C 	 -1.71576 	 9.00984 	 79.7594 	 
H 	 -4.34887 	 11.1019 	 80.5198 	 
C 	 -4.01915 	 8.61627 	 78.7978 	 
H 	 -4.77042 	 8.22911 	 79.5079 	 
H 	 -3.48277 	 7.76999 	 78.3685 	 
C 	 -4.68541 	 9.46693 	 77.6879 	 
H 	 -3.8185 	 9.81544 	 77.0572 	 
H 	 -5.06475 	 10.2547 	 78.1979 	 
C 	 -5.74653 	 8.69948 	 76.9163 	 
H 	 -5.31687 	 7.82767 	 76.4371 	 
H 	 -6.23588 	 9.33556 	 76.121 	 
H 	 -6.47865 	 8.2289 	 77.57 	 
H 	 1.72339 	 5.73974 	 78.2515 	 
H 	 -2.38065 	 12.1167 	 81.5799 	 
*
