! wB97X-D3 SP def2-SVP
%pal
nprocs 16
end

* xyz 0 1
S 	 40.4173 	 14.8135 	 82.8858 	 
C 	 40.8378 	 15.9504 	 81.6289 	 
C 	 41.2352 	 15.2884 	 80.455 	 
C 	 41.213 	 13.8627 	 80.6158 	 
C 	 40.6837 	 13.4609 	 81.8133 	 
H 	 41.6216 	 13.1177 	 79.9539 	 
C 	 41.829 	 15.9519 	 79.2074 	 
H 	 42.3713 	 15.1615 	 78.6658 	 
H 	 42.5266 	 16.7357 	 79.6075 	 
C 	 40.8261 	 16.5651 	 78.2348 	 
H 	 40.3686 	 17.4034 	 78.8414 	 
H 	 41.3917 	 17.045 	 77.4587 	 
C 	 39.7745 	 15.5936 	 77.7407 	 
H 	 39.1112 	 16.1012 	 77.0831 	 
H 	 40.2604 	 14.7413 	 77.2534 	 
H 	 39.1289 	 15.2688 	 78.5754 	 
S 	 40.737 	 11.8096 	 84.0849 	 
C 	 40.6822 	 10.1173 	 83.8063 	 
C 	 40.468 	 9.78653 	 82.4926 	 
C 	 40.4746 	 10.8953 	 81.6087 	 
C 	 40.5765 	 12.0841 	 82.3252 	 
H 	 40.3981 	 8.74239 	 82.2912 	 
C 	 40.1192 	 10.7348 	 80.1597 	 
H 	 39.7855 	 11.5661 	 79.654 	 
H 	 39.4151 	 9.83391 	 80.1362 	 
C 	 41.3345 	 10.0524 	 79.3953 	 
H 	 41.2005 	 8.97617 	 79.7342 	 
H 	 42.3381 	 10.396 	 79.6515 	 
C 	 41.1147 	 10.1613 	 77.8199 	 
H 	 41.8455 	 9.57696 	 77.2147 	 
H 	 41.2461 	 11.2622 	 77.6874 	 
H 	 40.1264 	 9.84116 	 77.4513 	 
H 	 41.0248 	 17.0835 	 81.7211 	 
H 	 40.8824 	 9.40341 	 84.584 	 
*
