! wB97X-D3 SP def2-SVP
%pal
nprocs 16
end

* xyz 0 1
S 	 21.903 	 8.54816 	 66.5558 	 
C 	 23.2588 	 9.39243 	 66.0126 	 
C 	 23.0434 	 10.7516 	 66.1879 	 
C 	 21.7299 	 11.0681 	 66.5289 	 
C 	 20.9383 	 9.96367 	 66.7547 	 
H 	 21.3277 	 12.0991 	 66.6962 	 
C 	 24.0934 	 11.8321 	 66.1497 	 
H 	 24.3076 	 11.8081 	 65.0865 	 
H 	 25.0028 	 11.4871 	 66.5564 	 
C 	 23.7548 	 13.2098 	 66.722 	 
H 	 22.7571 	 13.684 	 66.4042 	 
H 	 23.6076 	 13.0956 	 67.8265 	 
C 	 24.8551 	 14.2001 	 66.4662 	 
H 	 24.6358 	 15.1894 	 66.8871 	 
H 	 25.8235 	 13.8185 	 66.7479 	 
H 	 24.9418 	 14.484 	 65.377 	 
S 	 18.4169 	 10.85 	 66.2881 	 
C 	 17.0252 	 10.2241 	 67.0882 	 
C 	 17.5114 	 9.42154 	 68.1437 	 
C 	 18.9191 	 9.15084 	 68.1796 	 
C 	 19.5727 	 10.0035 	 67.2427 	 
H 	 16.7983 	 8.96768 	 68.8281 	 
C 	 19.5647 	 8.24372 	 69.1484 	 
H 	 20.5636 	 7.96176 	 68.7883 	 
H 	 19.1191 	 7.27061 	 69.0811 	 
C 	 19.6137 	 8.77186 	 70.551 	 
H 	 18.5441 	 9.06319 	 70.9705 	 
H 	 20.076 	 9.78668 	 70.5235 	 
C 	 20.2148 	 7.80859 	 71.6481 	 
H 	 21.3182 	 7.79611 	 71.6214 	 
H 	 20.0798 	 6.80452 	 71.2847 	 
H 	 19.7598 	 7.90771 	 72.6188 	 
H 	 24.1723 	 8.89865 	 65.764 	 
H 	 15.9593 	 10.2518 	 66.8468 	 
*
