! wB97X-D3 SP def2-SVP
%pal
nprocs 16
end

* xyz 0 1
S 	 40.2446 	 12.4811 	 82.7375 	 
C 	 41.2845 	 11.7817 	 81.4581 	 
C 	 41.4086 	 12.6613 	 80.396 	 
C 	 40.7417 	 13.8728 	 80.6536 	 
C 	 40.189 	 14.0329 	 81.9312 	 
H 	 40.7698 	 14.7603 	 79.9677 	 
C 	 42.0734 	 12.4659 	 79.0978 	 
H 	 42.5718 	 11.5888 	 79.2657 	 
H 	 42.9135 	 13.1421 	 79.0947 	 
C 	 41.2302 	 12.4745 	 77.796 	 
H 	 40.445 	 11.7192 	 77.8752 	 
H 	 40.6772 	 13.3469 	 77.5861 	 
C 	 42.0413 	 12.3057 	 76.5384 	 
H 	 42.8125 	 12.9949 	 76.4546 	 
H 	 42.587 	 11.3995 	 76.7566 	 
H 	 41.388 	 12.1638 	 75.6533 	 
S 	 37.8435 	 14.8825 	 82.8837 	 
C 	 37.6179 	 16.4531 	 83.5625 	 
C 	 38.7647 	 17.2612 	 83.4737 	 
C 	 39.8672 	 16.5411 	 82.8842 	 
C 	 39.4733 	 15.2016 	 82.5754 	 
H 	 38.6182 	 18.2874 	 83.8491 	 
C 	 41.2471 	 17.0591 	 82.7564 	 
H 	 41.86 	 16.2452 	 82.4097 	 
H 	 41.6681 	 17.4828 	 83.6658 	 
C 	 41.3193 	 18.1721 	 81.7015 	 
H 	 40.6718 	 18.9806 	 82.0202 	 
H 	 41.0022 	 17.7301 	 80.7493 	 
C 	 42.7704 	 18.7399 	 81.5217 	 
H 	 43.4526 	 17.8669 	 81.3789 	 
H 	 42.9614 	 19.2746 	 82.4491 	 
H 	 43.0147 	 19.357 	 80.6587 	 
H 	 41.8754 	 10.9094 	 81.4798 	 
H 	 36.7157 	 16.8926 	 83.96 	 
*
