! wB97X-D3 SP def2-SVP
%pal
nprocs 16
end

* xyz 0 1
S 	 -72.7512 	 37.7365 	 114.806 	 
C 	 -73.336 	 37.6509 	 116.448 	 
C 	 -72.5998 	 36.7041 	 117.158 	 
C 	 -71.5784 	 36.1174 	 116.379 	 
C 	 -71.4798 	 36.5791 	 115.115 	 
H 	 -70.7677 	 35.3861 	 116.769 	 
C 	 -72.9758 	 36.1721 	 118.485 	 
H 	 -73.9612 	 36.6521 	 118.562 	 
H 	 -72.375 	 36.4621 	 119.3 	 
C 	 -73.1949 	 34.6526 	 118.696 	 
H 	 -73.7918 	 34.3336 	 117.813 	 
H 	 -72.2031 	 34.1574 	 118.497 	 
C 	 -73.9088 	 34.3172 	 119.998 	 
H 	 -74.7501 	 34.992 	 120.238 	 
H 	 -74.2167 	 33.2955 	 120.104 	 
H 	 -73.1305 	 34.5331 	 120.796 	 
S 	 -71.2403 	 35.138 	 112.738 	 
C 	 -69.6381 	 34.8359 	 112.105 	 
C 	 -68.6251 	 35.3384 	 112.906 	 
C 	 -69.1882 	 35.9902 	 114.077 	 
C 	 -70.5654 	 36.0696 	 114.085 	 
H 	 -67.6278 	 35.241 	 112.652 	 
C 	 -68.2943 	 36.5882 	 115.11 	 
H 	 -68.9123 	 37.1199 	 115.732 	 
H 	 -67.6233 	 37.2532 	 114.576 	 
C 	 -67.4434 	 35.5869 	 115.92 	 
H 	 -66.8804 	 34.9266 	 115.357 	 
H 	 -68.0893 	 35.0897 	 116.538 	 
C 	 -66.4506 	 36.3606 	 116.83 	 
H 	 -65.9676 	 35.6514 	 117.369 	 
H 	 -66.9509 	 37.0374 	 117.589 	 
H 	 -65.7719 	 37.0105 	 116.266 	 
H 	 -74.2846 	 38.0565 	 116.821 	 
H 	 -69.3783 	 34.2793 	 111.177 	 
*
