! wB97X-D3 SP def2-SVP
%pal
nprocs 16
end

* xyz 0 1
S 	 -93.6319 	 40.0613 	 113.66 	 
C 	 -92.9967 	 38.9647 	 114.808 	 
C 	 -92.1924 	 39.6696 	 115.729 	 
C 	 -92.1913 	 41.088 	 115.536 	 
C 	 -93.0882 	 41.4665 	 114.501 	 
H 	 -91.6491 	 41.7999 	 116.108 	 
C 	 -91.1155 	 39.0034 	 116.745 	 
H 	 -91.2195 	 39.4466 	 117.731 	 
H 	 -90.0554 	 39.3162 	 116.429 	 
C 	 -91.2725 	 37.4581 	 116.813 	 
H 	 -92.2083 	 37.2139 	 117.285 	 
H 	 -91.3146 	 37.0328 	 115.866 	 
C 	 -90.1045 	 36.7716 	 117.429 	 
H 	 -90.3678 	 35.7332 	 117.634 	 
H 	 -89.3401 	 36.6804 	 116.692 	 
H 	 -89.6142 	 37.2248 	 118.247 	 
S 	 -92.9081 	 43.2789 	 112.455 	 
C 	 -93.3339 	 44.8873 	 112.778 	 
C 	 -93.9451 	 45.0837 	 114.018 	 
C 	 -93.9164 	 43.8579 	 114.752 	 
C 	 -93.3943 	 42.7876 	 114.036 	 
H 	 -94.3362 	 46.0287 	 114.286 	 
C 	 -94.2271 	 43.9152 	 116.249 	 
H 	 -94.1686 	 42.9001 	 116.693 	 
H 	 -95.3277 	 44.2114 	 116.392 	 
C 	 -93.3252 	 44.8037 	 117.051 	 
H 	 -93.2829 	 45.7514 	 116.448 	 
H 	 -92.3147 	 44.4064 	 116.91 	 
C 	 -93.7162 	 44.9815 	 118.404 	 
H 	 -94.0389 	 44.1277 	 118.96 	 
H 	 -94.6093 	 45.6614 	 118.381 	 
H 	 -92.8532 	 45.4784 	 118.885 	 
H 	 -92.7853 	 37.9417 	 114.541 	 
H 	 -93.3874 	 45.6672 	 112.011 	 
*
