! wB97X-D3 SP def2-SVP
%pal
nprocs 16
end

* xyz 0 1
S 	 45.807 	 23.3569 	 101.888 	 
C 	 44.5346 	 24.3742 	 101.149 	 
C 	 43.4525 	 23.6689 	 100.632 	 
C 	 43.6693 	 22.2644 	 100.897 	 
C 	 44.8941 	 21.9664 	 101.463 	 
H 	 43.0851 	 21.4566 	 100.586 	 
C 	 42.1979 	 24.315 	 100.031 	 
H 	 42.2187 	 25.3903 	 100.328 	 
H 	 41.3223 	 23.8114 	 100.336 	 
C 	 42.1658 	 24.3281 	 98.4665 	 
H 	 43.0141 	 24.8271 	 98.1449 	 
H 	 42.2843 	 23.3249 	 98.1561 	 
C 	 40.9038 	 24.9804 	 97.9602 	 
H 	 40.6069 	 25.8578 	 98.3842 	 
H 	 41.0401 	 25.2638 	 96.9208 	 
H 	 40.1275 	 24.2439 	 98.0435 	 
S 	 45.725 	 20.3742 	 103.401 	 
C 	 46.1566 	 18.676 	 103.092 	 
C 	 45.9486 	 18.3331 	 101.79 	 
C 	 45.4545 	 19.4102 	 101.022 	 
C 	 45.261 	 20.5588 	 101.79 	 
H 	 46.1514 	 17.3839 	 101.384 	 
C 	 45.3549 	 19.4337 	 99.5147 	 
H 	 44.6459 	 20.1902 	 99.0728 	 
H 	 44.7017 	 18.6023 	 99.252 	 
C 	 46.6 	 19.3796 	 98.6057 	 
H 	 46.2968 	 19.3666 	 97.5608 	 
H 	 46.9854 	 18.3656 	 98.7673 	 
C 	 47.4853 	 20.5825 	 98.8488 	 
H 	 46.8994 	 21.4471 	 98.7735 	 
H 	 48.2232 	 20.447 	 98.0636 	 
H 	 48.0213 	 20.5104 	 99.7947 	 
H 	 44.5591 	 25.422 	 101.266 	 
H 	 46.7503 	 18.0408 	 103.831 	 
*
