! wB97X-D3 SP def2-SVP
%pal
nprocs 16
end

* xyz 0 1
S 	 -15.8525 	 -9.5484 	 86.7758 	 
C 	 -14.2213 	 -10.2825 	 86.6098 	 
C 	 -13.8473 	 -10.9331 	 87.8027 	 
C 	 -14.897 	 -10.8882 	 88.7865 	 
C 	 -16.065 	 -10.2721 	 88.3867 	 
H 	 -14.972 	 -11.3726 	 89.7616 	 
C 	 -12.5711 	 -11.6986 	 87.9704 	 
H 	 -12.2953 	 -11.6387 	 89.0314 	 
H 	 -11.7901 	 -11.1115 	 87.428 	 
C 	 -12.5238 	 -13.1929 	 87.5763 	 
H 	 -13.1995 	 -13.8148 	 88.188 	 
H 	 -12.969 	 -13.4035 	 86.6049 	 
C 	 -11.1254 	 -13.8564 	 87.6508 	 
H 	 -10.6944 	 -14.0918 	 88.6355 	 
H 	 -11.1733 	 -14.7685 	 87.0881 	 
H 	 -10.5097 	 -13.2012 	 87.0633 	 
S 	 -18.3039 	 -11.2684 	 89.64 	 
C 	 -19.2428 	 -10.1836 	 90.6957 	 
C 	 -18.7065 	 -8.94076 	 90.7699 	 
C 	 -17.5292 	 -8.82983 	 89.997 	 
C 	 -17.1845 	 -9.99591 	 89.2798 	 
H 	 -19.1149 	 -8.09274 	 91.3465 	 
C 	 -16.6136 	 -7.62003 	 90.0783 	 
H 	 -16.1512 	 -7.51206 	 89.0755 	 
H 	 -15.8074 	 -7.80147 	 90.7603 	 
C 	 -17.2794 	 -6.26671 	 90.4165 	 
H 	 -17.472 	 -6.276 	 91.4509 	 
H 	 -18.2063 	 -6.06279 	 89.8597 	 
C 	 -16.3171 	 -5.0194 	 90.2536 	 
H 	 -15.9675 	 -4.95927 	 89.2122 	 
H 	 -15.2975 	 -5.12395 	 90.6769 	 
H 	 -16.7712 	 -4.05427 	 90.4872 	 
H 	 -13.6574 	 -10.1748 	 85.735 	 
H 	 -20.1619 	 -10.4677 	 91.2634 	 
*
