! wB97X-D3 SP def2-SVP
%pal
nprocs 16
end

* xyz 0 1
S 	 54.0378 	 3.15935 	 81.8455 	 
C 	 52.3737 	 2.88684 	 82.3207 	 
C 	 51.8804 	 1.78009 	 81.6884 	 
C 	 52.8803 	 1.01562 	 81.0109 	 
C 	 54.0441 	 1.66745 	 80.8807 	 
H 	 52.7854 	 0.0013819 	 80.6676 	 
C 	 50.4841 	 1.33955 	 81.9957 	 
H 	 50.076 	 0.766651 	 81.1755 	 
H 	 49.8255 	 2.21985 	 82.2032 	 
C 	 50.3521 	 0.537792 	 83.2705 	 
H 	 51.0245 	 -0.357158 	 83.2075 	 
H 	 50.7851 	 0.993004 	 84.1978 	 
C 	 48.882 	 0.151046 	 83.6696 	 
H 	 48.5409 	 -0.533727 	 82.8819 	 
H 	 48.9031 	 -0.369074 	 84.5848 	 
H 	 48.1405 	 0.949307 	 83.7123 	 
S 	 56.609 	 0.666398 	 81.2042 	 
C 	 57.4677 	 0.163773 	 79.8592 	 
C 	 56.8683 	 0.293526 	 78.6353 	 
C 	 55.5547 	 0.883456 	 78.8232 	 
C 	 55.2672 	 1.19047 	 80.1506 	 
H 	 57.4078 	 0.0835741 	 77.7226 	 
C 	 54.6649 	 1.26921 	 77.6642 	 
H 	 55.201 	 2.12617 	 77.1898 	 
H 	 53.6867 	 1.51647 	 78.0812 	 
C 	 54.4917 	 0.231138 	 76.5004 	 
H 	 53.659 	 -0.44747 	 76.7242 	 
H 	 55.4535 	 -0.39167 	 76.3104 	 
C 	 54.0455 	 0.92357 	 75.1967 	 
H 	 54.6762 	 1.68215 	 74.7154 	 
H 	 53.0576 	 1.35064 	 75.4015 	 
H 	 53.8815 	 0.198921 	 74.3592 	 
H 	 51.8728 	 3.47983 	 83.1343 	 
H 	 58.4567 	 -0.302247 	 79.8759 	 
*
