! wB97X-D3 SP def2-SVP
%pal
nprocs 16
end

* xyz 0 1
S 	 5.45962 	 -3.8695 	 100.06 	 
C 	 3.96266 	 -4.70046 	 99.6366 	 
C 	 4.12396 	 -5.7453 	 98.7133 	 
C 	 5.48928 	 -5.87498 	 98.3501 	 
C 	 6.32791 	 -4.80006 	 98.8638 	 
H 	 5.93393 	 -6.65105 	 97.7258 	 
C 	 3.02315 	 -6.64402 	 98.3142 	 
H 	 2.08852 	 -6.51185 	 98.8952 	 
H 	 3.33589 	 -7.70311 	 98.4863 	 
C 	 2.81158 	 -6.57346 	 96.7882 	 
H 	 2.73219 	 -5.5728 	 96.4746 	 
H 	 3.7221 	 -6.92592 	 96.3022 	 
C 	 1.58764 	 -7.30816 	 96.3394 	 
H 	 1.60467 	 -8.34802 	 96.8053 	 
H 	 0.582661 	 -6.83722 	 96.5936 	 
H 	 1.63592 	 -7.33114 	 95.2417 	 
S 	 8.53 	 -4.915 	 100.55 	 
C 	 10.0597 	 -4.78122 	 99.9161 	 
C 	 10.0399 	 -4.58589 	 98.5254 	 
C 	 8.72519 	 -4.6266 	 97.9592 	 
C 	 7.76406 	 -4.74849 	 98.9653 	 
H 	 10.9733 	 -4.47667 	 98.0058 	 
C 	 8.50587 	 -4.54903 	 96.4552 	 
H 	 8.11654 	 -5.47395 	 96.1025 	 
H 	 9.51973 	 -4.5051 	 96.0428 	 
C 	 7.81614 	 -3.23717 	 96.0359 	 
H 	 8.09503 	 -2.56283 	 96.7428 	 
H 	 6.77192 	 -3.32408 	 96.2015 	 
C 	 8.23496 	 -2.84766 	 94.6042 	 
H 	 9.32399 	 -2.79763 	 94.5826 	 
H 	 7.87119 	 -1.88643 	 94.3618 	 
H 	 7.78502 	 -3.4253 	 93.8361 	 
H 	 2.98111 	 -4.4789 	 99.9156 	 
H 	 11.0031 	 -4.67391 	 100.497 	 
*
