! wB97X-D3 SP def2-SVP
%pal
nprocs 16
end

* xyz 0 1
S 	 -23.1093 	 -1.06526 	 76.8799 	 
C 	 -21.6947 	 -0.990805 	 75.9086 	 
C 	 -20.8687 	 0.111293 	 76.2243 	 
C 	 -21.4463 	 0.840698 	 77.3126 	 
C 	 -22.6184 	 0.37508 	 77.7884 	 
H 	 -21.0552 	 1.7496 	 77.7243 	 
C 	 -19.5296 	 0.308904 	 75.5655 	 
H 	 -19.2901 	 1.3477 	 75.4208 	 
H 	 -19.5587 	 -0.116447 	 74.5967 	 
C 	 -18.3444 	 -0.341082 	 76.351 	 
H 	 -18.4534 	 -1.41535 	 76.3699 	 
H 	 -17.4191 	 -0.225325 	 75.7868 	 
C 	 -18.2607 	 0.327493 	 77.6719 	 
H 	 -18.419 	 1.32919 	 77.6053 	 
H 	 -19.1152 	 0.0106153 	 78.3206 	 
H 	 -17.2467 	 0.149481 	 78.1773 	 
S 	 -25.0719 	 1.58874 	 77.8485 	 
C 	 -25.4502 	 2.64497 	 79.1625 	 
C 	 -24.5019 	 2.66024 	 80.1216 	 
C 	 -23.4815 	 1.65489 	 79.9239 	 
C 	 -23.6087 	 1.0691 	 78.6438 	 
H 	 -24.6595 	 3.34696 	 80.9247 	 
C 	 -22.3952 	 1.48569 	 80.9238 	 
H 	 -21.7107 	 2.25008 	 80.8978 	 
H 	 -21.8384 	 0.620926 	 80.6005 	 
C 	 -22.8917 	 1.30507 	 82.3454 	 
H 	 -23.4746 	 0.429232 	 82.3263 	 
H 	 -23.6691 	 2.03136 	 82.5844 	 
C 	 -21.7326 	 1.32068 	 83.4498 	 
H 	 -22.163 	 0.949236 	 84.3855 	 
H 	 -21.1912 	 2.25996 	 83.6254 	 
H 	 -20.8764 	 0.721429 	 83.1328 	 
H 	 -21.3727 	 -1.77828 	 75.1595 	 
H 	 -26.3432 	 3.23384 	 79.3036 	 
*
