! wB97X-D3 SP def2-SVP
%pal
nprocs 16
end

* xyz 0 1
S 	 5.13544 	 -13.9336 	 91.6489 	 
C 	 3.42939 	 -13.7774 	 92.0147 	 
C 	 2.71122 	 -14.5474 	 91.1478 	 
C 	 3.48496 	 -15.0443 	 90.0219 	 
C 	 4.79171 	 -14.792 	 90.0784 	 
H 	 3.09616 	 -15.5764 	 89.1722 	 
C 	 1.27675 	 -14.8325 	 91.3247 	 
H 	 0.726176 	 -14.054 	 90.6976 	 
H 	 0.922627 	 -14.6546 	 92.3669 	 
C 	 0.818798 	 -16.2403 	 90.8944 	 
H 	 1.05048 	 -16.4594 	 89.8596 	 
H 	 1.4701 	 -16.978 	 91.3521 	 
C 	 -0.669089 	 -16.518 	 91.1774 	 
H 	 -0.815272 	 -16.3612 	 92.2796 	 
H 	 -1.29719 	 -15.9219 	 90.5095 	 
H 	 -0.727245 	 -17.589 	 91.0006 	 
S 	 6.34688 	 -13.4839 	 88.1844 	 
C 	 7.39634 	 -14.4152 	 87.1447 	 
C 	 7.06239 	 -15.7515 	 87.2474 	 
C 	 6.12599 	 -16.0962 	 88.3081 	 
C 	 5.77088 	 -14.9465 	 89.0083 	 
H 	 7.63446 	 -16.3955 	 86.5863 	 
C 	 5.63397 	 -17.4587 	 88.688 	 
H 	 5.34792 	 -17.5388 	 89.735 	 
H 	 6.37309 	 -18.1683 	 88.5501 	 
C 	 4.38702 	 -17.9577 	 87.9072 	 
H 	 4.44378 	 -17.6023 	 86.8519 	 
H 	 3.37601 	 -17.4458 	 88.214 	 
C 	 4.21715 	 -19.4765 	 88.0161 	 
H 	 3.20038 	 -19.5776 	 87.5625 	 
H 	 4.09155 	 -19.7967 	 89.0826 	 
H 	 4.98417 	 -20.2036 	 87.6413 	 
H 	 2.90733 	 -13.3508 	 92.8347 	 
H 	 8.07157 	 -13.9579 	 86.4407 	 
*
