! wB97X-D3 SP def2-SVP
%pal
nprocs 16
end

* xyz 0 1
S 	 -9.40492 	 -8.00422 	 77.0812 	 
C 	 -8.81712 	 -9.70031 	 77.1577 	 
C 	 -9.38039 	 -10.3337 	 76.0543 	 
C 	 -10.2842 	 -9.49677 	 75.2412 	 
C 	 -10.4261 	 -8.24488 	 75.7281 	 
H 	 -10.743 	 -9.69313 	 74.2525 	 
C 	 -8.90793 	 -11.7508 	 75.5614 	 
H 	 -7.79607 	 -11.7721 	 75.5539 	 
H 	 -9.19451 	 -11.8717 	 74.5767 	 
C 	 -9.53804 	 -12.9463 	 76.4565 	 
H 	 -9.43805 	 -12.5755 	 77.5508 	 
H 	 -10.5647 	 -12.9718 	 76.1128 	 
C 	 -9.03056 	 -14.3479 	 76.16 	 
H 	 -7.89746 	 -14.2528 	 76.1022 	 
H 	 -9.21932 	 -15.1046 	 76.9327 	 
H 	 -9.3729 	 -14.6755 	 75.2054 	 
S 	 -12.4671 	 -6.39456 	 75.7753 	 
C 	 -12.8017 	 -5.55202 	 74.2969 	 
C 	 -11.6704 	 -5.55506 	 73.5094 	 
C 	 -10.7256 	 -6.51379 	 73.8259 	 
C 	 -11.1453 	 -7.20711 	 74.9709 	 
H 	 -11.6753 	 -4.88413 	 72.6783 	 
C 	 -9.48805 	 -6.73665 	 72.947 	 
H 	 -9.53329 	 -6.07354 	 72.133 	 
H 	 -9.68336 	 -7.70801 	 72.5261 	 
C 	 -8.11653 	 -6.56027 	 73.5963 	 
H 	 -7.96591 	 -7.24759 	 74.4671 	 
H 	 -8.07732 	 -5.54041 	 73.9675 	 
C 	 -6.80407 	 -6.59541 	 72.7479 	 
H 	 -6.54785 	 -7.60605 	 72.4177 	 
H 	 -6.00028 	 -6.27308 	 73.3564 	 
H 	 -6.79181 	 -5.92772 	 71.8722 	 
H 	 -7.99288 	 -10.0428 	 77.7689 	 
H 	 -13.5275 	 -4.69069 	 74.3023 	 
*
