! wB97X-D3 SP def2-SVP
%pal
nprocs 16
end

* xyz 0 1
S 	 -109.196 	 37.9945 	 128.849 	 
C 	 -107.412 	 37.7473 	 129.022 	 
C 	 -106.805 	 38.9252 	 128.868 	 
C 	 -107.718 	 40.056 	 128.899 	 
C 	 -109.065 	 39.7197 	 129.019 	 
H 	 -107.333 	 41.0271 	 128.89 	 
C 	 -105.296 	 39.2031 	 128.685 	 
H 	 -105.158 	 39.5918 	 127.685 	 
H 	 -104.778 	 38.3304 	 128.72 	 
C 	 -104.57 	 40.1749 	 129.728 	 
H 	 -103.622 	 40.4327 	 129.303 	 
H 	 -105.074 	 41.1823 	 129.706 	 
C 	 -104.557 	 39.5736 	 131.187 	 
H 	 -104.045 	 40.348 	 131.818 	 
H 	 -105.556 	 39.4231 	 131.548 	 
H 	 -104.047 	 38.5927 	 131.172 	 
S 	 -111.155 	 40.2411 	 127.187 	 
C 	 -112.098 	 41.7156 	 127.373 	 
C 	 -111.66 	 42.4282 	 128.476 	 
C 	 -110.489 	 41.8607 	 129.18 	 
C 	 -110.171 	 40.6207 	 128.683 	 
H 	 -112.176 	 43.3214 	 128.771 	 
C 	 -109.825 	 42.5396 	 130.364 	 
H 	 -109.154 	 41.7985 	 130.826 	 
H 	 -110.575 	 42.8319 	 131.169 	 
C 	 -109.113 	 43.8645 	 129.988 	 
H 	 -109.869 	 44.5631 	 129.828 	 
H 	 -108.57 	 43.6493 	 129.109 	 
C 	 -108.169 	 44.4268 	 131.052 	 
H 	 -107.561 	 45.238 	 130.644 	 
H 	 -107.473 	 43.6386 	 131.509 	 
H 	 -108.651 	 44.8035 	 131.958 	 
H 	 -106.861 	 36.837 	 129.123 	 
H 	 -113.005 	 41.9297 	 126.851 	 
*
