! wB97X-D3 SP def2-SVP
%pal
nprocs 16
end

* xyz 0 1
S 	 -106.526 	 49.8546 	 123.043 	 
C 	 -107.911 	 49.0147 	 122.307 	 
C 	 -108.161 	 49.3968 	 121.016 	 
C 	 -107.095 	 50.1737 	 120.569 	 
C 	 -106.23 	 50.695 	 121.536 	 
H 	 -107.047 	 50.4903 	 119.503 	 
C 	 -109.166 	 48.8049 	 120.028 	 
H 	 -109.668 	 48.0021 	 120.513 	 
H 	 -108.561 	 48.2866 	 119.218 	 
C 	 -110.108 	 49.7888 	 119.38 	 
H 	 -110.476 	 50.3182 	 120.236 	 
H 	 -109.637 	 50.5741 	 118.761 	 
C 	 -111.332 	 49.1978 	 118.566 	 
H 	 -111.935 	 48.3787 	 119.05 	 
H 	 -111.982 	 49.928 	 118.101 	 
H 	 -110.824 	 48.7491 	 117.653 	 
S 	 -103.653 	 51.4761 	 122.383 	 
C 	 -102.784 	 52.5012 	 121.278 	 
C 	 -103.558 	 53.0251 	 120.266 	 
C 	 -104.898 	 52.4997 	 120.291 	 
C 	 -105.097 	 51.6582 	 121.337 	 
H 	 -103.214 	 53.7285 	 119.49 	 
C 	 -105.848 	 52.9521 	 119.197 	 
H 	 -106.182 	 53.9971 	 119.354 	 
H 	 -106.776 	 52.423 	 119.399 	 
C 	 -105.554 	 52.5435 	 117.658 	 
H 	 -106.376 	 52.6161 	 116.981 	 
H 	 -105.344 	 51.4995 	 117.769 	 
C 	 -104.402 	 53.3491 	 117.004 	 
H 	 -104.43 	 54.4162 	 116.981 	 
H 	 -104.418 	 53.1041 	 115.947 	 
H 	 -103.489 	 53.0713 	 117.346 	 
H 	 -108.561 	 48.2659 	 122.819 	 
H 	 -101.875 	 53.0733 	 121.633 	 
*
