! wB97X-D3 SP def2-SVP
%pal
nprocs 16
end

* xyz 0 1
S 	 -12.9672 	 -11.0952 	 84.9468 	 
C 	 -14.4077 	 -11.4686 	 85.7089 	 
C 	 -14.6027 	 -10.5948 	 86.7886 	 
C 	 -13.5102 	 -9.67143 	 86.8812 	 
C 	 -12.5159 	 -9.81695 	 85.9835 	 
H 	 -13.4127 	 -8.97982 	 87.6653 	 
C 	 -15.7869 	 -10.7314 	 87.7606 	 
H 	 -15.9631 	 -9.75711 	 88.199 	 
H 	 -15.3843 	 -11.3517 	 88.6813 	 
C 	 -16.9584 	 -11.6198 	 87.2696 	 
H 	 -17.447 	 -11.2307 	 86.3632 	 
H 	 -16.5303 	 -12.6531 	 87.1261 	 
C 	 -18.0365 	 -11.7868 	 88.2979 	 
H 	 -17.7039 	 -12.3462 	 89.2123 	 
H 	 -18.418 	 -10.7618 	 88.5989 	 
H 	 -18.8812 	 -12.2836 	 87.8652 	 
S 	 -9.84636 	 -9.94711 	 85.3789 	 
C 	 -8.74244 	 -8.72554 	 86.0157 	 
C 	 -9.43357 	 -7.66598 	 86.5745 	 
C 	 -10.8808 	 -7.81494 	 86.4094 	 
C 	 -11.2449 	 -9.0782 	 85.9159 	 
H 	 -8.90275 	 -6.85069 	 86.9742 	 
C 	 -11.798 	 -6.69044 	 86.9154 	 
H 	 -11.1396 	 -5.95834 	 87.4798 	 
H 	 -12.5142 	 -7.01384 	 87.6978 	 
C 	 -12.5799 	 -5.90812 	 85.8881 	 
H 	 -13.132 	 -6.36144 	 85.0455 	 
H 	 -11.8364 	 -5.28762 	 85.3767 	 
C 	 -13.6796 	 -5.0605 	 86.6295 	 
H 	 -14.1342 	 -4.41427 	 85.9424 	 
H 	 -13.3438 	 -4.42214 	 87.4854 	 
H 	 -14.4426 	 -5.71004 	 87.0042 	 
H 	 -15.072 	 -12.2136 	 85.3522 	 
H 	 -7.745 	 -8.81822 	 86.0923 	 
*
