! wB97X-D3 SP def2-SVP
%pal
nprocs 16
end

* xyz 0 1
S 	 -9.11183 	 29.6252 	 55.1772 	 
C 	 -8.44489 	 28.3417 	 55.9375 	 
C 	 -7.09532 	 28.5427 	 56.2144 	 
C 	 -6.62007 	 29.8308 	 55.7406 	 
C 	 -7.6435 	 30.6252 	 55.2448 	 
H 	 -5.657 	 30.2314 	 55.6342 	 
C 	 -6.18331 	 27.4769 	 56.7529 	 
H 	 -5.1829 	 27.7871 	 56.4726 	 
H 	 -6.34801 	 26.5252 	 56.2219 	 
C 	 -6.0581 	 27.4503 	 58.2756 	 
H 	 -5.34237 	 26.6725 	 58.49 	 
H 	 -5.6415 	 28.3598 	 58.6281 	 
C 	 -7.35737 	 27.1784 	 59.0083 	 
H 	 -8.01374 	 28.0594 	 59.1081 	 
H 	 -7.88739 	 26.4932 	 58.3644 	 
H 	 -7.16382 	 26.6329 	 59.9325 	 
S 	 -7.90594 	 33.4492 	 55.4851 	 
C 	 -7.68283 	 34.38 	 53.9923 	 
C 	 -7.12547 	 33.543 	 53.0137 	 
C 	 -7.06353 	 32.2231 	 53.401 	 
C 	 -7.54146 	 31.9345 	 54.6413 	 
H 	 -6.77029 	 33.9037 	 52.0516 	 
C 	 -6.3782 	 31.2491 	 52.4543 	 
H 	 -5.79336 	 30.6855 	 53.1877 	 
H 	 -5.68894 	 31.8545 	 51.9034 	 
C 	 -7.17368 	 30.3482 	 51.383 	 
H 	 -7.64472 	 29.5177 	 51.9877 	 
H 	 -6.5146 	 29.8157 	 50.744 	 
C 	 -8.34766 	 31.0459 	 50.63 	 
H 	 -7.83723 	 31.8301 	 50.0053 	 
H 	 -9.04995 	 31.5183 	 51.3196 	 
H 	 -9.03128 	 30.4079 	 50.0176 	 
H 	 -8.87703 	 27.4223 	 56.1115 	 
H 	 -7.90077 	 35.4192 	 53.797 	 
*
