! wB97X-D3 SP def2-SVP
%pal
nprocs 16
end

* xyz 0 1
S 	 -1.28128 	 75.1312 	 54.1209 	 
C 	 -0.913672 	 73.4852 	 54.404 	 
C 	 -1.98215 	 72.642 	 54.1276 	 
C 	 -3.10963 	 73.3858 	 53.6111 	 
C 	 -2.89879 	 74.7625 	 53.6978 	 
H 	 -4.02765 	 72.9246 	 53.3319 	 
C 	 -1.95889 	 71.1604 	 54.2106 	 
H 	 -0.92668 	 70.9081 	 54.0993 	 
H 	 -2.58845 	 70.6725 	 53.4494 	 
C 	 -2.48291 	 70.7404 	 55.6088 	 
H 	 -2.13304 	 71.475 	 56.2895 	 
H 	 -3.57709 	 70.787 	 55.6597 	 
C 	 -1.95191 	 69.4015 	 56.0359 	 
H 	 -2.46667 	 68.6594 	 55.4188 	 
H 	 -0.900394 	 69.2746 	 56.1193 	 
H 	 -2.27115 	 69.121 	 57.0298 	 
S 	 -4.45129 	 76.9981 	 54.5476 	 
C 	 -5.39402 	 77.7884 	 53.3289 	 
C 	 -5.4261 	 77.1917 	 52.1112 	 
C 	 -4.50793 	 76.0299 	 52.1125 	 
C 	 -3.91171 	 75.7902 	 53.3143 	 
H 	 -6.10739 	 77.5621 	 51.3635 	 
C 	 -4.26225 	 75.2628 	 50.8205 	 
H 	 -5.16385 	 74.7743 	 50.433 	 
H 	 -3.60908 	 74.4127 	 51.0824 	 
C 	 -3.53563 	 76.0082 	 49.7027 	 
H 	 -4.20551 	 76.8487 	 49.4118 	 
H 	 -3.32714 	 75.3106 	 48.8858 	 
C 	 -2.21001 	 76.711 	 50.1186 	 
H 	 -2.36991 	 77.4603 	 50.9241 	 
H 	 -1.78103 	 77.1999 	 49.2588 	 
H 	 -1.4057 	 76.0111 	 50.2751 	 
H 	 0.0396495 	 73.1231 	 54.7147 	 
H 	 -5.82899 	 78.7837 	 53.4733 	 
*
