! wB97X-D3 SP def2-SVP
%pal
nprocs 16
end

* xyz 0 1
S 	 3.23599 	 27.3256 	 67.1843 	 
C 	 2.55813 	 25.8828 	 66.5978 	 
C 	 3.02065 	 25.4433 	 65.3928 	 
C 	 4.04388 	 26.2915 	 64.9233 	 
C 	 4.41534 	 27.2564 	 65.824 	 
H 	 4.64287 	 26.1814 	 64.0648 	 
C 	 2.65293 	 24.0831 	 64.7684 	 
H 	 2.17725 	 23.5111 	 65.4988 	 
H 	 3.55387 	 23.5286 	 64.5895 	 
C 	 1.90072 	 24.112 	 63.4241 	 
H 	 1.06496 	 24.7733 	 63.5083 	 
H 	 2.635 	 24.5087 	 62.6724 	 
C 	 1.32424 	 22.7921 	 62.8934 	 
H 	 2.08884 	 21.9922 	 62.8453 	 
H 	 0.48804 	 22.5783 	 63.4638 	 
H 	 0.842173 	 22.9016 	 61.9643 	 
S 	 4.52069 	 29.6888 	 64.5861 	 
C 	 5.95655 	 30.6959 	 64.494 	 
C 	 7.02683 	 29.8235 	 64.8812 	 
C 	 6.63333 	 28.5293 	 65.3817 	 
C 	 5.27431 	 28.3477 	 65.4454 	 
H 	 7.97603 	 30.2855 	 64.8552 	 
C 	 7.67097 	 27.4829 	 65.7774 	 
H 	 7.26369 	 26.9038 	 66.6764 	 
H 	 8.62096 	 27.9184 	 66.023 	 
C 	 8.01078 	 26.4045 	 64.7456 	 
H 	 8.51544 	 26.9405 	 63.9622 	 
H 	 7.14374 	 25.9936 	 64.2995 	 
C 	 8.95239 	 25.3506 	 65.2723 	 
H 	 8.50218 	 24.797 	 66.1845 	 
H 	 10.0084 	 25.7023 	 65.5323 	 
H 	 9.12313 	 24.6463 	 64.5475 	 
H 	 1.7896 	 25.4414 	 67.1631 	 
H 	 6.0877 	 31.6386 	 64.0219 	 
*
