! wB97X-D3 SP def2-SVP
%pal
nprocs 16
end

* xyz 0 1
S 	 -57.345 	 43.1404 	 115.967 	 
C 	 -58.1796 	 43.6082 	 114.494 	 
C 	 -58.0576 	 42.7278 	 113.487 	 
C 	 -57.1484 	 41.7137 	 113.835 	 
C 	 -56.6607 	 41.6955 	 115.157 	 
H 	 -56.7524 	 40.9549 	 113.08 	 
C 	 -58.5495 	 42.9373 	 112.074 	 
H 	 -57.7595 	 42.6241 	 111.364 	 
H 	 -58.8805 	 43.8985 	 111.945 	 
C 	 -59.7665 	 42.0959 	 111.669 	 
H 	 -59.5231 	 41.1638 	 111.166 	 
H 	 -60.3963 	 41.8635 	 112.586 	 
C 	 -60.6909 	 42.8359 	 110.702 	 
H 	 -60.9721 	 43.8328 	 111.014 	 
H 	 -60.154 	 43.0385 	 109.789 	 
H 	 -61.4979 	 42.1819 	 110.431 	 
S 	 -54.5362 	 41.3807 	 116.835 	 
C 	 -53.9987 	 39.7817 	 117.274 	 
C 	 -54.6874 	 38.7931 	 116.593 	 
C 	 -55.6946 	 39.3334 	 115.8 	 
C 	 -55.788 	 40.7449 	 115.839 	 
H 	 -54.7332 	 37.8403 	 116.963 	 
C 	 -56.5814 	 38.5136 	 114.936 	 
H 	 -56.0549 	 37.6789 	 114.501 	 
H 	 -56.7705 	 39.0497 	 113.986 	 
C 	 -57.8834 	 37.9952 	 115.551 	 
H 	 -57.7722 	 37.4678 	 116.481 	 
H 	 -58.3813 	 37.2318 	 114.883 	 
C 	 -58.8635 	 39.1382 	 115.813 	 
H 	 -59.803 	 38.7426 	 116.045 	 
H 	 -58.8499 	 39.7015 	 114.905 	 
H 	 -58.4014 	 39.7119 	 116.619 	 
H 	 -58.8783 	 44.4489 	 114.385 	 
H 	 -53.3962 	 39.5756 	 118.133 	 
*
