! wB97X-D3 SP def2-SVP
%pal
nprocs 16
end

* xyz 0 1
S 	 -42.6459 	 26.107 	 80.5484 	 
C 	 -41.3237 	 26.8638 	 81.2865 	 
C 	 -40.1508 	 26.2114 	 81.0987 	 
C 	 -40.4131 	 24.9836 	 80.3108 	 
C 	 -41.6978 	 24.8742 	 79.8021 	 
H 	 -39.6683 	 24.2335 	 80.1165 	 
C 	 -38.863 	 26.8011 	 81.6788 	 
H 	 -38.5087 	 26.1443 	 82.5381 	 
H 	 -38.9863 	 27.8099 	 82.1127 	 
C 	 -37.6336 	 26.7017 	 80.7161 	 
H 	 -37.3243 	 25.5791 	 80.7401 	 
H 	 -37.932 	 27.01 	 79.7617 	 
C 	 -36.5041 	 27.6852 	 81.1352 	 
H 	 -35.9179 	 27.9522 	 80.2673 	 
H 	 -36.843 	 28.6508 	 81.6606 	 
H 	 -35.9327 	 27.1951 	 81.9526 	 
S 	 -43.7275 	 23.0997 	 79.8044 	 
C 	 -43.8025 	 21.9328 	 78.4926 	 
C 	 -42.7082 	 22.0331 	 77.6427 	 
C 	 -41.8544 	 23.0951 	 77.9958 	 
C 	 -42.2858 	 23.7891 	 79.0742 	 
H 	 -42.7015 	 21.3012 	 76.8152 	 
C 	 -40.6019 	 23.386 	 77.2046 	 
H 	 -39.6595 	 23.1487 	 77.727 	 
H 	 -40.4732 	 24.4706 	 77.0893 	 
C 	 -40.4558 	 22.8341 	 75.8281 	 
H 	 -40.5506 	 21.7594 	 75.8561 	 
H 	 -39.4044 	 22.9246 	 75.4485 	 
C 	 -41.3951 	 23.5533 	 74.875 	 
H 	 -41.1708 	 24.5802 	 74.7984 	 
H 	 -42.4578 	 23.4111 	 75.1927 	 
H 	 -41.315 	 23.2934 	 73.8097 	 
H 	 -41.4579 	 27.7962 	 81.8168 	 
H 	 -44.4693 	 21.0774 	 78.3117 	 
*
