! wB97X-D3 SP def2-SVP
%pal
nprocs 16
end

* xyz 0 1
S 	 38.9069 	 22.1423 	 82.7962 	 
C 	 37.3119 	 22.4004 	 83.5485 	 
C 	 37.2243 	 23.7336 	 83.8976 	 
C 	 38.4747 	 24.4283 	 83.7001 	 
C 	 39.5134 	 23.6931 	 83.1074 	 
H 	 38.6795 	 25.4335 	 83.9945 	 
C 	 35.959 	 24.4337 	 84.3311 	 
H 	 35.0949 	 23.8415 	 84.3223 	 
H 	 35.7781 	 25.3098 	 83.6225 	 
C 	 35.9639 	 25.2563 	 85.6441 	 
H 	 36.2594 	 24.6376 	 86.4914 	 
H 	 36.718 	 26.0204 	 85.5353 	 
C 	 34.6185 	 25.8396 	 85.8482 	 
H 	 33.8079 	 25.1133 	 85.8938 	 
H 	 34.7432 	 26.4161 	 86.8047 	 
H 	 34.4288 	 26.4856 	 85.0466 	 
S 	 42.1652 	 22.9174 	 83.3507 	 
C 	 43.2814 	 23.7824 	 82.4588 	 
C 	 42.8084 	 25.0195 	 82.0194 	 
C 	 41.4237 	 25.1701 	 82.2386 	 
C 	 40.9046 	 24.0487 	 82.8641 	 
H 	 43.3595 	 25.5668 	 81.3701 	 
C 	 40.6447 	 26.3575 	 81.8399 	 
H 	 39.555 	 26.0633 	 81.8118 	 
H 	 40.851 	 26.7687 	 80.8581 	 
C 	 40.6019 	 27.506 	 82.9117 	 
H 	 40.4797 	 26.9679 	 83.9062 	 
H 	 39.6865 	 28.0542 	 82.6097 	 
C 	 41.6787 	 28.5214 	 83.052 	 
H 	 41.6551 	 29.348 	 83.7301 	 
H 	 41.7337 	 28.8742 	 82.017 	 
H 	 42.649 	 28.1851 	 83.2989 	 
H 	 36.5248 	 21.6075 	 83.5546 	 
H 	 44.2444 	 23.3475 	 82.2135 	 
*
