! wB97X-D3 SP def2-SVP
%pal
nprocs 16
end

* xyz 0 1
S 	 45.9214 	 11.5969 	 104.643 	 
C 	 47.6283 	 11.2511 	 104.797 	 
C 	 48.2484 	 11.1233 	 103.589 	 
C 	 47.325 	 11.1696 	 102.512 	 
C 	 46.0029 	 11.3763 	 102.881 	 
H 	 47.6228 	 11.1494 	 101.49 	 
C 	 49.6974 	 10.8261 	 103.387 	 
H 	 50.2231 	 11.5048 	 104.116 	 
H 	 50.0373 	 11.117 	 102.402 	 
C 	 50.1427 	 9.434 	 103.814 	 
H 	 49.4792 	 8.76747 	 103.219 	 
H 	 51.1614 	 9.23707 	 103.443 	 
C 	 50.1645 	 9.1017 	 105.266 	 
H 	 49.1024 	 9.01359 	 105.628 	 
H 	 50.6837 	 8.15851 	 105.573 	 
H 	 50.6016 	 9.85662 	 105.925 	 
S 	 43.3195 	 11.3879 	 102.821 	 
C 	 42.4863 	 11.6321 	 101.284 	 
C 	 43.4138 	 11.7896 	 100.238 	 
C 	 44.7545 	 11.8227 	 100.646 	 
C 	 44.8653 	 11.5649 	 102.025 	 
H 	 42.9153 	 11.9178 	 99.247 	 
C 	 45.9475 	 11.9732 	 99.6536 	 
H 	 46.3251 	 10.9512 	 99.7575 	 
H 	 46.6033 	 12.8274 	 99.9821 	 
C 	 45.5131 	 12.1335 	 98.2005 	 
H 	 44.6304 	 11.6093 	 97.8641 	 
H 	 46.3613 	 11.6318 	 97.6233 	 
C 	 45.3627 	 13.6231 	 97.9032 	 
H 	 46.2679 	 14.1704 	 98.2305 	 
H 	 44.4602 	 14.0137 	 98.4005 	 
H 	 45.2445 	 13.9641 	 96.8427 	 
H 	 48.1535 	 11.2286 	 105.725 	 
H 	 41.4167 	 11.725 	 101.098 	 
*
