! wB97X-D3 SP def2-SVP
%pal
nprocs 16
end

* xyz 0 1
S 	 -50.432 	 58.4978 	 128.503 	 
C 	 -50.3386 	 57.1172 	 129.607 	 
C 	 -50.0156 	 57.5099 	 130.878 	 
C 	 -49.8009 	 58.9518 	 130.923 	 
C 	 -50.0933 	 59.6258 	 129.773 	 
H 	 -49.4031 	 59.4393 	 131.841 	 
C 	 -49.64 	 56.5773 	 131.962 	 
H 	 -50.2758 	 55.7093 	 132.109 	 
H 	 -49.7268 	 57.093 	 132.877 	 
C 	 -48.1483 	 56.1088 	 132.016 	 
H 	 -47.986 	 55.537 	 132.911 	 
H 	 -48.0964 	 55.5 	 131.139 	 
C 	 -47.1275 	 57.3003 	 132.045 	 
H 	 -46.1084 	 56.824 	 132.175 	 
H 	 -47.1076 	 57.736 	 131.047 	 
H 	 -47.4283 	 58.0926 	 132.741 	 
S 	 -48.3044 	 61.4204 	 128.522 	 
C 	 -48.5775 	 63.1428 	 128.716 	 
C 	 -49.767 	 63.3728 	 129.369 	 
C 	 -50.4248 	 62.2196 	 129.948 	 
C 	 -49.7862 	 61.0334 	 129.459 	 
H 	 -50.1537 	 64.3705 	 129.452 	 
C 	 -51.6085 	 62.3952 	 130.895 	 
H 	 -52.0629 	 61.2963 	 130.96 	 
H 	 -52.3792 	 62.9868 	 130.42 	 
C 	 -51.2901 	 62.9598 	 132.227 	 
H 	 -50.7601 	 63.8276 	 132.048 	 
H 	 -50.5626 	 62.2318 	 132.609 	 
C 	 -52.4367 	 63.1145 	 133.196 	 
H 	 -52.276 	 63.8963 	 133.944 	 
H 	 -52.8673 	 62.2165 	 133.6 	 
H 	 -53.248 	 63.6744 	 132.76 	 
H 	 -50.2319 	 56.1094 	 129.269 	 
H 	 -47.9796 	 63.9091 	 128.227 	 
*
