! wB97X-D3 SP def2-SVP
%pal
nprocs 16
end

* xyz 0 1
S 	 3.80161 	 -15.8155 	 88.7294 	 
C 	 3.61394 	 -15.9224 	 86.9792 	 
C 	 4.78717 	 -16.3983 	 86.4679 	 
C 	 5.82664 	 -16.4894 	 87.385 	 
C 	 5.48964 	 -15.9708 	 88.608 	 
H 	 6.88146 	 -16.7803 	 87.0697 	 
C 	 4.94037 	 -16.7052 	 84.9897 	 
H 	 5.83145 	 -16.1967 	 84.6224 	 
H 	 4.12792 	 -16.2493 	 84.4902 	 
C 	 5.08519 	 -18.2006 	 84.5775 	 
H 	 5.88033 	 -18.3239 	 83.8678 	 
H 	 5.43258 	 -18.8234 	 85.4809 	 
C 	 3.85278 	 -18.923 	 84.0643 	 
H 	 3.06809 	 -18.9541 	 84.8104 	 
H 	 3.35203 	 -18.3383 	 83.2453 	 
H 	 4.0449 	 -19.8588 	 83.5957 	 
S 	 5.75786 	 -16.6643 	 91.3288 	 
C 	 7.15114 	 -16.1366 	 92.1842 	 
C 	 8.00467 	 -15.4745 	 91.3364 	 
C 	 7.58547 	 -15.3932 	 89.9321 	 
C 	 6.28916 	 -15.9263 	 89.8115 	 
H 	 8.93436 	 -15.1478 	 91.8108 	 
C 	 8.35008 	 -14.7303 	 88.8073 	 
H 	 8.28519 	 -13.649 	 88.9609 	 
H 	 7.86634 	 -14.867 	 87.8337 	 
C 	 9.80286 	 -15.0738 	 88.7256 	 
H 	 9.92223 	 -16.1234 	 88.48 	 
H 	 10.2783 	 -14.8802 	 89.7148 	 
C 	 10.5329 	 -14.2378 	 87.5907 	 
H 	 11.6135 	 -14.5955 	 87.4753 	 
H 	 10.6167 	 -13.1871 	 87.957 	 
H 	 9.99688 	 -14.238 	 86.6504 	 
H 	 2.65873 	 -16.022 	 86.4643 	 
H 	 7.3686 	 -16.3056 	 93.1747 	 
*
