! wB97X-D3 SP def2-SVP
%pal
nprocs 16
end

* xyz 0 1
S 	 -66.0188 	 39.085 	 131.541 	 
C 	 -66.5829 	 40.6131 	 132.089 	 
C 	 -65.6659 	 41.1863 	 132.925 	 
C 	 -64.5451 	 40.38 	 133.197 	 
C 	 -64.5037 	 39.254 	 132.47 	 
H 	 -63.719 	 40.6237 	 133.904 	 
C 	 -65.9261 	 42.4437 	 133.757 	 
H 	 -65.615 	 43.2541 	 133.148 	 
H 	 -65.3793 	 42.3345 	 134.725 	 
C 	 -67.4191 	 42.5893 	 134.066 	 
H 	 -67.5861 	 43.6398 	 134.391 	 
H 	 -67.9363 	 42.6651 	 133.091 	 
C 	 -67.8386 	 41.5167 	 135.104 	 
H 	 -67.5067 	 40.4398 	 134.868 	 
H 	 -67.4413 	 41.8264 	 136.102 	 
H 	 -68.8726 	 41.5462 	 135.214 	 
S 	 -64.0181 	 36.631 	 132.85 	 
C 	 -62.4297 	 35.9175 	 132.605 	 
C 	 -61.5217 	 36.9502 	 132.409 	 
C 	 -62.1017 	 38.2479 	 132.504 	 
C 	 -63.4834 	 38.2308 	 132.545 	 
H 	 -60.5069 	 36.7348 	 132.212 	 
C 	 -61.2346 	 39.4129 	 132.525 	 
H 	 -60.6018 	 39.3679 	 133.401 	 
H 	 -61.7811 	 40.3644 	 132.475 	 
C 	 -60.2693 	 39.6042 	 131.286 	 
H 	 -59.448 	 38.9059 	 131.384 	 
H 	 -59.8516 	 40.5862 	 131.366 	 
C 	 -60.7945 	 39.145 	 129.935 	 
H 	 -61.1235 	 38.0572 	 129.871 	 
H 	 -60.0243 	 39.2735 	 129.139 	 
H 	 -61.4903 	 39.8098 	 129.472 	 
H 	 -67.5476 	 41.0393 	 131.789 	 
H 	 -62.2045 	 34.8907 	 132.467 	 
*
