! wB97X-D3 SP def2-SVP
%pal
nprocs 16
end

* xyz 0 1
S 	 41.4805 	 8.55353 	 78.9814 	 
C 	 42.5946 	 9.74465 	 79.5422 	 
C 	 42.1743 	 11.0124 	 79.2282 	 
C 	 40.8251 	 11.0304 	 78.6859 	 
C 	 40.3769 	 9.70752 	 78.4352 	 
H 	 40.2458 	 11.9275 	 78.4487 	 
C 	 42.8916 	 12.3098 	 79.4945 	 
H 	 42.5999 	 13.157 	 78.8779 	 
H 	 43.9861 	 12.1583 	 79.2568 	 
C 	 43.0693 	 12.7576 	 80.9052 	 
H 	 43.7003 	 12.0732 	 81.5501 	 
H 	 43.5949 	 13.7101 	 80.8072 	 
C 	 41.8212 	 13.1696 	 81.7222 	 
H 	 41.4397 	 14.1607 	 81.3669 	 
H 	 41.1062 	 12.3785 	 81.604 	 
H 	 42.1168 	 13.3662 	 82.7996 	 
S 	 38.9805 	 9.92707 	 76.0475 	 
C 	 37.4895 	 9.11537 	 75.8946 	 
C 	 36.9926 	 8.76149 	 77.0926 	 
C 	 37.904 	 8.91773 	 78.135 	 
C 	 39.1469 	 9.42322 	 77.6923 	 
H 	 35.9995 	 8.37488 	 77.3094 	 
C 	 37.4838 	 8.64266 	 79.5013 	 
H 	 38.2519 	 8.02945 	 79.8425 	 
H 	 36.5706 	 7.98199 	 79.5429 	 
C 	 37.5541 	 9.78408 	 80.4542 	 
H 	 38.5351 	 10.2359 	 80.289 	 
H 	 37.5711 	 9.40254 	 81.5028 	 
C 	 36.4489 	 10.8311 	 80.2089 	 
H 	 35.4473 	 10.5866 	 80.6315 	 
H 	 36.3471 	 11.1478 	 79.1814 	 
H 	 36.8085 	 11.6876 	 80.7885 	 
H 	 43.529 	 9.57931 	 80.0896 	 
H 	 36.9248 	 8.91866 	 75.0292 	 
*
