! wB97X-D3 SP def2-SVP
%pal
nprocs 16
end

* xyz 0 1
S 	 7.05877 	 26.1266 	 67.9757 	 
C 	 7.78914 	 24.487 	 67.6513 	 
C 	 7.28425 	 23.9685 	 66.4529 	 
C 	 6.34641 	 24.8491 	 65.8406 	 
C 	 6.19559 	 26.0748 	 66.4193 	 
H 	 5.83573 	 24.5847 	 64.8946 	 
C 	 7.48021 	 22.5069 	 66.0261 	 
H 	 6.54899 	 21.8639 	 66.2401 	 
H 	 8.25813 	 22.123 	 66.6332 	 
C 	 7.81611 	 22.4057 	 64.5302 	 
H 	 7.83034 	 21.3456 	 64.3135 	 
H 	 6.99878 	 22.7636 	 63.8744 	 
C 	 9.11128 	 23.1756 	 64.1979 	 
H 	 10.0397 	 22.7589 	 64.6663 	 
H 	 9.36059 	 23.0672 	 63.1069 	 
H 	 8.9717 	 24.2585 	 64.3161 	 
S 	 4.75692 	 28.3153 	 67.4111 	 
C 	 3.82647 	 29.3022 	 66.341 	 
C 	 3.88727 	 28.7772 	 65.0786 	 
C 	 4.58665 	 27.5811 	 64.9549 	 
C 	 5.2396 	 27.1519 	 66.1387 	 
H 	 3.39887 	 29.3941 	 64.311 	 
C 	 4.78386 	 26.8269 	 63.6238 	 
H 	 5.70127 	 26.3191 	 63.6351 	 
H 	 4.8997 	 27.5827 	 62.8288 	 
C 	 3.71895 	 25.7504 	 63.2213 	 
H 	 2.71893 	 26.002 	 63.3834 	 
H 	 3.87359 	 24.9693 	 63.9725 	 
C 	 3.97585 	 25.2109 	 61.8087 	 
H 	 3.93536 	 26.0237 	 61.0886 	 
H 	 3.30825 	 24.381 	 61.5153 	 
H 	 4.96316 	 24.672 	 61.7004 	 
H 	 8.409 	 24.0136 	 68.3062 	 
H 	 3.20442 	 30.163 	 66.6712 	 
*
