! wB97X-D3 SP def2-SVP
%pal
nprocs 16
end

* xyz 0 1
S 	 35.5425 	 18.6887 	 78.8618 	 
C 	 35.0495 	 17.2631 	 79.6781 	 
C 	 35.834 	 16.225 	 79.2864 	 
C 	 36.977 	 16.5716 	 78.5015 	 
C 	 37.0889 	 17.9449 	 78.3673 	 
H 	 37.7645 	 15.9855 	 78.16 	 
C 	 35.4747 	 14.7734 	 79.6791 	 
H 	 35.0318 	 14.8556 	 80.6686 	 
H 	 36.4509 	 14.3699 	 79.7145 	 
C 	 34.5873 	 13.978 	 78.7034 	 
H 	 34.9674 	 13.9875 	 77.6494 	 
H 	 34.3992 	 12.9192 	 78.9943 	 
C 	 33.115 	 14.4558 	 78.5753 	 
H 	 32.4879 	 14.5147 	 79.4152 	 
H 	 32.8192 	 15.375 	 78.0886 	 
H 	 32.5544 	 13.7002 	 77.9117 	 
S 	 38.0164 	 19.5044 	 76.3539 	 
C 	 39.6225 	 20.1784 	 76.3745 	 
C 	 40.3812 	 19.4598 	 77.2925 	 
C 	 39.6588 	 18.53 	 78.0774 	 
C 	 38.279 	 18.638 	 77.8471 	 
H 	 41.4019 	 19.6182 	 77.3637 	 
C 	 40.2724 	 17.7163 	 79.1951 	 
H 	 41.0029 	 17.0727 	 78.7367 	 
H 	 39.4361 	 17.1904 	 79.5852 	 
C 	 40.8474 	 18.4734 	 80.398 	 
H 	 40.0498 	 19.0767 	 80.8732 	 
H 	 41.4477 	 19.2051 	 79.9381 	 
C 	 41.5027 	 17.5258 	 81.4131 	 
H 	 40.7449 	 16.8385 	 81.8399 	 
H 	 42.0631 	 18.1111 	 82.1421 	 
H 	 42.2865 	 16.9097 	 80.9561 	 
H 	 34.0534 	 17.1275 	 80.2071 	 
H 	 40.1379 	 20.8549 	 75.697 	 
*
