! wB97X-D3 SP def2-SVP
%pal
nprocs 16
end

* xyz 0 1
S 	 -34.8146 	 53.4365 	 102.121 	 
C 	 -35.8482 	 52.1382 	 101.392 	 
C 	 -37.053 	 52.6678 	 100.922 	 
C 	 -37.1618 	 54.0876 	 101.236 	 
C 	 -36.1055 	 54.5891 	 101.981 	 
H 	 -38.0822 	 54.6056 	 101.205 	 
C 	 -38.144 	 51.8713 	 100.256 	 
H 	 -38.9616 	 52.4737 	 99.9772 	 
H 	 -38.5228 	 51.1651 	 100.995 	 
C 	 -37.7742 	 51.118 	 98.9175 	 
H 	 -37.4624 	 51.7863 	 98.1502 	 
H 	 -36.8912 	 50.5344 	 99.1896 	 
C 	 -38.8977 	 50.1796 	 98.4498 	 
H 	 -38.5673 	 49.574 	 97.6389 	 
H 	 -39.2421 	 49.541 	 99.2113 	 
H 	 -39.746 	 50.7827 	 98.043 	 
S 	 -36.1874 	 55.5823 	 104.507 	 
C 	 -36.6413 	 57.2667 	 104.762 	 
C 	 -36.6542 	 57.9775 	 103.574 	 
C 	 -36.4665 	 57.2033 	 102.381 	 
C 	 -36.1568 	 55.8741 	 102.774 	 
H 	 -37.0213 	 58.9696 	 103.624 	 
C 	 -36.6225 	 57.85 	 100.971 	 
H 	 -36.1639 	 58.8473 	 101.099 	 
H 	 -37.632 	 57.9564 	 100.709 	 
C 	 -35.7574 	 57.1828 	 99.8917 	 
H 	 -36.1647 	 56.2179 	 99.4568 	 
H 	 -34.773 	 56.9836 	 100.4 	 
C 	 -35.4583 	 58.1224 	 98.7677 	 
H 	 -36.3904 	 58.5007 	 98.2777 	 
H 	 -34.8687 	 57.7067 	 97.9616 	 
H 	 -34.8829 	 58.9655 	 99.1211 	 
H 	 -35.7358 	 51.1034 	 101.475 	 
H 	 -36.8196 	 57.6913 	 105.733 	 
*
