! wB97X-D3 SP def2-SVP
%pal
nprocs 16
end

* xyz 0 1
S 	 21.4614 	 1.52289 	 77.9651 	 
C 	 22.7407 	 1.85805 	 79.083 	 
C 	 22.3476 	 2.60726 	 80.1495 	 
C 	 20.9851 	 2.94827 	 80.0832 	 
C 	 20.3858 	 2.5331 	 78.8902 	 
H 	 20.397 	 3.41835 	 80.8484 	 
C 	 23.1792 	 2.95473 	 81.3065 	 
H 	 24.0579 	 2.29564 	 81.3624 	 
H 	 22.5108 	 2.71949 	 82.2014 	 
C 	 23.8574 	 4.39919 	 81.4055 	 
H 	 24.5776 	 4.3932 	 80.5745 	 
H 	 23.11 	 5.21746 	 81.1053 	 
C 	 24.5458 	 4.66482 	 82.6724 	 
H 	 24.6164 	 5.74841 	 82.8571 	 
H 	 24.1005 	 4.25132 	 83.5997 	 
H 	 25.5309 	 4.24379 	 82.6438 	 
S 	 18.0254 	 1.12319 	 78.7745 	 
C 	 16.5097 	 1.87113 	 78.3988 	 
C 	 16.675 	 3.20417 	 78.2456 	 
C 	 18.0634 	 3.59179 	 78.3261 	 
C 	 18.9497 	 2.52838 	 78.6155 	 
H 	 15.7917 	 3.83342 	 78.0384 	 
C 	 18.429 	 5.08553 	 78.2224 	 
H 	 19.4978 	 5.11364 	 78.3093 	 
H 	 18.0551 	 5.71696 	 79.0558 	 
C 	 18.0124 	 5.61606 	 76.8637 	 
H 	 16.994 	 6.0118 	 76.9038 	 
H 	 18.0676 	 4.80039 	 76.1765 	 
C 	 18.8509 	 6.85804 	 76.3143 	 
H 	 19.3527 	 6.68827 	 75.375 	 
H 	 19.5989 	 7.32363 	 76.9863 	 
H 	 18.2332 	 7.72465 	 76.1989 	 
H 	 23.7748 	 1.48392 	 79.0101 	 
H 	 15.5583 	 1.38516 	 78.3354 	 
*
