! wB97X-D3 SP def2-SVP
%pal
nprocs 16
end

* xyz 0 1
S 	 -2.4599 	 49.6409 	 48.0774 	 
C 	 -2.27954 	 51.3726 	 48.058 	 
C 	 -3.42935 	 51.9517 	 47.4825 	 
C 	 -4.46889 	 50.9999 	 47.0836 	 
C 	 -4.06631 	 49.6997 	 47.3211 	 
H 	 -5.48904 	 51.1705 	 46.6515 	 
C 	 -3.60055 	 53.3969 	 47.2717 	 
H 	 -4.69455 	 53.5282 	 47.037 	 
H 	 -3.02192 	 53.7226 	 46.451 	 
C 	 -3.27227 	 54.2473 	 48.4843 	 
H 	 -2.15935 	 54.1996 	 48.6712 	 
H 	 -3.27622 	 55.3287 	 48.0707 	 
C 	 -4.24772 	 54.0204 	 49.6528 	 
H 	 -5.2499 	 53.9904 	 49.2677 	 
H 	 -4.05257 	 53.0446 	 50.0288 	 
H 	 -4.1005 	 54.7636 	 50.4452 	 
S 	 -4.73833 	 47.6972 	 45.6887 	 
C 	 -5.45286 	 46.2518 	 46.2575 	 
C 	 -5.75734 	 46.3742 	 47.5808 	 
C 	 -5.52283 	 47.7199 	 48.0642 	 
C 	 -4.84482 	 48.5169 	 47.1641 	 
H 	 -6.1868 	 45.6523 	 48.2018 	 
C 	 -5.8165 	 48.0432 	 49.5091 	 
H 	 -5.41344 	 49.0121 	 49.6092 	 
H 	 -5.25953 	 47.3599 	 50.1868 	 
C 	 -7.28591 	 48.0648 	 49.9466 	 
H 	 -7.21336 	 48.0427 	 51.0664 	 
H 	 -7.65813 	 47.0615 	 49.5858 	 
C 	 -8.11332 	 49.2424 	 49.3833 	 
H 	 -9.06632 	 49.2929 	 49.9254 	 
H 	 -8.193 	 49.3694 	 48.3203 	 
H 	 -7.63235 	 50.1294 	 49.7249 	 
H 	 -1.35519 	 51.8296 	 48.3174 	 
H 	 -5.75156 	 45.5067 	 45.5375 	 
*
