! wB97X-D3 SP def2-SVP
%pal
nprocs 16
end

* xyz 0 1
S 	 -36.3547 	 72.3956 	 154.211 	 
C 	 -35.3827 	 73.794 	 153.648 	 
C 	 -34.0687 	 73.5174 	 153.358 	 
C 	 -33.8138 	 72.1898 	 153.722 	 
C 	 -34.863 	 71.4026 	 154.2 	 
H 	 -32.8334 	 71.7827 	 153.624 	 
C 	 -32.9803 	 74.4086 	 152.771 	 
H 	 -33.5749 	 75.0927 	 152.211 	 
H 	 -32.4534 	 73.7535 	 152.144 	 
C 	 -32.1916 	 75.1467 	 153.869 	 
H 	 -32.8333 	 75.4823 	 154.661 	 
H 	 -31.5475 	 74.4101 	 154.397 	 
C 	 -31.3011 	 76.1805 	 153.295 	 
H 	 -31.8596 	 76.6919 	 152.533 	 
H 	 -31.0899 	 76.8845 	 154.086 	 
H 	 -30.352 	 75.8351 	 152.925 	 
S 	 -35.5274 	 68.8344 	 153.72 	 
C 	 -35.1511 	 67.5223 	 154.812 	 
C 	 -34.2602 	 68.0069 	 155.773 	 
C 	 -34.1103 	 69.4165 	 155.671 	 
C 	 -34.7874 	 70.055 	 154.639 	 
H 	 -33.7644 	 67.3659 	 156.465 	 
C 	 -33.1849 	 70.0972 	 156.674 	 
H 	 -33.2669 	 69.4765 	 157.571 	 
H 	 -33.6968 	 71.0506 	 156.94 	 
C 	 -31.8071 	 70.2467 	 156.181 	 
H 	 -31.6601 	 70.5135 	 155.079 	 
H 	 -31.278 	 69.3002 	 156.382 	 
C 	 -31.1306 	 71.4921 	 156.794 	 
H 	 -31.1995 	 71.439 	 157.881 	 
H 	 -31.4277 	 72.4658 	 156.398 	 
H 	 -30.0273 	 71.4017 	 156.617 	 
H 	 -35.892 	 74.7026 	 153.5 	 
H 	 -35.2756 	 66.4221 	 154.582 	 
*
