! wB97X-D3 SP def2-SVP
%pal
nprocs 16
end

* xyz 0 1
S 	 38.335 	 8.44456 	 90.9142 	 
C 	 39.8748 	 7.98449 	 90.1521 	 
C 	 39.6322 	 7.3282 	 88.9324 	 
C 	 38.2521 	 7.08802 	 88.6866 	 
C 	 37.3657 	 7.64696 	 89.6468 	 
H 	 37.8395 	 6.61018 	 87.7917 	 
C 	 40.5739 	 6.83115 	 87.8559 	 
H 	 40.0358 	 6.07781 	 87.2877 	 
H 	 41.4206 	 6.31437 	 88.3672 	 
C 	 41.1935 	 7.97269 	 87.0587 	 
H 	 41.6663 	 8.69015 	 87.6107 	 
H 	 42.0777 	 7.66184 	 86.5669 	 
C 	 40.2343 	 8.72142 	 86.2565 	 
H 	 39.3801 	 9.21901 	 86.7586 	 
H 	 40.7644 	 9.41152 	 85.6576 	 
H 	 39.892 	 7.98578 	 85.5138 	 
S 	 35.009 	 6.53189 	 90.6105 	 
C 	 33.5412 	 7.34631 	 89.9996 	 
C 	 33.7497 	 8.37123 	 89.087 	 
C 	 35.1251 	 8.57219 	 88.88 	 
C 	 35.907 	 7.70213 	 89.591 	 
H 	 32.9828 	 9.00558 	 88.6782 	 
C 	 35.6679 	 9.70143 	 88.0145 	 
H 	 36.5473 	 10.1864 	 88.5471 	 
H 	 34.9879 	 10.5526 	 87.9518 	 
C 	 36.1155 	 9.19801 	 86.5843 	 
H 	 36.7587 	 8.36046 	 86.7077 	 
H 	 36.8887 	 9.91397 	 86.2518 	 
C 	 35.0223 	 8.99322 	 85.5329 	 
H 	 35.5074 	 9.05776 	 84.5244 	 
H 	 34.1971 	 9.72072 	 85.4327 	 
H 	 34.629 	 7.95011 	 85.5008 	 
H 	 40.9349 	 8.17114 	 90.4438 	 
H 	 32.5466 	 7.15637 	 90.2709 	 
*
