! wB97X-D3 SP def2-SVP
%pal
nprocs 16
end

* xyz 0 1
S 	 -42.2639 	 56.9751 	 106.025 	 
C 	 -41.2204 	 58.0325 	 105.151 	 
C 	 -40.7782 	 57.4329 	 103.96 	 
C 	 -41.3449 	 56.1016 	 103.79 	 
C 	 -41.9586 	 55.6545 	 104.942 	 
H 	 -41.3173 	 55.4699 	 102.909 	 
C 	 -39.8517 	 58.1694 	 102.991 	 
H 	 -39.5223 	 59.0361 	 103.534 	 
H 	 -40.4282 	 58.624 	 102.282 	 
C 	 -38.6152 	 57.357 	 102.395 	 
H 	 -38.9672 	 56.4944 	 101.89 	 
H 	 -38.195 	 57.9695 	 101.645 	 
C 	 -37.6693 	 56.9382 	 103.475 	 
H 	 -36.8654 	 56.4196 	 103.03 	 
H 	 -37.2679 	 57.7435 	 104.064 	 
H 	 -38.2389 	 56.342 	 104.2 	 
S 	 -44.5824 	 54.7637 	 104.548 	 
C 	 -44.8857 	 52.988 	 104.497 	 
C 	 -43.6644 	 52.2407 	 104.73 	 
C 	 -42.5389 	 53.0888 	 104.95 	 
C 	 -42.8685 	 54.456 	 104.984 	 
H 	 -43.6488 	 51.1845 	 104.619 	 
C 	 -41.1577 	 52.5331 	 105.178 	 
H 	 -41.2986 	 51.8225 	 106.059 	 
H 	 -40.4948 	 53.3296 	 105.445 	 
C 	 -40.4992 	 51.6278 	 104.149 	 
H 	 -40.6571 	 52.1771 	 103.196 	 
H 	 -40.9535 	 50.6928 	 103.946 	 
C 	 -38.9736 	 51.4126 	 104.285 	 
H 	 -38.5599 	 51.0504 	 103.318 	 
H 	 -38.6875 	 50.7286 	 105.075 	 
H 	 -38.5046 	 52.3185 	 104.457 	 
H 	 -41.0436 	 59.0707 	 105.347 	 
H 	 -45.821 	 52.5133 	 104.165 	 
*
