! wB97X-D3 SP def2-SVP
%pal
nprocs 16
end

* xyz 0 1
S 	 -6.03861 	 61.7653 	 50.2716 	 
C 	 -7.37603 	 62.2447 	 51.1043 	 
C 	 -7.3977 	 63.6127 	 51.3288 	 
C 	 -6.16565 	 64.262 	 50.8364 	 
C 	 -5.31385 	 63.3563 	 50.3104 	 
H 	 -5.96731 	 65.2411 	 51.0176 	 
C 	 -8.37043 	 64.3772 	 52.0454 	 
H 	 -7.90396 	 64.5927 	 53.0037 	 
H 	 -9.1654 	 63.6391 	 52.2755 	 
C 	 -8.9462 	 65.6387 	 51.581 	 
H 	 -8.25072 	 66.2561 	 50.8845 	 
H 	 -9.88771 	 65.4428 	 51.0387 	 
C 	 -9.50483 	 66.4129 	 52.7481 	 
H 	 -10.0815 	 65.6741 	 53.3129 	 
H 	 -8.83313 	 66.8519 	 53.4127 	 
H 	 -10.3155 	 67.0928 	 52.4735 	 
S 	 -2.6587 	 62.5016 	 50.4064 	 
C 	 -1.40633 	 63.2504 	 49.4536 	 
C 	 -1.92132 	 64.2393 	 48.6627 	 
C 	 -3.36913 	 64.4444 	 48.934 	 
C 	 -3.94665 	 63.5897 	 49.83 	 
H 	 -1.2441 	 64.7209 	 47.9618 	 
C 	 -4.12212 	 65.4429 	 48.1752 	 
H 	 -3.91547 	 66.3869 	 48.6155 	 
H 	 -5.18332 	 65.4914 	 48.4522 	 
C 	 -3.86128 	 65.4961 	 46.6245 	 
H 	 -2.8583 	 65.3407 	 46.2608 	 
H 	 -4.03081 	 66.478 	 46.2711 	 
C 	 -4.79628 	 64.6337 	 45.8627 	 
H 	 -5.69885 	 64.4474 	 46.4508 	 
H 	 -4.28503 	 63.7456 	 45.5462 	 
H 	 -5.02253 	 65.0774 	 44.8952 	 
H 	 -8.15409 	 61.5592 	 51.4366 	 
H 	 -0.435206 	 62.8776 	 49.3702 	 
*
