! wB97X-D3 SP def2-SVP
%pal
nprocs 16
end

* xyz 0 1
S 	 21.5742 	 32.7681 	 54.8737 	 
C 	 21.1109 	 31.8492 	 56.2347 	 
C 	 22.1842 	 31.5424 	 57.0864 	 
C 	 23.4474 	 31.9253 	 56.5155 	 
C 	 23.2708 	 32.7309 	 55.4368 	 
H 	 24.4412 	 31.9128 	 56.9897 	 
C 	 22.1195 	 30.6618 	 58.2658 	 
H 	 22.073 	 29.7143 	 57.8063 	 
H 	 21.2083 	 30.8219 	 58.7564 	 
C 	 23.261 	 30.6142 	 59.2772 	 
H 	 24.3133 	 30.6978 	 58.8583 	 
H 	 23.1317 	 31.5441 	 59.9257 	 
C 	 23.2572 	 29.4352 	 60.304 	 
H 	 22.3466 	 29.3017 	 60.8435 	 
H 	 23.3904 	 28.5459 	 59.7888 	 
H 	 23.9803 	 29.5647 	 61.0982 	 
S 	 25.3252 	 32.723 	 53.5788 	 
C 	 26.2242 	 34.2231 	 53.3057 	 
C 	 25.5689 	 35.2918 	 53.8407 	 
C 	 24.4605 	 34.9137 	 54.6594 	 
C 	 24.26 	 33.5432 	 54.7092 	 
H 	 25.9608 	 36.2481 	 53.7823 	 
C 	 23.6824 	 36.0173 	 55.3249 	 
H 	 22.8176 	 35.4803 	 55.7524 	 
H 	 23.3056 	 36.6771 	 54.505 	 
C 	 24.2421 	 36.7608 	 56.5126 	 
H 	 23.4347 	 37.4247 	 56.8396 	 
H 	 25.0447 	 37.3299 	 56.2492 	 
C 	 24.6955 	 36.0279 	 57.7742 	 
H 	 25.5578 	 35.4099 	 57.4807 	 
H 	 24.0148 	 35.2961 	 58.1424 	 
H 	 24.9471 	 36.6933 	 58.5666 	 
H 	 20.1033 	 31.4982 	 56.3241 	 
H 	 27.1426 	 34.3717 	 52.7825 	 
*
