! wB97X-D3 SP def2-SVP
%pal
nprocs 16
end

* xyz 0 1
S 	 -5.34794 	 53.1686 	 48.8372 	 
C 	 -5.33135 	 53.6599 	 50.4986 	 
C 	 -6.52162 	 53.3696 	 51.0896 	 
C 	 -7.4339 	 52.7021 	 50.1949 	 
C 	 -6.91243 	 52.4587 	 48.9161 	 
H 	 -8.29791 	 52.3008 	 50.6018 	 
C 	 -6.85824 	 53.6674 	 52.5254 	 
H 	 -6.00548 	 54.0856 	 52.9594 	 
H 	 -7.02691 	 52.6862 	 52.9261 	 
C 	 -8.00324 	 54.6348 	 52.7941 	 
H 	 -7.7586 	 55.5827 	 52.4035 	 
H 	 -8.89173 	 54.206 	 52.2591 	 
C 	 -8.36918 	 54.7933 	 54.3076 	 
H 	 -9.21872 	 55.512 	 54.4145 	 
H 	 -8.69992 	 53.8264 	 54.7011 	 
H 	 -7.52948 	 55.0876 	 54.9005 	 
S 	 -7.12194 	 52.5108 	 46.1619 	 
C 	 -8.29357 	 51.4497 	 45.4316 	 
C 	 -9.02262 	 50.7729 	 46.3766 	 
C 	 -8.55677 	 50.9567 	 47.7156 	 
C 	 -7.51455 	 51.8797 	 47.7462 	 
H 	 -9.8149 	 50.041 	 46.0039 	 
C 	 -8.88883 	 50.0008 	 48.894 	 
H 	 -9.2466 	 50.5478 	 49.7597 	 
H 	 -7.98228 	 49.6294 	 49.3613 	 
C 	 -9.70757 	 48.6904 	 48.7464 	 
H 	 -9.77713 	 48.0779 	 49.6397 	 
H 	 -9.29774 	 48.0258 	 47.9937 	 
C 	 -11.2194 	 48.9489 	 48.3569 	 
H 	 -11.9424 	 48.1809 	 48.6255 	 
H 	 -11.3892 	 49.0333 	 47.2749 	 
H 	 -11.4903 	 49.9611 	 48.7468 	 
H 	 -4.55753 	 54.1836 	 51.0595 	 
H 	 -8.29782 	 51.2836 	 44.4027 	 
*
