! wB97X-D3 SP def2-SVP
%pal
nprocs 16
end

* xyz 0 1
S 	 70.8788 	 16.9854 	 75.3938 	 
C 	 71.8125 	 17.6872 	 74.0779 	 
C 	 71.2668 	 18.8431 	 73.5156 	 
C 	 70.2543 	 19.3152 	 74.3678 	 
C 	 69.9709 	 18.4833 	 75.4239 	 
H 	 69.7992 	 20.3527 	 74.347 	 
C 	 71.8792 	 19.7465 	 72.4842 	 
H 	 71.499 	 20.7658 	 72.7563 	 
H 	 71.5182 	 19.4732 	 71.552 	 
C 	 73.4191 	 19.8118 	 72.357 	 
H 	 73.8317 	 18.8786 	 71.9356 	 
H 	 73.658 	 20.6282 	 71.7594 	 
C 	 74.0464 	 20.1341 	 73.7266 	 
H 	 75.0425 	 20.609 	 73.7028 	 
H 	 73.3886 	 20.8276 	 74.2996 	 
H 	 74.086 	 19.3206 	 74.4604 	 
S 	 67.3713 	 17.8183 	 75.9688 	 
C 	 66.593 	 18.6217 	 77.2895 	 
C 	 67.4736 	 19.4559 	 78.0022 	 
C 	 68.7045 	 19.601 	 77.324 	 
C 	 68.8896 	 18.6561 	 76.344 	 
H 	 66.9978 	 20.1101 	 78.7054 	 
C 	 69.8064 	 20.6562 	 77.7649 	 
H 	 69.289 	 21.5235 	 78.0509 	 
H 	 70.3943 	 20.9653 	 76.8804 	 
C 	 70.8223 	 20.2405 	 78.8895 	 
H 	 70.9815 	 19.1999 	 79.0094 	 
H 	 70.3681 	 20.4163 	 79.8772 	 
C 	 72.0557 	 21.1368 	 78.8592 	 
H 	 72.903 	 20.6808 	 79.5138 	 
H 	 71.829 	 22.2023 	 78.9909 	 
H 	 72.3327 	 21.0691 	 77.814 	 
H 	 72.6291 	 17.1356 	 73.6116 	 
H 	 65.5439 	 18.569 	 77.4744 	 
*
