! wB97X-D3 SP def2-SVP
%pal
nprocs 16
end

* xyz 0 1
S 	 -1.65626 	 -15.0002 	 70.2177 	 
C 	 -2.92862 	 -16.25 	 70.4424 	 
C 	 -4.10905 	 -15.6446 	 70.9458 	 
C 	 -3.95723 	 -14.2506 	 71.0843 	 
C 	 -2.71141 	 -13.7267 	 70.721 	 
H 	 -4.68327 	 -13.5705 	 71.4434 	 
C 	 -5.34738 	 -16.3457 	 71.2689 	 
H 	 -5.37164 	 -16.3817 	 72.3137 	 
H 	 -5.07818 	 -17.3721 	 70.893 	 
C 	 -6.60696 	 -15.8619 	 70.5746 	 
H 	 -6.93449 	 -14.8772 	 70.7965 	 
H 	 -6.45418 	 -15.8113 	 69.5058 	 
C 	 -7.85917 	 -16.7496 	 70.7726 	 
H 	 -8.1708 	 -16.6913 	 71.8187 	 
H 	 -8.60603 	 -16.3009 	 70.1575 	 
H 	 -7.84125 	 -17.7895 	 70.471 	 
S 	 -1.29648 	 -11.6904 	 72.0487 	 
C 	 -1.3738 	 -10.092 	 71.3237 	 
C 	 -2.11543 	 -10.0614 	 70.1598 	 
C 	 -2.77006 	 -11.2674 	 69.9141 	 
C 	 -2.40671 	 -12.3067 	 70.8083 	 
H 	 -2.15542 	 -9.11326 	 69.6497 	 
C 	 -3.66859 	 -11.4589 	 68.6952 	 
H 	 -4.57423 	 -10.865 	 68.8587 	 
H 	 -4.07884 	 -12.4687 	 68.6441 	 
C 	 -3.03572 	 -11.0793 	 67.3347 	 
H 	 -1.99453 	 -11.3579 	 67.1999 	 
H 	 -2.99444 	 -9.95101 	 67.4304 	 
C 	 -3.91229 	 -11.6637 	 66.2058 	 
H 	 -4.93021 	 -11.2556 	 66.2806 	 
H 	 -3.96346 	 -12.7908 	 66.1451 	 
H 	 -3.51 	 -11.5159 	 65.2419 	 
H 	 -2.94449 	 -17.2919 	 70.1649 	 
H 	 -0.676523 	 -9.2763 	 71.579 	 
*
