! wB97X-D3 SP def2-SVP
%pal
nprocs 16
end

* xyz 0 1
S 	 -50.8104 	 22.9954 	 82.2086 	 
C 	 -51.284 	 23.3738 	 83.8974 	 
C 	 -50.391 	 22.9088 	 84.776 	 
C 	 -49.3821 	 22.1048 	 84.1398 	 
C 	 -49.4989 	 22.0968 	 82.7384 	 
H 	 -48.51 	 21.6278 	 84.6135 	 
C 	 -50.4843 	 22.9866 	 86.3128 	 
H 	 -50.2741 	 23.9668 	 86.6374 	 
H 	 -49.6213 	 22.5887 	 86.8199 	 
C 	 -51.6685 	 22.3319 	 87.0143 	 
H 	 -52.5588 	 22.8408 	 86.5943 	 
H 	 -51.7108 	 21.2677 	 86.765 	 
C 	 -51.611 	 22.5022 	 88.5129 	 
H 	 -51.6801 	 23.5722 	 88.6951 	 
H 	 -52.4297 	 21.9653 	 89.077 	 
H 	 -50.6475 	 22.2304 	 88.9429 	 
S 	 -49.3571 	 19.9509 	 80.9281 	 
C 	 -47.8815 	 19.6691 	 80.0328 	 
C 	 -46.9057 	 20.5495 	 80.4633 	 
C 	 -47.3077 	 21.5251 	 81.435 	 
C 	 -48.6777 	 21.3993 	 81.7199 	 
H 	 -45.9147 	 20.3487 	 79.9855 	 
C 	 -46.3537 	 22.5691 	 82.0313 	 
H 	 -46.7593 	 23.5777 	 82.1063 	 
H 	 -45.5429 	 22.6383 	 81.2613 	 
C 	 -45.651 	 22.1173 	 83.4145 	 
H 	 -45.0522 	 21.2433 	 83.1785 	 
H 	 -46.2935 	 21.7738 	 84.2359 	 
C 	 -44.8142 	 23.2943 	 83.9021 	 
H 	 -44.055 	 23.0269 	 84.538 	 
H 	 -45.4175 	 24.1875 	 84.2856 	 
H 	 -44.361 	 23.5904 	 82.9707 	 
H 	 -52.2025 	 23.8781 	 84.1988 	 
H 	 -47.7289 	 18.8318 	 79.3771 	 
*
