! wB97X-D3 SP def2-SVP
%pal
nprocs 16
end

* xyz 0 1
S 	 -34.1572 	 46.9317 	 99.6264 	 
C 	 -35.5002 	 45.8846 	 99.1118 	 
C 	 -35.9867 	 46.2335 	 97.8763 	 
C 	 -35.1993 	 47.2889 	 97.3288 	 
C 	 -34.0719 	 47.601 	 98.0403 	 
H 	 -35.4013 	 47.8005 	 96.4072 	 
C 	 -37.1064 	 45.5828 	 97.1769 	 
H 	 -37.6021 	 46.2494 	 96.4718 	 
H 	 -37.8839 	 45.3563 	 97.8758 	 
C 	 -36.5025 	 44.3475 	 96.5818 	 
H 	 -35.5825 	 44.5437 	 96.0012 	 
H 	 -36.1283 	 43.6496 	 97.3738 	 
C 	 -37.5349 	 43.5501 	 95.7929 	 
H 	 -37.1575 	 42.5817 	 95.6801 	 
H 	 -38.4588 	 43.4112 	 96.4015 	 
H 	 -37.8 	 44.0693 	 94.8892 	 
S 	 -33.0768 	 50.2342 	 98.3601 	 
C 	 -31.7717 	 50.8803 	 97.3552 	 
C 	 -31.6828 	 50.0011 	 96.2805 	 
C 	 -32.3391 	 48.7309 	 96.5062 	 
C 	 -33.1941 	 48.6827 	 97.6015 	 
H 	 -31.0498 	 50.2514 	 95.4221 	 
C 	 -32.2073 	 47.5816 	 95.4853 	 
H 	 -31.7217 	 47.9999 	 94.5855 	 
H 	 -33.1487 	 47.296 	 95.1448 	 
C 	 -31.606 	 46.1859 	 95.9353 	 
H 	 -31.9696 	 45.4341 	 95.1931 	 
H 	 -32.1482 	 45.8069 	 96.8448 	 
C 	 -30.1005 	 46.195 	 96.2329 	 
H 	 -29.7097 	 45.185 	 96.2586 	 
H 	 -30.0584 	 46.703 	 97.1936 	 
H 	 -29.5321 	 46.8147 	 95.5758 	 
H 	 -35.9669 	 45.0566 	 99.6303 	 
H 	 -31.1436 	 51.757 	 97.4502 	 
*
