! wB97X-D3 SP def2-SVP
%pal
nprocs 16
end

* xyz 0 1
S 	 43.7777 	 23.3321 	 88.7152 	 
C 	 42.8405 	 24.0857 	 89.9976 	 
C 	 42.2616 	 25.2563 	 89.5775 	 
C 	 42.6535 	 25.5602 	 88.222 	 
C 	 43.3239 	 24.5763 	 87.5871 	 
H 	 42.332 	 26.4354 	 87.6778 	 
C 	 41.4732 	 26.1583 	 90.5129 	 
H 	 41.7619 	 27.2207 	 90.2999 	 
H 	 41.7477 	 25.9389 	 91.5457 	 
C 	 39.9686 	 26.0385 	 90.245 	 
H 	 39.8433 	 26.1881 	 89.2027 	 
H 	 39.5184 	 25.0978 	 90.5693 	 
C 	 39.1046 	 27.1949 	 90.8274 	 
H 	 39.006 	 27.1445 	 91.9391 	 
H 	 39.6315 	 28.1701 	 90.5501 	 
H 	 38.1221 	 27.135 	 90.4065 	 
S 	 45.5145 	 25.158 	 85.982 	 
C 	 45.2449 	 25.0165 	 84.2616 	 
C 	 43.9348 	 24.841 	 83.9025 	 
C 	 43.1066 	 24.5595 	 85.0272 	 
C 	 43.8348 	 24.5851 	 86.2163 	 
H 	 43.5873 	 24.781 	 82.868 	 
C 	 41.6412 	 24.409 	 84.8447 	 
H 	 41.2613 	 23.6791 	 85.5956 	 
H 	 41.6332 	 23.8784 	 83.808 	 
C 	 40.7695 	 25.7365 	 84.8901 	 
H 	 41.1667 	 26.585 	 84.1929 	 
H 	 40.907 	 26.1624 	 85.9057 	 
C 	 39.2862 	 25.5544 	 84.7185 	 
H 	 39.1896 	 24.8659 	 83.8451 	 
H 	 38.7092 	 26.5304 	 84.5458 	 
H 	 38.7812 	 25.0171 	 85.4803 	 
H 	 42.6944 	 23.8239 	 90.9907 	 
H 	 45.976 	 25.3359 	 83.5534 	 
*
