! wB97X-D3 SP def2-SVP
%pal
nprocs 16
end

* xyz 0 1
S 	 58.5047 	 3.63951 	 79.1411 	 
C 	 57.0442 	 3.57781 	 78.1995 	 
C 	 55.9602 	 3.91592 	 78.9955 	 
C 	 56.2932 	 4.08801 	 80.3542 	 
C 	 57.6528 	 4.04605 	 80.6258 	 
H 	 55.6411 	 4.40173 	 81.1736 	 
C 	 54.4742 	 4.0314 	 78.495 	 
H 	 54.6146 	 4.88372 	 77.7902 	 
H 	 53.7701 	 4.5005 	 79.205 	 
C 	 53.9925 	 2.86847 	 77.5637 	 
H 	 52.9988 	 3.10631 	 77.1421 	 
H 	 54.6193 	 2.82551 	 76.6396 	 
C 	 53.8062 	 1.5457 	 78.3519 	 
H 	 53.3497 	 0.766709 	 77.7458 	 
H 	 54.739 	 1.08576 	 78.742 	 
H 	 53.1617 	 1.6407 	 79.2361 	 
S 	 59.0877 	 5.79123 	 82.0016 	 
C 	 59.7533 	 5.34358 	 83.5784 	 
C 	 59.3329 	 4.11273 	 83.9714 	 
C 	 58.7087 	 3.3986 	 82.8906 	 
C 	 58.436 	 4.22382 	 81.8254 	 
H 	 59.5755 	 3.66091 	 84.92 	 
C 	 58.563 	 1.88114 	 83.0081 	 
H 	 57.7498 	 1.51574 	 82.3565 	 
H 	 58.1451 	 1.75442 	 83.9519 	 
C 	 59.9559 	 1.19036 	 82.879 	 
H 	 60.6456 	 1.59869 	 83.6289 	 
H 	 60.2956 	 1.38446 	 81.8745 	 
C 	 59.7692 	 -0.34911 	 83.1953 	 
H 	 59.1519 	 -0.831179 	 82.4317 	 
H 	 59.2952 	 -0.563353 	 84.1547 	 
H 	 60.6545 	 -0.911778 	 83.0798 	 
H 	 57.0617 	 3.56342 	 77.1262 	 
H 	 60.2792 	 5.96623 	 84.227 	 
*
