! wB97X-D3 SP def2-SVP
%pal
nprocs 16
end

* xyz 0 1
S 	 -21.8916 	 34.6712 	 40.1472 	 
C 	 -20.4538 	 33.7781 	 40.3575 	 
C 	 -20.414 	 33.0584 	 41.5135 	 
C 	 -21.6299 	 33.1417 	 42.2309 	 
C 	 -22.6059 	 33.8718 	 41.5868 	 
H 	 -21.8379 	 32.6213 	 43.1237 	 
C 	 -19.3607 	 32.0873 	 41.958 	 
H 	 -18.4034 	 32.372 	 41.5149 	 
H 	 -19.5776 	 31.1158 	 41.6054 	 
C 	 -19.1598 	 31.9212 	 43.5025 	 
H 	 -19.015 	 32.9234 	 43.8702 	 
H 	 -20.0895 	 31.6852 	 44.0224 	 
C 	 -17.9549 	 31.097 	 43.88 	 
H 	 -17.1935 	 31.2286 	 43.1392 	 
H 	 -17.4632 	 31.4488 	 44.7088 	 
H 	 -18.2141 	 30.0704 	 43.9315 	 
S 	 -25.2824 	 33.3603 	 41.0761 	 
C 	 -26.4479 	 33.9663 	 42.2758 	 
C 	 -25.8431 	 34.6108 	 43.3681 	 
C 	 -24.42 	 34.7265 	 43.1942 	 
C 	 -23.9336 	 34.1099 	 42.0031 	 
H 	 -26.5376 	 34.9734 	 44.0737 	 
C 	 -23.5216 	 35.4021 	 44.2304 	 
H 	 -23.9224 	 36.3939 	 44.3632 	 
H 	 -22.513 	 35.4103 	 43.8811 	 
C 	 -23.5536 	 34.6585 	 45.615 	 
H 	 -22.9654 	 33.6825 	 45.4861 	 
H 	 -24.5853 	 34.4836 	 45.9668 	 
C 	 -22.8246 	 35.3816 	 46.7622 	 
H 	 -23.3573 	 36.3458 	 46.8962 	 
H 	 -21.7501 	 35.4114 	 46.5698 	 
H 	 -23.1053 	 34.8292 	 47.6335 	 
H 	 -19.5336 	 33.8192 	 39.8101 	 
H 	 -27.4572 	 33.7022 	 42.3301 	 
*
