! wB97X-D3 SP def2-SVP
%pal
nprocs 16
end

* xyz 0 1
S 	 -64.2755 	 48.2463 	 124.687 	 
C 	 -63.571 	 46.6436 	 124.451 	 
C 	 -62.2 	 46.7223 	 124.253 	 
C 	 -61.7302 	 48.1173 	 124.39 	 
C 	 -62.7258 	 48.9766 	 124.706 	 
H 	 -60.7724 	 48.5371 	 124.17 	 
C 	 -61.1822 	 45.5912 	 123.909 	 
H 	 -61.3855 	 44.5871 	 124.346 	 
H 	 -60.2 	 45.8575 	 124.32 	 
C 	 -61.0304 	 45.2754 	 122.421 	 
H 	 -62.0413 	 45.1812 	 121.983 	 
H 	 -60.5056 	 46.0781 	 122.001 	 
C 	 -60.3026 	 43.9744 	 122.12 	 
H 	 -60.8453 	 42.9931 	 122.191 	 
H 	 -60.0443 	 43.9797 	 121.056 	 
H 	 -59.3233 	 43.9365 	 122.657 	 
S 	 -63.798 	 51.4295 	 124.059 	 
C 	 -62.8359 	 52.855 	 124.221 	 
C 	 -61.6195 	 52.5263 	 124.785 	 
C 	 -61.45 	 51.141 	 125.142 	 
C 	 -62.5202 	 50.4204 	 124.67 	 
H 	 -60.9016 	 53.2492 	 124.928 	 
C 	 -60.2787 	 50.7582 	 125.979 	 
H 	 -60.3491 	 49.7137 	 126.141 	 
H 	 -60.505 	 51.2134 	 126.986 	 
C 	 -58.8723 	 51.1388 	 125.543 	 
H 	 -58.8762 	 52.2188 	 125.68 	 
H 	 -58.5762 	 50.8451 	 124.531 	 
C 	 -57.8037 	 50.5328 	 126.454 	 
H 	 -57.8181 	 50.9136 	 127.529 	 
H 	 -56.8228 	 50.8328 	 126.036 	 
H 	 -57.9258 	 49.4183 	 126.445 	 
H 	 -64.1554 	 45.7291 	 124.393 	 
H 	 -63.1409 	 53.8548 	 124.194 	 
*
