! wB97X-D3 SP def2-SVP
%pal
nprocs 16
end

* xyz 0 1
S 	 -76.6494 	 43.2787 	 142.544 	 
C 	 -76.0422 	 41.6209 	 142.691 	 
C 	 -76.6 	 40.8179 	 141.669 	 
C 	 -77.37 	 41.6002 	 140.727 	 
C 	 -77.3729 	 42.9196 	 141.005 	 
H 	 -78.0448 	 41.2736 	 139.966 	 
C 	 -76.662 	 39.3242 	 141.784 	 
H 	 -76.2649 	 39.2122 	 142.747 	 
H 	 -75.9383 	 38.9985 	 140.99 	 
C 	 -77.9653 	 38.4896 	 141.718 	 
H 	 -78.3961 	 38.4292 	 140.732 	 
H 	 -77.8298 	 37.399 	 141.841 	 
C 	 -79.0495 	 39.0267 	 142.731 	 
H 	 -78.896 	 38.4581 	 143.672 	 
H 	 -78.9675 	 40.1028 	 142.944 	 
H 	 -80.076 	 38.7535 	 142.431 	 
S 	 -79.7668 	 44.4629 	 141.055 	 
C 	 -80.0674 	 45.5875 	 139.757 	 
C 	 -79.0466 	 45.5093 	 138.808 	 
C 	 -78.1322 	 44.5127 	 139.097 	 
C 	 -78.2412 	 43.9091 	 140.358 	 
H 	 -79.097 	 46.0887 	 137.874 	 
C 	 -76.9856 	 44.2326 	 138.142 	 
H 	 -75.965 	 44.2824 	 138.61 	 
H 	 -77.023 	 44.9759 	 137.323 	 
C 	 -76.9554 	 42.8313 	 137.496 	 
H 	 -76.7087 	 42.0155 	 138.164 	 
H 	 -76.1086 	 42.864 	 136.781 	 
C 	 -78.1922 	 42.5006 	 136.635 	 
H 	 -78.2277 	 41.553 	 136.064 	 
H 	 -78.3435 	 43.278 	 135.847 	 
H 	 -79.1056 	 42.6061 	 137.275 	 
H 	 -75.6563 	 41.2555 	 143.567 	 
H 	 -80.8883 	 46.2557 	 139.674 	 
*
