! wB97X-D3 SP def2-SVP
%pal
nprocs 16
end

* xyz 0 1
S 	 -37.0228 	 26.6446 	 84.165 	 
C 	 -37.9733 	 25.3163 	 83.4749 	 
C 	 -37.2809 	 24.116 	 83.6322 	 
C 	 -35.9452 	 24.2861 	 84.2197 	 
C 	 -35.6285 	 25.6446 	 84.4557 	 
H 	 -35.2169 	 23.5678 	 84.4513 	 
C 	 -37.8951 	 22.7638 	 83.2692 	 
H 	 -37.0825 	 22.1232 	 83.0445 	 
H 	 -38.3681 	 22.8754 	 82.3232 	 
C 	 -38.6783 	 22.0372 	 84.3195 	 
H 	 -38.8907 	 20.9378 	 84.1568 	 
H 	 -38.0838 	 22.022 	 85.21 	 
C 	 -39.9686 	 22.673 	 84.6964 	 
H 	 -39.9022 	 23.7575 	 84.8884 	 
H 	 -40.6981 	 22.6341 	 83.9182 	 
H 	 -40.4383 	 22.2446 	 85.5571 	 
S 	 -34.6551 	 26.2516 	 87.0088 	 
C 	 -32.9097 	 26.4815 	 87.1467 	 
C 	 -32.2552 	 26.3653 	 85.9842 	 
C 	 -33.1521 	 26.0949 	 84.8879 	 
C 	 -34.4798 	 26.1027 	 85.2647 	 
H 	 -31.1438 	 26.4871 	 85.9946 	 
C 	 -32.7335 	 25.8681 	 83.4412 	 
H 	 -33.4201 	 25.1905 	 82.9871 	 
H 	 -31.8113 	 25.335 	 83.6063 	 
C 	 -32.68 	 27.1834 	 82.6095 	 
H 	 -33.7474 	 27.411 	 82.3727 	 
H 	 -32.2078 	 27.1425 	 81.6047 	 
C 	 -31.9698 	 28.3299 	 83.4795 	 
H 	 -32.0944 	 29.1931 	 82.8866 	 
H 	 -30.9225 	 28.1711 	 83.6247 	 
H 	 -32.51 	 28.4236 	 84.4302 	 
H 	 -38.9955 	 25.3823 	 83.1368 	 
H 	 -32.3639 	 26.5592 	 88.0989 	 
*
