! wB97X-D3 SP def2-SVP
%pal
nprocs 16
end

* xyz 0 1
S 	 -34.6992 	 58.0508 	 103.527 	 
C 	 -35.7167 	 56.5845 	 103.45 	 
C 	 -34.9525 	 55.471 	 103.126 	 
C 	 -33.554 	 55.7833 	 103.143 	 
C 	 -33.2464 	 57.1875 	 103.282 	 
H 	 -32.7019 	 55.1315 	 103.07 	 
C 	 -35.4388 	 54.0208 	 102.93 	 
H 	 -36.4724 	 54.0446 	 102.638 	 
H 	 -35.4258 	 53.638 	 103.925 	 
C 	 -34.6763 	 53.0539 	 102.076 	 
H 	 -33.6561 	 53.2471 	 102.301 	 
H 	 -35.018 	 52.039 	 102.53 	 
C 	 -34.9952 	 53.2216 	 100.568 	 
H 	 -34.7923 	 54.2257 	 100.203 	 
H 	 -34.4475 	 52.5076 	 100.074 	 
H 	 -36.0527 	 52.9481 	 100.361 	 
S 	 -31.4031 	 57.9144 	 105.274 	 
C 	 -30.107 	 58.9085 	 104.866 	 
C 	 -29.9613 	 59.1959 	 103.537 	 
C 	 -31.0908 	 58.6125 	 102.82 	 
C 	 -31.9656 	 57.8561 	 103.619 	 
H 	 -29.0832 	 59.797 	 103.292 	 
C 	 -31.1481 	 58.8323 	 101.287 	 
H 	 -31.6245 	 57.8878 	 100.851 	 
H 	 -30.1549 	 58.8871 	 100.941 	 
C 	 -31.8691 	 60.1305 	 100.972 	 
H 	 -31.1561 	 60.9743 	 101.121 	 
H 	 -32.7332 	 60.2601 	 101.564 	 
C 	 -32.5247 	 60.2502 	 99.603 	 
H 	 -33.4464 	 59.7005 	 99.6471 	 
H 	 -31.8843 	 59.8533 	 98.8064 	 
H 	 -32.6108 	 61.3047 	 99.2465 	 
H 	 -36.8102 	 56.5753 	 103.549 	 
H 	 -29.4229 	 59.3675 	 105.588 	 
*
