! wB97X-D3 SP def2-SVP
%pal
nprocs 16
end

* xyz 0 1
S 	 2.99707 	 -24.1121 	 86.9179 	 
C 	 4.62325 	 -24.2383 	 86.4586 	 
C 	 5.17054 	 -22.987 	 86.1921 	 
C 	 4.23252 	 -21.9571 	 86.4466 	 
C 	 3.04339 	 -22.4071 	 87.0004 	 
H 	 4.24168 	 -20.9469 	 86.1528 	 
C 	 6.5286 	 -22.776 	 85.5555 	 
H 	 6.46439 	 -22.3264 	 84.591 	 
H 	 6.90265 	 -23.7777 	 85.4093 	 
C 	 7.48676 	 -21.9463 	 86.3384 	 
H 	 8.3748 	 -21.8905 	 85.8566 	 
H 	 6.97379 	 -20.9686 	 86.4853 	 
C 	 7.73605 	 -22.4517 	 87.7648 	 
H 	 8.43489 	 -23.2943 	 87.8757 	 
H 	 8.22922 	 -21.6954 	 88.418 	 
H 	 6.79974 	 -22.7114 	 88.263 	 
S 	 1.28114 	 -22.1859 	 89.0405 	 
C 	 0.0670302 	 -20.954 	 89.1514 	 
C 	 0.212917 	 -20.1002 	 88.1206 	 
C 	 1.15599 	 -20.4552 	 87.1149 	 
C 	 1.9327 	 -21.6156 	 87.5322 	 
H 	 -0.389572 	 -19.1967 	 87.9294 	 
C 	 1.31782 	 -19.725 	 85.7807 	 
H 	 2.35146 	 -19.7702 	 85.4124 	 
H 	 1.10268 	 -18.7043 	 85.9874 	 
C 	 0.407629 	 -20.2901 	 84.6832 	 
H 	 0.396635 	 -19.6179 	 83.8383 	 
H 	 -0.586703 	 -20.3762 	 85.0682 	 
C 	 0.985133 	 -21.5966 	 84.0569 	 
H 	 0.370608 	 -22.0815 	 83.2773 	 
H 	 1.02331 	 -22.3528 	 84.8619 	 
H 	 1.99549 	 -21.53 	 83.6372 	 
H 	 5.09385 	 -25.1017 	 86.1661 	 
H 	 -0.663533 	 -20.8622 	 89.9199 	 
*
