! wB97X-D3 SP def2-SVP
%pal
nprocs 16
end

* xyz 0 1
S 	 39.9739 	 14.0133 	 79.8367 	 
C 	 38.4988 	 13.0959 	 80.1285 	 
C 	 37.3 	 13.8133 	 80.008 	 
C 	 37.6084 	 15.1293 	 79.5523 	 
C 	 39.013 	 15.3577 	 79.2561 	 
H 	 36.7824 	 15.7984 	 79.2524 	 
C 	 35.9032 	 13.2014 	 80.2832 	 
H 	 35.1384 	 13.9698 	 80.3431 	 
H 	 36.005 	 12.7098 	 81.2455 	 
C 	 35.3954 	 12.2399 	 79.1595 	 
H 	 35.952 	 11.34 	 79.4303 	 
H 	 34.3575 	 11.9857 	 79.4172 	 
C 	 35.4636 	 12.7845 	 77.7159 	 
H 	 34.763 	 13.6487 	 77.5374 	 
H 	 36.4326 	 13.1823 	 77.3999 	 
H 	 35.2372 	 11.9689 	 77.0158 	 
S 	 39.3107 	 17.3823 	 77.3174 	 
C 	 39.9868 	 18.8769 	 77.892 	 
C 	 40.5624 	 18.7918 	 79.1526 	 
C 	 40.369 	 17.5237 	 79.7199 	 
C 	 39.688 	 16.6191 	 78.889 	 
H 	 41.1767 	 19.5328 	 79.6019 	 
C 	 40.8759 	 17.2663 	 81.0715 	 
H 	 40.1915 	 16.6578 	 81.6419 	 
H 	 40.8345 	 18.227 	 81.5946 	 
C 	 42.3347 	 16.7319 	 81.0985 	 
H 	 43.033 	 17.4556 	 80.6345 	 
H 	 42.4288 	 15.7645 	 80.4955 	 
C 	 42.7995 	 16.6301 	 82.5048 	 
H 	 42.334 	 15.8221 	 82.9976 	 
H 	 42.659 	 17.5781 	 83.1225 	 
H 	 43.9388 	 16.4474 	 82.5811 	 
H 	 38.5189 	 12.0351 	 80.4141 	 
H 	 40.1982 	 19.7771 	 77.2572 	 
*
