! wB97X-D3 SP def2-SVP
%pal
nprocs 16
end

* xyz 0 1
S 	 38.8995 	 29.328 	 84.0225 	 
C 	 37.629 	 28.7092 	 85.0755 	 
C 	 38.0603 	 27.5651 	 85.7382 	 
C 	 39.4574 	 27.3233 	 85.4024 	 
C 	 40.029 	 28.1024 	 84.4358 	 
H 	 40.0605 	 26.5216 	 85.6922 	 
C 	 37.3102 	 26.5275 	 86.5149 	 
H 	 38.0682 	 25.8495 	 86.9612 	 
H 	 36.8672 	 25.9266 	 85.7105 	 
C 	 36.3458 	 26.9914 	 87.6381 	 
H 	 36.9805 	 27.5188 	 88.3976 	 
H 	 35.7336 	 27.7939 	 87.1936 	 
C 	 35.6016 	 25.9064 	 88.2548 	 
H 	 35.0727 	 26.2952 	 89.1272 	 
H 	 34.8248 	 25.6429 	 87.6112 	 
H 	 36.2274 	 25.0214 	 88.5574 	 
S 	 42.4166 	 29.5335 	 84.7229 	 
C 	 43.9255 	 28.7525 	 84.1787 	 
C 	 43.7258 	 27.446 	 83.7279 	 
C 	 42.32 	 27.1294 	 83.7353 	 
C 	 41.4636 	 28.1566 	 84.1225 	 
H 	 44.596 	 26.9393 	 83.4028 	 
C 	 41.8963 	 25.7365 	 83.2957 	 
H 	 42.3089 	 25.7784 	 82.2674 	 
H 	 40.8157 	 25.6403 	 82.9305 	 
C 	 42.4227 	 24.5505 	 84.0531 	 
H 	 42.1043 	 24.5987 	 85.0937 	 
H 	 43.5854 	 24.5394 	 83.9267 	 
C 	 41.8115 	 23.2922 	 83.5349 	 
H 	 41.9088 	 23.2303 	 82.4333 	 
H 	 40.7881 	 23.2758 	 83.8567 	 
H 	 42.2264 	 22.3211 	 83.9917 	 
H 	 36.6524 	 29.1776 	 85.1341 	 
H 	 44.937 	 29.1652 	 84.3488 	 
*
