! wB97X-D3 SP def2-SVP
%pal
nprocs 16
end

* xyz 0 1
S 	 -114.595 	 42.3312 	 132.195 	 
C 	 -115.27 	 41.7215 	 133.723 	 
C 	 -114.931 	 42.5849 	 134.775 	 
C 	 -114.163 	 43.6703 	 134.346 	 
C 	 -114.008 	 43.7947 	 133.005 	 
H 	 -113.929 	 44.5124 	 134.97 	 
C 	 -115.251 	 42.2634 	 136.255 	 
H 	 -115.454 	 41.1807 	 136.37 	 
H 	 -116.083 	 42.7932 	 136.639 	 
C 	 -114.022 	 42.3917 	 137.179 	 
H 	 -114.191 	 41.657 	 137.93 	 
H 	 -113.038 	 42.0707 	 136.738 	 
C 	 -113.884 	 43.7057 	 137.9 	 
H 	 -114.638 	 43.752 	 138.713 	 
H 	 -112.908 	 43.7012 	 138.386 	 
H 	 -113.946 	 44.5723 	 137.26 	 
S 	 -111.694 	 44.5208 	 131.643 	 
C 	 -111.515 	 46.2624 	 131.253 	 
C 	 -112.586 	 46.9564 	 131.721 	 
C 	 -113.617 	 46.2072 	 132.387 	 
C 	 -113.294 	 44.8666 	 132.331 	 
H 	 -112.526 	 48.0353 	 131.729 	 
C 	 -114.77 	 46.8631 	 133.217 	 
H 	 -115.323 	 45.9579 	 133.531 	 
H 	 -115.352 	 47.3704 	 132.382 	 
C 	 -114.459 	 47.7004 	 134.433 	 
H 	 -113.774 	 48.4702 	 134.092 	 
H 	 -113.842 	 47.1828 	 135.198 	 
C 	 -115.704 	 48.3225 	 135.035 	 
H 	 -116.393 	 48.5629 	 134.232 	 
H 	 -115.434 	 49.1714 	 135.611 	 
H 	 -116.239 	 47.5928 	 135.681 	 
H 	 -115.889 	 40.7813 	 133.748 	 
H 	 -110.545 	 46.6455 	 131.038 	 
*
