! wB97X-D3 SP def2-SVP
%pal
nprocs 16
end

* xyz 0 1
S 	 8.4905 	 -6.6038 	 89.8032 	 
C 	 8.42009 	 -5.50969 	 91.2315 	 
C 	 9.33247 	 -4.50085 	 91.1383 	 
C 	 9.99176 	 -4.49635 	 89.8585 	 
C 	 9.64999 	 -5.55768 	 89.0505 	 
H 	 10.8073 	 -3.87406 	 89.5165 	 
C 	 9.53034 	 -3.43087 	 92.2013 	 
H 	 10.499 	 -3.3906 	 92.6657 	 
H 	 8.8719 	 -3.7187 	 93.0734 	 
C 	 9.31466 	 -1.95345 	 91.7301 	 
H 	 10.1954 	 -1.57104 	 91.1925 	 
H 	 8.46922 	 -1.86268 	 91.1478 	 
C 	 8.96498 	 -0.907378 	 92.8011 	 
H 	 7.92836 	 -0.920197 	 93.0944 	 
H 	 9.44322 	 -1.06372 	 93.7659 	 
H 	 9.14812 	 0.16085 	 92.4887 	 
S 	 11.8523 	 -6.60211 	 87.6815 	 
C 	 11.9447 	 -6.56823 	 85.9545 	 
C 	 10.8024 	 -5.87292 	 85.52 	 
C 	 9.82359 	 -5.51528 	 86.4426 	 
C 	 10.2876 	 -5.76163 	 87.7268 	 
H 	 10.7777 	 -5.74413 	 84.4226 	 
C 	 8.69939 	 -4.61824 	 86.1016 	 
H 	 9.11836 	 -4.04111 	 85.2676 	 
H 	 8.50261 	 -3.9749 	 86.8885 	 
C 	 7.41689 	 -5.32161 	 85.7144 	 
H 	 7.07029 	 -5.90304 	 86.5859 	 
H 	 7.61901 	 -6.01798 	 84.9051 	 
C 	 6.38172 	 -4.36018 	 85.1326 	 
H 	 5.61705 	 -4.92976 	 84.6655 	 
H 	 6.73981 	 -3.81369 	 84.2101 	 
H 	 5.87474 	 -3.69225 	 85.8582 	 
H 	 7.75167 	 -5.6942 	 92.0441 	 
H 	 12.6786 	 -7.02144 	 85.2702 	 
*
