! wB97X-D3 SP def2-SVP
%pal
nprocs 16
end

* xyz 0 1
S 	 8.35021 	 -24.5452 	 83.8399 	 
C 	 6.6024 	 -24.2058 	 84.0896 	 
C 	 5.94362 	 -23.772 	 82.9311 	 
C 	 6.8543 	 -23.7226 	 81.878 	 
C 	 8.09169 	 -24.2745 	 82.1389 	 
H 	 6.53775 	 -23.5094 	 80.9069 	 
C 	 4.49565 	 -23.4527 	 82.7682 	 
H 	 4.38014 	 -23.2685 	 81.6841 	 
H 	 4.26598 	 -22.5015 	 83.2154 	 
C 	 3.52442 	 -24.5729 	 83.0817 	 
H 	 3.87646 	 -25.333 	 82.362 	 
H 	 3.68849 	 -24.9746 	 84.0865 	 
C 	 2.08541 	 -24.3866 	 82.9291 	 
H 	 1.52707 	 -25.0614 	 83.5153 	 
H 	 1.81932 	 -23.3372 	 83.2123 	 
H 	 1.77376 	 -24.6137 	 81.9331 	 
S 	 9.5234 	 -26.3488 	 80.8964 	 
C 	 10.382 	 -26.029 	 79.378 	 
C 	 10.3053 	 -24.6901 	 79.0738 	 
C 	 9.6883 	 -23.8467 	 80.0361 	 
C 	 9.10093 	 -24.5956 	 81.0863 	 
H 	 10.8294 	 -24.3648 	 78.2069 	 
C 	 9.4902 	 -22.4042 	 79.9896 	 
H 	 9.5896 	 -21.9778 	 80.9316 	 
H 	 8.43478 	 -22.2788 	 79.7599 	 
C 	 10.2178 	 -21.6721 	 78.7935 	 
H 	 9.84843 	 -22.0257 	 77.878 	 
H 	 11.2584 	 -21.7333 	 78.8261 	 
C 	 10.0095 	 -20.1212 	 78.7272 	 
H 	 10.3626 	 -19.7115 	 79.7099 	 
H 	 9.02051 	 -19.7559 	 78.5858 	 
H 	 10.6531 	 -19.6831 	 77.9313 	 
H 	 6.12612 	 -24.433 	 85.0259 	 
H 	 11.0253 	 -26.7627 	 78.8379 	 
*
