! wB97X-D3 SP def2-SVP
%pal
nprocs 16
end

* xyz 0 1
S 	 -14.8663 	 46.5713 	 30.9985 	 
C 	 -13.153 	 47.0205 	 30.8417 	 
C 	 -12.4963 	 46.8091 	 32.0491 	 
C 	 -13.3834 	 46.3204 	 33.1149 	 
C 	 -14.6537 	 46.0808 	 32.6663 	 
H 	 -13.1268 	 46.0836 	 34.1719 	 
C 	 -11.0071 	 47.042 	 32.2575 	 
H 	 -10.9593 	 47.2736 	 33.2966 	 
H 	 -10.603 	 47.8776 	 31.6815 	 
C 	 -10.1676 	 45.737 	 32.0114 	 
H 	 -10.2884 	 45.2376 	 31.0763 	 
H 	 -9.10333 	 45.9817 	 32.1133 	 
C 	 -10.3768 	 44.666 	 33.152 	 
H 	 -10.3354 	 44.943 	 34.2471 	 
H 	 -11.3355 	 44.2564 	 33.2077 	 
H 	 -9.72554 	 43.8175 	 33.0484 	 
S 	 -17.2176 	 46.5451 	 33.6889 	 
C 	 -18.0192 	 45.3192 	 34.6612 	 
C 	 -17.256 	 44.1835 	 34.6731 	 
C 	 -15.9431 	 44.2592 	 34.1015 	 
C 	 -15.7607 	 45.5486 	 33.4818 	 
H 	 -17.4828 	 43.2685 	 35.3059 	 
C 	 -14.9853 	 43.0655 	 34.0534 	 
H 	 -15.0717 	 42.6226 	 35.0545 	 
H 	 -13.9387 	 43.4673 	 33.9202 	 
C 	 -15.1868 	 41.8977 	 33.0258 	 
H 	 -15.2098 	 42.2696 	 31.9997 	 
H 	 -16.1504 	 41.3735 	 33.1688 	 
C 	 -14.0365 	 40.9248 	 33.1068 	 
H 	 -13.705 	 40.6726 	 34.0942 	 
H 	 -13.065 	 41.3537 	 32.7689 	 
H 	 -14.182 	 40.0763 	 32.537 	 
H 	 -12.5962 	 47.2898 	 29.9549 	 
H 	 -18.9547 	 45.488 	 35.142 	 
*
