! wB97X-D3 SP def2-SVP
%pal
nprocs 16
end

* xyz 0 1
S 	 12.6917 	 -0.49866 	 65.9895 	 
C 	 11.9792 	 0.242433 	 64.539 	 
C 	 12.9556 	 0.607802 	 63.5892 	 
C 	 14.2414 	 0.153034 	 64.0415 	 
C 	 14.2627 	 -0.414931 	 65.2746 	 
H 	 15.1962 	 0.150233 	 63.3809 	 
C 	 12.7284 	 1.26891 	 62.277 	 
H 	 12.1945 	 0.589541 	 61.7138 	 
H 	 13.7369 	 1.36702 	 61.8384 	 
C 	 12.0663 	 2.66421 	 62.2755 	 
H 	 11.6914 	 3.03098 	 61.3354 	 
H 	 11.2241 	 2.74075 	 62.9763 	 
C 	 13.1263 	 3.68415 	 62.8761 	 
H 	 13.8881 	 3.92129 	 62.1364 	 
H 	 12.6333 	 4.65302 	 63.0846 	 
H 	 13.5664 	 3.28845 	 63.7666 	 
S 	 15.5333 	 -2.62735 	 66.487 	 
C 	 17.0482 	 -2.35774 	 67.2679 	 
C 	 17.4625 	 -0.998767 	 67.1066 	 
C 	 16.5737 	 -0.209693 	 66.3969 	 
C 	 15.4402 	 -0.898137 	 65.9928 	 
H 	 18.3738 	 -0.632478 	 67.5469 	 
C 	 16.7997 	 1.24427 	 66.133 	 
H 	 16.7737 	 1.57112 	 65.0736 	 
H 	 17.8162 	 1.50992 	 66.3311 	 
C 	 15.9725 	 2.14121 	 67.1451 	 
H 	 14.9266 	 2.01729 	 67.0551 	 
H 	 16.2793 	 3.16616 	 66.826 	 
C 	 16.2681 	 1.93509 	 68.6687 	 
H 	 15.4761 	 2.40668 	 69.4157 	 
H 	 17.1309 	 2.47821 	 68.9091 	 
H 	 16.2679 	 0.866648 	 68.8708 	 
H 	 10.894 	 0.345126 	 64.395 	 
H 	 17.6332 	 -2.97091 	 67.9236 	 
*
