! wB97X-D3 SP def2-SVP
%pal
nprocs 16
end

* xyz 0 1
S 	 56.7538 	 16.6694 	 58.0103 	 
C 	 56.5006 	 18.4263 	 57.7633 	 
C 	 56.3402 	 18.6175 	 56.4109 	 
C 	 56.8592 	 17.5552 	 55.6275 	 
C 	 57.0594 	 16.3752 	 56.3108 	 
H 	 57.1442 	 17.6629 	 54.5741 	 
C 	 56.0707 	 20.0011 	 55.8156 	 
H 	 56.6895 	 19.9203 	 54.8952 	 
H 	 56.5623 	 20.8005 	 56.4884 	 
C 	 54.6376 	 20.4321 	 55.4856 	 
H 	 54.2432 	 19.6774 	 54.7665 	 
H 	 54.0975 	 20.4539 	 56.4944 	 
C 	 54.3714 	 21.7908 	 54.9482 	 
H 	 53.4637 	 22.2339 	 55.2884 	 
H 	 54.9906 	 22.4914 	 55.434 	 
H 	 54.5298 	 21.8374 	 53.8566 	 
S 	 57.6417 	 13.7301 	 56.9276 	 
C 	 58.2742 	 12.6267 	 55.7538 	 
C 	 58.755 	 13.2969 	 54.6869 	 
C 	 58.1395 	 14.6188 	 54.5484 	 
C 	 57.6239 	 15.0785 	 55.8115 	 
H 	 59.3128 	 12.7651 	 53.9395 	 
C 	 58.3146 	 15.373 	 53.2755 	 
H 	 59.2362 	 14.9607 	 52.8262 	 
H 	 58.6033 	 16.4355 	 53.4765 	 
C 	 56.9753 	 15.2832 	 52.4016 	 
H 	 56.1755 	 15.7057 	 53.0354 	 
H 	 56.7506 	 14.2141 	 52.3645 	 
C 	 57.0752 	 16 	 51.0741 	 
H 	 57.6479 	 15.3809 	 50.3242 	 
H 	 57.4284 	 17.0076 	 51.1253 	 
H 	 56.0806 	 16.0408 	 50.6605 	 
H 	 56.2335 	 19.1691 	 58.5156 	 
H 	 58.2604 	 11.5864 	 55.8953 	 
*
