! wB97X-D3 SP def2-SVP
%pal
nprocs 16
end

* xyz 0 1
S 	 -31.4811 	 61.8058 	 108.414 	 
C 	 -30.9777 	 62.8089 	 109.789 	 
C 	 -30.2256 	 63.8966 	 109.345 	 
C 	 -30.0208 	 63.9133 	 107.986 	 
C 	 -30.7377 	 62.8733 	 107.308 	 
H 	 -29.5623 	 64.63 	 107.348 	 
C 	 -29.6047 	 64.96 	 110.29 	 
H 	 -30.0052 	 64.8338 	 111.334 	 
H 	 -29.9748 	 65.8906 	 109.997 	 
C 	 -28.0554 	 65.1337 	 110.265 	 
H 	 -27.8378 	 65.2961 	 109.229 	 
H 	 -27.8268 	 65.9632 	 110.921 	 
C 	 -27.3998 	 63.8022 	 110.658 	 
H 	 -27.5787 	 62.969 	 109.98 	 
H 	 -26.2929 	 63.9434 	 110.742 	 
H 	 -27.753 	 63.4771 	 111.682 	 
S 	 -32.5755 	 62.2227 	 105.307 	 
C 	 -32.0368 	 62.2937 	 103.616 	 
C 	 -30.6939 	 62.5627 	 103.504 	 
C 	 -30.1108 	 62.7958 	 104.763 	 
C 	 -30.8942 	 62.6122 	 105.878 	 
H 	 -30.1929 	 62.4963 	 102.535 	 
C 	 -28.6403 	 63.2412 	 104.927 	 
H 	 -28.0043 	 62.5959 	 104.288 	 
H 	 -28.4024 	 63.1914 	 105.985 	 
C 	 -28.379 	 64.7893 	 104.679 	 
H 	 -29.0058 	 65.3691 	 105.388 	 
H 	 -28.7856 	 65.1247 	 103.722 	 
C 	 -26.909 	 65.2626 	 104.855 	 
H 	 -26.3101 	 64.9653 	 104.005 	 
H 	 -26.2725 	 64.8918 	 105.639 	 
H 	 -26.7674 	 66.3458 	 104.949 	 
H 	 -31.214 	 62.6177 	 110.845 	 
H 	 -32.6414 	 62.0258 	 102.761 	 
*
