! wB97X-D3 SP def2-SVP
%pal
nprocs 16
end

* xyz 0 1
S 	 46.6658 	 4.17883 	 85.4357 	 
C 	 46.5936 	 5.41101 	 84.2023 	 
C 	 46.71 	 6.69824 	 84.6756 	 
C 	 46.9153 	 6.66112 	 86.1186 	 
C 	 46.9226 	 5.39791 	 86.707 	 
H 	 46.8752 	 7.52657 	 86.7591 	 
C 	 46.6668 	 8.03575 	 83.9757 	 
H 	 46.0281 	 8.5692 	 84.7233 	 
H 	 46.1307 	 7.89377 	 82.9878 	 
C 	 48.0255 	 8.84615 	 83.8591 	 
H 	 48.7062 	 8.62385 	 84.6076 	 
H 	 48.5545 	 8.63291 	 82.904 	 
C 	 47.7138 	 10.3237 	 83.7704 	 
H 	 47.1291 	 10.5408 	 84.6961 	 
H 	 48.5728 	 10.9395 	 83.8366 	 
H 	 47.0524 	 10.5045 	 82.9321 	 
S 	 46.1865 	 3.63977 	 88.7945 	 
C 	 46.9003 	 3.79835 	 90.3361 	 
C 	 47.5531 	 4.96276 	 90.4762 	 
C 	 47.569 	 5.65189 	 89.2233 	 
C 	 46.9167 	 5.09005 	 88.1516 	 
H 	 48.056 	 5.21571 	 91.3689 	 
C 	 48.2682 	 6.9413 	 89.1421 	 
H 	 48.5162 	 7.34984 	 90.1005 	 
H 	 47.648 	 7.763 	 88.878 	 
C 	 49.5538 	 6.86994 	 88.3185 	 
H 	 49.5583 	 6.28461 	 87.4004 	 
H 	 50.2161 	 6.4868 	 89.0764 	 
C 	 50.1276 	 8.1925 	 87.8469 	 
H 	 49.4306 	 8.74107 	 87.1915 	 
H 	 51.087 	 8.00899 	 87.4266 	 
H 	 50.3407 	 8.9629 	 88.5754 	 
H 	 46.3809 	 5.14002 	 83.1795 	 
H 	 46.8182 	 3.01553 	 91.0214 	 
*
