! wB97X-D3 SP def2-SVP
%pal
nprocs 16
end

* xyz 0 1
S 	 -43.1052 	 55.6012 	 107.368 	 
C 	 -44.3738 	 56.2708 	 106.388 	 
C 	 -43.8594 	 57.0134 	 105.352 	 
C 	 -42.4334 	 56.8643 	 105.2 	 
C 	 -41.894 	 56.0083 	 106.202 	 
H 	 -41.8734 	 57.2876 	 104.392 	 
C 	 -44.7415 	 57.9395 	 104.52 	 
H 	 -45.7297 	 57.5617 	 104.425 	 
H 	 -44.3074 	 57.8223 	 103.539 	 
C 	 -44.819 	 59.4214 	 104.998 	 
H 	 -45.145 	 59.428 	 106.027 	 
H 	 -43.8454 	 59.9183 	 105.072 	 
C 	 -45.8197 	 60.2567 	 104.378 	 
H 	 -45.8874 	 60.1577 	 103.309 	 
H 	 -46.8213 	 59.8494 	 104.549 	 
H 	 -45.9265 	 61.2937 	 104.654 	 
S 	 -40.3208 	 53.864 	 106.547 	 
C 	 -38.5919 	 54.048 	 106.674 	 
C 	 -38.2237 	 55.3902 	 106.607 	 
C 	 -39.292 	 56.3055 	 106.283 	 
C 	 -40.5449 	 55.5923 	 106.316 	 
H 	 -37.1849 	 55.4928 	 106.818 	 
C 	 -39.0521 	 57.8326 	 106.139 	 
H 	 -39.9912 	 58.3246 	 106.015 	 
H 	 -38.449 	 57.9967 	 105.259 	 
C 	 -38.3237 	 58.5356 	 107.319 	 
H 	 -37.3232 	 58.0155 	 107.46 	 
H 	 -38.7191 	 58.1185 	 108.274 	 
C 	 -38.3802 	 60.0696 	 107.19 	 
H 	 -37.9535 	 60.5625 	 108.147 	 
H 	 -39.3651 	 60.3788 	 106.969 	 
H 	 -37.7221 	 60.3788 	 106.323 	 
H 	 -45.3551 	 56.5817 	 106.644 	 
H 	 -37.9257 	 53.2114 	 106.782 	 
*
