! wB97X-D3 SP def2-SVP
%pal
nprocs 16
end

* xyz 0 1
S 	 34.0912 	 12.5314 	 70.438 	 
C 	 32.4735 	 13.0635 	 70.337 	 
C 	 32.2993 	 13.9155 	 69.2016 	 
C 	 33.5289 	 14.2623 	 68.5246 	 
C 	 34.6357 	 13.6394 	 69.1118 	 
H 	 33.6484 	 14.824 	 67.5884 	 
C 	 30.984 	 14.5613 	 68.8583 	 
H 	 30.2346 	 13.7772 	 69.0872 	 
H 	 30.9199 	 14.886 	 67.8048 	 
C 	 30.9348 	 15.9416 	 69.5574 	 
H 	 31.1757 	 15.7629 	 70.5847 	 
H 	 31.7293 	 16.6348 	 69.2414 	 
C 	 29.5719 	 16.5692 	 69.4389 	 
H 	 28.8554 	 16.0097 	 69.939 	 
H 	 29.6134 	 17.562 	 69.7136 	 
H 	 29.2017 	 16.5592 	 68.4582 	 
S 	 36.7233 	 15.1387 	 67.9679 	 
C 	 38.192 	 14.3162 	 67.5088 	 
C 	 38.0427 	 12.9415 	 67.622 	 
C 	 36.8187 	 12.5962 	 68.2413 	 
C 	 35.9434 	 13.6157 	 68.5565 	 
H 	 38.8843 	 12.2466 	 67.4453 	 
C 	 36.4819 	 11.1152 	 68.3923 	 
H 	 36.7245 	 10.6145 	 67.5207 	 
H 	 35.3805 	 11.0743 	 68.359 	 
C 	 36.9751 	 10.4423 	 69.6815 	 
H 	 36.3637 	 10.7662 	 70.4576 	 
H 	 37.9345 	 10.8829 	 69.876 	 
C 	 36.9774 	 8.945 	 69.6547 	 
H 	 37.4274 	 8.59909 	 70.547 	 
H 	 37.3985 	 8.55892 	 68.7175 	 
H 	 35.8959 	 8.67633 	 69.6434 	 
H 	 31.8041 	 12.7716 	 71.0315 	 
H 	 39.1417 	 14.7884 	 67.2563 	 
*
