! wB97X-D3 SP def2-SVP
%pal
nprocs 16
end

* xyz 0 1
S 	 -56.3714 	 47.2153 	 135.019 	 
C 	 -55.4807 	 48.3334 	 136.056 	 
C 	 -56.2282 	 49.4622 	 136.38 	 
C 	 -57.5485 	 49.4022 	 135.756 	 
C 	 -57.7574 	 48.3098 	 134.924 	 
H 	 -58.3348 	 50.0959 	 135.923 	 
C 	 -55.7759 	 50.6523 	 137.142 	 
H 	 -55.4467 	 51.4039 	 136.41 	 
H 	 -54.9456 	 50.3628 	 137.754 	 
C 	 -56.7211 	 51.4079 	 138.11 	 
H 	 -57.6329 	 51.7979 	 137.61 	 
H 	 -56.8895 	 50.8002 	 139.017 	 
C 	 -55.9986 	 52.6312 	 138.781 	 
H 	 -56.6362 	 53.0721 	 139.46 	 
H 	 -55.1794 	 52.3541 	 139.393 	 
H 	 -55.707 	 53.3878 	 138.014 	 
S 	 -59.1139 	 46.1601 	 133.768 	 
C 	 -60.8189 	 46.351 	 133.346 	 
C 	 -61.0411 	 47.6953 	 133.231 	 
C 	 -60.0564 	 48.5916 	 133.752 	 
C 	 -58.8985 	 47.8821 	 134.179 	 
H 	 -62.0079 	 47.9547 	 132.824 	 
C 	 -60.1498 	 50.0601 	 133.717 	 
H 	 -60.3137 	 50.2649 	 132.661 	 
H 	 -59.1828 	 50.4443 	 133.869 	 
C 	 -61.0237 	 50.7648 	 134.764 	 
H 	 -60.567 	 50.6207 	 135.786 	 
H 	 -61.9486 	 50.2417 	 134.898 	 
C 	 -61.1782 	 52.2628 	 134.587 	 
H 	 -60.2018 	 52.7268 	 134.545 	 
H 	 -61.7503 	 52.6834 	 135.385 	 
H 	 -61.7289 	 52.4027 	 133.717 	 
H 	 -54.4061 	 48.2665 	 136.351 	 
H 	 -61.4773 	 45.5071 	 133.043 	 
*
