! wB97X-D3 SP def2-SVP
%pal
nprocs 16
end

* xyz 0 1
S 	 16.0829 	 -9.58016 	 80.2115 	 
C 	 15.5314 	 -10.1814 	 81.7484 	 
C 	 16.6282 	 -10.5012 	 82.5792 	 
C 	 17.8791 	 -10.1618 	 81.9197 	 
C 	 17.6562 	 -9.43907 	 80.738 	 
H 	 18.8908 	 -10.2191 	 82.2514 	 
C 	 16.6122 	 -11.2707 	 83.8843 	 
H 	 15.5747 	 -11.4997 	 84.1483 	 
H 	 16.948 	 -10.5792 	 84.5529 	 
C 	 17.4422 	 -12.612 	 83.8733 	 
H 	 18.3441 	 -12.3211 	 83.4165 	 
H 	 17.6354 	 -13.1361 	 84.7877 	 
C 	 16.7817 	 -13.6852 	 82.9326 	 
H 	 17.1574 	 -14.6365 	 83.1017 	 
H 	 15.6904 	 -13.6296 	 83.2267 	 
H 	 16.8456 	 -13.4369 	 81.8283 	 
S 	 18.7226 	 -6.90421 	 80.1017 	 
C 	 20.152 	 -6.88561 	 79.0492 	 
C 	 20.7813 	 -8.10754 	 78.9888 	 
C 	 20.0091 	 -9.11905 	 79.6797 	 
C 	 18.7074 	 -8.69633 	 79.9992 	 
H 	 21.6694 	 -8.1888 	 78.4376 	 
C 	 20.6793 	 -10.5341 	 79.7309 	 
H 	 20.1071 	 -10.9814 	 80.5519 	 
H 	 21.699 	 -10.508 	 79.979 	 
C 	 20.4452 	 -11.4019 	 78.3928 	 
H 	 20.9201 	 -10.9742 	 77.5295 	 
H 	 19.3875 	 -11.3759 	 78.193 	 
C 	 20.9061 	 -12.9077 	 78.5317 	 
H 	 21.9606 	 -12.9781 	 78.4069 	 
H 	 20.495 	 -13.5297 	 77.7822 	 
H 	 20.6893 	 -13.2944 	 79.5087 	 
H 	 14.5156 	 -10.4017 	 82.0171 	 
H 	 20.4925 	 -5.94581 	 78.6962 	 
*
