! wB97X-D3 SP def2-SVP
%pal
nprocs 16
end

* xyz 0 1
S 	 40.1143 	 16.7249 	 78.4554 	 
C 	 38.8235 	 16.5894 	 77.3555 	 
C 	 37.6499 	 16.2726 	 78.0059 	 
C 	 37.8046 	 16.3041 	 79.416 	 
C 	 39.0701 	 16.4758 	 79.8947 	 
H 	 37.0196 	 16.1609 	 80.1153 	 
C 	 36.2948 	 16.0114 	 77.4512 	 
H 	 36.1152 	 16.339 	 76.4569 	 
H 	 35.6636 	 16.7358 	 77.9143 	 
C 	 35.7653 	 14.5893 	 77.6414 	 
H 	 36.6193 	 13.9659 	 77.3748 	 
H 	 35.5822 	 14.3368 	 78.6731 	 
C 	 34.5738 	 14.2485 	 76.7309 	 
H 	 34.2124 	 13.2056 	 77.0054 	 
H 	 33.7348 	 14.9246 	 76.6432 	 
H 	 34.9646 	 14.267 	 75.6777 	 
S 	 41.053 	 15.1561 	 81.1161 	 
C 	 41.2088 	 15.3958 	 82.8502 	 
C 	 40.1869 	 16.0642 	 83.4022 	 
C 	 39.2627 	 16.4817 	 82.4025 	 
C 	 39.6055 	 16.0772 	 81.1528 	 
H 	 40.1257 	 16.269 	 84.4659 	 
C 	 38.001 	 17.2535 	 82.6229 	 
H 	 37.2444 	 16.8493 	 81.9487 	 
H 	 38.2198 	 18.2742 	 82.3248 	 
C 	 37.5239 	 17.3553 	 84.0732 	 
H 	 38.2502 	 17.7455 	 84.7504 	 
H 	 37.3682 	 16.3492 	 84.383 	 
C 	 36.1925 	 18.1094 	 84.1457 	 
H 	 35.6899 	 18.0764 	 85.0876 	 
H 	 35.5386 	 17.6508 	 83.4422 	 
H 	 36.2405 	 19.1451 	 83.8894 	 
H 	 38.8869 	 16.5374 	 76.2648 	 
H 	 42.1157 	 14.9664 	 83.3595 	 
*
