! wB97X-D3 SP def2-SVP
%pal
nprocs 16
end

* xyz 0 1
S 	 -40.1455 	 37.0266 	 76.1163 	 
C 	 -40.039 	 37.3934 	 77.8437 	 
C 	 -38.8618 	 36.9431 	 78.4368 	 
C 	 -37.9591 	 36.3908 	 77.483 	 
C 	 -38.5129 	 36.3209 	 76.2024 	 
H 	 -36.9536 	 36.0608 	 77.6952 	 
C 	 -38.6719 	 37.0205 	 79.8965 	 
H 	 -37.6474 	 37.5149 	 80.0017 	 
H 	 -38.507 	 36.0778 	 80.377 	 
C 	 -39.5961 	 37.931 	 80.737 	 
H 	 -40.6895 	 37.6868 	 80.5559 	 
H 	 -39.5865 	 37.7213 	 81.8285 	 
C 	 -39.428 	 39.4315 	 80.3822 	 
H 	 -38.4376 	 39.7621 	 80.7577 	 
H 	 -39.5568 	 39.6702 	 79.3405 	 
H 	 -40.1212 	 40.0058 	 80.9704 	 
S 	 -37.499 	 37.3572 	 73.8509 	 
C 	 -36.4248 	 36.3505 	 72.9015 	 
C 	 -36.4097 	 35.0749 	 73.3996 	 
C 	 -37.1077 	 34.8686 	 74.6471 	 
C 	 -37.7105 	 36.0418 	 75.0061 	 
H 	 -35.8764 	 34.3226 	 72.8238 	 
C 	 -37.2465 	 33.5641 	 75.3739 	 
H 	 -37.1564 	 33.7572 	 76.4686 	 
H 	 -36.3391 	 32.9909 	 75.1756 	 
C 	 -38.5757 	 32.9207 	 74.9712 	 
H 	 -39.3681 	 33.5946 	 75.3012 	 
H 	 -38.8338 	 32.0647 	 75.5884 	 
C 	 -38.6804 	 32.5395 	 73.4461 	 
H 	 -38.6398 	 33.4114 	 72.6935 	 
H 	 -39.7287 	 32.1625 	 73.2191 	 
H 	 -37.9288 	 31.7504 	 73.2457 	 
H 	 -40.8261 	 37.9476 	 78.3459 	 
H 	 -35.8886 	 36.5841 	 71.9279 	 
*
