! wB97X-D3 SP def2-SVP
%pal
nprocs 16
end

* xyz 0 1
S 	 -44.8292 	 25.1409 	 84.1514 	 
C 	 -44.9178 	 23.3947 	 84.3702 	 
C 	 -43.6642 	 22.799 	 84.0296 	 
C 	 -42.756 	 23.773 	 83.5413 	 
C 	 -43.2089 	 25.083 	 83.5501 	 
H 	 -41.7725 	 23.6955 	 83.2595 	 
C 	 -43.3336 	 21.3225 	 84.3856 	 
H 	 -43.5677 	 20.7109 	 83.5359 	 
H 	 -43.892 	 21.093 	 85.288 	 
C 	 -41.901 	 20.9742 	 84.9027 	 
H 	 -41.8092 	 19.9214 	 85.2422 	 
H 	 -41.1972 	 21.0447 	 84.0636 	 
C 	 -41.4472 	 21.8614 	 86.0977 	 
H 	 -40.4716 	 21.6632 	 86.3545 	 
H 	 -41.5488 	 22.9173 	 85.9524 	 
H 	 -41.9475 	 21.4443 	 87.0157 	 
S 	 -42.9559 	 26.8568 	 81.5597 	 
C 	 -41.6172 	 27.9827 	 81.5567 	 
C 	 -40.9219 	 27.9572 	 82.7309 	 
C 	 -41.411 	 26.9453 	 83.6205 	 
C 	 -42.5328 	 26.2958 	 83.1571 	 
H 	 -40.0617 	 28.5462 	 83.1241 	 
C 	 -40.7635 	 26.5132 	 84.9471 	 
H 	 -41.4605 	 25.936 	 85.6219 	 
H 	 -40.419 	 27.3238 	 85.5461 	 
C 	 -39.4573 	 25.7221 	 84.6996 	 
H 	 -38.7506 	 26.17 	 83.9389 	 
H 	 -39.7877 	 24.8015 	 84.2434 	 
C 	 -38.6569 	 25.2657 	 85.954 	 
H 	 -37.9799 	 24.5327 	 85.535 	 
H 	 -39.3892 	 24.7917 	 86.6599 	 
H 	 -37.9636 	 25.9728 	 86.3964 	 
H 	 -45.6656 	 22.9066 	 84.8646 	 
H 	 -41.33 	 28.6522 	 80.7517 	 
*
