! wB97X-D3 SP def2-SVP
%pal
nprocs 16
end

* xyz 0 1
S 	 -0.872683 	 33.9346 	 36.4324 	 
C 	 -0.634003 	 32.248 	 36.3111 	 
C 	 -1.8212 	 31.5982 	 36.1291 	 
C 	 -2.9385 	 32.4476 	 35.9869 	 
C 	 -2.62606 	 33.739 	 36.2846 	 
H 	 -3.98016 	 32.2345 	 35.9659 	 
C 	 -1.91946 	 30.0195 	 36.0884 	 
H 	 -2.83794 	 29.7507 	 36.5031 	 
H 	 -1.24177 	 29.567 	 36.7839 	 
C 	 -1.75702 	 29.3622 	 34.7134 	 
H 	 -2.17437 	 29.9659 	 33.9698 	 
H 	 -0.724657 	 29.3166 	 34.4586 	 
C 	 -2.42121 	 28.013 	 34.6417 	 
H 	 -3.37775 	 28.0802 	 35.1797 	 
H 	 -2.61893 	 27.8092 	 33.5953 	 
H 	 -1.7675 	 27.2875 	 35.0853 	 
S 	 -4.67345 	 35.1053 	 35.1201 	 
C 	 -5.31183 	 36.4918 	 35.9852 	 
C 	 -4.82239 	 36.5773 	 37.2417 	 
C 	 -3.82811 	 35.6235 	 37.567 	 
C 	 -3.54377 	 34.807 	 36.4733 	 
H 	 -5.17812 	 37.3819 	 37.8277 	 
C 	 -3.12057 	 35.5786 	 38.9304 	 
H 	 -2.84833 	 36.552 	 38.9937 	 
H 	 -2.28957 	 34.8753 	 38.956 	 
C 	 -4.04995 	 35.1762 	 40.1377 	 
H 	 -3.90788 	 34.0897 	 40.399 	 
H 	 -5.11438 	 35.4727 	 39.8665 	 
C 	 -3.6008 	 35.9634 	 41.4276 	 
H 	 -3.83022 	 37.0618 	 41.2316 	 
H 	 -2.56915 	 35.807 	 41.7187 	 
H 	 -4.23622 	 35.7578 	 42.3058 	 
H 	 0.279024 	 31.7356 	 36.5454 	 
H 	 -5.93041 	 37.2753 	 35.513 	 
*
