! wB97X-D3 SP def2-SVP
%pal
nprocs 16
end

* xyz 0 1
S 	 9.89742 	 -6.66316 	 99.9523 	 
C 	 8.67061 	 -7.83269 	 100.193 	 
C 	 8.341 	 -8.59521 	 99.0916 	 
C 	 9.22315 	 -8.28108 	 98.02 	 
C 	 10.0986 	 -7.22905 	 98.2686 	 
H 	 9.17734 	 -8.55946 	 96.9922 	 
C 	 7.34676 	 -9.73344 	 99.0639 	 
H 	 7.61338 	 -10.2202 	 99.9634 	 
H 	 7.50166 	 -10.2924 	 98.1261 	 
C 	 5.80876 	 -9.3293 	 99.1977 	 
H 	 5.18409 	 -10.2199 	 99.3336 	 
H 	 5.65747 	 -8.58359 	 100.064 	 
C 	 5.21804 	 -8.58751 	 98.0155 	 
H 	 5.76002 	 -7.6499 	 97.8019 	 
H 	 5.16022 	 -9.21137 	 97.1755 	 
H 	 4.23543 	 -8.22146 	 98.3708 	 
S 	 11.1944 	 -4.75323 	 97.5344 	 
C 	 11.661 	 -4.5163 	 95.829 	 
C 	 11.8809 	 -5.74919 	 95.2524 	 
C 	 11.5441 	 -6.89419 	 96.0912 	 
C 	 10.923 	 -6.49706 	 97.3153 	 
H 	 12.1633 	 -5.82352 	 94.2121 	 
C 	 11.3892 	 -8.31904 	 95.5415 	 
H 	 10.4294 	 -8.34053 	 95.0306 	 
H 	 11.2724 	 -8.96469 	 96.3826 	 
C 	 12.4988 	 -8.88559 	 94.5666 	 
H 	 13.4704 	 -8.79038 	 95.036 	 
H 	 12.5176 	 -8.37399 	 93.6008 	 
C 	 12.0985 	 -10.3595 	 94.1606 	 
H 	 12.66 	 -10.8726 	 93.2986 	 
H 	 11.0177 	 -10.22 	 93.7537 	 
H 	 12.0767 	 -11.069 	 94.9933 	 
H 	 8.15133 	 -7.89809 	 101.09 	 
H 	 12.2412 	 -3.69107 	 95.4845 	 
*
