! wB97X-D3 SP def2-SVP
%pal
nprocs 16
end

* xyz 0 1
S 	 23.3106 	 9.79212 	 72.4232 	 
C 	 22.0623 	 8.95616 	 71.5262 	 
C 	 22.1732 	 7.58609 	 71.6043 	 
C 	 23.1096 	 7.21855 	 72.5906 	 
C 	 23.7984 	 8.31882 	 73.1382 	 
H 	 23.35 	 6.21054 	 72.899 	 
C 	 21.2292 	 6.50111 	 71 	 
H 	 21.7063 	 5.98201 	 70.156 	 
H 	 20.406 	 6.95344 	 70.4462 	 
C 	 20.6286 	 5.45457 	 71.9466 	 
H 	 20.0581 	 4.73336 	 71.2701 	 
H 	 21.3192 	 4.83235 	 72.5094 	 
C 	 19.6849 	 6.01434 	 72.9781 	 
H 	 19.0628 	 5.2998 	 73.5383 	 
H 	 20.1003 	 6.61979 	 73.8028 	 
H 	 18.9908 	 6.75779 	 72.5396 	 
S 	 26.2428 	 9.47627 	 73.7247 	 
C 	 27.3985 	 8.47292 	 74.4969 	 
C 	 26.8034 	 7.53342 	 75.2805 	 
C 	 25.425 	 7.28307 	 74.8627 	 
C 	 25.0265 	 8.24255 	 73.8962 	 
H 	 27.4333 	 6.97391 	 75.9976 	 
C 	 24.5933 	 6.20163 	 75.5455 	 
H 	 24.9889 	 5.26984 	 75.0644 	 
H 	 23.6185 	 6.27677 	 75.2582 	 
C 	 24.6853 	 6.258 	 77.0892 	 
H 	 25.6889 	 6.06 	 77.4101 	 
H 	 23.9977 	 5.46418 	 77.38 	 
C 	 24.2823 	 7.56899 	 77.8695 	 
H 	 23.7319 	 7.48846 	 78.7937 	 
H 	 23.691 	 8.18086 	 77.2324 	 
H 	 25.1083 	 8.17433 	 78.1842 	 
H 	 21.3812 	 9.456 	 70.7932 	 
H 	 28.4591 	 8.73427 	 74.7067 	 
*
