! wB97X-D3 SP def2-SVP
%pal
nprocs 16
end

* xyz 0 1
S 	 -74.0227 	 46.7102 	 125.379 	 
C 	 -73.6796 	 44.9508 	 125.319 	 
C 	 -72.566 	 44.6045 	 126.058 	 
C 	 -72.0603 	 45.8 	 126.736 	 
C 	 -72.7738 	 46.9709 	 126.537 	 
H 	 -71.1281 	 45.9564 	 127.256 	 
C 	 -71.8053 	 43.2656 	 126.091 	 
H 	 -72.365 	 42.4959 	 126.558 	 
H 	 -70.9265 	 43.3908 	 126.801 	 
C 	 -71.3655 	 42.7237 	 124.719 	 
H 	 -70.9274 	 43.4795 	 124.024 	 
H 	 -70.5711 	 41.9878 	 124.732 	 
C 	 -72.5005 	 42.0978 	 123.863 	 
H 	 -73.0453 	 42.9415 	 123.381 	 
H 	 -72.0842 	 41.4253 	 123.084 	 
H 	 -73.3499 	 41.585 	 124.338 	 
S 	 -71.5348 	 49.3101 	 126.25 	 
C 	 -71.4163 	 50.4853 	 127.554 	 
C 	 -72.2467 	 50.0682 	 128.573 	 
C 	 -72.9278 	 48.7681 	 128.353 	 
C 	 -72.486 	 48.2412 	 127.205 	 
H 	 -72.413 	 50.709 	 129.42 	 
C 	 -73.8795 	 48.1309 	 129.332 	 
H 	 -73.3044 	 47.8455 	 130.344 	 
H 	 -74.0676 	 47.1231 	 128.989 	 
C 	 -75.2133 	 48.9676 	 129.752 	 
H 	 -74.9634 	 49.9029 	 130.319 	 
H 	 -75.8169 	 48.3822 	 130.428 	 
C 	 -76.09 	 49.1801 	 128.527 	 
H 	 -75.6169 	 49.4091 	 127.565 	 
H 	 -76.8084 	 49.9273 	 128.859 	 
H 	 -76.5477 	 48.2644 	 128.364 	 
H 	 -74.2261 	 44.282 	 124.657 	 
H 	 -71.1366 	 51.5134 	 127.706 	 
*
