! wB97X-D3 SP def2-SVP
%pal
nprocs 16
end

* xyz 0 1
S 	 8.89937 	 -17.2509 	 91.2008 	 
C 	 9.57476 	 -17.2324 	 89.5618 	 
C 	 9.71664 	 -15.9317 	 89.1393 	 
C 	 9.35665 	 -14.9919 	 90.1517 	 
C 	 8.74606 	 -15.5598 	 91.2595 	 
H 	 9.42453 	 -13.9116 	 90.1052 	 
C 	 10.5291 	 -15.4999 	 87.882 	 
H 	 10.3692 	 -16.1723 	 87.0028 	 
H 	 11.5515 	 -15.6972 	 88.0513 	 
C 	 10.3482 	 -14.0988 	 87.4563 	 
H 	 9.37413 	 -13.86 	 87.0811 	 
H 	 10.4687 	 -13.4324 	 88.3204 	 
C 	 11.3705 	 -13.5819 	 86.4717 	 
H 	 11.1845 	 -12.462 	 86.4547 	 
H 	 12.4215 	 -13.7888 	 86.6884 	 
H 	 11.205 	 -13.9903 	 85.4529 	 
S 	 8.58381 	 -15.2843 	 93.8896 	 
C 	 7.7195 	 -13.8573 	 94.5794 	 
C 	 7.22056 	 -13.0571 	 93.5728 	 
C 	 7.30339 	 -13.6637 	 92.2753 	 
C 	 8.01785 	 -14.8353 	 92.2881 	 
H 	 6.84546 	 -12.1403 	 93.7545 	 
C 	 6.98684 	 -12.9388 	 91.014 	 
H 	 5.95873 	 -12.7413 	 91.0647 	 
H 	 7.24538 	 -13.5211 	 90.1759 	 
C 	 7.65298 	 -11.5663 	 90.8574 	 
H 	 8.68215 	 -11.6218 	 91.2268 	 
H 	 7.10764 	 -10.98 	 91.5994 	 
C 	 7.65922 	 -10.8964 	 89.4197 	 
H 	 6.66817 	 -10.7015 	 89.051 	 
H 	 8.27412 	 -11.5197 	 88.784 	 
H 	 8.09378 	 -9.89657 	 89.2857 	 
H 	 9.81481 	 -18.1017 	 89.0238 	 
H 	 7.72031 	 -13.5737 	 95.5784 	 
*
