! wB97X-D3 SP def2-SVP
%pal
nprocs 16
end

* xyz 0 1
S 	 -10.7471 	 -6.94714 	 84.2914 	 
C 	 -10.4712 	 -7.02096 	 86.039 	 
C 	 -11.3482 	 -6.23136 	 86.8017 	 
C 	 -12.3501 	 -5.64462 	 85.8993 	 
C 	 -12.1191 	 -5.84889 	 84.5321 	 
H 	 -13.2146 	 -4.99354 	 86.0894 	 
C 	 -11.561 	 -6.13488 	 88.3252 	 
H 	 -11.0979 	 -5.16203 	 88.408 	 
H 	 -10.9118 	 -6.74693 	 88.9824 	 
C 	 -13.0022 	 -6.28171 	 88.8651 	 
H 	 -13.0298 	 -6.02834 	 89.8997 	 
H 	 -13.6543 	 -5.43033 	 88.4525 	 
C 	 -13.5718 	 -7.66008 	 88.4799 	 
H 	 -12.8358 	 -8.39316 	 88.6272 	 
H 	 -14.3606 	 -7.82859 	 89.2412 	 
H 	 -13.9397 	 -7.78416 	 87.4667 	 
S 	 -11.8032 	 -4.79439 	 82.062 	 
C 	 -13.1556 	 -4.10792 	 81.2101 	 
C 	 -14.2929 	 -4.06257 	 81.9627 	 
C 	 -14.0942 	 -4.66719 	 83.2982 	 
C 	 -12.8302 	 -5.20693 	 83.4373 	 
H 	 -15.2394 	 -3.64777 	 81.5258 	 
C 	 -15.2775 	 -4.84787 	 84.2537 	 
H 	 -16.1215 	 -4.41732 	 83.7959 	 
H 	 -14.9538 	 -4.16928 	 85.0511 	 
C 	 -15.5359 	 -6.34309 	 84.5502 	 
H 	 -14.6242 	 -6.89379 	 84.7134 	 
H 	 -16.0223 	 -6.85223 	 83.6703 	 
C 	 -16.5025 	 -6.48282 	 85.7825 	 
H 	 -16.1657 	 -6.04093 	 86.7123 	 
H 	 -16.7193 	 -7.50519 	 86.0717 	 
H 	 -17.567 	 -6.19045 	 85.4998 	 
H 	 -9.73927 	 -7.60453 	 86.4912 	 
H 	 -13.1008 	 -3.76104 	 80.2365 	 
*
