! wB97X-D3 SP def2-SVP
%pal
nprocs 16
end

* xyz 0 1
S 	 18.2842 	 3.57507 	 85.8703 	 
C 	 19.423 	 4.84983 	 86.2301 	 
C 	 18.7775 	 6.00111 	 86.7179 	 
C 	 17.3385 	 5.83582 	 86.6447 	 
C 	 16.8675 	 4.61594 	 86.1628 	 
H 	 16.5406 	 6.53386 	 86.9402 	 
C 	 19.4872 	 7.24295 	 87.2538 	 
H 	 19.1254 	 8.21858 	 86.7973 	 
H 	 20.5661 	 7.21453 	 86.9502 	 
C 	 19.406 	 7.53088 	 88.7341 	 
H 	 18.3756 	 7.75757 	 89.0137 	 
H 	 19.6369 	 6.67679 	 89.3198 	 
C 	 20.2733 	 8.6668 	 89.1066 	 
H 	 20.0067 	 9.5534 	 88.5431 	 
H 	 20.1344 	 9.05988 	 90.1194 	 
H 	 21.2942 	 8.42143 	 88.9763 	 
S 	 15.2442 	 2.43441 	 86.4839 	 
C 	 13.6119 	 2.69474 	 86.8075 	 
C 	 13.2213 	 3.91332 	 86.4348 	 
C 	 14.2936 	 4.76904 	 86.084 	 
C 	 15.5107 	 4.10484 	 86.1411 	 
H 	 12.2226 	 4.22013 	 86.5179 	 
C 	 13.9956 	 6.26277 	 85.7414 	 
H 	 14.9443 	 6.78834 	 85.7681 	 
H 	 13.3821 	 6.66697 	 86.6379 	 
C 	 13.3534 	 6.48052 	 84.3433 	 
H 	 12.344 	 6.18372 	 84.3322 	 
H 	 13.8977 	 6.00629 	 83.5537 	 
C 	 13.3818 	 7.98648 	 83.8462 	 
H 	 13.137 	 7.99911 	 82.7755 	 
H 	 14.389 	 8.25559 	 83.9862 	 
H 	 12.8526 	 8.70292 	 84.4551 	 
H 	 20.5226 	 4.74492 	 86.1377 	 
H 	 12.8557 	 1.9554 	 87.1716 	 
*
