! wB97X-D3 SP def2-SVP
%pal
nprocs 16
end

* xyz 0 1
S 	 7.17313 	 16.0076 	 85.6467 	 
C 	 5.58604 	 15.9332 	 85.0026 	 
C 	 4.78098 	 15.0482 	 85.6372 	 
C 	 5.50425 	 14.4219 	 86.7181 	 
C 	 6.78131 	 14.8236 	 86.8886 	 
H 	 5.19965 	 13.7874 	 87.4826 	 
C 	 3.33752 	 14.7531 	 85.3367 	 
H 	 3.39245 	 13.7009 	 85.1242 	 
H 	 2.93043 	 15.2449 	 84.46 	 
C 	 2.37125 	 14.7698 	 86.5188 	 
H 	 2.95749 	 14.3027 	 87.3766 	 
H 	 2.14222 	 15.8403 	 86.6871 	 
C 	 1.12244 	 13.8468 	 86.3341 	 
H 	 0.724145 	 14.0318 	 85.4264 	 
H 	 1.34034 	 12.7704 	 86.5221 	 
H 	 0.393357 	 14.2371 	 87.0272 	 
S 	 8.67256 	 15.5241 	 88.7743 	 
C 	 9.61022 	 14.3265 	 89.4872 	 
C 	 9.07182 	 13.0783 	 89.2801 	 
C 	 8.07699 	 13.0945 	 88.2693 	 
C 	 7.60938 	 14.3486 	 87.983 	 
H 	 9.54195 	 12.2684 	 89.7855 	 
C 	 7.69495 	 11.808 	 87.608 	 
H 	 6.66772 	 11.7862 	 87.1903 	 
H 	 7.64545 	 11.0896 	 88.3776 	 
C 	 8.75461 	 11.2997 	 86.6573 	 
H 	 9.68281 	 11.383 	 87.188 	 
H 	 8.86933 	 11.9127 	 85.7585 	 
C 	 8.41992 	 9.88873 	 86.2862 	 
H 	 7.32125 	 9.88837 	 86.0873 	 
H 	 8.59757 	 9.31341 	 87.1522 	 
H 	 8.93427 	 9.38924 	 85.4575 	 
H 	 5.26784 	 16.6523 	 84.2543 	 
H 	 10.5278 	 14.5815 	 90.0244 	 
*
