! wB97X-D3 SP def2-SVP
%pal
nprocs 16
end

* xyz 0 1
S 	 37.7607 	 28.0384 	 54.4086 	 
C 	 38.3738 	 29.6198 	 54.4423 	 
C 	 37.6503 	 30.4734 	 55.2919 	 
C 	 36.7377 	 29.7106 	 56.0631 	 
C 	 36.5875 	 28.372 	 55.6347 	 
H 	 36.2273 	 30.1107 	 56.9325 	 
C 	 37.8396 	 32.0097 	 55.5969 	 
H 	 38.6496 	 32.3746 	 54.9919 	 
H 	 38.1901 	 32.0287 	 56.6575 	 
C 	 36.6285 	 32.8519 	 55.5355 	 
H 	 35.796 	 32.3919 	 56.0125 	 
H 	 36.851 	 33.7698 	 56.0755 	 
C 	 36.2989 	 33.412 	 54.1452 	 
H 	 37.0193 	 34.2628 	 54.0935 	 
H 	 36.5273 	 32.7148 	 53.333 	 
H 	 35.2507 	 33.7063 	 53.9219 	 
S 	 34.9879 	 26.1707 	 54.9961 	 
C 	 34.1145 	 25.4107 	 56.3952 	 
C 	 34.3486 	 26.0433 	 57.5752 	 
C 	 35.2041 	 27.168 	 57.4616 	 
C 	 35.5869 	 27.4212 	 56.1447 	 
H 	 33.9286 	 25.735 	 58.5071 	 
C 	 35.6111 	 27.8768 	 58.6727 	 
H 	 34.7425 	 27.9784 	 59.2847 	 
H 	 35.9986 	 28.9303 	 58.6145 	 
C 	 36.655 	 27.2672 	 59.5916 	 
H 	 37.6009 	 26.9918 	 59.1119 	 
H 	 36.3185 	 26.3203 	 59.8339 	 
C 	 36.8626 	 28.0247 	 60.9133 	 
H 	 37.6189 	 27.5209 	 61.6427 	 
H 	 35.9243 	 28.051 	 61.5572 	 
H 	 37.3481 	 29.0062 	 60.749 	 
H 	 39.2036 	 30.0295 	 53.8122 	 
H 	 33.325 	 24.6717 	 56.1778 	 
*
