! wB97X-D3 SP def2-SVP
%pal
nprocs 16
end

* xyz 0 1
S 	 -0.174326 	 -17.3724 	 87.262 	 
C 	 -0.995249 	 -18.8098 	 86.6463 	 
C 	 -0.216565 	 -19.7245 	 86.0181 	 
C 	 1.10981 	 -19.236 	 85.8459 	 
C 	 1.31755 	 -18.0249 	 86.4298 	 
H 	 1.99066 	 -19.7531 	 85.425 	 
C 	 -0.743877 	 -20.972 	 85.3248 	 
H 	 -0.0261484 	 -21.3182 	 84.5551 	 
H 	 -1.64598 	 -20.701 	 84.8563 	 
C 	 -1.05297 	 -22.1825 	 86.1981 	 
H 	 -0.0809171 	 -22.5118 	 86.6599 	 
H 	 -1.66401 	 -21.8933 	 87.04 	 
C 	 -1.79356 	 -23.3295 	 85.4132 	 
H 	 -2.86597 	 -23.1574 	 85.2356 	 
H 	 -1.42224 	 -23.5098 	 84.3412 	 
H 	 -1.89736 	 -24.2196 	 85.9821 	 
S 	 3.04783 	 -16.7665 	 88.0406 	 
C 	 4.43388 	 -15.9625 	 87.3984 	 
C 	 4.64661 	 -16.2733 	 86.0829 	 
C 	 3.68373 	 -17.1795 	 85.5774 	 
C 	 2.63363 	 -17.3493 	 86.4756 	 
H 	 5.51298 	 -15.8764 	 85.557 	 
C 	 3.81315 	 -17.6165 	 84.1696 	 
H 	 3.71806 	 -16.7162 	 83.5286 	 
H 	 2.97653 	 -18.1603 	 83.8718 	 
C 	 5.05118 	 -18.5591 	 83.8931 	 
H 	 5.05385 	 -19.4594 	 84.5309 	 
H 	 6.01034 	 -18.1215 	 84.1784 	 
C 	 5.17837 	 -19.0556 	 82.45 	 
H 	 6.05656 	 -19.6761 	 82.4629 	 
H 	 5.4303 	 -18.2922 	 81.7714 	 
H 	 4.33527 	 -19.5387 	 82.037 	 
H 	 -2.02883 	 -19.0114 	 86.7737 	 
H 	 5.10223 	 -15.4099 	 88.0349 	 
*
