! wB97X-D3 SP def2-SVP
%pal
nprocs 16
end

* xyz 0 1
S 	 37.4149 	 12.3226 	 79.3019 	 
C 	 37.9986 	 13.2413 	 80.6415 	 
C 	 38.7195 	 14.3331 	 80.238 	 
C 	 38.638 	 14.5223 	 78.8182 	 
C 	 38.0311 	 13.4676 	 78.1508 	 
H 	 39.1967 	 15.2955 	 78.3641 	 
C 	 39.5068 	 15.2253 	 81.1778 	 
H 	 38.9631 	 15.6277 	 82.0009 	 
H 	 39.62 	 16.1393 	 80.5966 	 
C 	 40.8851 	 14.6821 	 81.6836 	 
H 	 40.7813 	 14.3163 	 82.7213 	 
H 	 41.0676 	 13.8566 	 80.9485 	 
C 	 41.994 	 15.8263 	 81.6658 	 
H 	 41.9684 	 16.4501 	 82.5106 	 
H 	 42.9 	 15.2281 	 81.7969 	 
H 	 42.2091 	 16.4331 	 80.7878 	 
S 	 36.2592 	 13.3278 	 76.1138 	 
C 	 36.7479 	 12.8532 	 74.4918 	 
C 	 38.124 	 12.7498 	 74.5057 	 
C 	 38.8026 	 13.1357 	 75.6991 	 
C 	 37.8998 	 13.1858 	 76.7127 	 
H 	 38.5593 	 12.3507 	 73.6376 	 
C 	 40.3047 	 13.0467 	 75.716 	 
H 	 40.4776 	 13.7073 	 76.5708 	 
H 	 40.6984 	 13.5493 	 74.8424 	 
C 	 41.0118 	 11.6747 	 75.9038 	 
H 	 42.0122 	 11.8894 	 75.5564 	 
H 	 40.5839 	 10.9511 	 75.1667 	 
C 	 40.9991 	 11.1617 	 77.342 	 
H 	 41.2489 	 10.1055 	 77.4891 	 
H 	 39.9963 	 11.2907 	 77.8636 	 
H 	 41.7666 	 11.5837 	 77.9774 	 
H 	 37.9679 	 12.9517 	 81.7038 	 
H 	 36.157 	 12.6018 	 73.6426 	 
*
