! wB97X-D3 SP def2-SVP
%pal
nprocs 16
end

* xyz 0 1
S 	 -39.2801 	 40.66 	 94.6117 	 
C 	 -40.8967 	 40.7013 	 93.9743 	 
C 	 -41.5864 	 39.5129 	 94.2698 	 
C 	 -40.6677 	 38.5538 	 94.8194 	 
C 	 -39.4239 	 38.9782 	 95.2175 	 
H 	 -40.9221 	 37.5365 	 95.1143 	 
C 	 -43.0626 	 39.2878 	 93.965 	 
H 	 -43.5971 	 39.874 	 94.6722 	 
H 	 -43.3192 	 38.2813 	 94.1393 	 
C 	 -43.4632 	 39.6373 	 92.5177 	 
H 	 -43.493 	 40.7049 	 92.3428 	 
H 	 -42.8279 	 39.1147 	 91.8422 	 
C 	 -44.947 	 39.193 	 92.3038 	 
H 	 -45.4333 	 39.4455 	 91.3275 	 
H 	 -45.0068 	 38.1325 	 92.56 	 
H 	 -45.6362 	 39.7489 	 92.8951 	 
S 	 -36.8698 	 38.0742 	 95.1078 	 
C 	 -36.1388 	 37.464 	 96.5833 	 
C 	 -37.1295 	 37.2221 	 97.5364 	 
C 	 -38.4292 	 37.6394 	 97.1616 	 
C 	 -38.3695 	 38.3226 	 95.9582 	 
H 	 -36.835 	 36.7196 	 98.3403 	 
C 	 -39.5806 	 37.4158 	 98.1349 	 
H 	 -39.3068 	 36.502 	 98.6743 	 
H 	 -40.5219 	 37.2539 	 97.5958 	 
C 	 -39.8345 	 38.6428 	 99.0881 	 
H 	 -40.275 	 39.4922 	 98.5046 	 
H 	 -38.9499 	 39.0033 	 99.6376 	 
C 	 -40.8882 	 38.2758 	 100.169 	 
H 	 -41.8566 	 38.1681 	 99.6776 	 
H 	 -40.9947 	 39.1571 	 100.87 	 
H 	 -40.7144 	 37.3339 	 100.746 	 
H 	 -41.5005 	 41.5291 	 93.5267 	 
H 	 -35.1233 	 37.1524 	 96.7282 	 
*
