! wB97X-D3 SP def2-SVP
%pal
nprocs 16
end

* xyz 0 1
S 	 -84.3101 	 54.4019 	 135.96 	 
C 	 -84.5179 	 52.8403 	 136.661 	 
C 	 -83.6166 	 52.4976 	 137.643 	 
C 	 -82.5778 	 53.5023 	 137.732 	 
C 	 -82.8156 	 54.5595 	 136.853 	 
H 	 -81.7004 	 53.458 	 138.246 	 
C 	 -83.7278 	 51.1863 	 138.424 	 
H 	 -84.1723 	 50.4736 	 137.656 	 
H 	 -84.5071 	 51.2605 	 139.16 	 
C 	 -82.449 	 50.586 	 138.917 	 
H 	 -81.7043 	 50.4126 	 138.129 	 
H 	 -82.1301 	 51.3614 	 139.593 	 
C 	 -82.6567 	 49.3414 	 139.801 	 
H 	 -83.5403 	 49.484 	 140.403 	 
H 	 -82.8583 	 48.5042 	 139.126 	 
H 	 -81.8326 	 48.8779 	 140.312 	 
S 	 -82.3576 	 57.2193 	 136.541 	 
C 	 -80.8795 	 57.7257 	 135.854 	 
C 	 -79.9496 	 56.7193 	 135.797 	 
C 	 -80.5559 	 55.3887 	 135.941 	 
C 	 -81.8539 	 55.5397 	 136.398 	 
H 	 -78.8188 	 56.8171 	 135.672 	 
C 	 -79.8323 	 54.0409 	 135.831 	 
H 	 -80.2732 	 53.6445 	 134.947 	 
H 	 -80.1854 	 53.4068 	 136.602 	 
C 	 -78.3306 	 54.0847 	 135.743 	 
H 	 -77.9024 	 54.7074 	 134.864 	 
H 	 -78.099 	 53.0163 	 135.484 	 
C 	 -77.5913 	 54.4937 	 137.074 	 
H 	 -76.574 	 54.7102 	 136.866 	 
H 	 -77.8037 	 53.6753 	 137.817 	 
H 	 -78.1198 	 55.4097 	 137.357 	 
H 	 -85.3031 	 52.1329 	 136.366 	 
H 	 -80.5899 	 58.759 	 135.923 	 
*
