! wB97X-D3 SP def2-SVP
%pal
nprocs 16
end

* xyz 0 1
S 	 2.14071 	 19.4866 	 50.4784 	 
C 	 1.34824 	 17.9849 	 50.8949 	 
C 	 2.30898 	 17.0387 	 51.3373 	 
C 	 3.6492 	 17.5437 	 51.1608 	 
C 	 3.71561 	 18.8855 	 50.8508 	 
H 	 4.53591 	 17.0582 	 51.5493 	 
C 	 2.08411 	 15.6318 	 51.7735 	 
H 	 1.26309 	 15.2704 	 51.1734 	 
H 	 1.78828 	 15.5554 	 52.7683 	 
C 	 3.06606 	 14.5623 	 51.3529 	 
H 	 3.51726 	 14.8026 	 50.3903 	 
H 	 3.83081 	 14.7337 	 52.0879 	 
C 	 2.42227 	 13.1622 	 51.4189 	 
H 	 2.1179 	 12.9676 	 52.4481 	 
H 	 1.47543 	 13.0528 	 50.9323 	 
H 	 3.11775 	 12.4249 	 51.0276 	 
S 	 5.79921 	 19.603 	 52.2098 	 
C 	 6.91145 	 20.7999 	 51.5933 	 
C 	 6.50269 	 21.3772 	 50.4231 	 
C 	 5.29784 	 20.7743 	 49.9987 	 
C 	 4.89426 	 19.7427 	 50.7994 	 
H 	 7.12796 	 22.0969 	 49.9724 	 
C 	 4.60099 	 21.2144 	 48.7426 	 
H 	 3.89717 	 22.0524 	 49.0193 	 
H 	 3.96758 	 20.5033 	 48.2619 	 
C 	 5.5224 	 21.808 	 47.672 	 
H 	 5.83712 	 22.7805 	 48.1632 	 
H 	 4.93952 	 22.0629 	 46.7452 	 
C 	 6.74092 	 20.8827 	 47.3383 	 
H 	 7.45379 	 21.389 	 46.666 	 
H 	 6.44957 	 20.0098 	 46.8031 	 
H 	 7.17009 	 20.408 	 48.1546 	 
H 	 0.325863 	 17.8059 	 50.6089 	 
H 	 7.76054 	 21.1878 	 52.0613 	 
*
