! wB97X-D3 SP def2-SVP
%pal
nprocs 16
end

* xyz 0 1
S 	 -90.8824 	 40.7616 	 118.036 	 
C 	 -89.8835 	 39.6662 	 119.008 	 
C 	 -90.5148 	 38.3931 	 118.977 	 
C 	 -91.6655 	 38.303 	 118.135 	 
C 	 -91.9929 	 39.4674 	 117.456 	 
H 	 -92.317 	 37.4632 	 118.016 	 
C 	 -90.1989 	 37.1771 	 119.858 	 
H 	 -90.4591 	 36.2055 	 119.365 	 
H 	 -90.9461 	 37.1494 	 120.655 	 
C 	 -88.7401 	 37.1161 	 120.418 	 
H 	 -88.0572 	 36.7519 	 119.632 	 
H 	 -88.4407 	 38.0302 	 120.841 	 
C 	 -88.4203 	 35.9928 	 121.487 	 
H 	 -88.8375 	 36.2764 	 122.416 	 
H 	 -88.8431 	 35.0213 	 121.141 	 
H 	 -87.3787 	 35.7063 	 121.691 	 
S 	 -94.3136 	 40.9576 	 117.737 	 
C 	 -95.5696 	 40.8307 	 116.489 	 
C 	 -95.1476 	 40.0418 	 115.402 	 
C 	 -93.8408 	 39.5068 	 115.582 	 
C 	 -93.2936 	 39.8377 	 116.834 	 
H 	 -95.731 	 40.0487 	 114.556 	 
C 	 -93.2408 	 38.6385 	 114.492 	 
H 	 -92.507 	 37.9838 	 114.915 	 
H 	 -92.8094 	 39.3547 	 113.771 	 
C 	 -94.2141 	 37.837 	 113.642 	 
H 	 -94.7957 	 38.4553 	 113.052 	 
H 	 -94.9101 	 37.3256 	 114.288 	 
C 	 -93.5364 	 36.878 	 112.693 	 
H 	 -93.281 	 35.9028 	 113.233 	 
H 	 -92.8069 	 37.4108 	 112.144 	 
H 	 -94.2081 	 36.5887 	 111.88 	 
H 	 -89.2113 	 40.0464 	 119.769 	 
H 	 -96.5305 	 41.2831 	 116.678 	 
*
