! wB97X-D3 SP def2-SVP
%pal
nprocs 16
end

* xyz 0 1
S 	 12.6727 	 24.9126 	 65.7034 	 
C 	 12.7069 	 26.4531 	 64.8607 	 
C 	 12.7849 	 27.5356 	 65.7338 	 
C 	 12.7219 	 27.1464 	 67.1401 	 
C 	 12.746 	 25.791 	 67.2747 	 
H 	 12.7987 	 27.8156 	 67.9368 	 
C 	 13.0156 	 28.9909 	 65.3199 	 
H 	 12.4201 	 29.6406 	 65.9437 	 
H 	 12.6383 	 29.183 	 64.3284 	 
C 	 14.5186 	 29.4111 	 65.2281 	 
H 	 14.5168 	 30.5 	 65.2024 	 
H 	 14.8767 	 29.2013 	 66.243 	 
C 	 15.2984 	 28.5417 	 64.2101 	 
H 	 16.2702 	 28.8937 	 64.0136 	 
H 	 15.6104 	 27.5504 	 64.567 	 
H 	 14.7004 	 28.3636 	 63.3026 	 
S 	 11.6666 	 23.5219 	 68.3192 	 
C 	 11.7496 	 23.086 	 69.9728 	 
C 	 12.7228 	 23.907 	 70.5745 	 
C 	 13.1794 	 24.9654 	 69.7589 	 
C 	 12.633 	 24.9581 	 68.4864 	 
H 	 12.8826 	 23.7363 	 71.6034 	 
C 	 14.1497 	 26.0848 	 70.23 	 
H 	 14.5863 	 26.7123 	 69.4243 	 
H 	 14.9899 	 25.5002 	 70.6622 	 
C 	 13.4991 	 26.9705 	 71.3157 	 
H 	 14.2391 	 27.6731 	 71.7372 	 
H 	 13.2207 	 26.2392 	 72.0742 	 
C 	 12.3156 	 27.81 	 70.9117 	 
H 	 12.6211 	 28.4954 	 70.1219 	 
H 	 12.0926 	 28.3952 	 71.7875 	 
H 	 11.361 	 27.2806 	 70.7009 	 
H 	 12.8628 	 26.5866 	 63.8202 	 
H 	 11.1042 	 22.422 	 70.5628 	 
*
