! wB97X-D3 SP def2-SVP
%pal
nprocs 16
end

* xyz 0 1
S 	 -107.379 	 40.5673 	 129.542 	 
C 	 -106.438 	 40.5621 	 131.025 	 
C 	 -107.254 	 41.0171 	 132.067 	 
C 	 -108.571 	 41.2181 	 131.69 	 
C 	 -108.831 	 40.9154 	 130.408 	 
H 	 -109.303 	 41.6843 	 132.375 	 
C 	 -106.712 	 41.3098 	 133.447 	 
H 	 -106.979 	 42.251 	 133.92 	 
H 	 -105.634 	 41.4846 	 133.415 	 
C 	 -106.923 	 40.1198 	 134.369 	 
H 	 -106.558 	 40.3035 	 135.388 	 
H 	 -108.024 	 39.9532 	 134.469 	 
C 	 -106.348 	 38.7751 	 133.972 	 
H 	 -106.581 	 37.9856 	 134.673 	 
H 	 -106.751 	 38.4448 	 133.045 	 
H 	 -105.302 	 38.9106 	 133.822 	 
S 	 -110.032 	 40.9261 	 128.006 	 
C 	 -111.764 	 40.9389 	 127.894 	 
C 	 -112.355 	 41.1239 	 129.103 	 
C 	 -111.386 	 41.1329 	 130.179 	 
C 	 -110.07 	 41.0057 	 129.727 	 
H 	 -113.456 	 41.083 	 129.037 	 
C 	 -111.968 	 41.2051 	 131.618 	 
H 	 -111.416 	 40.6897 	 132.38 	 
H 	 -112.933 	 40.67 	 131.659 	 
C 	 -112.297 	 42.6146 	 132.196 	 
H 	 -112.942 	 43.1244 	 131.489 	 
H 	 -111.363 	 43.2517 	 132.031 	 
C 	 -112.829 	 42.5747 	 133.625 	 
H 	 -113.027 	 43.5966 	 133.934 	 
H 	 -112.054 	 42.1654 	 134.285 	 
H 	 -113.746 	 41.9473 	 133.783 	 
H 	 -105.391 	 40.3036 	 131.023 	 
H 	 -112.45 	 40.624 	 127.115 	 
*
