! wB97X-D3 SP def2-SVP
%pal
nprocs 16
end

* xyz 0 1
S 	 0.100042 	 -23.1152 	 61.0686 	 
C 	 0.399654 	 -23.1516 	 59.362 	 
C 	 1.63179 	 -22.6047 	 59.0336 	 
C 	 2.33488 	 -22.1567 	 60.2214 	 
C 	 1.64888 	 -22.3704 	 61.382 	 
H 	 3.30736 	 -21.6624 	 60.2352 	 
C 	 2.15187 	 -22.5382 	 57.5829 	 
H 	 1.41573 	 -22.1873 	 56.844 	 
H 	 2.31064 	 -23.5475 	 57.421 	 
C 	 3.42236 	 -21.7118 	 57.2557 	 
H 	 4.29949 	 -22.138 	 57.8424 	 
H 	 3.79473 	 -22.0271 	 56.245 	 
C 	 3.42518 	 -20.2254 	 57.4376 	 
H 	 3.24889 	 -19.9118 	 58.4856 	 
H 	 4.3787 	 -19.8473 	 57.1352 	 
H 	 2.72323 	 -19.7752 	 56.7205 	 
S 	 0.71697 	 -20.9435 	 63.4832 	 
C 	 1.91878 	 -20.1222 	 64.5634 	 
C 	 3.2082 	 -20.5662 	 64.3566 	 
C 	 3.27904 	 -21.6274 	 63.3222 	 
C 	 2.00639 	 -21.8687 	 62.7397 	 
H 	 4.02975 	 -20.0257 	 64.7467 	 
C 	 4.64354 	 -22.2188 	 62.9298 	 
H 	 5.45596 	 -21.519 	 63.308 	 
H 	 4.8229 	 -22.2163 	 61.8508 	 
C 	 4.96474 	 -23.5691 	 63.5495 	 
H 	 4.68942 	 -23.6268 	 64.5736 	 
H 	 6.04193 	 -23.7848 	 63.5882 	 
C 	 4.32338 	 -24.6939 	 62.7859 	 
H 	 4.99471 	 -24.9129 	 61.9102 	 
H 	 3.37196 	 -24.389 	 62.3558 	 
H 	 4.20705 	 -25.5528 	 63.4301 	 
H 	 -0.254109 	 -23.4325 	 58.5385 	 
H 	 1.72767 	 -19.385 	 65.2862 	 
*
