! wB97X-D3 SP def2-SVP
%pal
nprocs 16
end

* xyz 0 1
S 	 46.5521 	 13.0379 	 50.1586 	 
C 	 45.812 	 11.4879 	 49.8664 	 
C 	 44.5557 	 11.4205 	 50.3424 	 
C 	 44.14 	 12.5646 	 51.0751 	 
C 	 45.1555 	 13.539 	 51.1783 	 
H 	 43.1712 	 12.6329 	 51.5929 	 
C 	 43.6733 	 10.1021 	 50.3217 	 
H 	 44.1608 	 9.25058 	 50.7566 	 
H 	 43.7679 	 9.73992 	 49.2454 	 
C 	 42.1917 	 10.1233 	 50.7031 	 
H 	 41.7714 	 11.0032 	 50.255 	 
H 	 41.5893 	 9.29041 	 50.3598 	 
C 	 41.7699 	 9.99581 	 52.1482 	 
H 	 42.1576 	 10.9101 	 52.5968 	 
H 	 40.6992 	 10.0607 	 52.056 	 
H 	 42.0441 	 9.02868 	 52.676 	 
S 	 46.0723 	 16.0076 	 51.2885 	 
C 	 45.456 	 17.1274 	 52.4195 	 
C 	 44.4541 	 16.6362 	 53.2288 	 
C 	 44.2648 	 15.2471 	 52.9839 	 
C 	 45.0698 	 14.7709 	 51.9438 	 
H 	 44.0023 	 17.4138 	 53.8532 	 
C 	 43.1609 	 14.4723 	 53.712 	 
H 	 43.3581 	 13.4837 	 53.4072 	 
H 	 42.2333 	 14.7771 	 53.2492 	 
C 	 43.0072 	 14.5419 	 55.1781 	 
H 	 41.8995 	 14.4737 	 55.2907 	 
H 	 43.268 	 15.5401 	 55.4851 	 
C 	 43.7605 	 13.555 	 56.0693 	 
H 	 44.1914 	 12.7007 	 55.4899 	 
H 	 43.1151 	 13.221 	 56.8988 	 
H 	 44.5834 	 14.1076 	 56.4743 	 
H 	 46.3427 	 10.7086 	 49.4158 	 
H 	 45.7227 	 18.1947 	 52.5475 	 
*
