! wB97X-D3 SP def2-SVP
%pal
nprocs 16
end

* xyz 0 1
S 	 53.6298 	 4.74217 	 81.4506 	 
C 	 54.1843 	 3.14312 	 81.0091 	 
C 	 54.0525 	 2.26059 	 82.0302 	 
C 	 53.5163 	 2.82147 	 83.2321 	 
C 	 53.4066 	 4.22694 	 83.1015 	 
H 	 53.2242 	 2.33413 	 84.1927 	 
C 	 54.2762 	 0.799673 	 81.7971 	 
H 	 55.4142 	 0.872011 	 81.506 	 
H 	 53.686 	 0.567597 	 80.9611 	 
C 	 53.9901 	 -0.240219 	 82.899 	 
H 	 54.6308 	 -0.185377 	 83.8362 	 
H 	 52.9197 	 -0.181699 	 83.1834 	 
C 	 54.1056 	 -1.66908 	 82.4225 	 
H 	 55.149 	 -1.89506 	 82.1198 	 
H 	 53.9314 	 -2.26526 	 83.3078 	 
H 	 53.4388 	 -1.86025 	 81.5378 	 
S 	 51.7287 	 6.29914 	 83.8898 	 
C 	 51.4414 	 6.67874 	 85.5852 	 
C 	 52.3556 	 5.91738 	 86.2731 	 
C 	 53.1871 	 5.08426 	 85.5199 	 
C 	 52.9016 	 5.06625 	 84.1772 	 
H 	 52.5165 	 5.98566 	 87.3476 	 
C 	 54.2321 	 4.22352 	 86.1622 	 
H 	 54.687 	 4.79811 	 86.9233 	 
H 	 55.0516 	 3.98504 	 85.4726 	 
C 	 53.612 	 2.98956 	 86.8066 	 
H 	 53.0592 	 2.37403 	 86.0676 	 
H 	 52.9366 	 3.26093 	 87.6169 	 
C 	 54.5627 	 2.01492 	 87.4432 	 
H 	 55.2766 	 1.66699 	 86.7381 	 
H 	 54.0822 	 1.19952 	 87.9163 	 
H 	 55.0939 	 2.43796 	 88.3276 	 
H 	 54.5439 	 2.82397 	 80.069 	 
H 	 50.7737 	 7.52471 	 85.9559 	 
*
