! wB97X-D3 SP def2-SVP
%pal
nprocs 16
end

* xyz 0 1
S 	 39.2349 	 30.765 	 92.9758 	 
C 	 39.6712 	 30.6788 	 91.2442 	 
C 	 38.6594 	 30.0637 	 90.505 	 
C 	 37.6027 	 29.5215 	 91.3525 	 
C 	 37.9045 	 29.6316 	 92.6807 	 
H 	 36.7044 	 28.9703 	 91.1403 	 
C 	 38.8037 	 29.7829 	 89.0411 	 
H 	 38.0169 	 29.0917 	 88.7386 	 
H 	 39.723 	 29.152 	 88.8196 	 
C 	 38.7803 	 30.9348 	 88.0787 	 
H 	 39.7218 	 31.5389 	 88.0187 	 
H 	 38.7723 	 30.4445 	 87.1004 	 
C 	 37.5334 	 31.8041 	 87.9404 	 
H 	 37.3792 	 32.4728 	 88.7864 	 
H 	 37.681 	 32.3368 	 87.0376 	 
H 	 36.6348 	 31.1695 	 87.7023 	 
S 	 35.3558 	 29.433 	 93.6902 	 
C 	 35.1322 	 28.56 	 95.1627 	 
C 	 36.3098 	 28.1108 	 95.6631 	 
C 	 37.4931 	 28.3612 	 94.8415 	 
C 	 37.1144 	 29.07 	 93.7438 	 
H 	 36.3558 	 27.56 	 96.5612 	 
C 	 38.9067 	 27.8988 	 95.1529 	 
H 	 39.4191 	 28.7587 	 95.525 	 
H 	 39.5102 	 27.6996 	 94.2185 	 
C 	 39.0224 	 26.658 	 96.076 	 
H 	 38.4522 	 25.8377 	 95.5378 	 
H 	 38.4868 	 26.7116 	 97.018 	 
C 	 40.4361 	 26.1442 	 96.3643 	 
H 	 40.4808 	 25.1081 	 96.6857 	 
H 	 40.885 	 26.7325 	 97.2215 	 
H 	 41.1284 	 26.1685 	 95.5031 	 
H 	 40.5323 	 30.9715 	 90.7196 	 
H 	 34.2706 	 28.3677 	 95.6871 	 
*
