! wB97X-D3 SP def2-SVP
%pal
nprocs 16
end

* xyz 0 1
S 	 -90.8835 	 41.9338 	 119.67 	 
C 	 -90.0248 	 40.453 	 120.086 	 
C 	 -90.1395 	 39.5914 	 119.069 	 
C 	 -90.8065 	 40.0918 	 117.901 	 
C 	 -91.2225 	 41.4126 	 118.064 	 
H 	 -90.9451 	 39.5626 	 116.955 	 
C 	 -89.607 	 38.1968 	 119.061 	 
H 	 -88.5288 	 38.2803 	 119.161 	 
H 	 -89.6926 	 37.7616 	 118.066 	 
C 	 -90.2337 	 37.3451 	 120.171 	 
H 	 -89.7136 	 37.347 	 121.197 	 
H 	 -91.1834 	 37.6915 	 120.476 	 
C 	 -90.4471 	 35.8682 	 119.79 	 
H 	 -90.9795 	 35.8949 	 118.825 	 
H 	 -89.4814 	 35.3008 	 119.739 	 
H 	 -91.0555 	 35.3273 	 120.473 	 
S 	 -92.4419 	 43.7898 	 117.684 	 
C 	 -93.2124 	 44.2622 	 116.22 	 
C 	 -93.0564 	 43.2033 	 115.293 	 
C 	 -92.3584 	 42.0587 	 115.814 	 
C 	 -91.9302 	 42.2906 	 117.067 	 
H 	 -93.4422 	 43.3165 	 114.311 	 
C 	 -92.2124 	 40.8062 	 114.928 	 
H 	 -91.2156 	 40.3786 	 114.833 	 
H 	 -92.2817 	 41.2654 	 113.907 	 
C 	 -93.2637 	 39.7172 	 115.061 	 
H 	 -94.2339 	 40.141 	 114.821 	 
H 	 -93.3579 	 39.3375 	 116.101 	 
C 	 -92.9179 	 38.4341 	 114.31 	 
H 	 -92.0916 	 37.9245 	 114.799 	 
H 	 -92.8591 	 38.6083 	 113.218 	 
H 	 -93.689 	 37.6788 	 114.426 	 
H 	 -89.7677 	 40.1953 	 121.077 	 
H 	 -93.5194 	 45.2861 	 116.039 	 
*
