! wB97X-D3 SP def2-SVP
%pal
nprocs 16
end

* xyz 0 1
S 	 -110.837 	 60.625 	 120.739 	 
C 	 -109.292 	 61.1398 	 121.489 	 
C 	 -108.324 	 60.1646 	 121.481 	 
C 	 -108.843 	 58.9051 	 120.946 	 
C 	 -110.178 	 58.9366 	 120.657 	 
H 	 -108.381 	 57.952 	 121.11 	 
C 	 -106.917 	 60.4043 	 121.969 	 
H 	 -106.895 	 60.1393 	 123.037 	 
H 	 -106.614 	 61.4936 	 121.91 	 
C 	 -105.828 	 59.5937 	 121.314 	 
H 	 -104.943 	 59.7469 	 121.954 	 
H 	 -106.134 	 58.5722 	 121.371 	 
C 	 -105.413 	 59.9866 	 119.858 	 
H 	 -104.538 	 59.4742 	 119.423 	 
H 	 -106.264 	 59.6624 	 119.324 	 
H 	 -105.128 	 61.0811 	 119.739 	 
S 	 -112.281 	 57.671 	 121.724 	 
C 	 -112.446 	 55.9402 	 121.563 	 
C 	 -111.786 	 55.4447 	 120.509 	 
C 	 -110.873 	 56.4502 	 120.027 	 
C 	 -110.983 	 57.7471 	 120.577 	 
H 	 -111.906 	 54.4128 	 120.236 	 
C 	 -109.863 	 56.2109 	 118.966 	 
H 	 -109.484 	 55.2037 	 118.994 	 
H 	 -108.994 	 56.871 	 118.999 	 
C 	 -110.398 	 56.1837 	 117.519 	 
H 	 -109.548 	 55.9601 	 116.872 	 
H 	 -110.678 	 57.2488 	 117.256 	 
C 	 -111.475 	 55.191 	 117.163 	 
H 	 -112.447 	 55.5307 	 117.603 	 
H 	 -111.301 	 54.1897 	 117.547 	 
H 	 -111.593 	 55.142 	 116.082 	 
H 	 -109.122 	 62.2125 	 121.763 	 
H 	 -113.208 	 55.2973 	 122.02 	 
*
