! wB97X-D3 SP def2-SVP
%pal
nprocs 16
end

* xyz 0 1
S 	 -64.1291 	 62.081 	 125.962 	 
C 	 -63.1248 	 63.489 	 125.727 	 
C 	 -63.9575 	 64.4413 	 125.232 	 
C 	 -65.3496 	 64.168 	 125.284 	 
C 	 -65.6342 	 62.8579 	 125.569 	 
H 	 -66.1611 	 64.8049 	 125.06 	 
C 	 -63.4844 	 65.6954 	 124.609 	 
H 	 -63.849 	 65.6549 	 123.623 	 
H 	 -62.442 	 65.6541 	 124.426 	 
C 	 -63.8484 	 66.9297 	 125.453 	 
H 	 -64.755 	 66.7339 	 126.039 	 
H 	 -63.0222 	 67.0824 	 126.221 	 
C 	 -63.9503 	 68.1734 	 124.517 	 
H 	 -63.0114 	 68.4872 	 124.001 	 
H 	 -64.6476 	 68.0845 	 123.736 	 
H 	 -64.2254 	 69.0514 	 125.108 	 
S 	 -67.2971 	 61.2338 	 126.86 	 
C 	 -68.9861 	 61.0154 	 126.285 	 
C 	 -68.9906 	 61.286 	 124.938 	 
C 	 -67.8602 	 62.0185 	 124.481 	 
C 	 -66.899 	 62.1945 	 125.44 	 
H 	 -69.8652 	 60.9798 	 124.365 	 
C 	 -67.733 	 62.5149 	 123.018 	 
H 	 -67.4788 	 63.5479 	 123.14 	 
H 	 -68.6415 	 62.5805 	 122.447 	 
C 	 -66.8256 	 61.6682 	 122.21 	 
H 	 -67.2133 	 60.6184 	 122.129 	 
H 	 -65.9177 	 61.5316 	 122.78 	 
C 	 -66.5157 	 62.1622 	 120.819 	 
H 	 -67.366 	 62.0867 	 120.156 	 
H 	 -65.6112 	 61.6126 	 120.379 	 
H 	 -66.3368 	 63.1774 	 120.646 	 
H 	 -62.0519 	 63.3978 	 125.699 	 
H 	 -69.7865 	 60.3368 	 126.566 	 
*
