! wB97X-D3 SP def2-SVP
%pal
nprocs 16
end

* xyz 0 1
S 	 -29.211 	 54.7961 	 111.569 	 
C 	 -29.6639 	 55.9663 	 110.269 	 
C 	 -31.004 	 55.8646 	 109.911 	 
C 	 -31.6537 	 54.8709 	 110.722 	 
C 	 -30.8446 	 54.2628 	 111.669 	 
H 	 -32.624 	 54.5657 	 110.914 	 
C 	 -31.8393 	 56.8652 	 109.176 	 
H 	 -32.8862 	 56.5488 	 108.993 	 
H 	 -31.3831 	 56.7485 	 108.198 	 
C 	 -31.8155 	 58.2371 	 109.786 	 
H 	 -32.0627 	 58.1683 	 110.859 	 
H 	 -30.833 	 58.713 	 109.667 	 
C 	 -32.9168 	 59.1145 	 109.089 	 
H 	 -33.9197 	 58.6738 	 109.157 	 
H 	 -32.811 	 60.0676 	 109.572 	 
H 	 -32.6124 	 59.2457 	 108.019 	 
S 	 -32.7464 	 53.5065 	 113.458 	 
C 	 -32.8618 	 51.9824 	 114.14 	 
C 	 -31.681 	 51.2918 	 113.927 	 
C 	 -30.7684 	 51.9759 	 113.035 	 
C 	 -31.2486 	 53.1955 	 112.589 	 
H 	 -31.4838 	 50.3482 	 114.376 	 
C 	 -29.414 	 51.3944 	 112.577 	 
H 	 -29.2023 	 50.6411 	 113.285 	 
H 	 -28.6358 	 52.1762 	 112.595 	 
C 	 -29.3338 	 50.711 	 111.195 	 
H 	 -29.3913 	 51.4058 	 110.334 	 
H 	 -30.2748 	 50.1645 	 111.206 	 
C 	 -28.1313 	 49.7013 	 111.161 	 
H 	 -28.2291 	 48.8453 	 111.824 	 
H 	 -27.232 	 50.2302 	 111.415 	 
H 	 -28.0746 	 49.2995 	 110.153 	 
H 	 -29.0027 	 56.8123 	 109.92 	 
H 	 -33.5314 	 51.6801 	 114.941 	 
*
