! wB97X-D3 SP def2-SVP
%pal
nprocs 16
end

* xyz 0 1
S 	 -4.61279 	 9.82686 	 86.0084 	 
C 	 -4.45004 	 8.12489 	 86.3266 	 
C 	 -4.16966 	 7.3895 	 85.2526 	 
C 	 -4.024 	 8.21579 	 84.1366 	 
C 	 -4.21757 	 9.59507 	 84.3341 	 
H 	 -3.71852 	 7.86903 	 83.2177 	 
C 	 -4.12522 	 5.92511 	 85.1461 	 
H 	 -4.86421 	 5.73498 	 84.3023 	 
H 	 -4.57983 	 5.47615 	 86.0645 	 
C 	 -2.64964 	 5.38847 	 84.7655 	 
H 	 -2.18673 	 5.68406 	 83.7776 	 
H 	 -1.89888 	 5.80209 	 85.4222 	 
C 	 -2.54818 	 3.91223 	 84.7055 	 
H 	 -3.13269 	 3.56796 	 83.7991 	 
H 	 -1.54642 	 3.49325 	 84.5087 	 
H 	 -3.05866 	 3.47364 	 85.6203 	 
S 	 -5.45021 	 11.9609 	 83.5076 	 
C 	 -4.96595 	 12.6922 	 81.9722 	 
C 	 -4.04868 	 11.8742 	 81.3447 	 
C 	 -3.51589 	 10.778 	 82.1114 	 
C 	 -4.16317 	 10.7 	 83.3873 	 
H 	 -3.69716 	 12.0304 	 80.3624 	 
C 	 -2.43924 	 9.97318 	 81.4611 	 
H 	 -2.6438 	 9.96412 	 80.3654 	 
H 	 -2.64477 	 8.92563 	 81.7376 	 
C 	 -1.00357 	 10.4304 	 81.7516 	 
H 	 -0.899941 	 11.4434 	 81.3904 	 
H 	 -0.278694 	 9.87458 	 81.0976 	 
C 	 -0.486302 	 10.24 	 83.1021 	 
H 	 0.498483 	 10.6118 	 83.4065 	 
H 	 -0.449113 	 9.17878 	 83.5146 	 
H 	 -1.26754 	 10.7146 	 83.7559 	 
H 	 -4.7683 	 7.68767 	 87.2787 	 
H 	 -5.54615 	 13.3897 	 81.3986 	 
*
