! wB97X-D3 SP def2-SVP
%pal
nprocs 16
end

* xyz 0 1
S 	 -8.6915 	 62.0832 	 53.3206 	 
C 	 -8.22565 	 62.2427 	 54.9649 	 
C 	 -7.23112 	 63.1835 	 55.1816 	 
C 	 -6.71167 	 63.5676 	 53.9221 	 
C 	 -7.30146 	 63.019 	 52.7966 	 
H 	 -5.83118 	 64.2048 	 53.7693 	 
C 	 -6.44431 	 63.4741 	 56.4513 	 
H 	 -6.90734 	 62.8751 	 57.2363 	 
H 	 -6.67512 	 64.4921 	 56.7744 	 
C 	 -4.86277 	 63.2759 	 56.2657 	 
H 	 -4.41088 	 64.0243 	 55.6059 	 
H 	 -4.4048 	 63.5744 	 57.251 	 
C 	 -4.49606 	 61.9152 	 55.6986 	 
H 	 -3.4676 	 61.7354 	 55.9504 	 
H 	 -5.19564 	 61.1875 	 56.112 	 
H 	 -4.66936 	 61.7545 	 54.6349 	 
S 	 -8.56557 	 64.3344 	 50.6326 	 
C 	 -7.46942 	 64.9004 	 49.3933 	 
C 	 -6.15496 	 64.5638 	 49.6281 	 
C 	 -5.99567 	 63.7901 	 50.7946 	 
C 	 -7.20256 	 63.5757 	 51.4521 	 
H 	 -5.35888 	 65.1082 	 49.0344 	 
C 	 -4.66134 	 63.2143 	 51.1712 	 
H 	 -4.83166 	 62.5748 	 51.9662 	 
H 	 -4.23376 	 64.1047 	 51.5396 	 
C 	 -3.93172 	 62.5918 	 50.017 	 
H 	 -3.7815 	 63.4428 	 49.2486 	 
H 	 -4.3779 	 61.8287 	 49.4102 	 
C 	 -2.64125 	 61.8746 	 50.4584 	 
H 	 -2.89029 	 61.1369 	 51.2723 	 
H 	 -1.92738 	 62.5967 	 50.9467 	 
H 	 -2.09767 	 61.2532 	 49.7733 	 
H 	 -8.76865 	 61.7165 	 55.7156 	 
H 	 -7.77855 	 65.6177 	 48.6728 	 
*
