! wB97X-D3 SP def2-SVP
%pal
nprocs 16
end

* xyz 0 1
S 	 -45.0909 	 62.5955 	 137.768 	 
C 	 -44.4561 	 60.9506 	 137.514 	 
C 	 -45.4396 	 60.0327 	 137.633 	 
C 	 -46.7683 	 60.5714 	 137.823 	 
C 	 -46.7342 	 61.9952 	 137.851 	 
H 	 -47.6679 	 60.0378 	 138.051 	 
C 	 -45.2289 	 58.5515 	 137.92 	 
H 	 -45.4021 	 58.336 	 138.947 	 
H 	 -44.1672 	 58.3818 	 137.864 	 
C 	 -45.996 	 57.4526 	 137.188 	 
H 	 -47.0042 	 57.4433 	 137.567 	 
H 	 -46.0593 	 57.6063 	 136.142 	 
C 	 -45.4379 	 55.9964 	 137.444 	 
H 	 -44.6108 	 55.8314 	 136.817 	 
H 	 -45.2346 	 55.6802 	 138.466 	 
H 	 -46.2272 	 55.2792 	 137.159 	 
S 	 -47.9765 	 63.7571 	 139.535 	 
C 	 -49.3835 	 64.6125 	 138.873 	 
C 	 -49.5055 	 64.3264 	 137.515 	 
C 	 -48.668 	 63.3714 	 136.98 	 
C 	 -47.8519 	 62.8762 	 137.951 	 
H 	 -50.1839 	 64.9216 	 136.888 	 
C 	 -48.7001 	 62.9365 	 135.522 	 
H 	 -49.5669 	 63.3844 	 135.056 	 
H 	 -48.6211 	 61.881 	 135.395 	 
C 	 -47.5367 	 63.4358 	 134.637 	 
H 	 -46.7234 	 63.1332 	 135.153 	 
H 	 -47.3468 	 64.4998 	 134.69 	 
C 	 -47.5387 	 62.8649 	 133.193 	 
H 	 -46.6764 	 63.1868 	 132.612 	 
H 	 -48.3553 	 63.2275 	 132.608 	 
H 	 -47.548 	 61.7134 	 133.222 	 
H 	 -43.3819 	 60.6813 	 137.639 	 
H 	 -50.0672 	 65.3223 	 139.325 	 
*
