! wB97X-D3 SP def2-SVP
%pal
nprocs 16
end

* xyz 0 1
S 	 50.1042 	 2.48453 	 82.8813 	 
C 	 51.8831 	 2.8881 	 82.7339 	 
C 	 52.4659 	 3.02201 	 83.9703 	 
C 	 51.5189 	 2.91577 	 84.9851 	 
C 	 50.2282 	 2.65389 	 84.626 	 
H 	 51.6649 	 3.01657 	 86.0352 	 
C 	 53.891 	 3.31691 	 84.2772 	 
H 	 54.5913 	 2.75297 	 83.6933 	 
H 	 54.0438 	 3.0565 	 85.3335 	 
C 	 54.192 	 4.84652 	 84.1949 	 
H 	 54.1897 	 5.10104 	 83.0814 	 
H 	 53.385 	 5.54563 	 84.6044 	 
C 	 55.6085 	 5.25031 	 84.7316 	 
H 	 56.4115 	 4.59912 	 84.3227 	 
H 	 55.8294 	 6.24752 	 84.4929 	 
H 	 55.559 	 5.22521 	 85.7731 	 
S 	 47.7583 	 1.70531 	 84.7884 	 
C 	 46.7024 	 2.25451 	 85.9916 	 
C 	 47.3513 	 2.90038 	 87.058 	 
C 	 48.7513 	 3.03092 	 86.7409 	 
C 	 49.0655 	 2.62145 	 85.4748 	 
H 	 46.8487 	 3.33231 	 87.8892 	 
C 	 49.6444 	 3.73517 	 87.752 	 
H 	 48.9985 	 4.34704 	 88.2957 	 
H 	 50.2349 	 4.40402 	 87.1377 	 
C 	 50.5515 	 2.93046 	 88.6192 	 
H 	 51.1095 	 2.16196 	 88.0309 	 
H 	 49.9083 	 2.52125 	 89.3683 	 
C 	 51.5504 	 3.82106 	 89.3918 	 
H 	 52.1808 	 3.32751 	 90.159 	 
H 	 50.9336 	 4.61275 	 89.8975 	 
H 	 52.0512 	 4.50287 	 88.7277 	 
H 	 52.4204 	 3.00459 	 81.7375 	 
H 	 45.6324 	 2.05441 	 86.0155 	 
*
