! wB97X-D3 SP def2-SVP
%pal
nprocs 16
end

* xyz 0 1
S 	 52.306 	 23.4896 	 92.931 	 
C 	 50.8715 	 24.0202 	 93.7702 	 
C 	 50.8597 	 23.6446 	 95.1164 	 
C 	 51.9612 	 22.8179 	 95.4195 	 
C 	 52.8744 	 22.6726 	 94.3641 	 
H 	 52.2048 	 22.4617 	 96.4386 	 
C 	 49.7982 	 24 	 96.1119 	 
H 	 49.1006 	 23.1931 	 96.2417 	 
H 	 49.2029 	 24.8352 	 95.7998 	 
C 	 50.3313 	 24.2998 	 97.5404 	 
H 	 49.4597 	 24.5834 	 98.1284 	 
H 	 50.8488 	 23.3535 	 97.9497 	 
C 	 51.2175 	 25.5366 	 97.4887 	 
H 	 51.4243 	 25.799 	 98.6056 	 
H 	 52.1173 	 25.2097 	 97.0488 	 
H 	 50.9425 	 26.2968 	 96.8125 	 
S 	 55.4229 	 22.6957 	 95.1593 	 
C 	 56.3794 	 21.2514 	 94.9958 	 
C 	 55.705 	 20.2695 	 94.3602 	 
C 	 54.4498 	 20.7582 	 93.8571 	 
C 	 54.0976 	 21.9699 	 94.3466 	 
H 	 56.1675 	 19.2898 	 94.1099 	 
C 	 53.5298 	 19.892 	 93.0639 	 
H 	 54.0269 	 18.9269 	 92.7903 	 
H 	 53.418 	 20.3232 	 92.0086 	 
C 	 52.0741 	 19.61 	 93.5553 	 
H 	 51.6257 	 18.9974 	 92.7722 	 
H 	 51.4826 	 20.5252 	 93.4834 	 
C 	 51.9325 	 18.9672 	 94.992 	 
H 	 51.0232 	 18.3757 	 95.0944 	 
H 	 51.9794 	 19.7655 	 95.7342 	 
H 	 52.7179 	 18.2923 	 95.1567 	 
H 	 50.0192 	 24.5435 	 93.2702 	 
H 	 57.2767 	 21.0837 	 95.547 	 
*
