! wB97X-D3 SP def2-SVP
%pal
nprocs 16
end

* xyz 0 1
S 	 -12.9494 	 -7.67615 	 86.0047 	 
C 	 -12.2024 	 -7.68385 	 87.5538 	 
C 	 -12.9006 	 -6.94662 	 88.4905 	 
C 	 -14.09 	 -6.35615 	 87.9066 	 
C 	 -14.2837 	 -6.70526 	 86.6125 	 
H 	 -14.7931 	 -5.70906 	 88.4501 	 
C 	 -12.4439 	 -6.6553 	 89.9004 	 
H 	 -12.6267 	 -5.5888 	 90.0262 	 
H 	 -11.3336 	 -6.71196 	 89.9255 	 
C 	 -13.1345 	 -7.44316 	 91.0041 	 
H 	 -12.6799 	 -7.32122 	 91.9386 	 
H 	 -14.104 	 -7.06097 	 91.2164 	 
C 	 -13.3538 	 -8.98326 	 90.821 	 
H 	 -13.9014 	 -9.58218 	 91.5392 	 
H 	 -13.8864 	 -9.16825 	 89.8508 	 
H 	 -12.4144 	 -9.50629 	 90.6874 	 
S 	 -14.9799 	 -4.95798 	 84.5768 	 
C 	 -16.6934 	 -4.82801 	 84.1145 	 
C 	 -17.4733 	 -5.57084 	 84.8973 	 
C 	 -16.7162 	 -6.3606 	 85.8518 	 
C 	 -15.3526 	 -6.17314 	 85.7727 	 
H 	 -18.529 	 -5.48384 	 84.7469 	 
C 	 -17.4133 	 -7.33563 	 86.7769 	 
H 	 -18.1787 	 -6.84097 	 87.3334 	 
H 	 -16.6593 	 -7.81168 	 87.4249 	 
C 	 -18.2048 	 -8.489 	 86.0993 	 
H 	 -18.9493 	 -8.08535 	 85.3078 	 
H 	 -18.8122 	 -8.9881 	 86.9163 	 
C 	 -17.3247 	 -9.53225 	 85.5533 	 
H 	 -16.9929 	 -9.21259 	 84.5467 	 
H 	 -17.7613 	 -10.5272 	 85.4943 	 
H 	 -16.4287 	 -9.83121 	 86.13 	 
H 	 -11.268 	 -8.20063 	 87.7497 	 
H 	 -17.1584 	 -4.11286 	 83.4083 	 
*
