! wB97X-D3 SP def2-SVP
%pal
nprocs 16
end

* xyz 0 1
S 	 -90.1583 	 50.0722 	 130.127 	 
C 	 -90.1681 	 51.8438 	 130.192 	 
C 	 -88.8635 	 52.3428 	 130.093 	 
C 	 -87.8669 	 51.2862 	 130.054 	 
C 	 -88.3994 	 49.9962 	 130.098 	 
H 	 -86.8059 	 51.4259 	 129.862 	 
C 	 -88.5039 	 53.8461 	 129.862 	 
H 	 -89.3145 	 54.2869 	 129.23 	 
H 	 -87.5576 	 53.9305 	 129.334 	 
C 	 -88.464 	 54.6775 	 131.073 	 
H 	 -88.6465 	 55.7003 	 130.914 	 
H 	 -89.348 	 54.2976 	 131.57 	 
C 	 -87.1955 	 54.6287 	 131.952 	 
H 	 -86.3847 	 55.2246 	 131.534 	 
H 	 -87.4764 	 55.1967 	 132.84 	 
H 	 -86.8147 	 53.5507 	 132.053 	 
S 	 -88.3921 	 47.5363 	 128.768 	 
C 	 -86.8859 	 46.6253 	 128.635 	 
C 	 -85.9796 	 47.0478 	 129.625 	 
C 	 -86.4466 	 48.2702 	 130.268 	 
C 	 -87.7077 	 48.7439 	 129.825 	 
H 	 -85.0378 	 46.5915 	 129.804 	 
C 	 -85.6892 	 48.9579 	 131.406 	 
H 	 -86.1174 	 49.9241 	 131.764 	 
H 	 -84.6976 	 49.1351 	 130.967 	 
C 	 -85.6881 	 48.0826 	 132.627 	 
H 	 -84.9222 	 48.4645 	 133.392 	 
H 	 -85.3299 	 47.0575 	 132.31 	 
C 	 -87.0957 	 47.9887 	 133.333 	 
H 	 -87.4433 	 48.8278 	 134.005 	 
H 	 -86.9981 	 47.191 	 134.056 	 
H 	 -87.8358 	 47.6454 	 132.651 	 
H 	 -90.9669 	 52.5149 	 130.133 	 
H 	 -86.7821 	 45.8255 	 127.853 	 
*
