! wB97X-D3 SP def2-SVP
%pal
nprocs 16
end

* xyz 0 1
S 	 0.0925392 	 9.18418 	 78.6481 	 
C 	 -0.650825 	 8.6261 	 77.1988 	 
C 	 -1.99954 	 8.37917 	 77.355 	 
C 	 -2.42779 	 8.51705 	 78.6941 	 
C 	 -1.37214 	 8.81029 	 79.5941 	 
H 	 -3.48199 	 8.44528 	 79.0974 	 
C 	 -2.86707 	 7.70622 	 76.3071 	 
H 	 -3.50196 	 8.42713 	 75.8821 	 
H 	 -3.57487 	 7.14817 	 77.0113 	 
C 	 -2.28372 	 6.61889 	 75.3713 	 
H 	 -1.79531 	 7.10254 	 74.5044 	 
H 	 -1.59667 	 5.92193 	 75.9367 	 
C 	 -3.30058 	 5.66753 	 74.7623 	 
H 	 -3.17061 	 4.6139 	 74.9794 	 
H 	 -4.31835 	 5.92082 	 75.0666 	 
H 	 -3.30141 	 5.6624 	 73.7112 	 
S 	 -0.439918 	 10.3605 	 81.599 	 
C 	 -1.25457 	 10.2459 	 83.1188 	 
C 	 -2.33101 	 9.36454 	 83.1419 	 
C 	 -2.48437 	 8.67137 	 81.896 	 
C 	 -1.57288 	 9.20996 	 80.9223 	 
H 	 -2.85771 	 9.11376 	 84.0084 	 
C 	 -3.52854 	 7.54447 	 81.6408 	 
H 	 -3.74012 	 7.13374 	 82.6448 	 
H 	 -3.0001 	 6.86894 	 80.9963 	 
C 	 -4.86704 	 8.00551 	 81.0898 	 
H 	 -4.95544 	 7.49537 	 80.1083 	 
H 	 -4.79525 	 9.14882 	 80.8915 	 
C 	 -6.09677 	 7.88562 	 81.9957 	 
H 	 -6.30605 	 6.82875 	 82.1617 	 
H 	 -6.95552 	 8.33591 	 81.5988 	 
H 	 -5.93525 	 8.29778 	 83.0222 	 
H 	 0.0389413 	 8.44666 	 76.2983 	 
H 	 -0.760496 	 10.6289 	 84.0217 	 
*
