! wB97X-D3 SP def2-SVP
%pal
nprocs 16
end

* xyz 0 1
S 	 -92.5771 	 54.6291 	 122.365 	 
C 	 -91.9862 	 53.9064 	 120.866 	 
C 	 -93.0262 	 53.5542 	 120.075 	 
C 	 -94.2796 	 54.0102 	 120.547 	 
C 	 -94.2028 	 54.6119 	 121.791 	 
H 	 -95.2052 	 53.6874 	 120.025 	 
C 	 -92.8679 	 52.8339 	 118.778 	 
H 	 -91.9435 	 53.1005 	 118.417 	 
H 	 -93.61 	 53.2276 	 118.046 	 
C 	 -93.0054 	 51.2685 	 118.794 	 
H 	 -92.1284 	 51.018 	 119.39 	 
H 	 -93.862 	 50.7834 	 119.334 	 
C 	 -92.9536 	 50.6086 	 117.42 	 
H 	 -93.9156 	 50.7794 	 116.93 	 
H 	 -92.1663 	 50.9432 	 116.681 	 
H 	 -93.0811 	 49.5499 	 117.472 	 
S 	 -95.5229 	 57.1162 	 121.794 	 
C 	 -96.5316 	 57.3458 	 123.201 	 
C 	 -96.9736 	 56.1618 	 123.811 	 
C 	 -96.1736 	 55.0795 	 123.406 	 
C 	 -95.2672 	 55.4286 	 122.42 	 
H 	 -97.7266 	 56.2115 	 124.643 	 
C 	 -96.3779 	 53.659 	 123.943 	 
H 	 -96.15 	 52.9336 	 123.181 	 
H 	 -97.477 	 53.7373 	 124.155 	 
C 	 -95.7227 	 53.3921 	 125.338 	 
H 	 -96.0405 	 52.3618 	 125.594 	 
H 	 -96.0689 	 54.0372 	 126.199 	 
C 	 -94.1537 	 53.4306 	 125.139 	 
H 	 -93.6394 	 52.777 	 125.867 	 
H 	 -93.8073 	 54.47 	 125.138 	 
H 	 -93.9509 	 52.9726 	 124.254 	 
H 	 -90.9459 	 53.7143 	 120.621 	 
H 	 -97.0425 	 58.3011 	 123.314 	 
*
