! wB97X-D3 SP def2-SVP
%pal
nprocs 16
end

* xyz 0 1
S 	 11.2864 	 -14.3648 	 77.3027 	 
C 	 11.2552 	 -12.6346 	 77.1413 	 
C 	 12.1874 	 -11.9811 	 77.8685 	 
C 	 13.0542 	 -12.9541 	 78.4331 	 
C 	 12.7313 	 -14.3122 	 78.2741 	 
H 	 13.8132 	 -12.6915 	 79.1353 	 
C 	 12.3346 	 -10.4806 	 77.8746 	 
H 	 12.5641 	 -10.0738 	 76.9252 	 
H 	 13.077 	 -10.1709 	 78.5673 	 
C 	 11.1295 	 -9.70452 	 78.491 	 
H 	 11.219 	 -8.69662 	 78.4502 	 
H 	 10.3993 	 -9.94502 	 77.7149 	 
C 	 10.6685 	 -10.3631 	 79.8085 	 
H 	 11.3977 	 -10.1254 	 80.5641 	 
H 	 9.76821 	 -9.95737 	 80.2116 	 
H 	 10.6476 	 -11.4524 	 79.7777 	 
S 	 12.5217 	 -16.4014 	 80.0764 	 
C 	 13.9532 	 -17.4647 	 80.3348 	 
C 	 14.7952 	 -17.1817 	 79.3012 	 
C 	 14.564 	 -16.0692 	 78.4661 	 
C 	 13.3547 	 -15.4538 	 78.8535 	 
H 	 15.6999 	 -17.8304 	 79.1838 	 
C 	 15.5894 	 -15.4977 	 77.4411 	 
H 	 15.0274 	 -15.0722 	 76.5552 	 
H 	 16.0229 	 -16.3461 	 76.9162 	 
C 	 16.7401 	 -14.5834 	 77.9891 	 
H 	 17.3749 	 -15.1193 	 78.6466 	 
H 	 16.3271 	 -13.7407 	 78.6731 	 
C 	 17.5963 	 -13.9857 	 76.8157 	 
H 	 18.0291 	 -12.9674 	 77.0825 	 
H 	 16.9864 	 -13.6837 	 76.016 	 
H 	 18.3771 	 -14.6102 	 76.3994 	 
H 	 10.4912 	 -12.1379 	 76.5745 	 
H 	 13.9385 	 -18.3626 	 80.9749 	 
*
