! wB97X-D3 SP def2-SVP
%pal
nprocs 16
end

* xyz 0 1
S 	 -1.49733 	 77.1974 	 44.4608 	 
C 	 -2.54137 	 76.8827 	 45.8198 	 
C 	 -2.06487 	 75.8856 	 46.6495 	 
C 	 -0.880564 	 75.295 	 46.1811 	 
C 	 -0.366411 	 75.9329 	 45.0808 	 
H 	 -0.379346 	 74.5519 	 46.759 	 
C 	 -2.7396 	 75.4669 	 47.8702 	 
H 	 -3.30172 	 74.5212 	 47.5852 	 
H 	 -3.39064 	 76.2736 	 48.1688 	 
C 	 -1.94067 	 75.0873 	 49.1843 	 
H 	 -2.58867 	 74.9621 	 50.0058 	 
H 	 -1.55739 	 74.0786 	 49.0029 	 
C 	 -0.826483 	 76.1181 	 49.6926 	 
H 	 -0.290963 	 75.7363 	 50.5908 	 
H 	 -0.000971948 	 76.2776 	 48.9646 	 
H 	 -1.19123 	 77.0452 	 49.9556 	 
S 	 0.915152 	 75.1383 	 42.7504 	 
C 	 2.65922 	 74.8872 	 42.7285 	 
C 	 3.1785 	 75.0629 	 43.9726 	 
C 	 2.23903 	 75.5002 	 44.977 	 
C 	 0.951091 	 75.6622 	 44.4055 	 
H 	 4.26919 	 74.9502 	 44.0706 	 
C 	 2.68043 	 75.8101 	 46.3887 	 
H 	 3.73636 	 75.8358 	 46.3987 	 
H 	 2.44355 	 74.9723 	 47.0462 	 
C 	 2.20188 	 77.2485 	 46.8568 	 
H 	 2.37946 	 77.357 	 47.9421 	 
H 	 1.14016 	 77.476 	 46.7419 	 
C 	 3.08511 	 78.3962 	 46.1191 	 
H 	 4.05804 	 78.244 	 46.5605 	 
H 	 2.72137 	 79.4186 	 46.3236 	 
H 	 3.33578 	 78.2022 	 45.0759 	 
H 	 -3.36429 	 77.5175 	 46.0955 	 
H 	 3.25893 	 74.6371 	 41.8243 	 
*
