! wB97X-D3 SP def2-SVP
%pal
nprocs 16
end

* xyz 0 1
S 	 -44.3163 	 16.9039 	 83.8476 	 
C 	 -42.737 	 16.2289 	 83.9834 	 
C 	 -41.8885 	 17.2334 	 84.4254 	 
C 	 -42.5874 	 18.3896 	 84.9241 	 
C 	 -43.9358 	 18.3537 	 84.7448 	 
H 	 -42.1784 	 19.282 	 85.3901 	 
C 	 -40.3551 	 17.1553 	 84.5164 	 
H 	 -40.2645 	 16.0767 	 84.3588 	 
H 	 -39.9872 	 17.3847 	 85.5141 	 
C 	 -39.5251 	 17.9379 	 83.5409 	 
H 	 -39.6539 	 17.4725 	 82.6009 	 
H 	 -39.901 	 19.0142 	 83.4764 	 
C 	 -38.0354 	 17.9056 	 83.7604 	 
H 	 -37.6307 	 18.3401 	 84.6746 	 
H 	 -37.7717 	 16.8898 	 83.6958 	 
H 	 -37.5666 	 18.3637 	 82.8562 	 
S 	 -45.5054 	 20.2949 	 83.669 	 
C 	 -46.5062 	 21.2236 	 84.683 	 
C 	 -46.5037 	 20.7442 	 86.0263 	 
C 	 -45.6234 	 19.673 	 86.2562 	 
C 	 -44.942 	 19.3811 	 85.006 	 
H 	 -47.152 	 21.0841 	 86.8035 	 
C 	 -45.4103 	 18.9549 	 87.579 	 
H 	 -45.7092 	 17.92 	 87.4468 	 
H 	 -46.0424 	 19.5176 	 88.2928 	 
C 	 -44.0083 	 19.0867 	 88.1311 	 
H 	 -43.7155 	 20.1267 	 88.1248 	 
H 	 -43.3289 	 18.4734 	 87.5175 	 
C 	 -43.9241 	 18.5309 	 89.6156 	 
H 	 -43.0308 	 18.8333 	 90.1659 	 
H 	 -43.9811 	 17.4703 	 89.7224 	 
H 	 -44.8169 	 18.9371 	 90.1175 	 
H 	 -42.3563 	 15.2724 	 83.6412 	 
H 	 -47.1614 	 21.9423 	 84.286 	 
*
