! wB97X-D3 SP def2-SVP
%pal
nprocs 16
end

* xyz 0 1
S 	 10.0807 	 0.997064 	 85.8377 	 
C 	 11.5303 	 1.99736 	 85.5055 	 
C 	 11.7666 	 2.04689 	 84.0846 	 
C 	 10.8524 	 1.1632 	 83.3676 	 
C 	 9.91845 	 0.517313 	 84.1427 	 
H 	 10.7868 	 1.10032 	 82.3294 	 
C 	 12.6947 	 2.95935 	 83.377 	 
H 	 12.5513 	 3.86931 	 83.9771 	 
H 	 12.4842 	 3.14996 	 82.2929 	 
C 	 14.203 	 2.61544 	 83.4217 	 
H 	 14.4785 	 1.86805 	 82.7099 	 
H 	 14.7261 	 3.53958 	 83.1237 	 
C 	 15.0035 	 2.17509 	 84.6943 	 
H 	 14.6907 	 2.85921 	 85.5002 	 
H 	 14.6738 	 1.21783 	 85.1256 	 
H 	 16.0914 	 2.04188 	 84.6562 	 
S 	 7.64473 	 -0.596235 	 84.753 	 
C 	 6.69449 	 -1.55407 	 83.6336 	 
C 	 7.47548 	 -1.82261 	 82.4795 	 
C 	 8.7237 	 -1.11531 	 82.4101 	 
C 	 8.90459 	 -0.382446 	 83.5936 	 
H 	 6.97181 	 -2.41112 	 81.709 	 
C 	 9.52918 	 -1.16905 	 81.1695 	 
H 	 9.57109 	 -2.20145 	 80.763 	 
H 	 10.529 	 -0.775335 	 81.3464 	 
C 	 8.94053 	 -0.274496 	 80.104 	 
H 	 8.50237 	 0.609045 	 80.5588 	 
H 	 8.1215 	 -0.788367 	 79.5988 	 
C 	 10.0048 	 0.158302 	 79.0843 	 
H 	 10.9539 	 0.526707 	 79.4658 	 
H 	 9.58256 	 0.859166 	 78.3634 	 
H 	 10.1725 	 -0.723593 	 78.5174 	 
H 	 12.1032 	 2.49077 	 86.2139 	 
H 	 5.63462 	 -1.98806 	 83.7753 	 
*
