! wB97X-D3 SP def2-SVP
%pal
nprocs 16
end

* xyz 0 1
S 	 -34.6887 	 73.9659 	 164.77 	 
C 	 -34.45 	 73.5966 	 163.03 	 
C 	 -34.8761 	 74.6283 	 162.246 	 
C 	 -35.3307 	 75.7584 	 162.982 	 
C 	 -35.2931 	 75.5694 	 164.402 	 
H 	 -35.7191 	 76.6435 	 162.529 	 
C 	 -34.7153 	 74.588 	 160.689 	 
H 	 -35.6821 	 74.9403 	 160.256 	 
H 	 -34.4729 	 73.5787 	 160.354 	 
C 	 -33.6155 	 75.4666 	 160.136 	 
H 	 -33.4635 	 75.3057 	 159.014 	 
H 	 -34.1897 	 76.3945 	 160.24 	 
C 	 -32.2979 	 75.4858 	 160.987 	 
H 	 -32.5419 	 75.6604 	 162.06 	 
H 	 -31.6101 	 74.5962 	 160.78 	 
H 	 -31.6489 	 76.3343 	 160.668 	 
S 	 -34.3178 	 77.3945 	 166.159 	 
C 	 -35.4139 	 78.1369 	 167.286 	 
C 	 -36.727 	 77.7008 	 167.167 	 
C 	 -36.8267 	 76.7169 	 166.082 	 
C 	 -35.6369 	 76.4722 	 165.475 	 
H 	 -37.4944 	 77.9631 	 167.827 	 
C 	 -38.2493 	 76.147 	 165.716 	 
H 	 -38.2718 	 75.7807 	 164.678 	 
H 	 -38.9945 	 76.8624 	 165.848 	 
C 	 -38.6841 	 74.9903 	 166.614 	 
H 	 -39.5142 	 74.4733 	 166.122 	 
H 	 -39.1995 	 75.2237 	 167.548 	 
C 	 -37.5807 	 73.9392 	 166.978 	 
H 	 -37.9994 	 73.0571 	 167.447 	 
H 	 -36.8194 	 74.4348 	 167.663 	 
H 	 -37.1584 	 73.6202 	 166.025 	 
H 	 -33.9506 	 72.7494 	 162.562 	 
H 	 -35.1695 	 78.9025 	 168.043 	 
*
