! wB97X-D3 SP def2-SVP
%pal
nprocs 16
end

* xyz 0 1
S 	 55.7017 	 4.17954 	 84.2243 	 
C 	 56.8865 	 4.04738 	 83.0232 	 
C 	 56.4351 	 3.48472 	 81.8525 	 
C 	 55.1217 	 2.94995 	 81.9879 	 
C 	 54.5523 	 3.19908 	 83.2597 	 
H 	 54.5877 	 2.40595 	 81.2774 	 
C 	 57.2892 	 3.34066 	 80.6047 	 
H 	 57.4226 	 2.24347 	 80.5233 	 
H 	 58.1882 	 3.86876 	 80.972 	 
C 	 56.7033 	 3.86556 	 79.2962 	 
H 	 55.6983 	 3.40043 	 79.1553 	 
H 	 56.7247 	 4.93415 	 79.2473 	 
C 	 57.479 	 3.35277 	 78.1121 	 
H 	 57.7645 	 2.32347 	 78.2062 	 
H 	 56.8417 	 3.55044 	 77.2077 	 
H 	 58.3549 	 3.9065 	 77.9472 	 
S 	 51.8097 	 2.84937 	 82.8344 	 
C 	 50.8241 	 2.11607 	 84.0588 	 
C 	 51.6022 	 1.92202 	 85.218 	 
C 	 52.9699 	 2.2389 	 85.0849 	 
C 	 53.3171 	 2.6929 	 83.8213 	 
H 	 51.1758 	 1.56116 	 86.1777 	 
C 	 54.012 	 1.98026 	 86.1448 	 
H 	 54.2947 	 2.8742 	 86.6398 	 
H 	 54.9486 	 1.68413 	 85.5587 	 
C 	 53.7455 	 0.905383 	 87.1799 	 
H 	 53.1949 	 0.120518 	 86.7142 	 
H 	 52.9985 	 1.22103 	 87.9549 	 
C 	 54.9959 	 0.322457 	 87.8608 	 
H 	 55.7932 	 0.0343756 	 87.0759 	 
H 	 54.7209 	 -0.602776 	 88.4039 	 
H 	 55.4519 	 0.965592 	 88.5433 	 
H 	 57.7722 	 4.59476 	 83.1207 	 
H 	 49.7537 	 1.92241 	 83.9989 	 
*
