! wB97X-D3 SP def2-SVP
%pal
nprocs 16
end

* xyz 0 1
S 	 42.6277 	 13.5487 	 86.5045 	 
C 	 43.8116 	 14.5733 	 87.3081 	 
C 	 45.1151 	 14.357 	 86.9068 	 
C 	 45.1213 	 13.6298 	 85.6093 	 
C 	 43.8264 	 13.3049 	 85.1634 	 
H 	 45.9365 	 13.4213 	 84.952 	 
C 	 46.3383 	 14.8307 	 87.5785 	 
H 	 46.9702 	 13.9608 	 87.4973 	 
H 	 46.1511 	 15.0473 	 88.6213 	 
C 	 46.9283 	 16.1392 	 87.0127 	 
H 	 47.9595 	 16.1848 	 87.427 	 
H 	 46.835 	 16.0431 	 85.9081 	 
C 	 46.2421 	 17.4566 	 87.4354 	 
H 	 46.3701 	 17.5458 	 88.5101 	 
H 	 46.7109 	 18.2931 	 86.9248 	 
H 	 45.181 	 17.4411 	 87.1539 	 
S 	 42.5031 	 11.1598 	 84.1161 	 
C 	 42.39 	 10.9576 	 82.3868 	 
C 	 43.0737 	 11.9555 	 81.7055 	 
C 	 43.7631 	 12.8731 	 82.5968 	 
C 	 43.4449 	 12.5917 	 83.9428 	 
H 	 42.9322 	 11.9497 	 80.6597 	 
C 	 44.4837 	 14.119 	 82.0208 	 
H 	 45.5013 	 13.9382 	 81.6661 	 
H 	 44.6725 	 14.7954 	 82.9197 	 
C 	 43.7883 	 14.9544 	 80.8928 	 
H 	 43.6503 	 14.2971 	 80.0708 	 
H 	 44.4335 	 15.7729 	 80.6295 	 
C 	 42.4388 	 15.5632 	 81.3011 	 
H 	 41.8547 	 14.6764 	 81.627 	 
H 	 41.9725 	 15.8533 	 80.37 	 
H 	 42.3598 	 16.275 	 82.0758 	 
H 	 43.6172 	 14.9331 	 88.2773 	 
H 	 41.8345 	 10.2093 	 81.8612 	 
*
