! wB97X-D3 SP def2-SVP
%pal
nprocs 16
end

* xyz 0 1
S 	 1.1746 	 -1.59253 	 77.2344 	 
C 	 -0.245273 	 -2.10731 	 78.1724 	 
C 	 0.0897158 	 -3.01782 	 79.1711 	 
C 	 1.48402 	 -3.33532 	 79.1742 	 
C 	 2.20483 	 -2.60437 	 78.2272 	 
H 	 1.95654 	 -4.01814 	 79.8392 	 
C 	 -0.927711 	 -3.62812 	 80.1545 	 
H 	 -1.85119 	 -3.1562 	 79.8423 	 
H 	 -0.658912 	 -3.122 	 81.0716 	 
C 	 -1.04913 	 -5.14961 	 80.377 	 
H 	 -1.98991 	 -5.36395 	 80.8841 	 
H 	 -1.2125 	 -5.71522 	 79.4292 	 
C 	 0.0489424 	 -5.84233 	 81.2717 	 
H 	 1.03945 	 -5.77559 	 80.8426 	 
H 	 0.198196 	 -5.42288 	 82.2371 	 
H 	 -0.201227 	 -6.86259 	 81.4388 	 
S 	 4.41187 	 -4.15783 	 78.9119 	 
C 	 5.98134 	 -3.89675 	 78.0913 	 
C 	 5.94636 	 -2.70761 	 77.3422 	 
C 	 4.65061 	 -2.05557 	 77.3163 	 
C 	 3.65593 	 -2.77955 	 78.0044 	 
H 	 6.82223 	 -2.3203 	 76.9227 	 
C 	 4.48631 	 -0.732939 	 76.5628 	 
H 	 3.59519 	 -0.867395 	 75.9348 	 
H 	 5.2887 	 -0.716791 	 75.8349 	 
C 	 4.56263 	 0.612971 	 77.3777 	 
H 	 5.56479 	 0.760032 	 77.8305 	 
H 	 3.87566 	 0.47415 	 78.2202 	 
C 	 4.16607 	 1.84623 	 76.4686 	 
H 	 3.18142 	 1.94115 	 76.2206 	 
H 	 4.7893 	 1.95811 	 75.5954 	 
H 	 4.3319 	 2.73486 	 76.9923 	 
H 	 -1.22301 	 -1.69169 	 78.0215 	 
H 	 6.90514 	 -4.37515 	 78.2637 	 
*
