! wB97X-D3 SP def2-SVP
%pal
nprocs 16
end

* xyz 0 1
S 	 -49.7517 	 60.0967 	 129.717 	 
C 	 -49.3044 	 59.2551 	 128.305 	 
C 	 -48.3702 	 58.2697 	 128.614 	 
C 	 -48.0872 	 58.2193 	 130.024 	 
C 	 -48.9206 	 59.0299 	 130.815 	 
H 	 -47.3656 	 57.4568 	 130.428 	 
C 	 -47.6806 	 57.3176 	 127.571 	 
H 	 -46.6314 	 57.5581 	 127.593 	 
H 	 -47.9819 	 57.7179 	 126.553 	 
C 	 -47.9614 	 55.8759 	 127.72 	 
H 	 -47.5083 	 55.2719 	 126.841 	 
H 	 -47.3818 	 55.5134 	 128.52 	 
C 	 -49.4843 	 55.4505 	 127.762 	 
H 	 -50.124 	 55.9747 	 127.009 	 
H 	 -49.7143 	 54.3946 	 127.729 	 
H 	 -49.9297 	 55.7516 	 128.705 	 
S 	 -47.3528 	 59.5041 	 133.01 	 
C 	 -48.0082 	 59.6152 	 134.603 	 
C 	 -49.3663 	 59.5314 	 134.605 	 
C 	 -49.9005 	 59.3676 	 133.245 	 
C 	 -48.9325 	 59.1399 	 132.277 	 
H 	 -50.0248 	 59.5625 	 135.489 	 
C 	 -51.385 	 59.1152 	 133.031 	 
H 	 -51.4648 	 59.2681 	 132.032 	 
H 	 -51.927 	 59.8942 	 133.508 	 
C 	 -51.8869 	 57.7238 	 133.557 	 
H 	 -52.9994 	 57.5678 	 133.318 	 
H 	 -51.8429 	 57.6499 	 134.677 	 
C 	 -51.0251 	 56.5129 	 133.107 	 
H 	 -51.4243 	 55.4929 	 133.038 	 
H 	 -50.1155 	 56.5445 	 133.704 	 
H 	 -50.6237 	 56.6862 	 132.145 	 
H 	 -49.6805 	 59.3508 	 127.308 	 
H 	 -47.4535 	 59.8647 	 135.478 	 
*
