! wB97X-D3 SP def2-SVP
%pal
nprocs 16
end

* xyz 0 1
S 	 -58.3612 	 52.657 	 133.956 	 
C 	 -57.1066 	 51.4086 	 133.882 	 
C 	 -57.6511 	 50.2292 	 134.419 	 
C 	 -59.0503 	 50.2881 	 134.821 	 
C 	 -59.5874 	 51.5479 	 134.583 	 
H 	 -59.7028 	 49.4658 	 135.224 	 
C 	 -57.0144 	 48.7926 	 134.413 	 
H 	 -56.5618 	 48.7266 	 133.435 	 
H 	 -57.8004 	 48.0268 	 134.563 	 
C 	 -56.0324 	 48.5783 	 135.526 	 
H 	 -56.5095 	 48.7975 	 136.476 	 
H 	 -55.6848 	 47.563 	 135.514 	 
C 	 -54.6641 	 49.2657 	 135.361 	 
H 	 -53.8667 	 48.7664 	 135.973 	 
H 	 -54.2932 	 49.1896 	 134.36 	 
H 	 -54.5667 	 50.333 	 135.572 	 
S 	 -62.171 	 51.5394 	 133.668 	 
C 	 -63.3168 	 52.5401 	 134.4 	 
C 	 -62.8325 	 53.2456 	 135.488 	 
C 	 -61.4711 	 52.9027 	 135.823 	 
C 	 -60.9569 	 52.0007 	 134.897 	 
H 	 -63.3786 	 53.9556 	 135.951 	 
C 	 -60.6367 	 53.6909 	 136.891 	 
H 	 -59.5654 	 53.4961 	 136.777 	 
H 	 -60.9644 	 53.2968 	 137.88 	 
C 	 -60.8747 	 55.2129 	 136.997 	 
H 	 -61.7131 	 55.384 	 137.637 	 
H 	 -61.1061 	 55.6394 	 136.002 	 
C 	 -59.6084 	 55.9443 	 137.625 	 
H 	 -59.3637 	 55.6298 	 138.61 	 
H 	 -59.7519 	 57.0295 	 137.62 	 
H 	 -58.7673 	 55.7281 	 136.911 	 
H 	 -56.0661 	 51.5067 	 133.55 	 
H 	 -64.3053 	 52.689 	 134.029 	 
*
