! wB97X-D3 SP def2-SVP
%pal
nprocs 16
end

* xyz 0 1
S 	 -39.4795 	 -1.34497 	 99.5374 	 
C 	 -38.2114 	 -2.54294 	 99.4894 	 
C 	 -36.93 	 -2.02879 	 99.4933 	 
C 	 -36.9606 	 -0.629782 	 99.54 	 
C 	 -38.2189 	 -0.104364 	 99.697 	 
H 	 -36.0943 	 -0.0111188 	 99.529 	 
C 	 -35.6556 	 -2.78546 	 99.3843 	 
H 	 -36.0034 	 -3.83829 	 99.2518 	 
H 	 -35.3229 	 -2.58069 	 100.431 	 
C 	 -34.6095 	 -2.41347 	 98.2492 	 
H 	 -34.0068 	 -1.53928 	 98.5369 	 
H 	 -33.9361 	 -3.22984 	 98.2109 	 
C 	 -35.1421 	 -2.15398 	 96.7871 	 
H 	 -34.2796 	 -1.93317 	 96.1627 	 
H 	 -35.6151 	 -3.06628 	 96.4135 	 
H 	 -35.8209 	 -1.2746 	 96.5296 	 
S 	 -39.6152 	 1.88815 	 101.105 	 
C 	 -39.3157 	 3.58585 	 100.704 	 
C 	 -38.6314 	 3.66287 	 99.5596 	 
C 	 -38.159 	 2.42274 	 99.0118 	 
C 	 -38.5782 	 1.32903 	 99.7865 	 
H 	 -38.4088 	 4.6335 	 99.2015 	 
C 	 -37.1623 	 2.332 	 97.8402 	 
H 	 -37.7335 	 2.64608 	 96.956 	 
H 	 -37.012 	 1.30322 	 97.7206 	 
C 	 -35.7992 	 3.00014 	 98.0577 	 
H 	 -35.3125 	 2.59004 	 98.9222 	 
H 	 -35.9616 	 4.08108 	 98.2417 	 
C 	 -34.9205 	 2.93531 	 96.7637 	 
H 	 -34.6347 	 1.93324 	 96.5402 	 
H 	 -33.9896 	 3.45654 	 97.0429 	 
H 	 -35.4754 	 3.44989 	 95.993 	 
H 	 -38.4912 	 -3.5574 	 99.6161 	 
H 	 -39.5612 	 4.43847 	 101.362 	 
*
