! wB97X-D3 SP def2-SVP
%pal
nprocs 16
end

* xyz 0 1
S 	 32.2407 	 15.546 	 71.5239 	 
C 	 30.8253 	 16.1137 	 72.2907 	 
C 	 31.0274 	 17.3457 	 72.9622 	 
C 	 32.3196 	 17.8142 	 72.8083 	 
C 	 33.1275 	 16.9829 	 72.0665 	 
H 	 32.6062 	 18.726 	 73.305 	 
C 	 30.0119 	 18.0557 	 73.7986 	 
H 	 29.0484 	 17.4937 	 73.5729 	 
H 	 29.7601 	 19.0711 	 73.7319 	 
C 	 30.3568 	 17.8727 	 75.2711 	 
H 	 30.5551 	 16.822 	 75.4497 	 
H 	 31.2452 	 18.3982 	 75.5391 	 
C 	 29.3311 	 18.3222 	 76.1984 	 
H 	 29.672 	 17.851 	 77.1063 	 
H 	 29.2345 	 19.4146 	 76.2325 	 
H 	 28.3551 	 17.8917 	 75.9445 	 
S 	 34.9364 	 18.9114 	 71.2579 	 
C 	 36.6447 	 18.5155 	 71.1289 	 
C 	 36.7893 	 17.1754 	 71.3973 	 
C 	 35.576 	 16.3963 	 71.522 	 
C 	 34.4974 	 17.2314 	 71.7094 	 
H 	 37.7929 	 16.8299 	 71.4093 	 
C 	 35.6198 	 14.9067 	 71.7414 	 
H 	 34.8601 	 14.7921 	 72.5144 	 
H 	 36.5683 	 14.7332 	 72.1164 	 
C 	 35.542 	 13.9732 	 70.5491 	 
H 	 36.4545 	 14.0448 	 69.8995 	 
H 	 34.6823 	 14.3586 	 69.9529 	 
C 	 35.3951 	 12.4473 	 70.9942 	 
H 	 34.5594 	 12.1181 	 71.7385 	 
H 	 36.3157 	 12.1214 	 71.4346 	 
H 	 35.2664 	 11.7806 	 70.1416 	 
H 	 29.9152 	 15.5858 	 72.2465 	 
H 	 37.4081 	 19.1779 	 70.8033 	 
*
