! wB97X-D3 SP def2-SVP
%pal
nprocs 16
end

* xyz 0 1
S 	 -37.3047 	 43.3117 	 94.8493 	 
C 	 -38.245 	 44.8188 	 95.0434 	 
C 	 -39.485 	 44.55 	 95.5727 	 
C 	 -39.7298 	 43.1437 	 95.7156 	 
C 	 -38.6759 	 42.3482 	 95.3404 	 
H 	 -40.6101 	 42.6898 	 96.052 	 
C 	 -40.5204 	 45.5593 	 96.0641 	 
H 	 -40.4021 	 46.4176 	 95.3538 	 
H 	 -40.1042 	 45.9051 	 96.9945 	 
C 	 -41.9737 	 45.1222 	 96.1833 	 
H 	 -42.3514 	 44.9254 	 95.2306 	 
H 	 -42.1282 	 44.256 	 96.8533 	 
C 	 -42.7982 	 46.3064 	 96.7477 	 
H 	 -42.3574 	 46.5539 	 97.7082 	 
H 	 -42.9365 	 47.1843 	 96.0414 	 
H 	 -43.7844 	 45.9432 	 96.9547 	 
S 	 -37.4577 	 40.3999 	 96.8128 	 
C 	 -37.8103 	 38.7327 	 96.4855 	 
C 	 -38.748 	 38.5441 	 95.4954 	 
C 	 -39.1593 	 39.8051 	 94.9167 	 
C 	 -38.4824 	 40.8856 	 95.4605 	 
H 	 -39.0671 	 37.5359 	 95.3759 	 
C 	 -40.2753 	 39.9612 	 93.8817 	 
H 	 -39.8019 	 40.0339 	 92.9142 	 
H 	 -40.7254 	 40.8679 	 94.1756 	 
C 	 -41.366 	 38.9489 	 93.8801 	 
H 	 -41.5891 	 38.8153 	 94.9073 	 
H 	 -41.0543 	 37.9613 	 93.5303 	 
C 	 -42.4675 	 39.4713 	 92.9996 	 
H 	 -43.2037 	 38.6985 	 92.8031 	 
H 	 -42.1429 	 39.8425 	 92.0125 	 
H 	 -42.91 	 40.3352 	 93.4597 	 
H 	 -37.8942 	 45.8367 	 94.7769 	 
H 	 -37.5971 	 37.8166 	 96.96 	 
*
