! wB97X-D3 SP def2-SVP
%pal
nprocs 16
end

* xyz 0 1
S 	 -49.0922 	 67.4553 	 128.495 	 
C 	 -49.6175 	 65.9704 	 127.735 	 
C 	 -48.5585 	 65.0376 	 127.745 	 
C 	 -47.4037 	 65.4526 	 128.463 	 
C 	 -47.5619 	 66.7672 	 128.948 	 
H 	 -46.4052 	 64.9432 	 128.597 	 
C 	 -48.5894 	 63.5341 	 127.259 	 
H 	 -49.4001 	 63.3847 	 126.553 	 
H 	 -48.6985 	 62.8975 	 128.099 	 
C 	 -47.2982 	 63.1111 	 126.455 	 
H 	 -47.4493 	 62.2846 	 125.737 	 
H 	 -46.7729 	 63.9942 	 126.074 	 
C 	 -46.3542 	 62.4 	 127.438 	 
H 	 -46.8571 	 61.6936 	 128.074 	 
H 	 -45.6696 	 61.9112 	 126.784 	 
H 	 -45.7239 	 62.9627 	 128.183 	 
S 	 -45.7614 	 68.8129 	 128.717 	 
C 	 -44.9673 	 69.4308 	 130.115 	 
C 	 -45.3395 	 68.7464 	 131.259 	 
C 	 -46.2407 	 67.6948 	 131.019 	 
C 	 -46.5407 	 67.6316 	 129.626 	 
H 	 -44.8334 	 68.9782 	 132.177 	 
C 	 -46.6963 	 66.7312 	 132.071 	 
H 	 -45.8452 	 66.4138 	 132.73 	 
H 	 -46.8545 	 65.7794 	 131.664 	 
C 	 -47.8653 	 67.2271 	 132.879 	 
H 	 -48.7413 	 67.0913 	 132.235 	 
H 	 -47.9431 	 68.3795 	 132.977 	 
C 	 -48.2121 	 66.4826 	 134.165 	 
H 	 -47.319 	 66.2653 	 134.848 	 
H 	 -48.6431 	 65.5058 	 134.037 	 
H 	 -48.8691 	 67.1156 	 134.755 	 
H 	 -50.629 	 65.6088 	 127.566 	 
H 	 -44.1389 	 70.1259 	 130.074 	 
*
