! wB97X-D3 SP def2-SVP
%pal
nprocs 16
end

* xyz 0 1
S 	 6.54067 	 -13.36 	 55.6068 	 
C 	 6.74497 	 -12.8624 	 57.2352 	 
C 	 6.03231 	 -13.7828 	 58.0451 	 
C 	 5.19935 	 -14.7697 	 57.3337 	 
C 	 5.41177 	 -14.5841 	 55.9713 	 
H 	 4.53583 	 -15.4537 	 57.8308 	 
C 	 6.12983 	 -13.7831 	 59.5528 	 
H 	 5.21856 	 -13.6381 	 60.0624 	 
H 	 6.79005 	 -12.9631 	 59.8306 	 
C 	 6.85263 	 -14.9375 	 60.2147 	 
H 	 6.20334 	 -15.8491 	 60.0181 	 
H 	 7.70123 	 -15.1011 	 59.6162 	 
C 	 7.15001 	 -14.8066 	 61.6491 	 
H 	 7.2728 	 -15.7832 	 62.2015 	 
H 	 7.74814 	 -13.9775 	 61.9939 	 
H 	 6.20899 	 -14.4832 	 62.1128 	 
S 	 3.80024 	 -14.7943 	 53.6826 	 
C 	 3.6656 	 -16.3589 	 52.8849 	 
C 	 4.30079 	 -17.3569 	 53.6271 	 
C 	 5.0396 	 -16.8319 	 54.7721 	 
C 	 4.88006 	 -15.4716 	 54.9347 	 
H 	 4.18629 	 -18.3491 	 53.3312 	 
C 	 5.8163 	 -17.7492 	 55.6865 	 
H 	 5.28833 	 -18.7281 	 55.9643 	 
H 	 5.90078 	 -17.2248 	 56.6548 	 
C 	 7.23615 	 -17.9521 	 55.1474 	 
H 	 7.24781 	 -18.5527 	 54.2339 	 
H 	 7.68855 	 -18.563 	 55.9651 	 
C 	 8.05758 	 -16.6934 	 55.0763 	 
H 	 7.72846 	 -15.9273 	 54.3042 	 
H 	 9.14726 	 -16.8453 	 54.9883 	 
H 	 7.88407 	 -16.1642 	 55.9863 	 
H 	 7.31083 	 -12.0924 	 57.6141 	 
H 	 2.89076 	 -16.5121 	 52.1258 	 
*
