! wB97X-D3 SP def2-SVP
%pal
nprocs 16
end

* xyz 0 1
S 	 38.245 	 29.6968 	 93.6503 	 
C 	 37.8338 	 30.119 	 91.9824 	 
C 	 37.6978 	 29.0302 	 91.1133 	 
C 	 37.8272 	 27.8152 	 91.8739 	 
C 	 38.3062 	 27.9423 	 93.1949 	 
H 	 37.7143 	 26.7997 	 91.4023 	 
C 	 37.4552 	 29.1085 	 89.6065 	 
H 	 38.2274 	 28.4626 	 89.1175 	 
H 	 37.5675 	 30.1661 	 89.353 	 
C 	 36.0754 	 28.6607 	 89.1631 	 
H 	 35.1893 	 29.2829 	 89.571 	 
H 	 35.9874 	 28.8121 	 88.0756 	 
C 	 35.7285 	 27.1951 	 89.2327 	 
H 	 34.6761 	 27.187 	 88.9996 	 
H 	 36.2653 	 26.5501 	 88.5405 	 
H 	 35.7376 	 26.8065 	 90.2447 	 
S 	 37.5328 	 26.9072 	 95.563 	 
C 	 37.9812 	 25.2296 	 95.9874 	 
C 	 39.0187 	 24.7663 	 95.1485 	 
C 	 39.2187 	 25.5754 	 94.0153 	 
C 	 38.5447 	 26.8061 	 94.1118 	 
H 	 39.4273 	 23.796 	 95.3301 	 
C 	 40.0769 	 25.154 	 92.9015 	 
H 	 41.0436 	 24.784 	 93.1971 	 
H 	 40.2998 	 26.0821 	 92.3691 	 
C 	 39.4149 	 24.1187 	 91.9693 	 
H 	 38.3676 	 24.329 	 91.7656 	 
H 	 39.3365 	 23.1861 	 92.502 	 
C 	 40.1601 	 23.8067 	 90.6551 	 
H 	 41.1899 	 23.5926 	 90.9494 	 
H 	 40.2072 	 24.6286 	 89.9431 	 
H 	 39.6831 	 22.8694 	 90.1985 	 
H 	 37.9128 	 31.1497 	 91.531 	 
H 	 37.9121 	 24.7364 	 96.8903 	 
*
