! wB97X-D3 SP def2-SVP
%pal
nprocs 16
end

* xyz 0 1
S 	 -43.7346 	 17.5734 	 79.9333 	 
C 	 -43.0286 	 16.0703 	 79.5106 	 
C 	 -42.6913 	 15.3055 	 80.6382 	 
C 	 -42.8887 	 16.1151 	 81.8228 	 
C 	 -43.3522 	 17.4011 	 81.6254 	 
H 	 -42.6101 	 15.8891 	 82.8407 	 
C 	 -42.1509 	 13.9439 	 80.6695 	 
H 	 -41.3855 	 13.8 	 81.469 	 
H 	 -41.4824 	 13.8328 	 79.7881 	 
C 	 -43.172 	 12.8441 	 80.7936 	 
H 	 -42.7195 	 11.8739 	 81.0235 	 
H 	 -43.9134 	 13.0265 	 81.6626 	 
C 	 -44.0163 	 12.6587 	 79.4676 	 
H 	 -44.8832 	 12.0461 	 79.5247 	 
H 	 -44.266 	 13.6129 	 79.0386 	 
H 	 -43.4947 	 12.1586 	 78.6624 	 
S 	 -45.4481 	 18.5101 	 83.0211 	 
C 	 -45.0845 	 19.3368 	 84.482 	 
C 	 -43.7362 	 19.5582 	 84.5874 	 
C 	 -42.9438 	 18.8623 	 83.6543 	 
C 	 -43.751 	 18.3304 	 82.6763 	 
H 	 -43.4045 	 20.1997 	 85.3744 	 
C 	 -41.3983 	 18.7511 	 83.709 	 
H 	 -41.107 	 17.7527 	 83.3295 	 
H 	 -41.179 	 18.8343 	 84.7236 	 
C 	 -40.6271 	 19.9121 	 83.0134 	 
H 	 -41.0449 	 20.8531 	 83.3413 	 
H 	 -40.8209 	 19.784 	 81.9449 	 
C 	 -39.0921 	 19.9282 	 83.1902 	 
H 	 -38.7713 	 19.9965 	 84.2401 	 
H 	 -38.677 	 20.8305 	 82.7902 	 
H 	 -38.6327 	 19.0954 	 82.7275 	 
H 	 -42.8617 	 15.7594 	 78.478 	 
H 	 -45.8655 	 19.8464 	 85.0795 	 
*
