! wB97X-D3 SP def2-SVP
%pal
nprocs 16
end

* xyz 0 1
S 	 54.0987 	 13.8629 	 74.9131 	 
C 	 55.3772 	 15.0655 	 74.939 	 
C 	 56.6578 	 14.5867 	 75.2099 	 
C 	 56.5463 	 13.1584 	 75.401 	 
C 	 55.2826 	 12.6623 	 75.3018 	 
H 	 57.3567 	 12.4118 	 75.5935 	 
C 	 57.912 	 15.4307 	 75.3987 	 
H 	 57.8179 	 16.2205 	 74.6706 	 
H 	 58.8415 	 14.8013 	 75.2424 	 
C 	 58.0583 	 16.0506 	 76.8067 	 
H 	 58.6933 	 15.4522 	 77.3858 	 
H 	 58.7075 	 16.9459 	 76.6346 	 
C 	 56.6983 	 16.4108 	 77.5668 	 
H 	 55.9552 	 17.0144 	 76.9796 	 
H 	 56.1744 	 15.3988 	 77.7993 	 
H 	 57.0036 	 17.0182 	 78.4494 	 
S 	 53.8629 	 10.9092 	 76.8599 	 
C 	 53.6464 	 9.293 	 76.3568 	 
C 	 54.442 	 8.98981 	 75.2383 	 
C 	 55.1511 	 10.1293 	 74.7575 	 
C 	 54.865 	 11.2634 	 75.4823 	 
H 	 54.5985 	 7.97646 	 74.909 	 
C 	 56.1416 	 9.91209 	 73.6163 	 
H 	 56.693 	 10.7868 	 73.4654 	 
H 	 55.5905 	 9.70339 	 72.7187 	 
C 	 57.1119 	 8.74567 	 73.8776 	 
H 	 56.6143 	 7.76337 	 73.8581 	 
H 	 57.5853 	 8.80911 	 74.8447 	 
C 	 58.3219 	 8.63434 	 72.8842 	 
H 	 57.9666 	 8.92633 	 71.8825 	 
H 	 58.7633 	 7.62039 	 72.8191 	 
H 	 58.9644 	 9.48855 	 73.0541 	 
H 	 55.236 	 16.1236 	 74.6032 	 
H 	 53.2385 	 8.40783 	 76.8705 	 
*
