! wB97X-D3 SP def2-SVP
%pal
nprocs 16
end

* xyz 0 1
S 	 43.3338 	 22.3347 	 80.3877 	 
C 	 42.0447 	 23.5137 	 80.4885 	 
C 	 40.8722 	 22.8494 	 80.1899 	 
C 	 40.9692 	 21.4472 	 79.8608 	 
C 	 42.2524 	 20.9448 	 79.8726 	 
H 	 40.1252 	 20.8307 	 79.6877 	 
C 	 39.5329 	 23.5211 	 80.4042 	 
H 	 39.7978 	 24.5905 	 80.6252 	 
H 	 39.1332 	 23.157 	 81.3277 	 
C 	 38.4219 	 23.2415 	 79.3967 	 
H 	 38.6902 	 23.821 	 78.5289 	 
H 	 38.339 	 22.232 	 79.0563 	 
C 	 37.1184 	 23.6341 	 80.0557 	 
H 	 36.2783 	 23.7327 	 79.4104 	 
H 	 36.9232 	 22.9407 	 80.86 	 
H 	 37.1116 	 24.6635 	 80.4426 	 
S 	 43.5093 	 19.452 	 77.9407 	 
C 	 43.7264 	 17.7225 	 78.0421 	 
C 	 43.2328 	 17.2801 	 79.2423 	 
C 	 42.6135 	 18.336 	 80.0717 	 
C 	 42.6366 	 19.5926 	 79.4708 	 
H 	 43.296 	 16.2999 	 79.4515 	 
C 	 42.2136 	 18.1283 	 81.4989 	 
H 	 41.7182 	 17.1263 	 81.4788 	 
H 	 41.4229 	 18.8951 	 81.6442 	 
C 	 43.3232 	 18.2778 	 82.6197 	 
H 	 42.7422 	 18.389 	 83.5547 	 
H 	 43.7107 	 19.2474 	 82.5974 	 
C 	 44.4447 	 17.174 	 82.7676 	 
H 	 44.0866 	 16.137 	 82.9118 	 
H 	 45.0118 	 17.3306 	 83.6857 	 
H 	 45.1161 	 17.1603 	 81.9265 	 
H 	 42.1193 	 24.5101 	 80.7142 	 
H 	 44.3361 	 17.0987 	 77.4366 	 
*
