! wB97X-D3 SP def2-SVP
%pal
nprocs 16
end

* xyz 0 1
S 	 -10.4357 	 31.1662 	 53.4138 	 
C 	 -9.41612 	 29.7887 	 53.6815 	 
C 	 -8.18834 	 30.1402 	 54.1609 	 
C 	 -7.98444 	 31.5746 	 54.2149 	 
C 	 -9.00123 	 32.2 	 53.6011 	 
H 	 -7.08613 	 32.2064 	 54.6041 	 
C 	 -7.23527 	 29.1221 	 54.871 	 
H 	 -6.17247 	 29.3736 	 54.684 	 
H 	 -7.34577 	 28.0842 	 54.5513 	 
C 	 -7.49623 	 29.0155 	 56.3551 	 
H 	 -6.96728 	 28.2094 	 56.8099 	 
H 	 -7.16105 	 29.9204 	 56.8835 	 
C 	 -8.95281 	 28.9294 	 56.6537 	 
H 	 -9.41429 	 29.8833 	 56.3527 	 
H 	 -9.36437 	 28.146 	 56.012 	 
H 	 -9.26583 	 28.8354 	 57.7265 	 
S 	 -9.72044 	 34.6598 	 54.5502 	 
C 	 -9.40788 	 36.0807 	 53.481 	 
C 	 -8.93736 	 35.6248 	 52.2562 	 
C 	 -8.54543 	 34.2687 	 52.2235 	 
C 	 -9.01954 	 33.5599 	 53.3183 	 
H 	 -8.90877 	 36.3365 	 51.4687 	 
C 	 -7.86041 	 33.703 	 50.9619 	 
H 	 -6.78532 	 33.5365 	 51.1346 	 
H 	 -7.9316 	 34.5024 	 50.2308 	 
C 	 -8.42025 	 32.492 	 50.2013 	 
H 	 -9.31344 	 32.8693 	 49.7083 	 
H 	 -8.71031 	 31.6755 	 50.9357 	 
C 	 -7.53166 	 31.7104 	 49.2009 	 
H 	 -6.60458 	 31.3744 	 49.5619 	 
H 	 -7.31308 	 32.1892 	 48.3192 	 
H 	 -8.05224 	 30.7579 	 48.9895 	 
H 	 -9.80627 	 28.8079 	 53.8235 	 
H 	 -9.77678 	 37.066 	 53.4846 	 
*
