! wB97X-D3 SP def2-SVP
%pal
nprocs 16
end

* xyz 0 1
S 	 24.3182 	 5.85782 	 65.8632 	 
C 	 24.8699 	 6.73291 	 64.4658 	 
C 	 25.0854 	 8.05886 	 64.639 	 
C 	 24.8401 	 8.45274 	 65.9899 	 
C 	 24.429 	 7.43411 	 66.8168 	 
H 	 24.8185 	 9.467 	 66.327 	 
C 	 25.5427 	 8.97675 	 63.5659 	 
H 	 25.1086 	 8.72029 	 62.6003 	 
H 	 26.6797 	 8.84432 	 63.4686 	 
C 	 25.4207 	 10.5333 	 63.8337 	 
H 	 25.8609 	 10.6852 	 64.8337 	 
H 	 25.9403 	 10.9934 	 63.0218 	 
C 	 24.0149 	 11.0336 	 63.8629 	 
H 	 23.3397 	 10.3883 	 63.411 	 
H 	 23.5527 	 11.0081 	 64.8313 	 
H 	 23.8938 	 12.0633 	 63.5532 	 
S 	 23.1136 	 8.40471 	 68.956 	 
C 	 23.531 	 7.85491 	 70.5544 	 
C 	 24.6803 	 7.05427 	 70.5593 	 
C 	 25.1279 	 6.72292 	 69.2182 	 
C 	 24.3673 	 7.40648 	 68.2802 	 
H 	 24.9357 	 6.6542 	 71.4652 	 
C 	 26.2655 	 5.84739 	 69.0895 	 
H 	 26.3991 	 5.63373 	 67.993 	 
H 	 26.1219 	 4.87113 	 69.5483 	 
C 	 27.6818 	 6.27201 	 69.5094 	 
H 	 27.7528 	 6.5717 	 70.5457 	 
H 	 28.0772 	 7.0427 	 68.9131 	 
C 	 28.7336 	 5.14271 	 69.3649 	 
H 	 28.5331 	 4.29748 	 70.0466 	 
H 	 29.67 	 5.56761 	 69.6751 	 
H 	 28.6553 	 4.63596 	 68.4027 	 
H 	 25.0911 	 6.21918 	 63.5252 	 
H 	 23.0575 	 8.35007 	 71.4557 	 
*
