! wB97X-D3 SP def2-SVP
%pal
nprocs 16
end

* xyz 0 1
S 	 -55.9432 	 42.9424 	 113.521 	 
C 	 -55.0437 	 43.596 	 112.262 	 
C 	 -54.5077 	 42.6431 	 111.434 	 
C 	 -54.7314 	 41.351 	 111.859 	 
C 	 -55.2867 	 41.3061 	 113.147 	 
H 	 -54.2956 	 40.4386 	 111.496 	 
C 	 -53.7715 	 42.931 	 110.108 	 
H 	 -53.7474 	 44.0298 	 110.078 	 
H 	 -54.3127 	 42.4869 	 109.285 	 
C 	 -52.4086 	 42.412 	 109.883 	 
H 	 -51.5756 	 42.7089 	 110.481 	 
H 	 -52.376 	 41.3549 	 110.136 	 
C 	 -51.784 	 42.6993 	 108.553 	 
H 	 -51.8261 	 43.7924 	 108.372 	 
H 	 -50.752 	 42.4678 	 108.562 	 
H 	 -52.1927 	 42.2307 	 107.687 	 
S 	 -55.4339 	 40.3038 	 115.773 	 
C 	 -55.7193 	 38.646 	 115.97 	 
C 	 -56.1636 	 38.0339 	 114.868 	 
C 	 -55.927 	 38.777 	 113.648 	 
C 	 -55.5722 	 40.1245 	 114.007 	 
H 	 -56.5523 	 37.0317 	 115.016 	 
C 	 -56.3996 	 38.3665 	 112.283 	 
H 	 -56.2599 	 37.3074 	 112.113 	 
H 	 -55.8642 	 38.917 	 111.496 	 
C 	 -57.8504 	 38.7172 	 111.983 	 
H 	 -58.1655 	 39.7748 	 112.087 	 
H 	 -58.51 	 38.1279 	 112.682 	 
C 	 -58.2888 	 38.2317 	 110.599 	 
H 	 -57.4564 	 38.3494 	 109.887 	 
H 	 -59.1936 	 38.54 	 110.144 	 
H 	 -58.309 	 37.0938 	 110.473 	 
H 	 -55.0369 	 44.6541 	 112.151 	 
H 	 -55.7416 	 38.1649 	 116.943 	 
*
