! wB97X-D3 SP def2-SVP
%pal
nprocs 16
end

* xyz 0 1
S 	 63.8516 	 19.1654 	 76.9681 	 
C 	 62.6371 	 19.7656 	 78.1372 	 
C 	 63.234 	 19.7418 	 79.4333 	 
C 	 64.568 	 19.2132 	 79.4599 	 
C 	 64.9898 	 18.8321 	 78.185 	 
H 	 65.2774 	 19.0589 	 80.2881 	 
C 	 62.6774 	 20.2276 	 80.7083 	 
H 	 62.3237 	 21.2103 	 80.4011 	 
H 	 63.469 	 20.5927 	 81.3642 	 
C 	 61.5535 	 19.4083 	 81.4383 	 
H 	 61.9904 	 18.4598 	 81.7385 	 
H 	 61.2752 	 19.8977 	 82.4058 	 
C 	 60.2804 	 19.1704 	 80.5142 	 
H 	 59.4529 	 18.8048 	 81.1681 	 
H 	 59.9272 	 20.092 	 80.1113 	 
H 	 60.4015 	 18.5792 	 79.5876 	 
S 	 67.7213 	 18.8789 	 77.9047 	 
C 	 68.4464 	 17.3308 	 77.421 	 
C 	 67.633 	 16.2815 	 77.3826 	 
C 	 66.2503 	 16.6232 	 77.6356 	 
C 	 66.1756 	 18.0131 	 77.9087 	 
H 	 68.0605 	 15.3577 	 77.1133 	 
C 	 65.199 	 15.6689 	 77.8696 	 
H 	 64.1974 	 16.1387 	 77.5877 	 
H 	 65.2154 	 15.4039 	 78.9402 	 
C 	 65.172 	 14.2503 	 77.2506 	 
H 	 66.1762 	 13.9063 	 77.4262 	 
H 	 64.8747 	 14.4619 	 76.271 	 
C 	 64.1737 	 13.2359 	 77.7853 	 
H 	 64.1035 	 13.2036 	 78.9214 	 
H 	 64.3756 	 12.2078 	 77.413 	 
H 	 63.1652 	 13.4937 	 77.4706 	 
H 	 61.6452 	 20.0543 	 77.948 	 
H 	 69.5087 	 17.1724 	 77.1706 	 
*
