! wB97X-D3 SP def2-SVP
%pal
nprocs 16
end

* xyz 0 1
S 	 -17.3758 	 -9.85156 	 81.5432 	 
C 	 -16.224 	 -9.38231 	 80.2119 	 
C 	 -15.1904 	 -8.6691 	 80.7293 	 
C 	 -15.3437 	 -8.4046 	 82.1273 	 
C 	 -16.4772 	 -8.93923 	 82.7429 	 
H 	 -14.6742 	 -7.76099 	 82.7706 	 
C 	 -14.1324 	 -8.01708 	 79.9032 	 
H 	 -13.2084 	 -8.56872 	 80.1953 	 
H 	 -13.9245 	 -7.06314 	 80.3782 	 
C 	 -14.243 	 -7.86408 	 78.4077 	 
H 	 -14.492 	 -8.81741 	 77.8844 	 
H 	 -15.068 	 -7.16197 	 78.2348 	 
C 	 -12.9839 	 -7.25609 	 77.7471 	 
H 	 -12.7328 	 -6.44325 	 78.3376 	 
H 	 -12.0898 	 -7.83488 	 77.7255 	 
H 	 -13.2327 	 -6.89802 	 76.7151 	 
S 	 -17.5001 	 -10.3499 	 84.9689 	 
C 	 -17.4857 	 -9.48677 	 86.5284 	 
C 	 -17.3667 	 -8.11194 	 86.3179 	 
C 	 -17.1106 	 -7.71263 	 84.9449 	 
C 	 -17.1021 	 -8.83341 	 84.0733 	 
H 	 -17.5615 	 -7.44722 	 87.1033 	 
C 	 -16.8889 	 -6.23911 	 84.6128 	 
H 	 -16.4992 	 -6.25261 	 83.6405 	 
H 	 -16.0587 	 -5.88446 	 85.2344 	 
C 	 -18.1356 	 -5.25223 	 84.7449 	 
H 	 -18.373 	 -5.08825 	 85.7805 	 
H 	 -19.0811 	 -5.6208 	 84.3305 	 
C 	 -17.97 	 -3.81416 	 84.2001 	 
H 	 -18.7101 	 -3.16493 	 84.6636 	 
H 	 -18.1902 	 -3.72924 	 83.1173 	 
H 	 -16.9978 	 -3.38873 	 84.4584 	 
H 	 -16.4192 	 -9.55267 	 79.1299 	 
H 	 -17.5509 	 -9.95027 	 87.4937 	 
*
