! wB97X-D3 SP def2-SVP
%pal
nprocs 16
end

* xyz 0 1
S 	 -1.04308 	 -15.3202 	 85.062 	 
C 	 -1.58158 	 -16.6747 	 86.0686 	 
C 	 -2.07442 	 -16.2466 	 87.2967 	 
C 	 -2.13969 	 -14.8191 	 87.3721 	 
C 	 -1.7646 	 -14.1824 	 86.2628 	 
H 	 -2.38221 	 -14.307 	 88.2417 	 
C 	 -2.34708 	 -17.2093 	 88.4277 	 
H 	 -1.37051 	 -17.2806 	 88.9199 	 
H 	 -2.54775 	 -18.2268 	 88.0623 	 
C 	 -3.25483 	 -16.7571 	 89.5597 	 
H 	 -2.74587 	 -15.976 	 90.1042 	 
H 	 -4.27401 	 -16.5139 	 89.3031 	 
C 	 -3.32369 	 -17.8247 	 90.6453 	 
H 	 -2.22534 	 -18.0934 	 91.0681 	 
H 	 -3.92947 	 -17.5022 	 91.5228 	 
H 	 -3.58641 	 -18.7753 	 90.2448 	 
S 	 -0.431427 	 -11.9798 	 85.2004 	 
C 	 -1.10535 	 -10.3351 	 85.4283 	 
C 	 -2.25237 	 -10.3965 	 86.213 	 
C 	 -2.70466 	 -11.7146 	 86.4599 	 
C 	 -1.85509 	 -12.7233 	 86.0061 	 
H 	 -2.61157 	 -9.48216 	 86.5568 	 
C 	 -3.95936 	 -11.952 	 87.3091 	 
H 	 -3.63599 	 -12.3759 	 88.2505 	 
H 	 -4.6356 	 -12.7374 	 86.9091 	 
C 	 -4.83387 	 -10.7405 	 87.6557 	 
H 	 -4.96709 	 -10.1755 	 86.706 	 
H 	 -4.2901 	 -10.0316 	 88.2471 	 
C 	 -6.18961 	 -10.9854 	 88.293 	 
H 	 -6.88115 	 -10.2215 	 88.3892 	 
H 	 -5.85904 	 -11.3805 	 89.2807 	 
H 	 -6.67985 	 -11.8144 	 87.7081 	 
H 	 -1.06304 	 -17.6535 	 85.8602 	 
H 	 -0.567999 	 -9.4236 	 85.2681 	 
*
