! wB97X-D3 SP def2-SVP
%pal
nprocs 16
end

* xyz 0 1
S 	 39.9621 	 28.2207 	 50.6175 	 
C 	 40.2785 	 29.8177 	 51.4303 	 
C 	 40.8431 	 30.7363 	 50.5596 	 
C 	 41.024 	 30.2013 	 49.2605 	 
C 	 40.4279 	 28.9706 	 49.073 	 
H 	 41.3751 	 30.7055 	 48.4207 	 
C 	 41.4312 	 32.0763 	 50.9585 	 
H 	 41.4511 	 32.0232 	 52.0506 	 
H 	 40.6238 	 32.7942 	 50.7983 	 
C 	 42.735 	 32.5244 	 50.2986 	 
H 	 42.706 	 32.5639 	 49.1589 	 
H 	 42.9141 	 33.5095 	 50.6589 	 
C 	 44.0145 	 31.8466 	 50.7031 	 
H 	 44.0703 	 31.8638 	 51.8169 	 
H 	 44.0355 	 30.8466 	 50.3852 	 
H 	 44.8876 	 32.317 	 50.2651 	 
S 	 40.8494 	 26.5146 	 47.8865 	 
C 	 40.1647 	 26.21 	 46.365 	 
C 	 39.7547 	 27.383 	 45.6984 	 
C 	 39.8645 	 28.5431 	 46.5404 	 
C 	 40.3175 	 28.2266 	 47.8377 	 
H 	 39.3773 	 27.2395 	 44.6939 	 
C 	 39.2983 	 29.841 	 46.1098 	 
H 	 39.0661 	 29.8569 	 45.0473 	 
H 	 40.0176 	 30.6291 	 46.3174 	 
C 	 37.9769 	 30.1804 	 46.66 	 
H 	 37.629 	 31.2124 	 46.4259 	 
H 	 37.8668 	 30.1829 	 47.7443 	 
C 	 36.8886 	 29.247 	 46.0605 	 
H 	 36.0004 	 29.4714 	 46.6058 	 
H 	 37.1503 	 28.2023 	 46.1456 	 
H 	 36.6918 	 29.4132 	 45.0218 	 
H 	 40.0939 	 29.9178 	 52.4715 	 
H 	 40.2529 	 25.2528 	 45.7925 	 
*
