! wB97X-D3 SP def2-SVP
%pal
nprocs 16
end

* xyz 0 1
S 	 39.9087 	 12.2138 	 89.59 	 
C 	 41.3938 	 13.037 	 89.3353 	 
C 	 41.9928 	 12.7518 	 88.1008 	 
C 	 41.3625 	 11.5441 	 87.5723 	 
C 	 40.2528 	 11.0659 	 88.2837 	 
H 	 41.6355 	 10.8887 	 86.7057 	 
C 	 43.2005 	 13.4849 	 87.431 	 
H 	 43.8115 	 12.7708 	 86.8909 	 
H 	 43.868 	 13.8029 	 88.1515 	 
C 	 42.8921 	 14.6138 	 86.4615 	 
H 	 42.6947 	 15.5378 	 87.0576 	 
H 	 43.7553 	 14.8308 	 85.8589 	 
C 	 41.6382 	 14.5352 	 85.6137 	 
H 	 40.7869 	 14.7717 	 86.2417 	 
H 	 41.6521 	 15.2604 	 84.8383 	 
H 	 41.4851 	 13.534 	 85.2057 	 
S 	 40.3777 	 8.30414 	 88.4159 	 
C 	 38.9307 	 7.38589 	 88.1229 	 
C 	 37.8875 	 8.18116 	 87.7851 	 
C 	 38.1567 	 9.58443 	 87.8874 	 
C 	 39.542 	 9.7815 	 88.1252 	 
H 	 36.9215 	 7.75284 	 87.4624 	 
C 	 37.1588 	 10.6368 	 87.5591 	 
H 	 37.4621 	 11.5975 	 87.9605 	 
H 	 36.2565 	 10.305 	 88.0158 	 
C 	 36.9204 	 10.8594 	 86.0309 	 
H 	 37.8877 	 10.9921 	 85.4664 	 
H 	 36.339 	 11.6971 	 85.7707 	 
C 	 36.4031 	 9.60341 	 85.2395 	 
H 	 35.3023 	 9.6507 	 85.3443 	 
H 	 36.7606 	 8.61898 	 85.5999 	 
H 	 36.6786 	 9.74833 	 84.1568 	 
H 	 41.6782 	 13.8302 	 90.0028 	 
H 	 38.8265 	 6.30205 	 88.0363 	 
*
