! wB97X-D3 SP def2-SVP
%pal
nprocs 16
end

* xyz 0 1
S 	 -79.9814 	 44.34 	 120.904 	 
C 	 -80.2706 	 42.6429 	 120.372 	 
C 	 -79.881 	 41.8082 	 121.457 	 
C 	 -79.5282 	 42.5196 	 122.643 	 
C 	 -79.5008 	 43.897 	 122.564 	 
H 	 -79.2494 	 42.015 	 123.548 	 
C 	 -79.9696 	 40.3178 	 121.451 	 
H 	 -79.5207 	 40.1465 	 120.439 	 
H 	 -81.0339 	 40.103 	 121.462 	 
C 	 -79.3463 	 39.4891 	 122.598 	 
H 	 -79.8662 	 39.6252 	 123.551 	 
H 	 -79.4856 	 38.4308 	 122.382 	 
C 	 -77.8473 	 39.6857 	 122.599 	 
H 	 -77.5158 	 40.6404 	 123.125 	 
H 	 -77.3801 	 38.9143 	 123.255 	 
H 	 -77.5036 	 39.6781 	 121.607 	 
S 	 -80.8941 	 45.7927 	 123.937 	 
C 	 -80.1336 	 46.4418 	 125.431 	 
C 	 -78.8713 	 45.9381 	 125.715 	 
C 	 -78.5152 	 44.9329 	 124.755 	 
C 	 -79.4774 	 44.7546 	 123.735 	 
H 	 -78.3236 	 46.2965 	 126.498 	 
C 	 -77.1361 	 44.3465 	 124.859 	 
H 	 -76.9735 	 44.0436 	 123.789 	 
H 	 -77.2075 	 43.3783 	 125.35 	 
C 	 -76.0161 	 45.0493 	 125.44 	 
H 	 -76.0686 	 44.9841 	 126.543 	 
H 	 -75.9811 	 46.0019 	 124.977 	 
C 	 -74.7374 	 44.3257 	 125.074 	 
H 	 -73.9508 	 44.9124 	 125.479 	 
H 	 -74.5789 	 44.1128 	 124.006 	 
H 	 -74.7414 	 43.3548 	 125.555 	 
H 	 -80.4876 	 42.2871 	 119.358 	 
H 	 -80.5776 	 47.1785 	 126.039 	 
*
