! wB97X-D3 SP def2-SVP
%pal
nprocs 16
end

* xyz 0 1
S 	 34.8511 	 -1.61467 	 74.6821 	 
C 	 34.8073 	 -1.3151 	 72.9368 	 
C 	 34.3241 	 -0.0705768 	 72.629 	 
C 	 33.8118 	 0.57883 	 73.7955 	 
C 	 33.9304 	 -0.176731 	 74.9931 	 
H 	 33.2967 	 1.53779 	 73.7575 	 
C 	 34.3658 	 0.490321 	 71.2289 	 
H 	 33.3203 	 0.664213 	 70.914 	 
H 	 34.7744 	 -0.348365 	 70.5933 	 
C 	 35.1517 	 1.80118 	 70.9714 	 
H 	 36.1666 	 1.56469 	 71.4866 	 
H 	 35.372 	 1.94839 	 69.9488 	 
C 	 34.5528 	 2.94955 	 71.6976 	 
H 	 33.5353 	 3.11512 	 71.5377 	 
H 	 34.6277 	 2.94625 	 72.835 	 
H 	 35.09 	 3.74907 	 71.1983 	 
S 	 32.7589 	 -0.963069 	 77.3107 	 
C 	 32.497 	 0.174586 	 78.5345 	 
C 	 33.0209 	 1.41336 	 78.284 	 
C 	 33.7363 	 1.4159 	 77.0508 	 
C 	 33.6031 	 0.182169 	 76.3976 	 
H 	 33.0734 	 2.13941 	 79.037 	 
C 	 34.4273 	 2.68778 	 76.55 	 
H 	 34.1096 	 3.45115 	 77.2394 	 
H 	 33.9311 	 3.03278 	 75.654 	 
C 	 35.9565 	 2.71808 	 76.3573 	 
H 	 36.0815 	 3.59275 	 75.7178 	 
H 	 36.2249 	 1.98849 	 75.6509 	 
C 	 36.862 	 2.76549 	 77.5567 	 
H 	 36.6769 	 3.56975 	 78.2915 	 
H 	 37.8524 	 2.95868 	 77.0886 	 
H 	 36.8377 	 1.82728 	 78.1544 	 
H 	 35.3624 	 -1.92442 	 72.2414 	 
H 	 32.1071 	 -0.24446 	 79.4941 	 
*
