! wB97X-D3 SP def2-SVP
%pal
nprocs 16
end

* xyz 0 1
S 	 -57.5809 	 28.1794 	 96.8162 	 
C 	 -57.5422 	 29.2926 	 98.2184 	 
C 	 -56.7406 	 28.7157 	 99.1696 	 
C 	 -56.3963 	 27.3495 	 98.9039 	 
C 	 -56.7916 	 26.8333 	 97.6633 	 
H 	 -55.8192 	 26.6424 	 99.4798 	 
C 	 -56.3387 	 29.4504 	 100.456 	 
H 	 -56.6433 	 30.5001 	 100.39 	 
H 	 -55.2497 	 29.5078 	 100.336 	 
C 	 -56.8453 	 28.9051 	 101.814 	 
H 	 -57.889 	 28.6408 	 101.743 	 
H 	 -56.249 	 28.0808 	 102.167 	 
C 	 -56.6921 	 29.96 	 102.991 	 
H 	 -56.7178 	 29.4499 	 103.968 	 
H 	 -55.7935 	 30.5611 	 102.954 	 
H 	 -57.5171 	 30.656 	 103.084 	 
S 	 -57.2116 	 24.1197 	 98.1264 	 
C 	 -56.746 	 22.9908 	 96.8496 	 
C 	 -56.2247 	 23.6706 	 95.7186 	 
C 	 -56.0235 	 25.0809 	 95.9033 	 
C 	 -56.5892 	 25.4921 	 97.154 	 
H 	 -55.9047 	 23.1567 	 94.8708 	 
C 	 -55.4549 	 25.9878 	 94.7505 	 
H 	 -55.1508 	 26.9235 	 95.1578 	 
H 	 -56.3152 	 26.1576 	 94.0069 	 
C 	 -54.1964 	 25.4884 	 94.2393 	 
H 	 -54.3664 	 24.4749 	 93.9132 	 
H 	 -53.5424 	 25.5226 	 95.1148 	 
C 	 -53.6533 	 26.2719 	 93.073 	 
H 	 -54.1612 	 26.1658 	 92.1327 	 
H 	 -52.6102 	 26.0236 	 93.015 	 
H 	 -53.6039 	 27.2949 	 93.3228 	 
H 	 -57.6533 	 30.3862 	 98.1814 	 
H 	 -56.9044 	 21.972 	 97.0063 	 
*
