! wB97X-D3 SP def2-SVP
%pal
nprocs 16
end

* xyz 0 1
S 	 4.70987 	 25.0218 	 66.7032 	 
C 	 4.78424 	 24.5525 	 65.0504 	 
C 	 5.67065 	 25.2706 	 64.3238 	 
C 	 6.46832 	 26.1364 	 65.1631 	 
C 	 6.04049 	 26.1428 	 66.4685 	 
H 	 7.34188 	 26.7117 	 64.8753 	 
C 	 6.04491 	 24.8207 	 62.9059 	 
H 	 5.33862 	 25.2291 	 62.2096 	 
H 	 5.89166 	 23.7518 	 62.8728 	 
C 	 7.49306 	 25.226 	 62.4682 	 
H 	 7.57176 	 25.1215 	 61.3298 	 
H 	 7.54581 	 26.2632 	 62.54 	 
C 	 8.64564 	 24.4032 	 63.1092 	 
H 	 9.55667 	 24.9936 	 63.0102 	 
H 	 8.55508 	 24.2401 	 64.1908 	 
H 	 8.67306 	 23.4649 	 62.6638 	 
S 	 7.10051 	 26.3717 	 69.1364 	 
C 	 7.42258 	 27.9267 	 69.7599 	 
C 	 6.88298 	 28.9059 	 68.9318 	 
C 	 6.35907 	 28.3857 	 67.6849 	 
C 	 6.48708 	 27.03 	 67.5987 	 
H 	 6.93845 	 29.9753 	 69.2205 	 
C 	 5.75797 	 29.2494 	 66.5896 	 
H 	 4.7288 	 29.5083 	 66.9251 	 
H 	 5.50943 	 28.7105 	 65.6625 	 
C 	 6.5104 	 30.5122 	 66.1467 	 
H 	 7.41549 	 30.3066 	 65.5938 	 
H 	 6.81364 	 30.9854 	 67.1024 	 
C 	 5.6556 	 31.4522 	 65.2732 	 
H 	 5.25898 	 30.9771 	 64.4176 	 
H 	 6.16978 	 32.3629 	 64.9266 	 
H 	 4.8363 	 31.9613 	 65.896 	 
H 	 4.03613 	 23.885 	 64.6677 	 
H 	 7.84164 	 27.9885 	 70.7423 	 
*
