! wB97X-D3 SP def2-SVP
%pal
nprocs 16
end

* xyz 0 1
S 	 47.6377 	 12.0373 	 84.6689 	 
C 	 46.5507 	 12.8399 	 83.4851 	 
C 	 47.197 	 13.5219 	 82.5186 	 
C 	 48.6199 	 13.5704 	 82.7927 	 
C 	 49.0279 	 12.8182 	 83.9002 	 
H 	 49.2936 	 13.9679 	 82.0893 	 
C 	 46.5678 	 14.0803 	 81.2809 	 
H 	 45.5953 	 13.6075 	 81.0091 	 
H 	 47.2523 	 13.749 	 80.4972 	 
C 	 46.4945 	 15.6235 	 81.1133 	 
H 	 47.4932 	 16.0713 	 81.0404 	 
H 	 46.061 	 15.8375 	 80.1898 	 
C 	 45.5297 	 16.3384 	 82.0501 	 
H 	 45.7204 	 17.3997 	 82.1054 	 
H 	 44.5783 	 16.255 	 81.5958 	 
H 	 45.5043 	 15.9328 	 83.0472 	 
S 	 50.9808 	 12.8587 	 85.7904 	 
C 	 52.4478 	 12.0384 	 85.4697 	 
C 	 52.5582 	 11.6867 	 84.1142 	 
C 	 51.3367 	 11.8963 	 83.3537 	 
C 	 50.377 	 12.4476 	 84.1757 	 
H 	 53.4568 	 11.2305 	 83.6745 	 
C 	 51.3033 	 11.4386 	 81.9399 	 
H 	 50.4001 	 11.6516 	 81.4173 	 
H 	 51.3757 	 10.3517 	 81.8731 	 
C 	 52.3883 	 12.0354 	 81.0661 	 
H 	 52.5325 	 11.3976 	 80.2639 	 
H 	 53.4448 	 11.8601 	 81.3709 	 
C 	 52.1425 	 13.4679 	 80.6135 	 
H 	 52.3019 	 14.1568 	 81.4392 	 
H 	 51.0703 	 13.6104 	 80.3097 	 
H 	 52.8161 	 13.9129 	 79.8819 	 
H 	 45.5014 	 12.6046 	 83.4615 	 
H 	 53.24 	 11.8496 	 86.1406 	 
*
