! wB97X-D3 SP def2-SVP
%pal
nprocs 16
end

* xyz 0 1
S 	 -49.2643 	 10.7596 	 91.3814 	 
C 	 -49.1104 	 12.5346 	 91.5341 	 
C 	 -49.7016 	 13.1639 	 90.4124 	 
C 	 -50.1055 	 12.2702 	 89.4036 	 
C 	 -49.9799 	 10.9561 	 89.7395 	 
H 	 -50.584 	 12.5146 	 88.4857 	 
C 	 -49.8166 	 14.6677 	 90.3207 	 
H 	 -50.3568 	 15.1004 	 91.1179 	 
H 	 -50.4044 	 14.8538 	 89.4662 	 
C 	 -48.421 	 15.3198 	 90.2757 	 
H 	 -48.5137 	 16.3862 	 90.5335 	 
H 	 -47.7656 	 14.833 	 91.0538 	 
C 	 -47.7306 	 15.2544 	 88.8845 	 
H 	 -47.4455 	 14.2215 	 88.6959 	 
H 	 -48.5217 	 15.5597 	 88.2058 	 
H 	 -46.8419 	 15.8688 	 88.8184 	 
S 	 -49.0626 	 8.54179 	 88.8435 	 
C 	 -49.8857 	 7.70905 	 87.4871 	 
C 	 -50.973 	 8.39056 	 87.101 	 
C 	 -51.2656 	 9.63357 	 87.8351 	 
C 	 -50.3187 	 9.82354 	 88.8424 	 
H 	 -51.4447 	 7.96475 	 86.1618 	 
C 	 -52.4092 	 10.5204 	 87.4468 	 
H 	 -52.5972 	 11.2593 	 88.2825 	 
H 	 -53.3319 	 9.94371 	 87.4122 	 
C 	 -52.2143 	 11.182 	 86.1155 	 
H 	 -51.984 	 10.3741 	 85.3549 	 
H 	 -51.4019 	 11.9261 	 86.1591 	 
C 	 -53.46 	 11.9112 	 85.7371 	 
H 	 -53.8382 	 12.6575 	 86.4912 	 
H 	 -54.2427 	 11.1679 	 85.7671 	 
H 	 -53.3629 	 12.3201 	 84.7092 	 
H 	 -48.6056 	 12.9447 	 92.4509 	 
H 	 -49.6163 	 6.77189 	 86.985 	 
*
