! wB97X-D3 SP def2-SVP
%pal
nprocs 16
end

* xyz 0 1
S 	 -55.3444 	 36.797 	 118.208 	 
C 	 -56.7185 	 37.0092 	 119.299 	 
C 	 -57.8705 	 37.1732 	 118.576 	 
C 	 -57.6632 	 37.3172 	 117.186 	 
C 	 -56.3371 	 37.1708 	 116.769 	 
H 	 -58.3818 	 37.4864 	 116.384 	 
C 	 -59.2153 	 37.101 	 119.158 	 
H 	 -59.6666 	 38.0926 	 119.032 	 
H 	 -59.1162 	 36.9512 	 120.212 	 
C 	 -60.1082 	 36.0503 	 118.415 	 
H 	 -61.1813 	 36.2021 	 118.729 	 
H 	 -60.1169 	 36.3279 	 117.417 	 
C 	 -59.6769 	 34.5603 	 118.561 	 
H 	 -59.9297 	 34.3304 	 119.616 	 
H 	 -60.2937 	 33.8827 	 117.96 	 
H 	 -58.6317 	 34.5723 	 118.277 	 
S 	 -54.5251 	 38.4839 	 115.417 	 
C 	 -54.2919 	 38.3806 	 113.724 	 
C 	 -55.2138 	 37.4647 	 113.257 	 
C 	 -56.0182 	 36.8547 	 114.236 	 
C 	 -55.7853 	 37.3503 	 115.472 	 
H 	 -55.3386 	 37.311 	 112.172 	 
C 	 -57.1059 	 35.8163 	 113.988 	 
H 	 -57.6317 	 35.7624 	 114.892 	 
H 	 -56.5158 	 34.8941 	 113.696 	 
C 	 -58.0962 	 36.1888 	 112.889 	 
H 	 -58.8919 	 35.4237 	 112.76 	 
H 	 -57.5761 	 36.4046 	 111.925 	 
C 	 -58.8606 	 37.491 	 113.275 	 
H 	 -59.5449 	 37.844 	 112.48 	 
H 	 -58.2125 	 38.354 	 113.517 	 
H 	 -59.4862 	 37.2534 	 114.148 	 
H 	 -56.8441 	 36.7681 	 120.367 	 
H 	 -53.513 	 38.848 	 113.155 	 
*
