! wB97X-D3 SP def2-SVP
%pal
nprocs 16
end

* xyz 0 1
S 	 -14.787 	 50.5025 	 31.8157 	 
C 	 -13.7402 	 50.684 	 30.4495 	 
C 	 -12.8346 	 49.6719 	 30.2986 	 
C 	 -13.1295 	 48.5654 	 31.153 	 
C 	 -14.1913 	 48.8179 	 32.0306 	 
H 	 -12.586 	 47.6219 	 31.1668 	 
C 	 -11.8515 	 49.6378 	 29.195 	 
H 	 -11.01 	 49.0251 	 29.61 	 
H 	 -11.4671 	 50.6802 	 29.0216 	 
C 	 -12.2371 	 49.0045 	 27.8614 	 
H 	 -12.5366 	 47.9611 	 28.035 	 
H 	 -13.0829 	 49.5213 	 27.5084 	 
C 	 -11.1509 	 48.9524 	 26.7833 	 
H 	 -10.5143 	 49.8703 	 26.7664 	 
H 	 -10.4217 	 48.2408 	 27.1069 	 
H 	 -11.4778 	 48.7142 	 25.7644 	 
S 	 -14.5648 	 48.2204 	 34.7226 	 
C 	 -15.314 	 46.7476 	 35.1923 	 
C 	 -15.5829 	 45.9737 	 34.094 	 
C 	 -15.247 	 46.6052 	 32.8121 	 
C 	 -14.8214 	 47.9228 	 33.0097 	 
H 	 -15.8986 	 44.9364 	 34.2384 	 
C 	 -15.4092 	 45.9621 	 31.4685 	 
H 	 -14.6242 	 46.405 	 30.8515 	 
H 	 -16.3893 	 46.3712 	 31.1895 	 
C 	 -15.2956 	 44.4492 	 31.3125 	 
H 	 -16.0792 	 44.0175 	 31.9091 	 
H 	 -14.3808 	 44.1418 	 31.7927 	 
C 	 -15.5092 	 43.9523 	 29.8784 	 
H 	 -15.1822 	 42.9647 	 29.7942 	 
H 	 -14.9338 	 44.5442 	 29.1405 	 
H 	 -16.6286 	 44.0527 	 29.715 	 
H 	 -13.7909 	 51.6046 	 29.8183 	 
H 	 -15.3724 	 46.5116 	 36.2555 	 
*
