! wB97X-D3 SP def2-SVP
%pal
nprocs 16
end

* xyz 0 1
S 	 -29.9634 	 53.4627 	 113.472 	 
C 	 -30.997 	 54.5661 	 112.603 	 
C 	 -30.8355 	 54.4476 	 111.251 	 
C 	 -29.981 	 53.3115 	 110.98 	 
C 	 -29.3926 	 52.6809 	 112.026 	 
H 	 -29.7104 	 52.9247 	 110.033 	 
C 	 -31.4968 	 55.1802 	 110.107 	 
H 	 -30.9067 	 55.0058 	 109.179 	 
H 	 -31.4701 	 56.256 	 110.176 	 
C 	 -32.9219 	 54.6446 	 109.88 	 
H 	 -32.8257 	 53.58 	 109.604 	 
H 	 -33.4027 	 54.7747 	 110.874 	 
C 	 -33.6975 	 55.3731 	 108.763 	 
H 	 -33.3807 	 55.105 	 107.793 	 
H 	 -34.7634 	 55.0639 	 108.745 	 
H 	 -33.819 	 56.492 	 108.871 	 
S 	 -28.8649 	 50.3683 	 113.392 	 
C 	 -27.6563 	 49.3605 	 112.851 	 
C 	 -26.9811 	 49.8968 	 111.73 	 
C 	 -27.4674 	 51.1447 	 111.318 	 
C 	 -28.4701 	 51.5568 	 112.159 	 
H 	 -26.1768 	 49.3749 	 111.297 	 
C 	 -26.8893 	 51.8425 	 110.1 	 
H 	 -26.0519 	 52.4325 	 110.518 	 
H 	 -27.5413 	 52.569 	 109.659 	 
C 	 -26.3541 	 51.0827 	 108.915 	 
H 	 -27.1345 	 50.5194 	 108.446 	 
H 	 -25.7367 	 50.3473 	 109.313 	 
C 	 -25.6187 	 51.9317 	 107.864 	 
H 	 -26.147 	 52.8088 	 107.477 	 
H 	 -25.3268 	 51.3421 	 107.029 	 
H 	 -24.6466 	 52.2117 	 108.286 	 
H 	 -31.6691 	 55.1736 	 113.104 	 
H 	 -27.4539 	 48.3448 	 113.143 	 
*
