! wB97X-D3 SP def2-SVP
%pal
nprocs 16
end

* xyz 0 1
S 	 -21.2171 	 1.84329 	 76.4114 	 
C 	 -20.49 	 0.378542 	 77.0617 	 
C 	 -21.4457 	 -0.5533 	 77.4138 	 
C 	 -22.7326 	 0.0118787 	 77.3979 	 
C 	 -22.7596 	 1.35827 	 76.9468 	 
H 	 -23.6257 	 -0.412002 	 77.8616 	 
C 	 -21.1394 	 -1.98984 	 77.8875 	 
H 	 -21.8265 	 -2.27217 	 78.7335 	 
H 	 -20.0653 	 -2.03522 	 78.291 	 
C 	 -21.3352 	 -3.05341 	 76.782 	 
H 	 -20.7158 	 -2.87024 	 76.0232 	 
H 	 -21.0526 	 -4.00213 	 77.185 	 
C 	 -22.7193 	 -3.19914 	 76.3109 	 
H 	 -22.9168 	 -2.36282 	 75.6945 	 
H 	 -22.8032 	 -4.17072 	 75.8192 	 
H 	 -23.3976 	 -3.08495 	 77.1254 	 
S 	 -23.4788 	 3.8679 	 77.9124 	 
C 	 -25.1134 	 4.37438 	 77.9639 	 
C 	 -25.9116 	 3.3633 	 77.6315 	 
C 	 -25.1859 	 2.22083 	 77.1497 	 
C 	 -23.8143 	 2.32376 	 77.2054 	 
H 	 -26.9824 	 3.54941 	 77.6581 	 
C 	 -25.9372 	 1.20744 	 76.4295 	 
H 	 -25.3089 	 0.738877 	 75.7097 	 
H 	 -26.7104 	 1.72762 	 75.8374 	 
C 	 -26.6436 	 0.129331 	 77.3514 	 
H 	 -27.5034 	 0.573033 	 77.8482 	 
H 	 -25.8828 	 -0.186896 	 78.1028 	 
C 	 -26.9698 	 -1.10253 	 76.5201 	 
H 	 -27.9683 	 -1.68549 	 76.7414 	 
H 	 -26.2395 	 -1.86381 	 76.7648 	 
H 	 -26.8378 	 -1.00283 	 75.4241 	 
H 	 -19.397 	 0.15143 	 76.9034 	 
H 	 -25.546 	 5.36712 	 78.2012 	 
*
