! wB97X-D3 SP def2-SVP
%pal
nprocs 16
end

* xyz 0 1
S 	 7.33557 	 18.8339 	 51.8899 	 
C 	 8.3094 	 17.718 	 52.8248 	 
C 	 9.5466 	 17.6777 	 52.2744 	 
C 	 9.73914 	 18.6947 	 51.2598 	 
C 	 8.6213 	 19.4408 	 50.9515 	 
H 	 10.6479 	 18.8587 	 50.63 	 
C 	 10.6501 	 16.8163 	 52.6358 	 
H 	 10.5974 	 16.6169 	 53.7016 	 
H 	 11.5436 	 17.3851 	 52.6095 	 
C 	 10.8651 	 15.5409 	 51.7964 	 
H 	 10.0262 	 14.8689 	 51.8937 	 
H 	 11.0512 	 15.7077 	 50.7072 	 
C 	 11.9956 	 14.6208 	 52.3522 	 
H 	 11.6571 	 14.1031 	 53.2556 	 
H 	 12.2617 	 13.8727 	 51.5725 	 
H 	 12.831 	 15.2849 	 52.6228 	 
S 	 9.32249 	 20.0677 	 48.368 	 
C 	 8.49261 	 21.4625 	 47.6139 	 
C 	 8.04548 	 22.2884 	 48.6145 	 
C 	 7.9679 	 21.7284 	 49.9463 	 
C 	 8.62411 	 20.494 	 49.9742 	 
H 	 7.76254 	 23.2522 	 48.3247 	 
C 	 7.15386 	 22.2908 	 51.0982 	 
H 	 7.11256 	 21.6528 	 51.9679 	 
H 	 6.11693 	 22.2878 	 50.8081 	 
C 	 7.47876 	 23.7069 	 51.5809 	 
H 	 7.20026 	 24.4315 	 50.8218 	 
H 	 8.5078 	 23.6686 	 51.7584 	 
C 	 6.66927 	 23.9849 	 52.88 	 
H 	 5.64753 	 24.228 	 52.6349 	 
H 	 7.08926 	 24.7993 	 53.5006 	 
H 	 6.79864 	 23.1716 	 53.5954 	 
H 	 7.83389 	 17.0575 	 53.5223 	 
H 	 8.63001 	 21.7783 	 46.5944 	 
*
