! wB97X-D3 SP def2-SVP
%pal
nprocs 16
end

* xyz 0 1
S 	 7.51032 	 -14.6193 	 66.0084 	 
C 	 7.53704 	 -16.2785 	 65.5846 	 
C 	 8.57989 	 -16.9549 	 66.1851 	 
C 	 9.42187 	 -16.0275 	 66.8749 	 
C 	 9.01598 	 -14.7256 	 66.8277 	 
H 	 10.3459 	 -16.2154 	 67.4331 	 
C 	 8.88504 	 -18.4288 	 66.1028 	 
H 	 8.18233 	 -18.7864 	 65.4024 	 
H 	 8.58032 	 -18.9161 	 66.9948 	 
C 	 10.3212 	 -18.8503 	 65.5749 	 
H 	 11.1275 	 -18.5725 	 66.286 	 
H 	 10.3046 	 -19.908 	 65.473 	 
C 	 10.63 	 -18.3178 	 64.174 	 
H 	 9.8827 	 -18.6507 	 63.4438 	 
H 	 10.707 	 -17.2769 	 64.2544 	 
H 	 11.6223 	 -18.7919 	 64.0053 	 
S 	 9.01092 	 -12.5835 	 68.641 	 
C 	 10.3837 	 -11.5023 	 68.647 	 
C 	 11.3988 	 -12.0705 	 67.8584 	 
C 	 11.072 	 -13.2354 	 67.1617 	 
C 	 9.77996 	 -13.6347 	 67.3598 	 
H 	 12.2453 	 -11.4181 	 67.7933 	 
C 	 12.064 	 -13.8816 	 66.2779 	 
H 	 11.5647 	 -14.685 	 65.7717 	 
H 	 12.6902 	 -14.3769 	 67.0269 	 
C 	 12.8194 	 -13.0534 	 65.2289 	 
H 	 13.489 	 -13.6797 	 64.6254 	 
H 	 13.6166 	 -12.4595 	 65.6773 	 
C 	 11.9903 	 -12.1031 	 64.4513 	 
H 	 11.474 	 -11.3606 	 65.0551 	 
H 	 11.147 	 -12.6303 	 63.9562 	 
H 	 12.5021 	 -11.565 	 63.6713 	 
H 	 6.93072 	 -16.7328 	 64.8986 	 
H 	 10.4365 	 -10.5163 	 69.1118 	 
*
