! wB97X-D3 SP def2-SVP
%pal
nprocs 16
end

* xyz 0 1
S 	 -78.4111 	 43.4656 	 124.204 	 
C 	 -79.3665 	 42.0046 	 124.113 	 
C 	 -79.7268 	 41.7852 	 122.78 	 
C 	 -79.1092 	 42.5977 	 121.855 	 
C 	 -78.4644 	 43.6181 	 122.468 	 
H 	 -79.2033 	 42.4164 	 120.787 	 
C 	 -80.6388 	 40.6424 	 122.391 	 
H 	 -81.3641 	 41.069 	 121.717 	 
H 	 -81.0788 	 40.4084 	 123.337 	 
C 	 -80.0412 	 39.3063 	 121.694 	 
H 	 -80.8244 	 38.5886 	 121.603 	 
H 	 -79.7818 	 39.483 	 120.692 	 
C 	 -78.9766 	 38.6482 	 122.535 	 
H 	 -79.3508 	 38.4489 	 123.613 	 
H 	 -78.679 	 37.7332 	 122.048 	 
H 	 -78.1621 	 39.3709 	 122.656 	 
S 	 -78.268 	 45.6696 	 120.539 	 
C 	 -76.7271 	 46.564 	 120.521 	 
C 	 -75.7188 	 45.8957 	 121.21 	 
C 	 -76.2047 	 44.6807 	 121.827 	 
C 	 -77.6104 	 44.6137 	 121.813 	 
H 	 -74.6992 	 46.2559 	 121.232 	 
C 	 -75.2563 	 43.7073 	 122.63 	 
H 	 -75.7287 	 43.3947 	 123.502 	 
H 	 -74.3958 	 44.2369 	 122.998 	 
C 	 -74.8619 	 42.4085 	 121.896 	 
H 	 -75.641 	 41.7483 	 121.529 	 
H 	 -74.4701 	 41.7809 	 122.674 	 
C 	 -73.769 	 42.6651 	 120.82 	 
H 	 -73.0111 	 43.3824 	 121.245 	 
H 	 -74.187 	 43.2646 	 119.971 	 
H 	 -73.1941 	 41.8222 	 120.466 	 
H 	 -79.6332 	 41.3912 	 124.957 	 
H 	 -76.6289 	 47.4481 	 119.907 	 
*
