! wB97X-D3 SP def2-SVP
%pal
nprocs 16
end

* xyz 0 1
S 	 -71.6429 	 46.3545 	 122.474 	 
C 	 -73.1707 	 45.7582 	 122.067 	 
C 	 -74.0973 	 46.3105 	 122.944 	 
C 	 -73.4534 	 46.9463 	 124.07 	 
C 	 -72.1222 	 47.1661 	 123.924 	 
H 	 -74.0134 	 47.4921 	 124.824 	 
C 	 -75.5999 	 46.1693 	 122.833 	 
H 	 -75.9469 	 46.4577 	 121.824 	 
H 	 -76.1083 	 46.7973 	 123.571 	 
C 	 -76.1338 	 44.791 	 123.219 	 
H 	 -75.7915 	 44.3301 	 124.141 	 
H 	 -77.2848 	 44.7869 	 123.287 	 
C 	 -75.8244 	 43.7774 	 122.13 	 
H 	 -74.8271 	 43.535 	 122.133 	 
H 	 -76.3238 	 42.8038 	 122.256 	 
H 	 -76.1364 	 44.0774 	 121.091 	 
S 	 -70.2883 	 46.7152 	 125.898 	 
C 	 -69.5996 	 48.0152 	 126.793 	 
C 	 -70.157 	 49.1955 	 126.356 	 
C 	 -71.137 	 49.1089 	 125.323 	 
C 	 -71.1801 	 47.8078 	 124.8 	 
H 	 -69.9525 	 50.1053 	 126.856 	 
C 	 -72.018 	 50.2638 	 124.893 	 
H 	 -72.946 	 50.1287 	 125.403 	 
H 	 -72.0917 	 49.9155 	 123.834 	 
C 	 -71.4754 	 51.7133 	 125.053 	 
H 	 -70.4985 	 51.8171 	 124.532 	 
H 	 -71.4171 	 52.0201 	 126.076 	 
C 	 -72.395 	 52.7488 	 124.292 	 
H 	 -72.6142 	 53.5825 	 125.02 	 
H 	 -73.3456 	 52.2781 	 124 	 
H 	 -72.0019 	 53.027 	 123.319 	 
H 	 -73.5247 	 45.3958 	 121.098 	 
H 	 -69.2086 	 47.8422 	 127.81 	 
*
