! wB97X-D3 SP def2-SVP
%pal
nprocs 16
end

* xyz 0 1
S 	 -32.6523 	 63.2373 	 120.372 	 
C 	 -33.8182 	 63.4759 	 119.075 	 
C 	 -33.2563 	 63.4249 	 117.8 	 
C 	 -31.8149 	 63.3158 	 117.929 	 
C 	 -31.3522 	 63.3984 	 119.203 	 
H 	 -31.1906 	 63.1705 	 117.114 	 
C 	 -34.022 	 63.2828 	 116.48 	 
H 	 -33.7296 	 64.1185 	 115.964 	 
H 	 -35.1362 	 63.2975 	 116.692 	 
C 	 -33.8469 	 62.0088 	 115.716 	 
H 	 -34.2259 	 62.1416 	 114.659 	 
H 	 -32.7975 	 61.8648 	 115.768 	 
C 	 -34.5457 	 60.7771 	 116.309 	 
H 	 -34.5817 	 59.938 	 115.555 	 
H 	 -34.0709 	 60.5596 	 117.238 	 
H 	 -35.6186 	 60.9652 	 116.522 	 
S 	 -29.6195 	 62.7999 	 121.191 	 
C 	 -27.8742 	 63.2287 	 121.103 	 
C 	 -27.637 	 63.9162 	 119.93 	 
C 	 -28.735 	 63.9911 	 119.004 	 
C 	 -29.9587 	 63.494 	 119.609 	 
H 	 -26.5929 	 64.2255 	 119.904 	 
C 	 -28.544 	 64.4752 	 117.558 	 
H 	 -28.002 	 65.4482 	 117.41 	 
H 	 -29.5508 	 64.5948 	 117.213 	 
C 	 -28.0518 	 63.2993 	 116.712 	 
H 	 -28.4995 	 62.2907 	 116.92 	 
H 	 -27.1387 	 63.0076 	 117.084 	 
C 	 -28.0331 	 63.5068 	 115.217 	 
H 	 -27.2976 	 64.2806 	 114.93 	 
H 	 -29.0347 	 63.88 	 114.965 	 
H 	 -27.8713 	 62.6465 	 114.709 	 
H 	 -34.959 	 63.4257 	 119.213 	 
H 	 -27.2553 	 63.3623 	 122.003 	 
*
