! wB97X-D3 SP def2-SVP
%pal
nprocs 16
end

* xyz 0 1
S 	 49.6188 	 5.4204 	 89.3285 	 
C 	 51.2085 	 5.59103 	 88.6371 	 
C 	 52.1337 	 5.17774 	 89.5466 	 
C 	 51.5848 	 4.55785 	 90.7049 	 
C 	 50.2076 	 4.47468 	 90.7011 	 
H 	 52.2209 	 4.09201 	 91.488 	 
C 	 53.625 	 5.40807 	 89.377 	 
H 	 54.1522 	 5.44759 	 90.3114 	 
H 	 53.6824 	 6.36035 	 88.8529 	 
C 	 54.1039 	 4.33096 	 88.4256 	 
H 	 54.0227 	 3.43879 	 89.0163 	 
H 	 53.5406 	 4.21109 	 87.5546 	 
C 	 55.5144 	 4.56397 	 88.0276 	 
H 	 55.9898 	 3.50876 	 87.914 	 
H 	 55.3952 	 5.0444 	 87.0831 	 
H 	 56.0059 	 5.17654 	 88.7872 	 
S 	 47.8246 	 4.53517 	 91.9177 	 
C 	 47.2984 	 3.15734 	 92.8383 	 
C 	 48.2336 	 2.14394 	 92.8825 	 
C 	 49.4734 	 2.51489 	 92.2587 	 
C 	 49.3409 	 3.7556 	 91.6155 	 
H 	 48.162 	 1.27398 	 93.5063 	 
C 	 50.6121 	 1.47226 	 92.1494 	 
H 	 50.5114 	 0.918799 	 93.0344 	 
H 	 51.534 	 1.96309 	 92.3282 	 
C 	 50.4026 	 0.507627 	 91.0185 	 
H 	 49.5218 	 -0.193994 	 91.1619 	 
H 	 51.2547 	 -0.194022 	 90.9318 	 
C 	 50.226 	 1.28927 	 89.6764 	 
H 	 50.9006 	 2.05382 	 89.5711 	 
H 	 49.1448 	 1.65077 	 89.5473 	 
H 	 50.4741 	 0.80491 	 88.7401 	 
H 	 51.4109 	 6.29126 	 87.8164 	 
H 	 46.3247 	 2.95108 	 93.1 	 
*
