! wB97X-D3 SP def2-SVP
%pal
nprocs 16
end

* xyz 0 1
S 	 35.2457 	 1.40795 	 73.304 	 
C 	 33.9044 	 0.390292 	 72.6804 	 
C 	 32.8072 	 0.398039 	 73.5521 	 
C 	 33.1423 	 1.0307 	 74.7898 	 
C 	 34.4329 	 1.51488 	 74.8749 	 
H 	 32.4452 	 1.19546 	 75.5716 	 
C 	 31.394 	 0.0369082 	 73.2767 	 
H 	 30.8107 	 0.238525 	 74.1815 	 
H 	 31.3612 	 -1.01907 	 73.0971 	 
C 	 30.5754 	 0.573426 	 72.1435 	 
H 	 30.9121 	 0.12439 	 71.2279 	 
H 	 29.5004 	 0.356482 	 72.2978 	 
C 	 30.5958 	 2.11259 	 72.0354 	 
H 	 31.5677 	 2.49365 	 71.824 	 
H 	 29.9908 	 2.30365 	 71.2039 	 
H 	 30.1644 	 2.57388 	 72.9562 	 
S 	 35.7162 	 3.91361 	 75.6378 	 
C 	 36.0081 	 4.10252 	 77.3641 	 
C 	 35.8055 	 2.94624 	 78.0638 	 
C 	 35.1657 	 1.97242 	 77.2595 	 
C 	 35.0386 	 2.29356 	 75.9612 	 
H 	 35.9706 	 2.98044 	 79.1385 	 
C 	 34.7024 	 0.676935 	 77.8946 	 
H 	 35.6028 	 0.162544 	 78.1731 	 
H 	 34.3299 	 0.0108358 	 77.1414 	 
C 	 33.7441 	 0.784369 	 79.1459 	 
H 	 32.847 	 1.26941 	 78.8533 	 
H 	 34.1283 	 1.44737 	 79.9109 	 
C 	 33.4228 	 -0.678135 	 79.712 	 
H 	 34.2653 	 -1.08224 	 80.3052 	 
H 	 33.1027 	 -1.30287 	 78.8825 	 
H 	 32.6171 	 -0.501641 	 80.3864 	 
H 	 33.7775 	 -0.0443532 	 71.6783 	 
H 	 36.4571 	 4.9323 	 77.7261 	 
*
