! wB97X-D3 SP def2-SVP
%pal
nprocs 16
end

* xyz 0 1
S 	 -40.3455 	 30.2563 	 78.6361 	 
C 	 -39.9974 	 30.615 	 76.9334 	 
C 	 -41.1797 	 30.7415 	 76.2396 	 
C 	 -42.3195 	 30.3359 	 77.0834 	 
C 	 -42.0727 	 30.0083 	 78.3583 	 
H 	 -43.2902 	 30.2983 	 76.7311 	 
C 	 -41.2991 	 31.1317 	 74.7237 	 
H 	 -42.1151 	 31.8783 	 74.658 	 
H 	 -41.8256 	 30.2653 	 74.3592 	 
C 	 -39.9654 	 31.4794 	 74.0303 	 
H 	 -39.4582 	 32.3243 	 74.4253 	 
H 	 -39.2664 	 30.6937 	 74.2722 	 
C 	 -39.9889 	 31.4902 	 72.4717 	 
H 	 -40.7788 	 32.1667 	 72.0295 	 
H 	 -38.9995 	 31.9646 	 72.1168 	 
H 	 -40.125 	 30.4758 	 72.033 	 
S 	 -42.8111 	 30.3729 	 80.9903 	 
C 	 -44.3668 	 29.78 	 81.5075 	 
C 	 -44.8983 	 28.892 	 80.6285 	 
C 	 -44.1819 	 28.8559 	 79.3998 	 
C 	 -43.009 	 29.6347 	 79.4032 	 
H 	 -45.7469 	 28.2218 	 80.8471 	 
C 	 -44.5817 	 27.9407 	 78.2537 	 
H 	 -43.9847 	 27.0038 	 78.2284 	 
H 	 -44.454 	 28.4115 	 77.2593 	 
C 	 -45.9346 	 27.2042 	 78.315 	 
H 	 -46.7275 	 27.9408 	 78.2585 	 
H 	 -46.0497 	 26.5496 	 79.1768 	 
C 	 -46.1868 	 26.4163 	 76.997 	 
H 	 -47.1945 	 25.9255 	 76.9031 	 
H 	 -45.463 	 25.6726 	 76.7744 	 
H 	 -46.1957 	 27.132 	 76.1613 	 
H 	 -39.0099 	 30.9933 	 76.6123 	 
H 	 -44.8334 	 29.8647 	 82.5028 	 
*
