! wB97X-D3 SP def2-SVP
%pal
nprocs 16
end

* xyz 0 1
S 	 -96.7571 	 52 	 121.332 	 
C 	 -95.9639 	 52.2681 	 119.871 	 
C 	 -96.6103 	 53.1607 	 119.042 	 
C 	 -97.9416 	 53.3434 	 119.471 	 
C 	 -98.2284 	 52.6355 	 120.616 	 
H 	 -98.6694 	 54.0141 	 118.98 	 
C 	 -96.1401 	 53.7456 	 117.68 	 
H 	 -95.0117 	 53.664 	 117.642 	 
H 	 -96.3576 	 54.8307 	 117.705 	 
C 	 -96.6983 	 53.058 	 116.383 	 
H 	 -96.2724 	 51.9845 	 116.35 	 
H 	 -97.817 	 53.0205 	 116.316 	 
C 	 -96.2044 	 53.6207 	 115.08 	 
H 	 -96.7143 	 53.0475 	 114.238 	 
H 	 -96.4132 	 54.6763 	 115.022 	 
H 	 -95.0784 	 53.4906 	 114.934 	 
S 	 -99.3577 	 53.1581 	 122.984 	 
C 	 -101.014 	 52.7611 	 123.381 	 
C 	 -101.575 	 52.1209 	 122.304 	 
C 	 -100.784 	 52.1496 	 121.108 	 
C 	 -99.4815 	 52.5895 	 121.342 	 
H 	 -102.529 	 51.6348 	 122.395 	 
C 	 -101.186 	 51.5141 	 119.865 	 
H 	 -100.373 	 51.7407 	 119.127 	 
H 	 -102.043 	 52.0072 	 119.466 	 
C 	 -101.638 	 50.0455 	 120.145 	 
H 	 -101.686 	 49.5074 	 119.197 	 
H 	 -102.62 	 50.0724 	 120.603 	 
C 	 -100.534 	 49.2731 	 120.88 	 
H 	 -100.765 	 48.2703 	 121.016 	 
H 	 -100.333 	 49.6332 	 121.873 	 
H 	 -99.6597 	 49.3803 	 120.268 	 
H 	 -95.0238 	 51.9687 	 119.468 	 
H 	 -101.563 	 52.8311 	 124.214 	 
*
