! wB97X-D3 SP def2-SVP
%pal
nprocs 16
end

* xyz 0 1
S 	 -33.0203 	 66.2421 	 98.6956 	 
C 	 -33.6858 	 65.0266 	 99.8301 	 
C 	 -33.2006 	 65.1782 	 101.12 	 
C 	 -32.2408 	 66.2549 	 101.192 	 
C 	 -32.0238 	 66.864 	 99.97 	 
H 	 -31.8785 	 66.5975 	 102.045 	 
C 	 -33.8319 	 64.5094 	 102.383 	 
H 	 -33.0008 	 64.49 	 103.119 	 
H 	 -34.1862 	 63.4379 	 102.055 	 
C 	 -35.0514 	 65.2962 	 103.006 	 
H 	 -35.92 	 65.3094 	 102.272 	 
H 	 -35.4495 	 64.6898 	 103.849 	 
C 	 -34.7202 	 66.7362 	 103.334 	 
H 	 -33.9621 	 66.8949 	 104.105 	 
H 	 -34.39 	 67.4116 	 102.506 	 
H 	 -35.634 	 67.202 	 103.635 	 
S 	 -31.226 	 69.1468 	 98.5567 	 
C 	 -29.6984 	 69.9057 	 98.9008 	 
C 	 -29.0087 	 69.1762 	 99.8109 	 
C 	 -29.7424 	 68.0236 	 100.322 	 
C 	 -31.0086 	 67.8844 	 99.7661 	 
H 	 -27.9705 	 69.4278 	 100.117 	 
C 	 -29.0681 	 67.0967 	 101.311 	 
H 	 -29.7474 	 66.7228 	 102.117 	 
H 	 -28.4424 	 67.7001 	 101.924 	 
C 	 -28.1692 	 66.0289 	 100.704 	 
H 	 -27.3879 	 65.7122 	 101.379 	 
H 	 -27.5301 	 66.3656 	 99.9103 	 
C 	 -29.0067 	 64.794 	 100.213 	 
H 	 -29.6908 	 65.1818 	 99.4361 	 
H 	 -29.6334 	 64.2175 	 100.92 	 
H 	 -28.3484 	 64.0615 	 99.6505 	 
H 	 -34.5565 	 64.3599 	 99.7871 	 
H 	 -29.314 	 70.6516 	 98.2941 	 
*
