! wB97X-D3 SP def2-SVP
%pal
nprocs 16
end

* xyz 0 1
S 	 -1.91935 	 45.5741 	 34.4431 	 
C 	 -1.80012 	 44.4567 	 35.8437 	 
C 	 -0.557174 	 44.4828 	 36.407 	 
C 	 0.308803 	 45.414 	 35.76 	 
C 	 -0.18169 	 46.049 	 34.6222 	 
H 	 1.367 	 45.5096 	 35.9201 	 
C 	 -0.0366055 	 43.691 	 37.5699 	 
H 	 0.784258 	 43.1251 	 37.222 	 
H 	 -0.746419 	 42.9332 	 37.8757 	 
C 	 0.494339 	 44.5675 	 38.7456 	 
H 	 1.1644 	 45.3776 	 38.3365 	 
H 	 -0.302512 	 44.9519 	 39.3327 	 
C 	 1.22141 	 43.6757 	 39.8213 	 
H 	 0.607041 	 43.3778 	 40.6506 	 
H 	 1.68802 	 42.8314 	 39.4421 	 
H 	 1.83011 	 44.4045 	 40.2186 	 
S 	 1.05362 	 46.4719 	 32.2399 	 
C 	 2.03002 	 47.8717 	 31.949 	 
C 	 2.05847 	 48.6607 	 33.0701 	 
C 	 1.25049 	 48.1101 	 34.1466 	 
C 	 0.511682 	 47.0259 	 33.7609 	 
H 	 2.7409 	 49.5241 	 33.2176 	 
C 	 1.32958 	 48.5847 	 35.599 	 
H 	 2.33886 	 48.5176 	 35.9659 	 
H 	 0.675152 	 47.9273 	 36.1727 	 
C 	 0.609792 	 49.9928 	 35.8793 	 
H 	 0.496154 	 50.1684 	 36.9358 	 
H 	 -0.386278 	 49.8974 	 35.5218 	 
C 	 1.42499 	 51.0823 	 35.2234 	 
H 	 0.964241 	 52.0974 	 35.431 	 
H 	 1.34219 	 50.9357 	 34.1542 	 
H 	 2.4676 	 51.115 	 35.5382 	 
H 	 -2.62587 	 43.8148 	 36.1318 	 
H 	 2.55236 	 47.9922 	 31.0201 	 
*
