! wB97X-D3 SP def2-SVP
%pal
nprocs 16
end

* xyz 0 1
S 	 -47.0667 	 -1.84563 	 95.3071 	 
C 	 -48.4072 	 -2.97615 	 95.2692 	 
C 	 -49.3952 	 -2.5666 	 94.431 	 
C 	 -48.9969 	 -1.49543 	 93.5848 	 
C 	 -47.8286 	 -0.912507 	 94.0659 	 
H 	 -49.4811 	 -1.00966 	 92.7774 	 
C 	 -50.6363 	 -3.38192 	 94.1615 	 
H 	 -50.4902 	 -4.45486 	 94.2398 	 
H 	 -50.9052 	 -3.21486 	 93.102 	 
C 	 -51.8416 	 -3.05245 	 95.0574 	 
H 	 -52.6219 	 -3.73302 	 94.7858 	 
H 	 -51.6442 	 -3.24758 	 96.1037 	 
C 	 -52.4229 	 -1.64386 	 94.8311 	 
H 	 -51.6549 	 -0.914679 	 95.1809 	 
H 	 -52.5365 	 -1.40091 	 93.826 	 
H 	 -53.3086 	 -1.40236 	 95.3904 	 
S 	 -48.0489 	 1.73293 	 93.3527 	 
C 	 -46.7135 	 2.55613 	 92.5702 	 
C 	 -45.7066 	 1.67185 	 92.2838 	 
C 	 -46.0183 	 0.37865 	 92.742 	 
C 	 -47.2185 	 0.285567 	 93.4365 	 
H 	 -44.8598 	 2.02167 	 91.7643 	 
C 	 -44.9073 	 -0.709831 	 92.5495 	 
H 	 -44.8481 	 -1.26996 	 93.4856 	 
H 	 -43.9645 	 -0.229447 	 92.2424 	 
C 	 -45.3847 	 -1.91059 	 91.6528 	 
H 	 -45.9885 	 -1.3902 	 90.8892 	 
H 	 -46.234 	 -2.43936 	 92.1518 	 
C 	 -44.242 	 -2.76941 	 91.1158 	 
H 	 -43.2497 	 -2.60349 	 91.642 	 
H 	 -44.0941 	 -2.63465 	 90.0713 	 
H 	 -44.4196 	 -3.8437 	 91.2372 	 
H 	 -48.3699 	 -3.95863 	 95.8421 	 
H 	 -46.6099 	 3.64796 	 92.4538 	 
*
