! wB97X-D3 SP def2-SVP
%pal
nprocs 16
end

* xyz 0 1
S 	 -15.3662 	 49.3787 	 45.2559 	 
C 	 -16.7636 	 50.3971 	 44.9964 	 
C 	 -16.5382 	 51.6982 	 44.6516 	 
C 	 -15.1522 	 51.924 	 44.8137 	 
C 	 -14.4097 	 50.8873 	 45.2383 	 
H 	 -14.6081 	 52.8392 	 44.6339 	 
C 	 -17.5896 	 52.8062 	 44.2413 	 
H 	 -18.5412 	 52.5325 	 44.6033 	 
H 	 -17.6884 	 52.7683 	 43.1748 	 
C 	 -17.2955 	 54.2535 	 44.7749 	 
H 	 -17.0051 	 54.2554 	 45.8208 	 
H 	 -16.4246 	 54.6189 	 44.2765 	 
C 	 -18.4792 	 55.2095 	 44.6572 	 
H 	 -19.416 	 54.9841 	 45.1348 	 
H 	 -18.2224 	 56.1905 	 45.02 	 
H 	 -18.7751 	 55.3025 	 43.6097 	 
S 	 -11.9782 	 50.2233 	 44.1849 	 
C 	 -10.5225 	 50.8971 	 44.8007 	 
C 	 -10.768 	 51.4954 	 45.9763 	 
C 	 -12.1683 	 51.6523 	 46.3017 	 
C 	 -12.9963 	 51.0239 	 45.3586 	 
H 	 -10.0056 	 51.8595 	 46.5279 	 
C 	 -12.6003 	 52.4639 	 47.4925 	 
H 	 -11.9425 	 52.3734 	 48.2954 	 
H 	 -13.5233 	 52.0648 	 47.819 	 
C 	 -12.9725 	 53.9115 	 47.1416 	 
H 	 -13.2677 	 54.4637 	 48.045 	 
H 	 -13.8141 	 53.9192 	 46.4679 	 
C 	 -11.7978 	 54.7486 	 46.5438 	 
H 	 -11.4971 	 54.2746 	 45.6319 	 
H 	 -10.9881 	 54.7565 	 47.305 	 
H 	 -12.1036 	 55.7912 	 46.4266 	 
H 	 -17.755 	 50.0017 	 44.9857 	 
H 	 -9.48664 	 50.714 	 44.434 	 
*
