! wB97X-D3 SP def2-SVP
%pal
nprocs 16
end

* xyz 0 1
S 	 25.4594 	 31.8226 	 57.3486 	 
C 	 26.0812 	 30.6395 	 56.1808 	 
C 	 27.3959 	 30.342 	 56.3983 	 
C 	 27.9818 	 31.1736 	 57.4199 	 
C 	 27.0693 	 31.957 	 58.0955 	 
H 	 28.986 	 31.0951 	 57.7424 	 
C 	 28.1323 	 29.2697 	 55.6146 	 
H 	 29.0286 	 29.76 	 55.2574 	 
H 	 27.5707 	 29.1019 	 54.6724 	 
C 	 28.2597 	 27.9163 	 56.3833 	 
H 	 28.5506 	 28.1503 	 57.4516 	 
H 	 27.2713 	 27.3648 	 56.4988 	 
C 	 29.1721 	 26.9495 	 55.6709 	 
H 	 30.1893 	 27.477 	 55.8784 	 
H 	 29.212 	 26.0341 	 56.2576 	 
H 	 28.9153 	 26.6957 	 54.6113 	 
S 	 26.4048 	 34.3364 	 59.1722 	 
C 	 26.9521 	 34.6852 	 60.7961 	 
C 	 27.8897 	 33.7794 	 61.2426 	 
C 	 28.1069 	 32.6932 	 60.3414 	 
C 	 27.3207 	 32.8553 	 59.1736 	 
H 	 28.3538 	 33.933 	 62.197 	 
C 	 28.8022 	 31.4345 	 60.7269 	 
H 	 28.7253 	 30.5775 	 60.0638 	 
H 	 28.3528 	 31.2446 	 61.7191 	 
C 	 30.2897 	 31.5784 	 60.8568 	 
H 	 30.8256 	 30.6306 	 61.1534 	 
H 	 30.6556 	 32.374 	 61.504 	 
C 	 30.9545 	 32.1719 	 59.6486 	 
H 	 30.5988 	 33.1445 	 59.3695 	 
H 	 30.8319 	 31.617 	 58.7772 	 
H 	 32.0433 	 32.3703 	 59.6973 	 
H 	 25.449 	 30.2698 	 55.419 	 
H 	 26.5305 	 35.4383 	 61.4912 	 
*
