! wB97X-D3 SP def2-SVP
%pal
nprocs 16
end

* xyz 0 1
S 	 -1.82775 	 -17.1467 	 87.6266 	 
C 	 -2.5678 	 -18.5914 	 87.1068 	 
C 	 -3.70644 	 -18.4261 	 86.3386 	 
C 	 -3.82437 	 -17.0208 	 85.9457 	 
C 	 -2.85188 	 -16.2749 	 86.4881 	 
H 	 -4.53637 	 -16.7087 	 85.2688 	 
C 	 -4.67097 	 -19.5504 	 85.8776 	 
H 	 -4.10626 	 -20.4281 	 85.671 	 
H 	 -4.99304 	 -19.2088 	 84.9153 	 
C 	 -5.6867 	 -19.9223 	 86.9709 	 
H 	 -5.21412 	 -20.2642 	 87.8874 	 
H 	 -6.27961 	 -19.0006 	 87.1035 	 
C 	 -6.55345 	 -21.1519 	 86.5377 	 
H 	 -6.98991 	 -21.6224 	 87.4272 	 
H 	 -7.36653 	 -20.8802 	 85.8065 	 
H 	 -5.97073 	 -21.9332 	 86.112 	 
S 	 -2.57362 	 -13.7689 	 87.65 	 
C 	 -2.71986 	 -12.3796 	 86.5823 	 
C 	 -2.66006 	 -12.7594 	 85.2551 	 
C 	 -2.8335 	 -14.1525 	 85.0962 	 
C 	 -2.68614 	 -14.8588 	 86.3206 	 
H 	 -2.60253 	 -12.0051 	 84.4228 	 
C 	 -2.75517 	 -14.8426 	 83.7356 	 
H 	 -2.09128 	 -15.7245 	 83.8233 	 
H 	 -2.35571 	 -14.0645 	 83.1086 	 
C 	 -4.08526 	 -15.1986 	 83.054 	 
H 	 -4.39984 	 -16.2662 	 83.263 	 
H 	 -3.79017 	 -15.2792 	 81.9631 	 
C 	 -5.27499 	 -14.2032 	 83.0717 	 
H 	 -5.97351 	 -14.3584 	 82.2142 	 
H 	 -4.98295 	 -13.1498 	 82.8512 	 
H 	 -5.7066 	 -14.104 	 84.116 	 
H 	 -2.37043 	 -19.5525 	 87.6086 	 
H 	 -2.64268 	 -11.3452 	 86.8285 	 
*
