! wB97X-D3 SP def2-SVP
%pal
nprocs 16
end

* xyz 0 1
S 	 54.8843 	 3.75655 	 84.0956 	 
C 	 55.0602 	 4.47577 	 82.4825 	 
C 	 55.9356 	 3.75073 	 81.6403 	 
C 	 56.4822 	 2.63351 	 82.3445 	 
C 	 55.9761 	 2.46074 	 83.6114 	 
H 	 57.1254 	 1.89181 	 81.8477 	 
C 	 56.2957 	 4.19304 	 80.23 	 
H 	 57.3717 	 4.4156 	 80.4103 	 
H 	 55.7494 	 5.07195 	 79.9348 	 
C 	 56.1408 	 3.11086 	 79.1074 	 
H 	 56.5266 	 2.12485 	 79.4323 	 
H 	 55.0801 	 3.04424 	 78.7928 	 
C 	 56.8721 	 3.48847 	 77.7609 	 
H 	 56.5877 	 2.85974 	 76.9141 	 
H 	 56.5193 	 4.47681 	 77.4815 	 
H 	 57.9812 	 3.51196 	 77.8625 	 
S 	 54.9994 	 0.490795 	 85.407 	 
C 	 56.068 	 -0.455056 	 86.4351 	 
C 	 57.3371 	 -0.166668 	 86.0712 	 
C 	 57.5564 	 0.857195 	 85.0315 	 
C 	 56.3415 	 1.37921 	 84.5787 	 
H 	 58.1073 	 -0.649459 	 86.6884 	 
C 	 58.8871 	 1.46825 	 84.7163 	 
H 	 59.4328 	 1.36861 	 85.6195 	 
H 	 58.5425 	 2.35242 	 84.2706 	 
C 	 59.7425 	 0.82724 	 83.5971 	 
H 	 59.1804 	 1.02436 	 82.6162 	 
H 	 59.7951 	 -0.24623 	 83.7789 	 
C 	 61.1978 	 1.35938 	 83.5587 	 
H 	 61.7433 	 0.733616 	 82.9918 	 
H 	 61.5304 	 1.38257 	 84.6018 	 
H 	 61.0963 	 2.36408 	 83.1109 	 
H 	 54.6511 	 5.42923 	 82.1975 	 
H 	 55.8386 	 -1.05442 	 87.3276 	 
*
