! wB97X-D3 SP def2-SVP
%pal
nprocs 16
end

* xyz 0 1
S 	 23.5787 	 6.73566 	 74.5036 	 
C 	 22.3153 	 5.97643 	 73.5458 	 
C 	 21.0606 	 6.36238 	 73.9963 	 
C 	 21.1124 	 7.48149 	 74.8933 	 
C 	 22.4145 	 7.82457 	 75.1954 	 
H 	 20.2729 	 8.02473 	 75.2998 	 
C 	 19.712 	 5.95974 	 73.5063 	 
H 	 18.9178 	 6.15434 	 74.2736 	 
H 	 19.6618 	 4.9526 	 73.1358 	 
C 	 19.2854 	 6.80577 	 72.2694 	 
H 	 18.2697 	 6.59532 	 72.0356 	 
H 	 19.2355 	 7.86239 	 72.5775 	 
C 	 20.272 	 6.64603 	 71.0684 	 
H 	 21.2756 	 7.03442 	 71.2462 	 
H 	 20.3188 	 5.61472 	 70.8604 	 
H 	 19.9489 	 7.18493 	 70.1963 	 
S 	 24.1575 	 8.42909 	 77.2848 	 
C 	 23.8119 	 9.77564 	 78.2739 	 
C 	 22.7827 	 10.4907 	 77.8607 	 
C 	 22.1841 	 10.0165 	 76.6545 	 
C 	 22.8261 	 8.83778 	 76.168 	 
H 	 22.4072 	 11.2195 	 78.489 	 
C 	 20.8384 	 10.5808 	 76.1153 	 
H 	 20.7569 	 10.1744 	 75.1327 	 
H 	 20.7203 	 11.6239 	 75.8783 	 
C 	 19.6196 	 10.1274 	 76.8657 	 
H 	 19.6206 	 9.04586 	 77.074 	 
H 	 18.771 	 10.3242 	 76.1916 	 
C 	 19.4748 	 10.8328 	 78.2543 	 
H 	 20.2413 	 10.3361 	 78.8887 	 
H 	 18.5363 	 10.7987 	 78.7638 	 
H 	 19.6861 	 11.9037 	 78.1344 	 
H 	 22.4673 	 5.3215 	 72.7074 	 
H 	 24.3623 	 10.0444 	 79.1174 	 
*
