! wB97X-D3 SP def2-SVP
%pal
nprocs 16
end

* xyz 0 1
S 	 -63.892 	 42.4734 	 130.929 	 
C 	 -64.8593 	 42.1002 	 132.316 	 
C 	 -64.2448 	 41.0353 	 132.954 	 
C 	 -63.082 	 40.5322 	 132.325 	 
C 	 -62.7298 	 41.2259 	 131.193 	 
H 	 -62.4139 	 39.7432 	 132.759 	 
C 	 -64.6657 	 40.4933 	 134.325 	 
H 	 -64.2911 	 41.3256 	 135.002 	 
H 	 -64.1075 	 39.6643 	 134.673 	 
C 	 -66.1091 	 40.2188 	 134.569 	 
H 	 -66.7477 	 41.1584 	 134.484 	 
H 	 -66.4843 	 39.5242 	 133.743 	 
C 	 -66.3503 	 39.5525 	 135.965 	 
H 	 -65.8384 	 39.907 	 136.846 	 
H 	 -67.4539 	 39.6387 	 136.081 	 
H 	 -66.174 	 38.4746 	 135.858 	 
S 	 -62.2338 	 40.7412 	 128.54 	 
C 	 -60.5679 	 40.3508 	 128.041 	 
C 	 -59.7179 	 40.414 	 129.145 	 
C 	 -60.3767 	 40.7341 	 130.389 	 
C 	 -61.7268 	 40.9209 	 130.23 	 
H 	 -58.5861 	 40.3127 	 128.942 	 
C 	 -59.4378 	 40.8038 	 131.621 	 
H 	 -58.5777 	 40.0886 	 131.412 	 
H 	 -60.1133 	 40.4411 	 132.354 	 
C 	 -58.8303 	 42.2291 	 132.035 	 
H 	 -58.4043 	 42.5754 	 131.104 	 
H 	 -58.044 	 42.2566 	 132.8 	 
C 	 -59.959 	 43.1685 	 132.609 	 
H 	 -59.6357 	 44.1049 	 133.142 	 
H 	 -60.5772 	 42.5958 	 133.36 	 
H 	 -60.6841 	 43.5075 	 131.895 	 
H 	 -65.6583 	 42.6634 	 132.642 	 
H 	 -60.1958 	 40.1998 	 127.003 	 
*
