! wB97X-D3 SP def2-SVP
%pal
nprocs 16
end

* xyz 0 1
S 	 -32.0404 	 67.5972 	 117.192 	 
C 	 -33.7133 	 67.115 	 116.781 	 
C 	 -33.7085 	 66.4044 	 115.564 	 
C 	 -32.4457 	 66.5747 	 114.883 	 
C 	 -31.4087 	 67.0613 	 115.707 	 
H 	 -32.2276 	 66.089 	 113.967 	 
C 	 -35.0096 	 65.8028 	 115.02 	 
H 	 -35.1178 	 66.3657 	 114.097 	 
H 	 -35.7993 	 66.0966 	 115.723 	 
C 	 -35.0857 	 64.3087 	 114.893 	 
H 	 -35.962 	 64.0842 	 114.425 	 
H 	 -34.3147 	 63.9135 	 114.224 	 
C 	 -34.865 	 63.5884 	 116.252 	 
H 	 -34.7621 	 62.5082 	 116.136 	 
H 	 -33.9569 	 63.9225 	 116.667 	 
H 	 -35.7304 	 63.8221 	 116.908 	 
S 	 -28.7746 	 66.8985 	 116.443 	 
C 	 -27.6668 	 67.937 	 115.536 	 
C 	 -28.2487 	 68.5817 	 114.502 	 
C 	 -29.5633 	 68.1103 	 114.267 	 
C 	 -30.0258 	 67.3534 	 115.331 	 
H 	 -27.626 	 69.1433 	 113.81 	 
C 	 -30.3684 	 68.6457 	 113.112 	 
H 	 -31.1897 	 68.0384 	 112.766 	 
H 	 -29.6495 	 68.4549 	 112.322 	 
C 	 -30.7788 	 70.1817 	 113.333 	 
H 	 -29.8499 	 70.7403 	 113.269 	 
H 	 -31.221 	 70.2689 	 114.276 	 
C 	 -31.6424 	 70.7128 	 112.206 	 
H 	 -31.8209 	 71.7725 	 112.448 	 
H 	 -32.5737 	 70.0673 	 112.261 	 
H 	 -31.1314 	 70.8227 	 111.24 	 
H 	 -34.6157 	 67.3229 	 117.221 	 
H 	 -26.6473 	 68.1927 	 115.837 	 
*
