! wB97X-D3 SP def2-SVP
%pal
nprocs 16
end

* xyz 0 1
S 	 -13.7271 	 40.5293 	 35.4559 	 
C 	 -15.209 	 39.6892 	 35.6474 	 
C 	 -15.5144 	 39.0016 	 34.4716 	 
C 	 -14.595 	 39.2721 	 33.4717 	 
C 	 -13.647 	 40.2584 	 33.7539 	 
H 	 -14.4714 	 38.7943 	 32.4569 	 
C 	 -16.816 	 38.3707 	 34.1292 	 
H 	 -17.2889 	 38.9227 	 33.3471 	 
H 	 -17.366 	 38.5906 	 35.0677 	 
C 	 -16.7192 	 36.837 	 33.587 	 
H 	 -17.6648 	 36.4137 	 33.1476 	 
H 	 -15.9087 	 36.8949 	 32.8506 	 
C 	 -16.199 	 35.9169 	 34.702 	 
H 	 -15.3771 	 36.2602 	 35.3573 	 
H 	 -17.0128 	 35.6876 	 35.2751 	 
H 	 -15.8206 	 34.9915 	 34.1677 	 
S 	 -10.8692 	 40.274 	 33.4641 	 
C 	 -10.2069 	 40.5773 	 31.8607 	 
C 	 -11.1846 	 40.9489 	 30.9669 	 
C 	 -12.5197 	 40.8739 	 31.5428 	 
C 	 -12.5592 	 40.57 	 32.8619 	 
H 	 -10.9279 	 41.1174 	 29.8973 	 
C 	 -13.7463 	 41.088 	 30.6157 	 
H 	 -13.7204 	 42.1203 	 30.1879 	 
H 	 -14.5663 	 41.0549 	 31.3336 	 
C 	 -14.0303 	 40.0245 	 29.5411 	 
H 	 -14.8538 	 40.4338 	 28.9759 	 
H 	 -14.4235 	 39.0643 	 29.8564 	 
C 	 -12.9635 	 39.654 	 28.5092 	 
H 	 -13.3489 	 38.8879 	 27.9219 	 
H 	 -11.9749 	 39.2711 	 28.8603 	 
H 	 -12.7504 	 40.4872 	 27.8476 	 
H 	 -15.8048 	 39.6822 	 36.5101 	 
H 	 -9.16667 	 40.5138 	 31.7432 	 
*
