! wB97X-D3 SP def2-SVP
%pal
nprocs 16
end

* xyz 0 1
S 	 42.7909 	 19.5747 	 48.0007 	 
C 	 41.1667 	 19.0672 	 47.8834 	 
C 	 40.4552 	 19.6445 	 46.8806 	 
C 	 41.2762 	 20.4807 	 46.0944 	 
C 	 42.5686 	 20.4663 	 46.572 	 
H 	 41.0773 	 21.127 	 45.3045 	 
C 	 38.8736 	 19.6028 	 46.6699 	 
H 	 38.666 	 18.5825 	 47.0579 	 
H 	 38.681 	 19.7487 	 45.614 	 
C 	 38.1628 	 20.6694 	 47.5243 	 
H 	 38.4163 	 21.5924 	 47.1258 	 
H 	 37.0601 	 20.5652 	 47.3091 	 
C 	 38.3983 	 20.6614 	 49.0886 	 
H 	 38.0531 	 19.7171 	 49.5348 	 
H 	 39.4853 	 20.8109 	 49.1939 	 
H 	 37.8818 	 21.4093 	 49.6911 	 
S 	 44.994 	 19.9172 	 45.4033 	 
C 	 45.8148 	 21.1386 	 44.5712 	 
C 	 45.2595 	 22.3944 	 44.8059 	 
C 	 44.0354 	 22.3678 	 45.5485 	 
C 	 43.6854 	 21.0484 	 45.8681 	 
H 	 45.7128 	 23.3474 	 44.6632 	 
C 	 43.3648 	 23.6925 	 46.0059 	 
H 	 43.9909 	 24.5741 	 45.7234 	 
H 	 43.4354 	 23.6844 	 47.1255 	 
C 	 41.895 	 23.9366 	 45.6115 	 
H 	 41.3104 	 23.4018 	 46.3615 	 
H 	 41.8338 	 23.3844 	 44.6541 	 
C 	 41.5267 	 25.439 	 45.3805 	 
H 	 42.3268 	 25.9433 	 44.7997 	 
H 	 41.52 	 25.9691 	 46.3558 	 
H 	 40.5862 	 25.6663 	 44.9011 	 
H 	 40.5652 	 18.6299 	 48.6687 	 
H 	 46.8219 	 21.0849 	 44.1768 	 
*
