! wB97X-D3 SP def2-SVP
%pal
nprocs 16
end

* xyz 0 1
S 	 -43.1059 	 24.8605 	 86.1141 	 
C 	 -44.0747 	 23.6913 	 85.2526 	 
C 	 -43.3542 	 22.9928 	 84.3144 	 
C 	 -42.1066 	 23.6226 	 84.1036 	 
C 	 -41.8028 	 24.6302 	 84.8858 	 
H 	 -41.4377 	 23.3385 	 83.3112 	 
C 	 -43.8644 	 21.8325 	 83.4395 	 
H 	 -43.5222 	 22.1789 	 82.4279 	 
H 	 -44.9917 	 21.9048 	 83.4314 	 
C 	 -43.4501 	 20.3809 	 83.7175 	 
H 	 -43.9102 	 19.6161 	 83.0088 	 
H 	 -42.4444 	 20.3054 	 83.5131 	 
C 	 -43.7859 	 19.8827 	 85.1211 	 
H 	 -43.1883 	 20.3396 	 85.904 	 
H 	 -44.771 	 20.3513 	 85.1607 	 
H 	 -44.0187 	 18.7407 	 85.1974 	 
S 	 -41.2568 	 27.2197 	 84.2862 	 
C 	 -39.5892 	 27.7302 	 84.095 	 
C 	 -38.6891 	 26.6901 	 84.3206 	 
C 	 -39.3629 	 25.5226 	 84.7651 	 
C 	 -40.7716 	 25.6199 	 84.6958 	 
H 	 -37.6138 	 26.7718 	 84.1578 	 
C 	 -38.5514 	 24.2558 	 85.0523 	 
H 	 -37.4975 	 24.6329 	 85.1552 	 
H 	 -38.6092 	 23.6763 	 84.1573 	 
C 	 -38.9016 	 23.4307 	 86.3477 	 
H 	 -39.9688 	 23.1272 	 86.3097 	 
H 	 -38.7617 	 24.1106 	 87.2205 	 
C 	 -37.991 	 22.1818 	 86.5406 	 
H 	 -37.8595 	 21.5491 	 85.6562 	 
H 	 -38.4688 	 21.5979 	 87.3047 	 
H 	 -37.0485 	 22.4945 	 86.7221 	 
H 	 -45.0989 	 23.4272 	 85.5925 	 
H 	 -39.2823 	 28.6551 	 83.7452 	 
*
