! wB97X-D3 SP def2-SVP
%pal
nprocs 16
end

* xyz 0 1
S 	 -96.7017 	 54.1291 	 125.021 	 
C 	 -95.4681 	 52.8666 	 125.183 	 
C 	 -95.9756 	 51.6663 	 125.606 	 
C 	 -97.4104 	 51.716 	 125.775 	 
C 	 -97.948 	 52.9505 	 125.408 	 
H 	 -98.0299 	 50.8977 	 126.019 	 
C 	 -95.1965 	 50.4198 	 125.764 	 
H 	 -95.9652 	 49.6375 	 126.022 	 
H 	 -94.6081 	 50.5394 	 126.686 	 
C 	 -94.4053 	 49.9107 	 124.443 	 
H 	 -93.7884 	 50.6543 	 124.001 	 
H 	 -93.8008 	 49.0648 	 124.673 	 
C 	 -95.4775 	 49.4252 	 123.39 	 
H 	 -96.0805 	 50.3235 	 123.07 	 
H 	 -94.8854 	 49.2563 	 122.514 	 
H 	 -95.9812 	 48.5287 	 123.656 	 
S 	 -99.9917 	 54.1681 	 126.808 	 
C 	 -101.615 	 53.7403 	 126.423 	 
C 	 -101.71 	 52.8652 	 125.372 	 
C 	 -100.442 	 52.5451 	 124.853 	 
C 	 -99.3553 	 53.1815 	 125.477 	 
H 	 -102.675 	 52.5042 	 125.075 	 
C 	 -100.34 	 51.5108 	 123.692 	 
H 	 -99.4374 	 51.559 	 123.206 	 
H 	 -101.026 	 51.9141 	 122.919 	 
C 	 -100.702 	 50.032 	 124.214 	 
H 	 -101.835 	 49.8353 	 124.181 	 
H 	 -100.579 	 50.0381 	 125.306 	 
C 	 -99.8601 	 48.9411 	 123.559 	 
H 	 -98.749 	 49.2301 	 123.44 	 
H 	 -100.305 	 48.877 	 122.495 	 
H 	 -99.8606 	 47.9652 	 124.008 	 
H 	 -94.4112 	 53.032 	 125.05 	 
H 	 -102.436 	 54.1338 	 127.035 	 
*
