! wB97X-D3 SP def2-SVP
%pal
nprocs 16
end

* xyz 0 1
S 	 -44.4671 	 37.4271 	 80.1278 	 
C 	 -43.099 	 38.1908 	 79.2742 	 
C 	 -42.0213 	 37.3023 	 79.1819 	 
C 	 -42.3018 	 35.986 	 79.7745 	 
C 	 -43.5504 	 35.9046 	 80.3122 	 
H 	 -41.6717 	 35.0838 	 79.8157 	 
C 	 -40.6747 	 37.6355 	 78.6301 	 
H 	 -40.6818 	 38.674 	 78.1984 	 
H 	 -40.4066 	 36.8723 	 77.9367 	 
C 	 -39.5583 	 37.6926 	 79.7152 	 
H 	 -39.785 	 38.3996 	 80.5448 	 
H 	 -39.5428 	 36.6798 	 80.1194 	 
C 	 -38.1504 	 37.9325 	 78.9972 	 
H 	 -37.3602 	 38.0722 	 79.8008 	 
H 	 -37.8074 	 37.1934 	 78.234 	 
H 	 -38.2712 	 38.8715 	 78.4225 	 
S 	 -45.6434 	 34.0731 	 79.9309 	 
C 	 -45.8059 	 32.7709 	 81.0202 	 
C 	 -44.874 	 32.8739 	 82.0524 	 
C 	 -43.9399 	 33.9303 	 81.8874 	 
C 	 -44.2879 	 34.7419 	 80.8163 	 
H 	 -44.79 	 32.0969 	 82.8408 	 
C 	 -42.8197 	 34.1312 	 82.8313 	 
H 	 -43.1571 	 33.9791 	 83.8443 	 
H 	 -42.6479 	 35.2525 	 82.874 	 
C 	 -41.465 	 33.5047 	 82.5343 	 
H 	 -41.3071 	 33.5185 	 81.4809 	 
H 	 -41.7034 	 32.4258 	 82.7192 	 
C 	 -40.2659 	 34.0046 	 83.3991 	 
H 	 -40.358 	 33.8826 	 84.4494 	 
H 	 -40.1531 	 35.0618 	 83.1159 	 
H 	 -39.3822 	 33.393 	 83.1563 	 
H 	 -43.0929 	 39.1361 	 78.8188 	 
H 	 -46.4778 	 32.0055 	 80.7513 	 
*
