! wB97X-D3 SP def2-SVP
%pal
nprocs 16
end

* xyz 0 1
S 	 2.36391 	 -3.44401 	 79.4148 	 
C 	 1.50245 	 -4.86258 	 80.0095 	 
C 	 0.795424 	 -4.64476 	 81.1336 	 
C 	 1.01722 	 -3.34636 	 81.6126 	 
C 	 1.76171 	 -2.54367 	 80.7927 	 
H 	 0.587349 	 -2.98516 	 82.5688 	 
C 	 -0.0681587 	 -5.6553 	 81.8359 	 
H 	 -0.253016 	 -6.36401 	 80.9995 	 
H 	 -1.02896 	 -5.23819 	 81.9493 	 
C 	 0.361688 	 -6.39048 	 83.1732 	 
H 	 -0.354398 	 -7.25121 	 83.3249 	 
H 	 1.36329 	 -6.67675 	 83.1307 	 
C 	 0.301814 	 -5.47245 	 84.3265 	 
H 	 1.00374 	 -4.70975 	 84.2175 	 
H 	 -0.589911 	 -4.9142 	 84.3962 	 
H 	 0.416825 	 -5.98995 	 85.2422 	 
S 	 3.80335 	 -0.571384 	 80.9119 	 
C 	 3.33125 	 1.04223 	 80.6699 	 
C 	 1.99144 	 1.21548 	 81.0426 	 
C 	 1.29778 	 -0.0193156 	 81.3569 	 
C 	 2.06702 	 -1.11409 	 80.9938 	 
H 	 1.67279 	 2.25474 	 81.0334 	 
C 	 -0.140361 	 -0.0586187 	 81.7992 	 
H 	 -0.265453 	 0.759165 	 82.4586 	 
H 	 -0.268611 	 -0.83333 	 82.5384 	 
C 	 -1.19096 	 -0.0761128 	 80.7376 	 
H 	 -1.1051 	 -0.885819 	 80.109 	 
H 	 -0.960146 	 0.751428 	 80.0731 	 
C 	 -2.61249 	 0.0869048 	 81.3462 	 
H 	 -3.30793 	 -0.106552 	 80.5774 	 
H 	 -2.93631 	 1.07825 	 81.5356 	 
H 	 -2.85276 	 -0.578776 	 82.155 	 
H 	 1.6699 	 -5.80874 	 79.5952 	 
H 	 3.9759 	 1.89512 	 80.5281 	 
*
