! wB97X-D3 SP def2-SVP
%pal
nprocs 16
end

* xyz 0 1
S 	 -113.079 	 55.8756 	 108.905 	 
C 	 -111.394 	 55.3284 	 109.133 	 
C 	 -110.822 	 55.863 	 110.339 	 
C 	 -111.678 	 56.7298 	 110.99 	 
C 	 -112.994 	 56.6644 	 110.469 	 
H 	 -111.341 	 57.4162 	 111.757 	 
C 	 -109.383 	 55.6489 	 110.75 	 
H 	 -108.846 	 56.5455 	 110.431 	 
H 	 -108.94 	 54.7534 	 110.179 	 
C 	 -109.103 	 55.3768 	 112.233 	 
H 	 -109.766 	 55.9117 	 112.932 	 
H 	 -109.396 	 54.337 	 112.4 	 
C 	 -107.656 	 55.6929 	 112.636 	 
H 	 -107.628 	 55.3827 	 113.709 	 
H 	 -106.849 	 55.1335 	 112.198 	 
H 	 -107.341 	 56.7087 	 112.471 	 
S 	 -114.836 	 58.7349 	 109.986 	 
C 	 -115.868 	 59.2486 	 111.229 	 
C 	 -115.663 	 58.5088 	 112.443 	 
C 	 -114.649 	 57.521 	 112.246 	 
C 	 -114.11 	 57.4864 	 110.972 	 
H 	 -116.246 	 58.875 	 113.317 	 
C 	 -114.205 	 56.685 	 113.459 	 
H 	 -113.769 	 55.7498 	 113.065 	 
H 	 -115.19 	 56.2333 	 113.831 	 
C 	 -113.34 	 57.3009 	 114.515 	 
H 	 -113.485 	 58.3847 	 114.453 	 
H 	 -112.356 	 56.9913 	 114.236 	 
C 	 -113.468 	 56.8074 	 115.94 	 
H 	 -112.617 	 57.2229 	 116.521 	 
H 	 -113.341 	 55.7326 	 115.901 	 
H 	 -114.421 	 57.0466 	 116.427 	 
H 	 -110.985 	 54.6276 	 108.407 	 
H 	 -116.466 	 60.0935 	 111.195 	 
*
