! wB97X-D3 SP def2-SVP
%pal
nprocs 16
end

* xyz 0 1
S 	 -106.549 	 53.28 	 118.645 	 
C 	 -106.489 	 52.3597 	 120.186 	 
C 	 -105.333 	 52.5965 	 120.837 	 
C 	 -104.465 	 53.4916 	 120.082 	 
C 	 -105.076 	 53.985 	 118.962 	 
H 	 -103.512 	 53.8958 	 120.256 	 
C 	 -105.011 	 51.9932 	 122.265 	 
H 	 -103.893 	 51.9419 	 122.285 	 
H 	 -105.311 	 50.9211 	 122.243 	 
C 	 -105.626 	 52.7243 	 123.451 	 
H 	 -106.714 	 52.7634 	 123.284 	 
H 	 -105.496 	 52.1396 	 124.369 	 
C 	 -104.957 	 54.1069 	 123.565 	 
H 	 -105.396 	 54.6412 	 124.44 	 
H 	 -103.892 	 54.0194 	 123.544 	 
H 	 -105.164 	 54.8379 	 122.787 	 
S 	 -105.318 	 56.5153 	 117.857 	 
C 	 -103.95 	 57.2742 	 117.023 	 
C 	 -102.909 	 56.3521 	 116.849 	 
C 	 -103.195 	 55.095 	 117.537 	 
C 	 -104.441 	 55.0456 	 118.211 	 
H 	 -102.067 	 56.7631 	 116.372 	 
C 	 -102.325 	 53.897 	 117.247 	 
H 	 -102.104 	 53.8469 	 116.219 	 
H 	 -103.001 	 53.0728 	 117.335 	 
C 	 -101.136 	 53.6125 	 118.175 	 
H 	 -101.133 	 52.505 	 118.229 	 
H 	 -101.46 	 54.0322 	 119.143 	 
C 	 -99.8797 	 54.2806 	 117.624 	 
H 	 -100.075 	 55.4204 	 117.783 	 
H 	 -99.7656 	 54.0608 	 116.603 	 
H 	 -98.984 	 54.0569 	 118.177 	 
H 	 -107.16 	 51.6455 	 120.607 	 
H 	 -104.024 	 58.1815 	 116.563 	 
*
