! wB97X-D3 SP def2-SVP
%pal
nprocs 16
end

* xyz 0 1
S 	 -7.42897 	 75.8881 	 49.4387 	 
C 	 -6.31789 	 77.1864 	 49.9331 	 
C 	 -5.48751 	 77.4667 	 48.876 	 
C 	 -5.58322 	 76.5665 	 47.7579 	 
C 	 -6.7448 	 75.7653 	 47.8458 	 
H 	 -4.97382 	 76.6477 	 46.9298 	 
C 	 -4.4294 	 78.4908 	 49.0352 	 
H 	 -4.77044 	 79.2203 	 49.7687 	 
H 	 -4.32913 	 79.044 	 48.0786 	 
C 	 -3.04626 	 77.9581 	 49.434 	 
H 	 -3.08351 	 77.2909 	 50.3045 	 
H 	 -2.75647 	 77.1893 	 48.6726 	 
C 	 -1.91235 	 78.974 	 49.5765 	 
H 	 -2.17046 	 79.8154 	 50.2184 	 
H 	 -1.0047 	 78.6292 	 50.021 	 
H 	 -1.70108 	 79.4124 	 48.6138 	 
S 	 -7.92964 	 73.1953 	 47.6116 	 
C 	 -8.33431 	 72.6202 	 46.0078 	 
C 	 -7.73317 	 73.4143 	 44.9929 	 
C 	 -7.19617 	 74.6045 	 45.5469 	 
C 	 -7.17553 	 74.7067 	 46.9233 	 
H 	 -7.93082 	 73.1805 	 43.9356 	 
C 	 -6.78354 	 75.6804 	 44.64 	 
H 	 -6.49109 	 75.3326 	 43.6182 	 
H 	 -5.7594 	 75.9406 	 44.9336 	 
C 	 -7.80784 	 76.884 	 44.484 	 
H 	 -7.9616 	 77.3935 	 45.3845 	 
H 	 -8.73345 	 76.3814 	 44.2171 	 
C 	 -7.57342 	 77.9379 	 43.4149 	 
H 	 -8.28306 	 78.7899 	 43.5076 	 
H 	 -7.66783 	 77.5528 	 42.4264 	 
H 	 -6.64561 	 78.4286 	 43.4327 	 
H 	 -6.41874 	 77.9593 	 50.6452 	 
H 	 -8.76163 	 71.6341 	 45.7526 	 
*
