! wB97X-D3 SP def2-SVP
%pal
nprocs 16
end

* xyz 0 1
S 	 -40.2383 	 33.734 	 79.8218 	 
C 	 -39.422 	 32.3872 	 79.0584 	 
C 	 -38.6804 	 31.6492 	 79.9826 	 
C 	 -38.6735 	 32.3377 	 81.2443 	 
C 	 -39.5532 	 33.349 	 81.405 	 
H 	 -38.1822 	 31.9921 	 82.1491 	 
C 	 -37.8831 	 30.4152 	 79.6001 	 
H 	 -37.7872 	 30.4149 	 78.5284 	 
H 	 -38.5177 	 29.5866 	 79.9003 	 
C 	 -36.4808 	 30.1453 	 80.1071 	 
H 	 -35.6958 	 30.6469 	 79.5412 	 
H 	 -36.3634 	 30.5054 	 81.1612 	 
C 	 -36.2203 	 28.6077 	 79.9344 	 
H 	 -35.2313 	 28.2617 	 80.3967 	 
H 	 -36.9806 	 28.0342 	 80.4523 	 
H 	 -36.2114 	 28.2774 	 78.9514 	 
S 	 -41.7378 	 34.2463 	 82.9476 	 
C 	 -41.4467 	 35.0025 	 84.4634 	 
C 	 -40.1392 	 34.9557 	 84.8365 	 
C 	 -39.3047 	 34.3563 	 83.8269 	 
C 	 -40.0172 	 33.9707 	 82.6734 	 
H 	 -39.8573 	 35.3853 	 85.7774 	 
C 	 -37.8 	 34.3475 	 84.0685 	 
H 	 -37.3564 	 33.3598 	 83.8663 	 
H 	 -37.6186 	 34.5104 	 85.0296 	 
C 	 -37.1036 	 35.5 	 83.3084 	 
H 	 -37.4439 	 36.5492 	 83.5551 	 
H 	 -37.0931 	 35.411 	 82.1789 	 
C 	 -35.6406 	 35.4365 	 83.5803 	 
H 	 -35.1491 	 36.1687 	 83.0071 	 
H 	 -35.2759 	 34.4077 	 83.3996 	 
H 	 -35.4892 	 35.6286 	 84.6197 	 
H 	 -39.6725 	 31.9621 	 78.0425 	 
H 	 -42.2136 	 35.3923 	 85.1127 	 
*
