! wB97X-D3 SP def2-SVP
%pal
nprocs 16
end

* xyz 0 1
S 	 2.28676 	 13.4339 	 46.5331 	 
C 	 1.82327 	 11.9652 	 45.8014 	 
C 	 2.95523 	 11.1721 	 45.5189 	 
C 	 4.19921 	 11.866 	 45.6976 	 
C 	 4.01008 	 13.1033 	 46.2247 	 
H 	 5.14458 	 11.4529 	 45.4487 	 
C 	 2.94463 	 9.83233 	 44.9591 	 
H 	 2.46289 	 9.2608 	 45.7473 	 
H 	 3.98829 	 9.52921 	 44.9178 	 
C 	 2.25568 	 9.72995 	 43.5774 	 
H 	 1.20313 	 10.0127 	 43.7042 	 
H 	 2.81242 	 10.4327 	 42.8847 	 
C 	 2.39345 	 8.3045 	 43.1081 	 
H 	 1.80002 	 7.62635 	 43.7805 	 
H 	 2.08195 	 8.2856 	 42.0532 	 
H 	 3.45192 	 8.05547 	 42.919 	 
S 	 5.03611 	 14.7186 	 48.132 	 
C 	 6.22965 	 15.9325 	 47.6563 	 
C 	 6.59859 	 15.8674 	 46.3467 	 
C 	 5.91056 	 14.8 	 45.6491 	 
C 	 4.97746 	 14.159 	 46.4099 	 
H 	 7.27632 	 16.61 	 45.9319 	 
C 	 6.31294 	 14.4085 	 44.2024 	 
H 	 6.1753 	 13.3708 	 44.0526 	 
H 	 7.35902 	 14.4896 	 44.0073 	 
C 	 5.42094 	 14.9948 	 43.0176 	 
H 	 5.79793 	 14.4657 	 42.1347 	 
H 	 5.78842 	 15.9946 	 42.9398 	 
C 	 3.90934 	 14.9009 	 43.1593 	 
H 	 3.56867 	 13.9014 	 43.3796 	 
H 	 3.32079 	 15.0511 	 42.2014 	 
H 	 3.54978 	 15.5949 	 43.9204 	 
H 	 0.791208 	 11.6698 	 45.8921 	 
H 	 6.59304 	 16.6689 	 48.2634 	 
*
