! wB97X-D3 SP def2-SVP
%pal
nprocs 16
end

* xyz 0 1
S 	 34.2863 	 21.8297 	 48.9986 	 
C 	 33.8602 	 22.5662 	 50.5728 	 
C 	 34.1997 	 21.6884 	 51.6653 	 
C 	 34.8342 	 20.4889 	 51.1559 	 
C 	 35.0104 	 20.4567 	 49.8098 	 
H 	 35.2403 	 19.7111 	 51.7748 	 
C 	 33.9058 	 21.9932 	 53.0894 	 
H 	 33.6431 	 23.0447 	 53.3157 	 
H 	 34.7611 	 21.83 	 53.7425 	 
C 	 32.6744 	 21.201 	 53.4766 	 
H 	 31.8908 	 21.0329 	 52.7003 	 
H 	 32.9753 	 20.2047 	 53.8432 	 
C 	 31.8549 	 21.8609 	 54.6361 	 
H 	 32.2919 	 21.744 	 55.6211 	 
H 	 31.8136 	 22.9455 	 54.4978 	 
H 	 30.783 	 21.5853 	 54.6427 	 
S 	 34.8752 	 18.916 	 47.5055 	 
C 	 36.1004 	 17.7016 	 47.2593 	 
C 	 36.8736 	 17.5995 	 48.4085 	 
C 	 36.578 	 18.5364 	 49.4355 	 
C 	 35.5326 	 19.3298 	 49.0533 	 
H 	 37.6757 	 16.89 	 48.3373 	 
C 	 37.5039 	 18.5452 	 50.6227 	 
H 	 37.9518 	 17.5257 	 50.8886 	 
H 	 36.8804 	 18.7348 	 51.508 	 
C 	 38.6284 	 19.6234 	 50.5795 	 
H 	 38.0175 	 20.5181 	 50.6316 	 
H 	 39.1708 	 19.584 	 49.6262 	 
C 	 39.5776 	 19.5537 	 51.8314 	 
H 	 40.4319 	 20.2248 	 51.7337 	 
H 	 39.9343 	 18.5118 	 52.0133 	 
H 	 39.0399 	 19.8759 	 52.7482 	 
H 	 33.4576 	 23.5435 	 50.7448 	 
H 	 36.192 	 17.212 	 46.3399 	 
*
