! wB97X-D3 SP def2-SVP
%pal
nprocs 16
end

* xyz 0 1
S 	 52.9278 	 2.53569 	 86.2702 	 
C 	 54.6652 	 2.88566 	 86.451 	 
C 	 55.3561 	 2.87712 	 85.2658 	 
C 	 54.428 	 2.52302 	 84.1925 	 
C 	 53.1337 	 2.24474 	 84.5498 	 
H 	 54.6891 	 2.41816 	 83.1398 	 
C 	 56.8334 	 3.18419 	 85.0607 	 
H 	 57.4519 	 2.30724 	 85.0309 	 
H 	 57.2231 	 3.66274 	 85.9529 	 
C 	 57.2516 	 4.09112 	 83.8857 	 
H 	 58.2497 	 4.34456 	 83.9125 	 
H 	 57.1724 	 3.58382 	 82.8999 	 
C 	 56.4498 	 5.43457 	 83.8463 	 
H 	 56.371 	 5.96274 	 84.7412 	 
H 	 56.9238 	 6.22656 	 83.2018 	 
H 	 55.4574 	 5.28296 	 83.5274 	 
S 	 50.8726 	 3.78316 	 83.6645 	 
C 	 50.0143 	 3.17815 	 82.2969 	 
C 	 50.358 	 1.86711 	 82.0244 	 
C 	 51.464 	 1.41834 	 82.7654 	 
C 	 51.9314 	 2.37089 	 83.6857 	 
H 	 49.908 	 1.34692 	 81.1792 	 
C 	 52.1372 	 0.0999225 	 82.4831 	 
H 	 52.9848 	 -0.137186 	 83.2077 	 
H 	 52.6398 	 0.314607 	 81.5445 	 
C 	 51.1668 	 -1.07542 	 82.3147 	 
H 	 50.4705 	 -0.862218 	 81.5416 	 
H 	 50.6505 	 -1.10976 	 83.2161 	 
C 	 51.7746 	 -2.44149 	 82.143 	 
H 	 51.044 	 -3.24427 	 81.9184 	 
H 	 52.3346 	 -2.6904 	 82.986 	 
H 	 52.4477 	 -2.43061 	 81.3584 	 
H 	 55.2524 	 2.96707 	 87.3534 	 
H 	 49.154 	 3.66156 	 81.9146 	 
*
