! wB97X-D3 SP def2-SVP
%pal
nprocs 16
end

* xyz 0 1
S 	 -5.99303 	 12.3091 	 82.6945 	 
C 	 -6.43462 	 11.4313 	 81.218 	 
C 	 -7.15895 	 12.1947 	 80.2693 	 
C 	 -7.29172 	 13.5181 	 80.7358 	 
C 	 -6.73524 	 13.7437 	 81.9612 	 
H 	 -7.86884 	 14.29 	 80.2541 	 
C 	 -7.84765 	 11.7044 	 79.0221 	 
H 	 -7.42639 	 10.7979 	 78.5273 	 
H 	 -7.6766 	 12.5054 	 78.2942 	 
C 	 -9.38278 	 11.5257 	 79.0771 	 
H 	 -9.72368 	 11.3028 	 77.9601 	 
H 	 -9.62064 	 10.5886 	 79.5132 	 
C 	 -10.2209 	 12.6733 	 79.6866 	 
H 	 -10.2335 	 12.549 	 80.7228 	 
H 	 -9.74706 	 13.5753 	 79.5058 	 
H 	 -11.2166 	 12.7468 	 79.2568 	 
S 	 -7.85272 	 14.9136 	 84.2494 	 
C 	 -7.8233 	 16.6866 	 84.4696 	 
C 	 -7.09981 	 17.2706 	 83.4191 	 
C 	 -6.69197 	 16.3126 	 82.4156 	 
C 	 -6.97452 	 14.9711 	 82.7338 	 
H 	 -6.77608 	 18.3088 	 83.3636 	 
C 	 -5.96029 	 16.7693 	 81.1924 	 
H 	 -6.57639 	 17.4629 	 80.6047 	 
H 	 -5.74532 	 15.9154 	 80.5951 	 
C 	 -4.58233 	 17.3681 	 81.3771 	 
H 	 -4.72515 	 18.2317 	 82.0519 	 
H 	 -4.14452 	 17.8239 	 80.5196 	 
C 	 -3.56527 	 16.5188 	 82.0447 	 
H 	 -2.93062 	 15.879 	 81.4795 	 
H 	 -3.97664 	 15.9323 	 82.827 	 
H 	 -2.82603 	 17.1643 	 82.5025 	 
H 	 -6.20945 	 10.3797 	 81.1353 	 
H 	 -8.08876 	 17.2509 	 85.3581 	 
*
