! wB97X-D3 SP def2-SVP
%pal
nprocs 16
end

* xyz 0 1
S 	 4.01077 	 -21.5182 	 85.124 	 
C 	 2.75331 	 -22.708 	 85.4005 	 
C 	 3.11666 	 -24.0477 	 85.2335 	 
C 	 4.51708 	 -24.0628 	 84.8778 	 
C 	 5.14381 	 -22.8424 	 84.9373 	 
H 	 5.15141 	 -24.8495 	 84.7178 	 
C 	 2.24121 	 -25.2595 	 85.3763 	 
H 	 1.34427 	 -24.8502 	 85.8993 	 
H 	 2.58462 	 -26.0429 	 86.0814 	 
C 	 1.82209 	 -25.7772 	 83.9367 	 
H 	 1.42977 	 -25.0073 	 83.2547 	 
H 	 2.72911 	 -26.0117 	 83.3901 	 
C 	 0.876092 	 -27.0327 	 83.9638 	 
H 	 0.620467 	 -27.2167 	 82.9256 	 
H 	 1.33545 	 -27.9517 	 84.2877 	 
H 	 -0.0568923 	 -26.8314 	 84.5231 	 
S 	 7.68263 	 -24.0961 	 85.0026 	 
C 	 9.01778 	 -23.2056 	 84.2641 	 
C 	 8.72275 	 -21.935 	 84.0073 	 
C 	 7.28306 	 -21.6838 	 84.0509 	 
C 	 6.58263 	 -22.7366 	 84.6699 	 
H 	 9.507 	 -21.3695 	 83.7131 	 
C 	 6.75078 	 -20.2563 	 83.6904 	 
H 	 5.73162 	 -20.2389 	 83.2232 	 
H 	 7.36964 	 -19.9221 	 82.8328 	 
C 	 6.86762 	 -19.11 	 84.7681 	 
H 	 7.90808 	 -19.0389 	 85.1298 	 
H 	 6.15875 	 -19.2511 	 85.5793 	 
C 	 6.67485 	 -17.754 	 84.1493 	 
H 	 7.18675 	 -17.6849 	 83.2248 	 
H 	 7.08295 	 -16.9741 	 84.7789 	 
H 	 5.66126 	 -17.5678 	 83.8676 	 
H 	 1.73331 	 -22.4004 	 85.646 	 
H 	 10.0099 	 -23.6805 	 84.3635 	 
*
