! wB97X-D3 SP def2-SVP
%pal
nprocs 16
end

* xyz 0 1
S 	 -47.419 	 31.4258 	 93.1963 	 
C 	 -48.1378 	 29.84 	 93.0238 	 
C 	 -48.7633 	 29.7839 	 91.7901 	 
C 	 -48.5851 	 30.9461 	 90.9752 	 
C 	 -48.0253 	 32.0039 	 91.6471 	 
H 	 -48.8599 	 31.074 	 89.9656 	 
C 	 -49.2552 	 28.5324 	 91.145 	 
H 	 -49.2762 	 27.8247 	 91.9353 	 
H 	 -48.5329 	 28.2794 	 90.4343 	 
C 	 -50.678 	 28.6425 	 90.466 	 
H 	 -51.3117 	 29.3179 	 91.0615 	 
H 	 -50.5111 	 28.9608 	 89.4308 	 
C 	 -51.4946 	 27.3588 	 90.418 	 
H 	 -51.7096 	 26.9656 	 91.3742 	 
H 	 -52.4564 	 27.4898 	 89.8533 	 
H 	 -50.8823 	 26.6614 	 89.8335 	 
S 	 -46.6612 	 34.3809 	 91.939 	 
C 	 -47.2074 	 35.7913 	 91.0611 	 
C 	 -48.1859 	 35.5375 	 90.1801 	 
C 	 -48.5629 	 34.1536 	 90.187 	 
C 	 -47.8885 	 33.3757 	 91.1624 	 
H 	 -48.601 	 36.2899 	 89.4858 	 
C 	 -49.5802 	 33.7677 	 89.1581 	 
H 	 -49.1581 	 33.0653 	 88.4508 	 
H 	 -49.6367 	 34.5957 	 88.4784 	 
C 	 -50.9292 	 33.3047 	 89.6365 	 
H 	 -51.5138 	 33.982 	 90.2597 	 
H 	 -50.7088 	 32.3738 	 90.2359 	 
C 	 -51.7555 	 32.7788 	 88.515 	 
H 	 -51.1493 	 32.2684 	 87.7705 	 
H 	 -52.2552 	 33.596 	 88.0779 	 
H 	 -52.547 	 32.1616 	 88.9939 	 
H 	 -47.9506 	 28.8397 	 93.4993 	 
H 	 -46.7545 	 36.7692 	 91.3145 	 
*
