! wB97X-D3 SP def2-SVP
%pal
nprocs 16
end

* xyz 0 1
S 	 24.5202 	 0.534877 	 84.1652 	 
C 	 25.8666 	 1.55706 	 84.3327 	 
C 	 25.53 	 2.85741 	 83.9242 	 
C 	 24.1943 	 2.90359 	 83.3222 	 
C 	 23.5534 	 1.7446 	 83.3976 	 
H 	 23.7022 	 3.70463 	 82.8958 	 
C 	 26.3874 	 4.08913 	 83.948 	 
H 	 26.9806 	 4.14765 	 84.8288 	 
H 	 25.7469 	 4.90588 	 83.9118 	 
C 	 27.3339 	 4.14706 	 82.7864 	 
H 	 27.9443 	 3.30025 	 82.759 	 
H 	 26.6886 	 4.07183 	 81.9121 	 
C 	 28.3129 	 5.41155 	 82.7901 	 
H 	 28.9804 	 5.38595 	 83.6533 	 
H 	 28.8597 	 5.52339 	 81.8629 	 
H 	 27.7478 	 6.31361 	 82.9034 	 
S 	 21.107 	 0.930258 	 84.2203 	 
C 	 19.9456 	 0.363129 	 83.0235 	 
C 	 20.5062 	 0.471224 	 81.761 	 
C 	 21.7627 	 1.03378 	 81.6952 	 
C 	 22.2362 	 1.37893 	 82.9829 	 
H 	 19.9204 	 0.294965 	 80.8919 	 
C 	 22.4724 	 1.14168 	 80.3597 	 
H 	 23.415 	 1.58908 	 80.5897 	 
H 	 21.9596 	 1.82206 	 79.7164 	 
C 	 22.7532 	 -0.169408 	 79.5674 	 
H 	 21.8191 	 -0.562199 	 79.1619 	 
H 	 23.1782 	 -0.971148 	 80.1159 	 
C 	 23.6624 	 0.245177 	 78.3976 	 
H 	 23.3502 	 1.19654 	 77.9443 	 
H 	 23.5513 	 -0.433606 	 77.5301 	 
H 	 24.7217 	 0.381231 	 78.6868 	 
H 	 26.7778 	 1.37104 	 84.8551 	 
H 	 18.8971 	 0.185111 	 83.1701 	 
*
