! wB97X-D3 SP def2-SVP
%pal
nprocs 16
end

* xyz 0 1
S 	 15.8035 	 20.0274 	 38.5509 	 
C 	 15.6832 	 18.423 	 37.734 	 
C 	 14.4507 	 18.2716 	 37.1825 	 
C 	 13.6144 	 19.3802 	 37.4285 	 
C 	 14.1246 	 20.3843 	 38.2027 	 
H 	 12.625 	 19.4876 	 37.0575 	 
C 	 14.1243 	 17.2109 	 36.1659 	 
H 	 12.9985 	 17.1379 	 36.2312 	 
H 	 14.4843 	 16.2533 	 36.5168 	 
C 	 14.6376 	 17.4403 	 34.7001 	 
H 	 14.4359 	 18.453 	 34.3337 	 
H 	 15.7444 	 17.4039 	 34.7475 	 
C 	 13.9997 	 16.477 	 33.7092 	 
H 	 14.1819 	 15.4292 	 33.8276 	 
H 	 12.8591 	 16.5157 	 33.6875 	 
H 	 14.4361 	 16.7308 	 32.7186 	 
S 	 13.2306 	 22.7792 	 37.1594 	 
C 	 12.1185 	 23.7728 	 38.1739 	 
C 	 11.8649 	 23.147 	 39.3781 	 
C 	 12.3903 	 21.8501 	 39.4381 	 
C 	 13.3846 	 21.6032 	 38.4698 	 
H 	 11.0706 	 23.6706 	 39.9218 	 
C 	 12.0314 	 20.8281 	 40.5244 	 
H 	 12.4459 	 21.0846 	 41.4407 	 
H 	 12.4795 	 19.8162 	 40.3277 	 
C 	 10.5111 	 20.5778 	 40.7371 	 
H 	 10.0483 	 21.4491 	 41.1336 	 
H 	 10.4713 	 19.8412 	 41.5071 	 
C 	 9.87289 	 19.8188 	 39.5876 	 
H 	 10.4593 	 18.982 	 39.3158 	 
H 	 9.71134 	 20.3733 	 38.6373 	 
H 	 8.95067 	 19.3873 	 39.9678 	 
H 	 16.5496 	 17.7487 	 37.4782 	 
H 	 11.8198 	 24.757 	 37.9993 	 
*
