! wB97X-D3 SP def2-SVP
%pal
nprocs 16
end

* xyz 0 1
S 	 -13.0047 	 -7.82961 	 84.3988 	 
C 	 -13.8202 	 -7.75388 	 85.9292 	 
C 	 -13.1039 	 -8.42137 	 86.867 	 
C 	 -11.8127 	 -8.82067 	 86.4202 	 
C 	 -11.6095 	 -8.62356 	 85.1104 	 
H 	 -11.1171 	 -9.36793 	 87.0323 	 
C 	 -13.5378 	 -8.85147 	 88.3103 	 
H 	 -13.0786 	 -9.84419 	 88.5648 	 
H 	 -14.5664 	 -8.99299 	 88.17 	 
C 	 -13.264 	 -7.81387 	 89.3035 	 
H 	 -12.1753 	 -7.67537 	 89.3449 	 
H 	 -13.7171 	 -6.81565 	 89.0547 	 
C 	 -13.6932 	 -8.29434 	 90.7526 	 
H 	 -13.1515 	 -7.66318 	 91.4683 	 
H 	 -14.7634 	 -8.24726 	 90.9152 	 
H 	 -13.4093 	 -9.409 	 91.008 	 
S 	 -11.0221 	 -10.3273 	 83.1018 	 
C 	 -9.37722 	 -10.6037 	 82.6219 	 
C 	 -8.42657 	 -9.91544 	 83.3951 	 
C 	 -9.09607 	 -8.99949 	 84.2154 	 
C 	 -10.5208 	 -9.11084 	 84.2618 	 
H 	 -7.39209 	 -10.1789 	 83.2195 	 
C 	 -8.30044 	 -8.01333 	 85.0749 	 
H 	 -8.88119 	 -7.67209 	 85.9424 	 
H 	 -8.08657 	 -7.19967 	 84.4352 	 
C 	 -6.95838 	 -8.64063 	 85.6443 	 
H 	 -6.42174 	 -7.79087 	 86.0924 	 
H 	 -6.34047 	 -9.01587 	 84.8368 	 
C 	 -7.19242 	 -9.86185 	 86.6398 	 
H 	 -6.36152 	 -10.0696 	 87.2121 	 
H 	 -7.53021 	 -10.8384 	 86.1233 	 
H 	 -8.0312 	 -9.59086 	 87.2474 	 
H 	 -14.849 	 -7.49913 	 86.0163 	 
H 	 -9.14963 	 -11.3254 	 81.9088 	 
*
