! wB97X-D3 SP def2-SVP
%pal
nprocs 16
end

* xyz 0 1
S 	 -47.2373 	 31.3779 	 90.7561 	 
C 	 -48.1607 	 29.8955 	 90.686 	 
C 	 -48.6851 	 29.8295 	 89.4305 	 
C 	 -48.4169 	 31.0461 	 88.6605 	 
C 	 -47.7389 	 32.0232 	 89.301 	 
H 	 -48.8665 	 31.2602 	 87.6691 	 
C 	 -49.7546 	 28.8744 	 88.9735 	 
H 	 -49.4914 	 27.8775 	 89.4634 	 
H 	 -49.6344 	 28.6944 	 87.914 	 
C 	 -51.1257 	 29.2611 	 89.4745 	 
H 	 -51.1883 	 29.3979 	 90.5483 	 
H 	 -51.5349 	 30.2224 	 89.1084 	 
C 	 -52.354 	 28.3303 	 89.2181 	 
H 	 -52.1255 	 27.4156 	 89.7213 	 
H 	 -53.1587 	 28.6381 	 89.8305 	 
H 	 -52.8166 	 28.2147 	 88.1773 	 
S 	 -45.8487 	 33.9787 	 89.4777 	 
C 	 -46.1191 	 35.6097 	 88.8673 	 
C 	 -47.3886 	 35.68 	 88.258 	 
C 	 -48.0272 	 34.3622 	 88.1423 	 
C 	 -47.4097 	 33.3901 	 88.9015 	 
H 	 -47.7793 	 36.6063 	 87.8621 	 
C 	 -49.4154 	 34.2866 	 87.4685 	 
H 	 -49.3114 	 33.2796 	 86.9816 	 
H 	 -49.5017 	 35.1169 	 86.8363 	 
C 	 -50.6784 	 34.0699 	 88.3847 	 
H 	 -50.8057 	 34.8196 	 89.1873 	 
H 	 -50.5244 	 33.1918 	 88.9487 	 
C 	 -51.9964 	 33.6807 	 87.5821 	 
H 	 -51.9676 	 32.7913 	 86.9079 	 
H 	 -52.4096 	 34.5251 	 86.9531 	 
H 	 -52.8146 	 33.5489 	 88.2582 	 
H 	 -48.3471 	 29.2474 	 91.5303 	 
H 	 -45.371 	 36.3914 	 88.9616 	 
*
