! wB97X-D3 SP def2-SVP
%pal
nprocs 16
end

* xyz 0 1
S 	 69.3186 	 23.5765 	 77.6385 	 
C 	 69.3569 	 22.0317 	 78.5315 	 
C 	 69.8825 	 21.0192 	 77.7518 	 
C 	 69.9303 	 21.4218 	 76.3612 	 
C 	 69.6218 	 22.7488 	 76.0942 	 
H 	 70.1574 	 20.8438 	 75.5057 	 
C 	 70.2256 	 19.6524 	 78.233 	 
H 	 69.8888 	 19.4618 	 79.2809 	 
H 	 71.2598 	 19.6559 	 78.189 	 
C 	 69.7342 	 18.5667 	 77.306 	 
H 	 68.6168 	 18.5875 	 77.1052 	 
H 	 70.3012 	 18.6117 	 76.349 	 
C 	 70.0987 	 17.1523 	 77.7857 	 
H 	 69.8278 	 16.5639 	 76.9479 	 
H 	 71.2019 	 17.0481 	 77.9052 	 
H 	 69.515 	 16.9004 	 78.6765 	 
S 	 68.2606 	 23.0614 	 73.8241 	 
C 	 68.9287 	 23.8492 	 72.4952 	 
C 	 70.2376 	 24.2926 	 72.7031 	 
C 	 70.646 	 24.0354 	 74.0189 	 
C 	 69.6495 	 23.4192 	 74.7561 	 
H 	 70.7301 	 24.7675 	 71.9357 	 
C 	 72.03 	 24.3958 	 74.481 	 
H 	 71.8116 	 24.7058 	 75.5318 	 
H 	 72.3466 	 25.3806 	 74.0483 	 
C 	 73.1415 	 23.3186 	 74.3822 	 
H 	 73.314 	 23.2097 	 73.3526 	 
H 	 72.8473 	 22.3366 	 74.8201 	 
C 	 74.4646 	 23.7124 	 75.1257 	 
H 	 74.4909 	 23.9025 	 76.2021 	 
H 	 74.8148 	 24.7109 	 74.7253 	 
H 	 75.2876 	 23.0361 	 74.8991 	 
H 	 69.1336 	 21.8466 	 79.6219 	 
H 	 68.4842 	 23.8454 	 71.5276 	 
*
