! wB97X-D3 SP def2-SVP
%pal
nprocs 16
end

* xyz 0 1
S 	 5.12095 	 -4.76564 	 98.5953 	 
C 	 3.95006 	 -6.07197 	 98.6636 	 
C 	 4.50992 	 -7.21248 	 98.0808 	 
C 	 5.82892 	 -6.97205 	 97.5456 	 
C 	 6.26834 	 -5.72301 	 97.6977 	 
H 	 6.4325 	 -7.74594 	 97.1506 	 
C 	 3.86056 	 -8.56505 	 97.9722 	 
H 	 4.02179 	 -8.9885 	 96.9673 	 
H 	 2.77674 	 -8.44328 	 97.9934 	 
C 	 4.18963 	 -9.48403 	 99.1477 	 
H 	 3.6969 	 -9.08119 	 100.026 	 
H 	 3.62602 	 -10.3764 	 98.8646 	 
C 	 5.63189 	 -9.91368 	 99.346 	 
H 	 6.08424 	 -10.4344 	 98.521 	 
H 	 6.20802 	 -9.04399 	 99.5018 	 
H 	 5.68895 	 -10.5826 	 100.189 	 
S 	 8.54289 	 -4.69925 	 98.5171 	 
C 	 9.93167 	 -4.39712 	 97.4558 	 
C 	 9.65103 	 -4.9868 	 96.2444 	 
C 	 8.33366 	 -5.44961 	 96.0458 	 
C 	 7.54314 	 -5.29623 	 97.2362 	 
H 	 10.4769 	 -5.06309 	 95.5011 	 
C 	 7.80823 	 -6.08106 	 94.7788 	 
H 	 7.10141 	 -6.91885 	 94.9014 	 
H 	 8.61633 	 -6.67079 	 94.3059 	 
C 	 7.24408 	 -5.02352 	 93.8059 	 
H 	 8.00991 	 -4.30754 	 93.8287 	 
H 	 6.31704 	 -4.59815 	 94.2182 	 
C 	 6.86847 	 -5.6181 	 92.4259 	 
H 	 6.65518 	 -4.76152 	 91.7987 	 
H 	 5.94902 	 -6.1925 	 92.3686 	 
H 	 7.67655 	 -6.01646 	 91.901 	 
H 	 2.91746 	 -6.03692 	 99.1093 	 
H 	 10.8771 	 -4.07787 	 97.7789 	 
*
