! wB97X-D3 SP def2-SVP
%pal
nprocs 16
end

* xyz 0 1
S 	 -37.4403 	 28.9253 	 83.8069 	 
C 	 -36.1079 	 28.3914 	 82.8632 	 
C 	 -36.2193 	 28.7893 	 81.5635 	 
C 	 -37.4695 	 29.43 	 81.3924 	 
C 	 -38.3334 	 29.4828 	 82.4271 	 
H 	 -37.7974 	 29.9014 	 80.5117 	 
C 	 -35.1191 	 28.6611 	 80.5676 	 
H 	 -34.1761 	 28.5961 	 81.0779 	 
H 	 -35.1285 	 29.6247 	 80.0069 	 
C 	 -35.1752 	 27.5361 	 79.5745 	 
H 	 -35.1638 	 26.6227 	 80.2142 	 
H 	 -36.103 	 27.4274 	 79.0359 	 
C 	 -34.0429 	 27.6878 	 78.5829 	 
H 	 -33.3076 	 28.3587 	 79.0418 	 
H 	 -33.5211 	 26.7775 	 78.418 	 
H 	 -34.4146 	 28.1287 	 77.6779 	 
S 	 -40.2249 	 31.0027 	 83.7901 	 
C 	 -41.7832 	 31.2331 	 83.0456 	 
C 	 -41.8016 	 30.6517 	 81.7999 	 
C 	 -40.6439 	 29.9311 	 81.4144 	 
C 	 -39.677 	 29.9248 	 82.459 	 
H 	 -42.6689 	 30.726 	 81.216 	 
C 	 -40.5448 	 29.3752 	 80.0376 	 
H 	 -41.4092 	 28.6579 	 79.8543 	 
H 	 -39.6691 	 28.7783 	 80.0436 	 
C 	 -40.3718 	 30.2712 	 78.7787 	 
H 	 -39.4691 	 30.9983 	 78.8248 	 
H 	 -41.2642 	 30.8509 	 78.526 	 
C 	 -40.134 	 29.3575 	 77.5502 	 
H 	 -40.1568 	 30.0033 	 76.6499 	 
H 	 -40.8811 	 28.6627 	 77.3653 	 
H 	 -39.151 	 28.8817 	 77.482 	 
H 	 -35.1489 	 28.0288 	 83.3228 	 
H 	 -42.5032 	 31.9034 	 83.3761 	 
*
