! wB97X-D3 SP def2-SVP
%pal
nprocs 16
end

* xyz 0 1
S 	 52.6961 	 21.6525 	 92.9258 	 
C 	 50.9677 	 21.3446 	 92.9289 	 
C 	 50.6219 	 20.3973 	 91.9405 	 
C 	 51.7625 	 19.9421 	 91.1805 	 
C 	 52.9795 	 20.4207 	 91.7042 	 
H 	 51.7852 	 19.1529 	 90.4871 	 
C 	 49.2591 	 19.8546 	 91.764 	 
H 	 48.9573 	 19.9265 	 90.6928 	 
H 	 48.683 	 20.4908 	 92.4618 	 
C 	 49.1325 	 18.3556 	 92.0954 	 
H 	 48.1395 	 17.9265 	 91.9102 	 
H 	 49.7782 	 17.8478 	 91.2834 	 
C 	 49.6551 	 17.8878 	 93.4957 	 
H 	 49.2198 	 18.4327 	 94.3928 	 
H 	 49.3268 	 16.9044 	 93.5956 	 
H 	 50.7601 	 17.8099 	 93.378 	 
S 	 55.3067 	 21.3496 	 90.6878 	 
C 	 56.4122 	 20.2028 	 89.9966 	 
C 	 56.1296 	 18.9388 	 90.4804 	 
C 	 54.8724 	 18.8283 	 91.1485 	 
C 	 54.2966 	 20.0254 	 91.247 	 
H 	 56.757 	 18.0451 	 90.2433 	 
C 	 54.3569 	 17.5155 	 91.693 	 
H 	 54.9175 	 16.7142 	 91.1755 	 
H 	 53.3122 	 17.4529 	 91.5259 	 
C 	 54.6622 	 17.5414 	 93.1878 	 
H 	 54.3194 	 16.5336 	 93.5092 	 
H 	 54.0517 	 18.1621 	 93.7899 	 
C 	 56.1222 	 17.8173 	 93.6257 	 
H 	 56.7855 	 17.1948 	 92.9639 	 
H 	 56.2082 	 17.4105 	 94.6541 	 
H 	 56.4241 	 18.873 	 93.586 	 
H 	 50.1532 	 21.7148 	 93.5745 	 
H 	 57.3355 	 20.4658 	 89.4827 	 
*
