! wB97X-D3 SP def2-SVP
%pal
nprocs 16
end

* xyz 0 1
S 	 -24.8867 	 50.2516 	 64.9644 	 
C 	 -23.9372 	 51.0231 	 63.7075 	 
C 	 -22.9603 	 51.8084 	 64.2423 	 
C 	 -22.88 	 51.7395 	 65.6347 	 
C 	 -23.8098 	 50.9097 	 66.1348 	 
H 	 -22.2169 	 52.3272 	 66.2309 	 
C 	 -21.968 	 52.5489 	 63.378 	 
H 	 -22.2317 	 53.5987 	 63.3459 	 
H 	 -22.0759 	 52.2332 	 62.3512 	 
C 	 -20.5477 	 52.3491 	 63.8431 	 
H 	 -19.9478 	 53.0081 	 63.1903 	 
H 	 -20.2975 	 52.7543 	 64.8115 	 
C 	 -20.1182 	 50.7539 	 63.7874 	 
H 	 -20.7062 	 50.1806 	 64.5426 	 
H 	 -20.1078 	 50.3687 	 62.7539 	 
H 	 -19.1229 	 50.5975 	 64.1725 	 
S 	 -25.4631 	 51.1179 	 68.2613 	 
C 	 -25.0233 	 50.5662 	 69.8791 	 
C 	 -23.7391 	 50.0128 	 69.8072 	 
C 	 -23.0823 	 50.1635 	 68.54 	 
C 	 -23.9016 	 50.6975 	 67.5679 	 
H 	 -23.314 	 49.5407 	 70.735 	 
C 	 -21.709 	 49.6257 	 68.2827 	 
H 	 -20.9732 	 50.2767 	 68.6548 	 
H 	 -21.546 	 49.5677 	 67.182 	 
C 	 -21.4534 	 48.2306 	 68.916 	 
H 	 -22.2688 	 47.5184 	 68.5645 	 
H 	 -21.5403 	 48.1746 	 70.0163 	 
C 	 -20.0233 	 47.7539 	 68.4465 	 
H 	 -19.2463 	 48.3413 	 68.8294 	 
H 	 -19.9479 	 47.6604 	 67.4017 	 
H 	 -19.7432 	 46.7339 	 68.7829 	 
H 	 -24.1335 	 51.082 	 62.6365 	 
H 	 -25.6952 	 50.5 	 70.8192 	 
*
