! wB97X-D3 SP def2-SVP
%pal
nprocs 16
end

* xyz 0 1
S 	 -39.9269 	 32.1849 	 89.4438 	 
C 	 -41.3841 	 32.8118 	 90.1694 	 
C 	 -42.4798 	 32.5925 	 89.311 	 
C 	 -42.1106 	 31.7898 	 88.1894 	 
C 	 -40.7917 	 31.3727 	 88.2423 	 
H 	 -42.7722 	 31.2763 	 87.4888 	 
C 	 -43.8326 	 33.1989 	 89.4183 	 
H 	 -43.9874 	 33.6507 	 88.4365 	 
H 	 -43.8918 	 33.9925 	 90.1344 	 
C 	 -44.8792 	 32.1714 	 89.795 	 
H 	 -45.8689 	 32.4362 	 89.3848 	 
H 	 -44.6266 	 31.2438 	 89.3048 	 
C 	 -45.0227 	 31.9979 	 91.2625 	 
H 	 -45.9497 	 31.4748 	 91.5089 	 
H 	 -44.2519 	 31.4186 	 91.72 	 
H 	 -45.0899 	 33.0709 	 91.6284 	 
S 	 -39.762 	 31.9602 	 85.8306 	 
C 	 -39.4645 	 30.6967 	 84.6629 	 
C 	 -39.5168 	 29.4521 	 85.2659 	 
C 	 -39.7405 	 29.5603 	 86.6433 	 
C 	 -40.0438 	 30.8285 	 87.0638 	 
H 	 -39.2449 	 28.613 	 84.6514 	 
C 	 -39.7184 	 28.3824 	 87.5782 	 
H 	 -40.022 	 28.5825 	 88.6183 	 
H 	 -38.7494 	 28.0661 	 87.6671 	 
C 	 -40.4446 	 27.0631 	 87.1112 	 
H 	 -40.1988 	 26.1955 	 87.7695 	 
H 	 -40.1107 	 26.7545 	 86.1131 	 
C 	 -42.0246 	 27.1636 	 87.0849 	 
H 	 -42.2917 	 27.5952 	 86.0794 	 
H 	 -42.2398 	 27.9728 	 87.8452 	 
H 	 -42.4832 	 26.2699 	 87.3262 	 
H 	 -41.4816 	 33.4002 	 91.1327 	 
H 	 -39.1993 	 30.967 	 83.6047 	 
*
