! wB97X-D3 SP def2-SVP
%pal
nprocs 16
end

* xyz 0 1
S 	 -55.083 	 44.9881 	 113.486 	 
C 	 -54.6965 	 45.6317 	 111.891 	 
C 	 -54.2142 	 44.6011 	 111.089 	 
C 	 -53.9371 	 43.3631 	 111.797 	 
C 	 -54.3626 	 43.4275 	 113.087 	 
H 	 -53.5758 	 42.4076 	 111.462 	 
C 	 -54.2057 	 44.7561 	 109.628 	 
H 	 -53.2419 	 44.6147 	 109.267 	 
H 	 -54.5034 	 45.711 	 109.3 	 
C 	 -55.0709 	 43.6303 	 108.874 	 
H 	 -54.8733 	 42.6411 	 109.287 	 
H 	 -56.1183 	 43.7246 	 109.257 	 
C 	 -55.0331 	 43.7007 	 107.298 	 
H 	 -55.392 	 44.5842 	 106.871 	 
H 	 -53.9846 	 43.5558 	 106.912 	 
H 	 -55.6683 	 42.8841 	 106.92 	 
S 	 -53.1892 	 41.9102 	 115.07 	 
C 	 -54.1455 	 40.6634 	 115.816 	 
C 	 -55.4345 	 40.5906 	 115.313 	 
C 	 -55.7119 	 41.6198 	 114.354 	 
C 	 -54.5691 	 42.3686 	 114.069 	 
H 	 -56.1507 	 39.8291 	 115.74 	 
C 	 -56.9327 	 41.7516 	 113.543 	 
H 	 -56.9425 	 41.0788 	 112.68 	 
H 	 -56.9755 	 42.767 	 113.08 	 
C 	 -58.2852 	 41.5359 	 114.302 	 
H 	 -58.2808 	 40.5156 	 114.65 	 
H 	 -59.2121 	 41.6217 	 113.688 	 
C 	 -58.5397 	 42.5779 	 115.442 	 
H 	 -59.3938 	 42.3847 	 116.084 	 
H 	 -58.8352 	 43.5273 	 115.023 	 
H 	 -57.7157 	 42.496 	 116.193 	 
H 	 -55.0957 	 46.6285 	 111.562 	 
H 	 -53.8591 	 39.9984 	 116.554 	 
*
