! wB97X-D3 SP def2-SVP
%pal
nprocs 16
end

* xyz 0 1
S 	 -40.0686 	 51.7168 	 105.655 	 
C 	 -41.2555 	 52.7619 	 104.956 	 
C 	 -41.4314 	 53.9218 	 105.763 	 
C 	 -40.7122 	 53.8173 	 106.979 	 
C 	 -40.0886 	 52.6308 	 107.191 	 
H 	 -40.8482 	 54.5169 	 107.82 	 
C 	 -42.2015 	 55.2093 	 105.518 	 
H 	 -42.4013 	 55.7147 	 106.497 	 
H 	 -43.1675 	 54.9071 	 105.063 	 
C 	 -41.5583 	 56.1804 	 104.589 	 
H 	 -40.5638 	 56.368 	 104.996 	 
H 	 -41.4144 	 55.5869 	 103.635 	 
C 	 -42.265 	 57.5576 	 104.362 	 
H 	 -41.653 	 58.4168 	 104.093 	 
H 	 -43.0715 	 57.2547 	 103.603 	 
H 	 -42.7267 	 57.8788 	 105.283 	 
S 	 -40.2015 	 51.7368 	 109.744 	 
C 	 -38.7755 	 51.6312 	 110.732 	 
C 	 -37.6872 	 51.8729 	 109.902 	 
C 	 -37.9417 	 52.1057 	 108.555 	 
C 	 -39.3298 	 52.2494 	 108.338 	 
H 	 -36.7134 	 51.6323 	 110.372 	 
C 	 -36.8153 	 52.1625 	 107.477 	 
H 	 -37.1084 	 51.5764 	 106.663 	 
H 	 -35.8658 	 51.767 	 107.886 	 
C 	 -36.4998 	 53.5888 	 107.022 	 
H 	 -36.002 	 54.1243 	 107.858 	 
H 	 -37.4225 	 54.1254 	 106.801 	 
C 	 -35.6584 	 53.5836 	 105.685 	 
H 	 -34.6974 	 53.0593 	 105.863 	 
H 	 -35.5614 	 54.6253 	 105.327 	 
H 	 -36.0605 	 52.9988 	 104.821 	 
H 	 -41.6641 	 52.743 	 103.99 	 
H 	 -38.6845 	 51.3074 	 111.791 	 
*
