! wB97X-D3 SP def2-SVP
%pal
nprocs 16
end

* xyz 0 1
S 	 48.8125 	 5.12338 	 87.4864 	 
C 	 47.7772 	 6.63847 	 87.254 	 
C 	 47.9856 	 7.21147 	 86.0409 	 
C 	 48.7775 	 6.39516 	 85.1904 	 
C 	 49.32 	 5.27316 	 85.7999 	 
H 	 49.0932 	 6.68429 	 84.14 	 
C 	 47.6073 	 8.64511 	 85.6083 	 
H 	 47.2315 	 9.09377 	 86.5369 	 
H 	 46.6902 	 8.43494 	 85.1109 	 
C 	 48.6739 	 9.58154 	 85.0384 	 
H 	 49.5291 	 9.68155 	 85.7395 	 
H 	 49.1519 	 9.15888 	 84.1192 	 
C 	 48.2348 	 10.9707 	 84.7143 	 
H 	 48.0737 	 11.573 	 85.5244 	 
H 	 48.9746 	 11.5399 	 84.2023 	 
H 	 47.3492 	 11.0104 	 84.0135 	 
S 	 49.9711 	 4.07235 	 83.4812 	 
C 	 51.1786 	 2.75774 	 83.4077 	 
C 	 51.7105 	 2.55887 	 84.6534 	 
C 	 51.2175 	 3.46294 	 85.6249 	 
C 	 50.1627 	 4.25764 	 85.1515 	 
H 	 52.4917 	 1.88954 	 84.8301 	 
C 	 51.7864 	 3.39952 	 87.0786 	 
H 	 51.3008 	 2.64162 	 87.5494 	 
H 	 51.5042 	 4.35309 	 87.517 	 
C 	 53.2948 	 3.37018 	 87.3244 	 
H 	 53.6834 	 4.18639 	 86.7541 	 
H 	 53.7379 	 2.46515 	 87.0189 	 
C 	 53.7126 	 3.61369 	 88.7262 	 
H 	 53.2913 	 2.90825 	 89.4203 	 
H 	 53.5655 	 4.61824 	 89.1826 	 
H 	 54.7708 	 3.50136 	 88.8909 	 
H 	 47.4284 	 7.20308 	 88.1275 	 
H 	 51.3353 	 2.24705 	 82.4328 	 
*
