! wB97X-D3 SP def2-SVP
%pal
nprocs 16
end

* xyz 0 1
S 	 -31.4902 	 61.3456 	 114.11 	 
C 	 -31.3 	 59.6238 	 113.9 	 
C 	 -31.7997 	 58.8046 	 114.925 	 
C 	 -32.3511 	 59.5745 	 115.964 	 
C 	 -32.2424 	 60.9622 	 115.711 	 
H 	 -32.7615 	 59.2386 	 116.891 	 
C 	 -31.9013 	 57.1979 	 115.04 	 
H 	 -31.8952 	 56.8918 	 116.128 	 
H 	 -30.8675 	 56.9603 	 114.631 	 
C 	 -33.1729 	 56.5655 	 114.388 	 
H 	 -33.9967 	 56.9178 	 115.083 	 
H 	 -33.3686 	 57.0857 	 113.439 	 
C 	 -33.1966 	 55.0421 	 114.353 	 
H 	 -32.8611 	 54.6925 	 115.362 	 
H 	 -34.2411 	 54.7735 	 114.167 	 
H 	 -32.5226 	 54.5988 	 113.574 	 
S 	 -31.3029 	 62.897 	 117.392 	 
C 	 -32.4174 	 63.9093 	 118.253 	 
C 	 -33.7361 	 63.5844 	 117.974 	 
C 	 -33.8443 	 62.4977 	 116.997 	 
C 	 -32.6329 	 62.0626 	 116.556 	 
H 	 -34.5019 	 64.084 	 118.525 	 
C 	 -35.1777 	 61.8978 	 116.627 	 
H 	 -35.9047 	 61.8602 	 117.485 	 
H 	 -35.0061 	 60.8861 	 116.412 	 
C 	 -35.9179 	 62.5474 	 115.442 	 
H 	 -35.2241 	 62.5963 	 114.648 	 
H 	 -36.2947 	 63.5894 	 115.588 	 
C 	 -37.1619 	 61.7659 	 115.117 	 
H 	 -37.888 	 61.8465 	 115.942 	 
H 	 -37.0973 	 60.6713 	 114.986 	 
H 	 -37.6624 	 62.1606 	 114.291 	 
H 	 -30.6915 	 59.1976 	 113.046 	 
H 	 -32.0519 	 64.7375 	 118.839 	 
*
