! wB97X-D3 SP def2-SVP
%pal
nprocs 16
end

* xyz 0 1
S 	 -12.906 	 -10.9184 	 84.4224 	 
C 	 -14.3649 	 -11.8232 	 84.0351 	 
C 	 -15.5236 	 -11.0777 	 84.2593 	 
C 	 -15.2025 	 -9.7924 	 84.8036 	 
C 	 -13.834 	 -9.56593 	 84.9797 	 
H 	 -15.998 	 -9.04654 	 85.0869 	 
C 	 -16.9083 	 -11.6773 	 84.0406 	 
H 	 -16.6622 	 -12.6493 	 83.6657 	 
H 	 -17.4866 	 -11.0856 	 83.3347 	 
C 	 -17.7977 	 -11.7991 	 85.2034 	 
H 	 -17.262 	 -12.4051 	 86.0162 	 
H 	 -18.0256 	 -10.8052 	 85.5863 	 
C 	 -19.1295 	 -12.6277 	 84.948 	 
H 	 -19.9206 	 -12.2764 	 85.5953 	 
H 	 -19.5878 	 -12.6147 	 83.9092 	 
H 	 -18.9873 	 -13.6908 	 85.2349 	 
S 	 -11.9358 	 -8.74394 	 86.7533 	 
C 	 -11.6674 	 -7.05744 	 87.0209 	 
C 	 -12.5801 	 -6.35933 	 86.2957 	 
C 	 -13.4098 	 -7.07847 	 85.4519 	 
C 	 -13.2244 	 -8.4338 	 85.6721 	 
H 	 -12.6095 	 -5.29446 	 86.3887 	 
C 	 -14.4301 	 -6.32832 	 84.5719 	 
H 	 -14.4518 	 -5.33644 	 84.9779 	 
H 	 -15.4872 	 -6.60054 	 84.673 	 
C 	 -14.1414 	 -6.30008 	 83.0351 	 
H 	 -14.399 	 -7.25154 	 82.5209 	 
H 	 -13.0671 	 -6.27828 	 82.9513 	 
C 	 -14.9412 	 -5.211 	 82.4741 	 
H 	 -14.7229 	 -4.30473 	 83.0092 	 
H 	 -16.0281 	 -5.30588 	 82.4998 	 
H 	 -14.6558 	 -5.0336 	 81.356 	 
H 	 -14.2706 	 -12.7715 	 83.5299 	 
H 	 -10.9939 	 -6.58988 	 87.6742 	 
*
