! wB97X-D3 SP def2-SVP
%pal
nprocs 16
end

* xyz 0 1
S 	 -11.9828 	 31.0829 	 36.6547 	 
C 	 -11.3884 	 31.6342 	 35.1128 	 
C 	 -12.3295 	 32.245 	 34.3758 	 
C 	 -13.6273 	 32.0392 	 34.9316 	 
C 	 -13.6328 	 31.3884 	 36.2004 	 
H 	 -14.5961 	 32.4622 	 34.6048 	 
C 	 -12.1333 	 32.9237 	 32.9919 	 
H 	 -11.0395 	 33.075 	 32.7698 	 
H 	 -12.8336 	 33.758 	 33.0721 	 
C 	 -12.6159 	 32.1036 	 31.8411 	 
H 	 -12.4471 	 31.0266 	 32.0111 	 
H 	 -13.7288 	 32.2798 	 31.7331 	 
C 	 -11.8111 	 32.6194 	 30.5377 	 
H 	 -12.1715 	 32.1484 	 29.6007 	 
H 	 -11.9707 	 33.6898 	 30.4527 	 
H 	 -10.7559 	 32.4225 	 30.496 	 
S 	 -14.7688 	 31.9722 	 38.6508 	 
C 	 -16.261 	 31.1437 	 39.0912 	 
C 	 -16.7591 	 30.4961 	 38.0182 	 
C 	 -15.855 	 30.3898 	 36.8769 	 
C 	 -14.7632 	 31.1809 	 37.0623 	 
H 	 -17.7188 	 29.9318 	 38.2172 	 
C 	 -16.039 	 29.3858 	 35.7546 	 
H 	 -16.5842 	 28.4669 	 36.1141 	 
H 	 -15.0543 	 29.0344 	 35.4641 	 
C 	 -16.7545 	 29.8221 	 34.4869 	 
H 	 -17.0751 	 28.9411 	 33.9659 	 
H 	 -16.1018 	 30.3596 	 33.7882 	 
C 	 -18.0413 	 30.6529 	 34.7838 	 
H 	 -18.546 	 30.6388 	 33.8306 	 
H 	 -17.9453 	 31.7243 	 35.0707 	 
H 	 -18.6383 	 30.1787 	 35.5171 	 
H 	 -10.3158 	 31.8078 	 34.9676 	 
H 	 -16.7452 	 31.2628 	 40.0451 	 
*
