! wB97X-D3 SP def2-SVP
%pal
nprocs 16
end

* xyz 0 1
S 	 46.8461 	 8.69839 	 75.4405 	 
C 	 45.1532 	 8.45185 	 75.369 	 
C 	 44.4957 	 9.60538 	 75.7433 	 
C 	 45.3629 	 10.7356 	 75.7991 	 
C 	 46.7137 	 10.3954 	 75.6673 	 
H 	 45.001 	 11.7616 	 75.9671 	 
C 	 43.0572 	 9.62179 	 76.0064 	 
H 	 42.6484 	 8.68376 	 75.7284 	 
H 	 42.685 	 10.5016 	 75.4088 	 
C 	 42.741 	 9.82435 	 77.4616 	 
H 	 42.9691 	 8.9723 	 78.0198 	 
H 	 43.3991 	 10.5133 	 77.8706 	 
C 	 41.3051 	 10.2035 	 77.6968 	 
H 	 41.2486 	 10.471 	 78.7452 	 
H 	 40.9833 	 10.9136 	 76.912 	 
H 	 40.7007 	 9.26887 	 77.5112 	 
S 	 48.9187 	 11.3933 	 74.5522 	 
C 	 49.7905 	 12.6436 	 75.26 	 
C 	 49.13 	 13.1133 	 76.3979 	 
C 	 47.9426 	 12.3736 	 76.7408 	 
C 	 47.7776 	 11.3444 	 75.8287 	 
H 	 49.634 	 13.9481 	 76.7842 	 
C 	 47.0401 	 12.7912 	 77.8869 	 
H 	 47.7362 	 12.9612 	 78.7412 	 
H 	 46.342 	 12.0168 	 78.1688 	 
C 	 46.233 	 14.086 	 77.6469 	 
H 	 45.5341 	 14.1691 	 76.8455 	 
H 	 46.9294 	 14.8726 	 77.3873 	 
C 	 45.6013 	 14.5015 	 78.94 	 
H 	 45.0846 	 13.7376 	 79.4488 	 
H 	 44.8819 	 15.3435 	 78.7722 	 
H 	 46.2989 	 14.8341 	 79.6692 	 
H 	 44.68 	 7.54083 	 75.163 	 
H 	 50.5644 	 13.2115 	 74.7836 	 
*
