! wB97X-D3 SP def2-SVP
%pal
nprocs 16
end

* xyz 0 1
S 	 37.0045 	 -0.080545 	 75.2585 	 
C 	 36.996 	 -0.0185168 	 73.5233 	 
C 	 35.7237 	 -0.0645176 	 73.0473 	 
C 	 34.7322 	 0.155679 	 74.0229 	 
C 	 35.2913 	 0.219483 	 75.3232 	 
H 	 33.6701 	 0.152128 	 73.9018 	 
C 	 35.3828 	 -0.16596 	 71.5456 	 
H 	 34.4771 	 -0.768771 	 71.3946 	 
H 	 36.2315 	 -0.842361 	 71.1446 	 
C 	 35.3482 	 1.12126 	 70.6537 	 
H 	 36.2926 	 1.64262 	 70.776 	 
H 	 35.2279 	 0.783432 	 69.641 	 
C 	 34.2465 	 2.10553 	 70.9379 	 
H 	 33.332 	 1.5776 	 70.7587 	 
H 	 34.2529 	 2.55215 	 71.951 	 
H 	 34.287 	 2.92373 	 70.2478 	 
S 	 34.5028 	 -1.15486 	 77.5227 	 
C 	 33.108 	 -0.571172 	 78.4322 	 
C 	 32.7236 	 0.66753 	 77.9756 	 
C 	 33.4754 	 1.14401 	 76.8157 	 
C 	 34.4753 	 0.294232 	 76.5269 	 
H 	 31.9003 	 1.26531 	 78.4632 	 
C 	 33.0734 	 2.45697 	 76.1136 	 
H 	 32.2171 	 2.9236 	 76.5863 	 
H 	 32.7816 	 2.22124 	 75.1225 	 
C 	 34.1541 	 3.59767 	 76.2002 	 
H 	 33.7651 	 4.43198 	 75.6353 	 
H 	 34.9888 	 3.26056 	 75.6658 	 
C 	 34.5445 	 3.9821 	 77.6153 	 
H 	 35.0253 	 3.10257 	 78.087 	 
H 	 33.6865 	 4.28327 	 78.1442 	 
H 	 35.2562 	 4.82124 	 77.6582 	 
H 	 37.9202 	 -0.109555 	 73.007 	 
H 	 32.799 	 -0.944372 	 79.3505 	 
*
