! wB97X-D3 SP def2-SVP
%pal
nprocs 16
end

* xyz 0 1
S 	 -38.6942 	 58.4473 	 114.367 	 
C 	 -40.3673 	 58.8024 	 114.019 	 
C 	 -40.7712 	 58.0995 	 112.909 	 
C 	 -39.7544 	 57.2897 	 112.318 	 
C 	 -38.6391 	 57.2492 	 113.069 	 
H 	 -39.6717 	 56.6738 	 111.439 	 
C 	 -42.1921 	 57.9785 	 112.311 	 
H 	 -43.0114 	 58.3981 	 112.915 	 
H 	 -42.5493 	 56.94 	 112.325 	 
C 	 -42.4259 	 58.3572 	 110.822 	 
H 	 -42.2398 	 57.4237 	 110.189 	 
H 	 -43.4887 	 58.4554 	 110.773 	 
C 	 -41.6251 	 59.436 	 110.212 	 
H 	 -41.7778 	 60.3748 	 110.772 	 
H 	 -40.6374 	 59.1241 	 109.93 	 
H 	 -42.094 	 59.5861 	 109.273 	 
S 	 -35.9786 	 57.3779 	 112.761 	 
C 	 -35.0929 	 55.8933 	 112.388 	 
C 	 -35.9445 	 54.7695 	 112.403 	 
C 	 -37.2834 	 55.1356 	 112.514 	 
C 	 -37.4633 	 56.5031 	 112.695 	 
H 	 -35.5495 	 53.7811 	 112.307 	 
C 	 -38.3515 	 54.0448 	 112.631 	 
H 	 -37.9392 	 53.1848 	 112.072 	 
H 	 -39.1987 	 54.403 	 112.078 	 
C 	 -38.61 	 53.7191 	 114.083 	 
H 	 -39.0441 	 54.6025 	 114.422 	 
H 	 -37.6835 	 53.6198 	 114.646 	 
C 	 -39.5834 	 52.5033 	 114.228 	 
H 	 -40.5848 	 52.6545 	 113.636 	 
H 	 -39.7843 	 52.351 	 115.26 	 
H 	 -39.0746 	 51.5739 	 113.898 	 
H 	 -40.9402 	 59.3245 	 114.704 	 
H 	 -34.0128 	 55.8076 	 112.381 	 
*
