! wB97X-D3 SP def2-SVP
%pal
nprocs 16
end

* xyz 0 1
S 	 3.57916 	 -24.6937 	 62.2723 	 
C 	 2.38435 	 -24.555 	 63.551 	 
C 	 1.25898 	 -25.3309 	 63.2958 	 
C 	 1.43031 	 -26.1303 	 62.1004 	 
C 	 2.61946 	 -25.9283 	 61.3943 	 
H 	 0.7996 	 -26.9592 	 61.8303 	 
C 	 0.0647153 	 -25.5311 	 64.1947 	 
H 	 0.35303 	 -25.2854 	 65.1581 	 
H 	 -0.348542 	 -26.556 	 64.2266 	 
C 	 -1.10303 	 -24.6563 	 63.7058 	 
H 	 -1.35606 	 -25.0461 	 62.7238 	 
H 	 -1.9321 	 -24.7901 	 64.3858 	 
C 	 -0.892156 	 -23.2227 	 63.5042 	 
H 	 -0.730392 	 -22.7507 	 64.4435 	 
H 	 -0.170599 	 -22.9329 	 62.7601 	 
H 	 -1.77418 	 -22.5698 	 63.2477 	 
S 	 4.2446 	 -27.8992 	 60.4922 	 
C 	 4.45852 	 -28.0259 	 58.7159 	 
C 	 3.82378 	 -27.0328 	 58.0112 	 
C 	 3.11426 	 -26.1826 	 58.8981 	 
C 	 3.14114 	 -26.5569 	 60.1915 	 
H 	 3.94522 	 -26.9456 	 56.9768 	 
C 	 2.35856 	 -25.0047 	 58.2649 	 
H 	 1.6408 	 -24.55 	 58.9133 	 
H 	 1.78159 	 -25.482 	 57.5118 	 
C 	 3.18365 	 -23.8767 	 57.5949 	 
H 	 2.55033 	 -23.3354 	 56.9195 	 
H 	 3.8721 	 -24.3096 	 56.9351 	 
C 	 3.99579 	 -23.033 	 58.6895 	 
H 	 3.31984 	 -22.6505 	 59.3842 	 
H 	 4.59028 	 -22.2632 	 58.1921 	 
H 	 4.75119 	 -23.5379 	 59.3074 	 
H 	 2.41175 	 -23.9376 	 64.4139 	 
H 	 5.04271 	 -28.7946 	 58.2538 	 
*
