! wB97X-D3 SP def2-SVP
%pal
nprocs 16
end

* xyz 0 1
S 	 -47.6693 	 49.3274 	 102.242 	 
C 	 -47.3028 	 50.6377 	 103.275 	 
C 	 -47.095 	 50.1988 	 104.575 	 
C 	 -46.9676 	 48.809 	 104.699 	 
C 	 -47.2723 	 48.1296 	 103.512 	 
H 	 -46.7103 	 48.2155 	 105.58 	 
C 	 -47.1173 	 51.1619 	 105.709 	 
H 	 -47.1935 	 50.5913 	 106.599 	 
H 	 -47.9222 	 51.8361 	 105.67 	 
C 	 -45.7405 	 51.8273 	 105.789 	 
H 	 -44.9903 	 51.0922 	 105.542 	 
H 	 -45.5859 	 52.6975 	 105.075 	 
C 	 -45.3264 	 52.357 	 107.216 	 
H 	 -45.7203 	 53.2208 	 107.642 	 
H 	 -45.5708 	 51.6542 	 108 	 
H 	 -44.2856 	 52.5567 	 107.275 	 
S 	 -45.8992 	 45.9507 	 102.363 	 
C 	 -46.4903 	 44.2954 	 102.56 	 
C 	 -47.485 	 44.292 	 103.438 	 
C 	 -47.8271 	 45.5649 	 103.961 	 
C 	 -47.2052 	 46.6783 	 103.383 	 
H 	 -47.8759 	 43.31 	 103.68 	 
C 	 -48.9645 	 45.7069 	 104.952 	 
H 	 -48.8477 	 46.5929 	 105.544 	 
H 	 -48.9279 	 44.9381 	 105.725 	 
C 	 -50.3597 	 45.7746 	 104.358 	 
H 	 -50.5485 	 45.1346 	 103.496 	 
H 	 -50.4055 	 46.7681 	 103.867 	 
C 	 -51.5225 	 45.7895 	 105.479 	 
H 	 -51.4691 	 46.4206 	 106.363 	 
H 	 -51.6887 	 44.8436 	 105.978 	 
H 	 -52.3814 	 46.2377 	 105.057 	 
H 	 -47.3974 	 51.7307 	 103.078 	 
H 	 -46.0598 	 43.386 	 102.111 	 
*
