! wB97X-D3 SP def2-SVP
%pal
nprocs 16
end

* xyz 0 1
S 	 -40.8933 	 19.6626 	 86.4842 	 
C 	 -40.2241 	 18.1325 	 87.0098 	 
C 	 -40.9068 	 17.1273 	 86.3793 	 
C 	 -42.0204 	 17.546 	 85.645 	 
C 	 -42.2432 	 18.8985 	 85.7622 	 
H 	 -42.7152 	 16.9817 	 85.0241 	 
C 	 -40.5532 	 15.6331 	 86.4821 	 
H 	 -39.4694 	 15.5082 	 86.4848 	 
H 	 -40.8844 	 15.0387 	 85.621 	 
C 	 -40.9787 	 14.9417 	 87.8233 	 
H 	 -40.5576 	 13.9172 	 87.9261 	 
H 	 -40.5376 	 15.4127 	 88.6274 	 
C 	 -42.5059 	 14.7325 	 87.971 	 
H 	 -42.9199 	 14.3525 	 87.0159 	 
H 	 -42.5867 	 13.9119 	 88.6751 	 
H 	 -43.0635 	 15.6419 	 88.293 	 
S 	 -44.8089 	 19.7827 	 85.4558 	 
C 	 -45.2071 	 20.9304 	 84.1907 	 
C 	 -44.1598 	 20.9994 	 83.3105 	 
C 	 -42.9309 	 20.445 	 83.7981 	 
C 	 -43.1826 	 19.5862 	 84.8814 	 
H 	 -44.2994 	 21.5054 	 82.3976 	 
C 	 -41.5537 	 20.5895 	 83.0399 	 
H 	 -40.7141 	 20.2562 	 83.5968 	 
H 	 -41.4635 	 21.6868 	 82.9543 	 
C 	 -41.7156 	 20.1471 	 81.5065 	 
H 	 -42.6693 	 20.4972 	 81.1132 	 
H 	 -41.7606 	 19.0549 	 81.463 	 
C 	 -40.5144 	 20.489 	 80.6654 	 
H 	 -40.4517 	 21.5418 	 80.5548 	 
H 	 -40.6383 	 20.0502 	 79.5869 	 
H 	 -39.5502 	 20.101 	 81.0772 	 
H 	 -39.3457 	 18.0243 	 87.554 	 
H 	 -46.1879 	 21.1435 	 83.7715 	 
*
