! wB97X-D3 SP def2-SVP
%pal
nprocs 16
end

* xyz 0 1
S 	 41.8399 	 26.6529 	 95.6807 	 
C 	 40.9637 	 27.8147 	 94.7363 	 
C 	 39.8056 	 27.3813 	 94.1562 	 
C 	 39.441 	 26.1003 	 94.735 	 
C 	 40.3313 	 25.7475 	 95.769 	 
H 	 38.5212 	 25.5634 	 94.5761 	 
C 	 38.9132 	 28.1274 	 93.1902 	 
H 	 38.2558 	 27.4362 	 92.6134 	 
H 	 39.6219 	 28.4991 	 92.3962 	 
C 	 38.0874 	 29.3144 	 93.719 	 
H 	 38.6319 	 29.9814 	 94.3322 	 
H 	 37.668 	 29.8768 	 92.8898 	 
C 	 36.857 	 28.9036 	 94.5927 	 
H 	 36.1592 	 28.3809 	 93.9567 	 
H 	 37.1589 	 28.2046 	 95.3915 	 
H 	 36.2531 	 29.752 	 94.9467 	 
S 	 38.7745 	 24.4153 	 97.5008 	 
C 	 39.2361 	 22.8364 	 98.0914 	 
C 	 40.3849 	 22.4317 	 97.4672 	 
C 	 40.9964 	 23.4212 	 96.6997 	 
C 	 40.2141 	 24.5833 	 96.5564 	 
H 	 40.7861 	 21.4333 	 97.6624 	 
C 	 42.3404 	 23.1596 	 96.0124 	 
H 	 42.7449 	 22.3247 	 96.5545 	 
H 	 43.0947 	 24.0105 	 96.0783 	 
C 	 42.3052 	 22.5973 	 94.5622 	 
H 	 43.2615 	 22.1559 	 94.2665 	 
H 	 42.1657 	 23.3917 	 93.9003 	 
C 	 41.363 	 21.4658 	 94.5009 	 
H 	 40.3007 	 21.7307 	 94.6174 	 
H 	 41.4197 	 20.6388 	 95.2598 	 
H 	 41.3601 	 21.0349 	 93.4985 	 
H 	 41.3606 	 28.7955 	 94.453 	 
H 	 38.6771 	 22.2862 	 98.8693 	 
*
