! wB97X-D3 SP def2-SVP
%pal
nprocs 16
end

* xyz 0 1
S 	 0.0172675 	 -12.8515 	 92.6179 	 
C 	 0.469717 	 -12.0295 	 94.057 	 
C 	 -0.540266 	 -11.3113 	 94.5812 	 
C 	 -1.7703 	 -11.3897 	 93.7956 	 
C 	 -1.54572 	 -12.0288 	 92.5874 	 
H 	 -2.74652 	 -10.9191 	 94.0604 	 
C 	 -0.461172 	 -10.7456 	 95.9746 	 
H 	 0.499092 	 -10.4582 	 96.2454 	 
H 	 -0.631832 	 -11.5718 	 96.5667 	 
C 	 -1.44662 	 -9.61771 	 96.2845 	 
H 	 -1.39809 	 -8.98861 	 95.449 	 
H 	 -2.4688 	 -10.0002 	 96.2901 	 
C 	 -1.20975 	 -8.95313 	 97.6143 	 
H 	 -1.169 	 -9.7335 	 98.3302 	 
H 	 -0.232877 	 -8.4953 	 97.4989 	 
H 	 -1.94821 	 -8.20506 	 98.0703 	 
S 	 -3.64397 	 -10.9359 	 91.1875 	 
C 	 -4.06943 	 -11.6183 	 89.6427 	 
C 	 -3.45247 	 -12.8287 	 89.4264 	 
C 	 -2.565 	 -13.14 	 90.5091 	 
C 	 -2.41977 	 -12.1207 	 91.4273 	 
H 	 -3.68744 	 -13.5099 	 88.6506 	 
C 	 -1.8348 	 -14.4916 	 90.5132 	 
H 	 -2.68463 	 -15.2106 	 90.3217 	 
H 	 -1.36163 	 -14.6229 	 91.5585 	 
C 	 -0.791523 	 -14.4632 	 89.3825 	 
H 	 -0.285721 	 -13.4809 	 89.4056 	 
H 	 -1.36896 	 -14.4786 	 88.4173 	 
C 	 0.172089 	 -15.6324 	 89.4086 	 
H 	 0.589475 	 -15.8464 	 90.3918 	 
H 	 0.955685 	 -15.4595 	 88.6783 	 
H 	 -0.315445 	 -16.5842 	 89.09 	 
H 	 1.43615 	 -12.0293 	 94.4599 	 
H 	 -4.63209 	 -11.1949 	 88.8743 	 
*
