! wB97X-D3 SP def2-SVP
%pal
nprocs 16
end

* xyz 0 1
S 	 33.8948 	 15.9777 	 63.5049 	 
C 	 33.7684 	 16.7525 	 65.0274 	 
C 	 34.9491 	 16.8321 	 65.726 	 
C 	 36.0276 	 16.2344 	 64.9471 	 
C 	 35.5976 	 15.6476 	 63.6952 	 
H 	 37.0997 	 16.2059 	 65.3074 	 
C 	 35.153 	 17.3189 	 67.1468 	 
H 	 36.2263 	 17.5024 	 67.4125 	 
H 	 34.8219 	 16.4206 	 67.7333 	 
C 	 34.3218 	 18.5803 	 67.4124 	 
H 	 34.5708 	 19.2445 	 66.5833 	 
H 	 33.2293 	 18.2932 	 67.3455 	 
C 	 34.6111 	 19.3114 	 68.7495 	 
H 	 35.6596 	 19.5901 	 68.662 	 
H 	 34.0401 	 20.1888 	 68.9618 	 
H 	 34.6373 	 18.6118 	 69.6543 	 
S 	 36.092 	 15.5103 	 60.885 	 
C 	 37.3078 	 14.3862 	 60.4202 	 
C 	 37.7036 	 13.5358 	 61.4131 	 
C 	 37.2068 	 13.9353 	 62.6757 	 
C 	 36.3928 	 15.0171 	 62.6007 	 
H 	 38.3616 	 12.7814 	 61.1917 	 
C 	 37.4723 	 13.1994 	 63.9936 	 
H 	 37.0677 	 13.8181 	 64.8547 	 
H 	 38.5558 	 13.1721 	 64.1051 	 
C 	 37.0525 	 11.6977 	 64.181 	 
H 	 37.6573 	 11.1899 	 64.9821 	 
H 	 37.3399 	 11.0168 	 63.3609 	 
C 	 35.6132 	 11.3729 	 64.426 	 
H 	 35.0692 	 11.5845 	 63.5093 	 
H 	 35.3033 	 11.9567 	 65.3502 	 
H 	 35.4058 	 10.3449 	 64.6905 	 
H 	 32.7819 	 16.9615 	 65.4955 	 
H 	 37.6128 	 14.2118 	 59.3592 	 
*
