! wB97X-D3 SP def2-SVP
%pal
nprocs 16
end

* xyz 0 1
S 	 39.766 	 18.595 	 48.4479 	 
C 	 39.2487 	 17.0468 	 47.7065 	 
C 	 39.9696 	 16.7192 	 46.5762 	 
C 	 40.6513 	 17.8887 	 46.1098 	 
C 	 40.6286 	 18.9296 	 46.9832 	 
H 	 41.3025 	 18.024 	 45.2932 	 
C 	 40.0631 	 15.3253 	 45.9903 	 
H 	 39.3683 	 14.7277 	 46.5854 	 
H 	 41.101 	 14.8972 	 46.12 	 
C 	 39.7874 	 15.1051 	 44.5177 	 
H 	 40.4875 	 15.6621 	 43.8809 	 
H 	 39.7805 	 13.9749 	 44.3135 	 
C 	 38.2491 	 15.3515 	 44.2015 	 
H 	 37.8796 	 16.4123 	 44.3421 	 
H 	 38.0818 	 14.9975 	 43.1553 	 
H 	 37.7417 	 14.7068 	 44.7852 	 
S 	 42.2801 	 20.8926 	 47.9397 	 
C 	 42.8846 	 22.1389 	 46.9512 	 
C 	 42.5704 	 21.9572 	 45.6696 	 
C 	 41.7835 	 20.7528 	 45.4408 	 
C 	 41.4146 	 20.1205 	 46.6643 	 
H 	 42.895 	 22.6531 	 44.8733 	 
C 	 41.2673 	 20.4467 	 44.087 	 
H 	 40.8363 	 21.4085 	 43.7431 	 
H 	 40.3986 	 19.7924 	 44.0758 	 
C 	 42.2724 	 19.9928 	 42.9971 	 
H 	 42.8977 	 20.8637 	 42.5741 	 
H 	 41.7272 	 19.6434 	 42.0959 	 
C 	 43.1128 	 18.7621 	 43.3294 	 
H 	 43.5768 	 18.8962 	 44.3264 	 
H 	 43.8521 	 18.6456 	 42.4824 	 
H 	 42.5961 	 17.8626 	 43.4386 	 
H 	 38.7389 	 16.2745 	 48.2611 	 
H 	 43.5358 	 22.8958 	 47.2705 	 
*
