! wB97X-D3 SP def2-SVP
%pal
nprocs 16
end

* xyz 0 1
S 	 -90.43 	 51.9261 	 131.104 	 
C 	 -90.2694 	 50.183 	 131.165 	 
C 	 -88.8973 	 49.8628 	 130.926 	 
C 	 -88.0277 	 51.0006 	 130.776 	 
C 	 -88.6971 	 52.1912 	 130.866 	 
H 	 -86.9881 	 50.9563 	 130.542 	 
C 	 -88.4186 	 48.4516 	 130.724 	 
H 	 -87.606 	 48.503 	 130.001 	 
H 	 -89.2251 	 47.8661 	 130.377 	 
C 	 -87.8583 	 47.8775 	 132.042 	 
H 	 -88.6372 	 47.6953 	 132.73 	 
H 	 -87.4707 	 46.8286 	 131.898 	 
C 	 -86.8017 	 48.7108 	 132.765 	 
H 	 -86.4738 	 48.1635 	 133.659 	 
H 	 -85.927 	 49.0045 	 132.125 	 
H 	 -87.1793 	 49.6313 	 133.137 	 
S 	 -86.9109 	 54.1577 	 131.458 	 
C 	 -86.784 	 55.575 	 130.318 	 
C 	 -87.6063 	 55.4477 	 129.202 	 
C 	 -88.3418 	 54.2169 	 129.253 	 
C 	 -88.1439 	 53.4513 	 130.429 	 
H 	 -87.5618 	 56.1348 	 128.33 	 
C 	 -89.3476 	 53.7878 	 128.136 	 
H 	 -89.9074 	 54.6602 	 127.847 	 
H 	 -90.0889 	 53.1549 	 128.563 	 
C 	 -88.6248 	 53.1122 	 126.968 	 
H 	 -88.3324 	 52.0626 	 127.04 	 
H 	 -87.7041 	 53.6826 	 126.738 	 
C 	 -89.511 	 53.0888 	 125.742 	 
H 	 -90.4554 	 52.5851 	 125.918 	 
H 	 -89.1304 	 52.4123 	 125.007 	 
H 	 -89.5987 	 54.0605 	 125.346 	 
H 	 -91.0121 	 49.4127 	 131.375 	 
H 	 -86.0157 	 56.3462 	 130.199 	 
*
