! wB97X-D3 SP def2-SVP
%pal
nprocs 16
end

* xyz 0 1
S 	 0.972789 	 75.7895 	 45.3598 	 
C 	 1.068 	 76.4745 	 46.8877 	 
C 	 -0.0747795 	 76.3147 	 47.6455 	 
C 	 -0.923052 	 75.3204 	 47.0292 	 
C 	 -0.375634 	 74.7638 	 45.8791 	 
H 	 -1.83117 	 74.7939 	 47.3389 	 
C 	 -0.3401 	 77.0618 	 48.9128 	 
H 	 -1.36127 	 77.3967 	 48.7272 	 
H 	 0.300742 	 77.9335 	 48.9124 	 
C 	 -0.329031 	 76.1997 	 50.214 	 
H 	 -0.506412 	 76.9451 	 51.042 	 
H 	 -1.26712 	 75.6352 	 50.12 	 
C 	 0.816501 	 75.1926 	 50.394 	 
H 	 0.861275 	 74.3592 	 49.6609 	 
H 	 1.83621 	 75.641 	 50.3318 	 
H 	 0.618252 	 74.8002 	 51.4275 	 
S 	 -0.906222 	 73.7702 	 43.3749 	 
C 	 -1.83357 	 72.3001 	 43.1987 	 
C 	 -2.15416 	 71.7162 	 44.4425 	 
C 	 -1.69065 	 72.5202 	 45.5099 	 
C 	 -1.00948 	 73.6441 	 45.1145 	 
H 	 -2.54247 	 70.7144 	 44.4415 	 
C 	 -1.87862 	 72.0056 	 46.9489 	 
H 	 -2.44886 	 71.0397 	 46.7984 	 
H 	 -2.37583 	 72.7449 	 47.5736 	 
C 	 -0.531749 	 71.6978 	 47.602 	 
H 	 -0.75109 	 71.4178 	 48.6041 	 
H 	 0.0843937 	 72.676 	 47.5883 	 
C 	 0.318891 	 70.6326 	 46.9321 	 
H 	 1.14178 	 70.2399 	 47.5612 	 
H 	 0.645388 	 70.8163 	 45.9293 	 
H 	 -0.36152 	 69.7479 	 46.8144 	 
H 	 1.73006 	 77.2218 	 47.2943 	 
H 	 -2.08114 	 71.8164 	 42.2073 	 
*
