! wB97X-D3 SP def2-SVP
%pal
nprocs 16
end

* xyz 0 1
S 	 52.7533 	 3.18834 	 84.5263 	 
C 	 52.1074 	 1.70271 	 83.7864 	 
C 	 50.8489 	 1.37745 	 84.3549 	 
C 	 50.3597 	 2.43441 	 85.1786 	 
C 	 51.3376 	 3.35537 	 85.5919 	 
H 	 49.3969 	 2.50156 	 85.7028 	 
C 	 50.0943 	 0.0499504 	 84.1873 	 
H 	 49.0628 	 0.141984 	 84.491 	 
H 	 50.424 	 -0.617326 	 84.9107 	 
C 	 50.2591 	 -0.592612 	 82.7819 	 
H 	 50.1447 	 0.152787 	 81.9794 	 
H 	 51.3075 	 -0.955727 	 82.7699 	 
C 	 49.3951 	 -1.81619 	 82.6303 	 
H 	 49.4126 	 -2.48756 	 83.4993 	 
H 	 48.3326 	 -1.36749 	 82.5652 	 
H 	 49.6484 	 -2.40239 	 81.7115 	 
S 	 50.8702 	 6.04777 	 85.468 	 
C 	 50.5653 	 6.95457 	 86.9711 	 
C 	 50.4589 	 6.07107 	 88.0282 	 
C 	 50.6921 	 4.7517 	 87.6755 	 
C 	 51.064 	 4.57518 	 86.3627 	 
H 	 50.2467 	 6.50336 	 89.057 	 
C 	 50.6757 	 3.68157 	 88.7173 	 
H 	 49.937 	 2.96241 	 88.2469 	 
H 	 50.1631 	 4.20581 	 89.5631 	 
C 	 51.9977 	 2.92434 	 88.9435 	 
H 	 52.876 	 3.62541 	 88.9699 	 
H 	 52.2195 	 2.35479 	 88.0644 	 
C 	 51.9353 	 2.00408 	 90.1583 	 
H 	 51.9715 	 2.57858 	 91.0498 	 
H 	 52.6752 	 1.27394 	 90.0213 	 
H 	 51.0397 	 1.43328 	 90.1144 	 
H 	 52.7723 	 1.08893 	 83.2535 	 
H 	 50.3002 	 8.00148 	 87.1207 	 
*
