! wB97X-D3 SP def2-SVP
%pal
nprocs 16
end

* xyz 0 1
S 	 53.242 	 -0.936417 	 88.7308 	 
C 	 53.582 	 -1.99247 	 90.1188 	 
C 	 53.8515 	 -1.29313 	 91.2964 	 
C 	 53.7431 	 0.125474 	 91.0529 	 
C 	 53.4784 	 0.52667 	 89.7485 	 
H 	 53.9462 	 0.932714 	 91.7442 	 
C 	 54.373 	 -1.87156 	 92.6399 	 
H 	 55.247 	 -2.47154 	 92.4274 	 
H 	 53.6668 	 -2.45942 	 93.1457 	 
C 	 54.735 	 -0.881983 	 93.6827 	 
H 	 55.6179 	 -0.316382 	 93.2435 	 
H 	 53.9838 	 -0.222629 	 93.9122 	 
C 	 55.0577 	 -1.59278 	 95.0295 	 
H 	 54.1908 	 -1.92554 	 95.6307 	 
H 	 55.5057 	 -2.53413 	 94.8606 	 
H 	 55.5972 	 -0.903522 	 95.7018 	 
S 	 52.0752 	 2.35293 	 88.1725 	 
C 	 52.6831 	 3.94156 	 87.9455 	 
C 	 53.7512 	 4.13129 	 88.7101 	 
C 	 54.192 	 3.03963 	 89.4917 	 
C 	 53.3349 	 1.93976 	 89.2549 	 
H 	 54.2244 	 5.1197 	 88.79 	 
C 	 55.3878 	 3.15305 	 90.388 	 
H 	 56.2578 	 3.57181 	 89.8862 	 
H 	 55.6787 	 2.15653 	 90.5975 	 
C 	 55.0889 	 3.75575 	 91.823 	 
H 	 54.4317 	 3.11601 	 92.3667 	 
H 	 54.5366 	 4.70535 	 91.8157 	 
C 	 56.2646 	 4.0493 	 92.7924 	 
H 	 55.9116 	 4.26317 	 93.7641 	 
H 	 56.9142 	 4.77161 	 92.3424 	 
H 	 56.9659 	 3.21646 	 92.8597 	 
H 	 53.5847 	 -3.0724 	 90.008 	 
H 	 52.2521 	 4.75438 	 87.5108 	 
*
