! wB97X-D3 SP def2-SVP
%pal
nprocs 16
end

* xyz 0 1
S 	 5.78864 	 -26.2745 	 79.2419 	 
C 	 4.50967 	 -27.4422 	 79.0228 	 
C 	 4.7641 	 -28.6218 	 79.7223 	 
C 	 6.1473 	 -28.6836 	 80.0635 	 
C 	 6.80329 	 -27.5251 	 79.8006 	 
H 	 6.57959 	 -29.5508 	 80.5138 	 
C 	 3.94966 	 -29.8827 	 79.7432 	 
H 	 4.19545 	 -30.4308 	 78.8524 	 
H 	 2.89855 	 -29.751 	 79.6375 	 
C 	 4.10769 	 -30.7186 	 80.9842 	 
H 	 3.6788 	 -31.711 	 80.8435 	 
H 	 5.14965 	 -31.0764 	 80.9866 	 
C 	 3.66119 	 -30.0992 	 82.3836 	 
H 	 4.01005 	 -30.8171 	 83.16 	 
H 	 4.19038 	 -29.1578 	 82.6063 	 
H 	 2.56179 	 -29.9631 	 82.4277 	 
S 	 8.83421 	 -26.0437 	 81.1512 	 
C 	 10.4296 	 -26.5496 	 81.1047 	 
C 	 10.6034 	 -27.6037 	 80.2454 	 
C 	 9.3866 	 -28.1057 	 79.7617 	 
C 	 8.28333 	 -27.3261 	 80.0479 	 
H 	 11.6198 	 -28.0669 	 80.1047 	 
C 	 9.29689 	 -29.3613 	 78.8402 	 
H 	 9.97003 	 -29.0625 	 77.9934 	 
H 	 8.29475 	 -29.5215 	 78.553 	 
C 	 9.77122 	 -30.6311 	 79.4507 	 
H 	 9.1277 	 -30.8227 	 80.2981 	 
H 	 10.7724 	 -30.5576 	 79.9673 	 
C 	 9.76679 	 -31.7657 	 78.4165 	 
H 	 10.3471 	 -31.3847 	 77.6638 	 
H 	 8.72557 	 -31.9424 	 78.0931 	 
H 	 10.2395 	 -32.7168 	 78.7449 	 
H 	 3.49733 	 -27.2977 	 78.6652 	 
H 	 11.2817 	 -26.007 	 81.6198 	 
*
