! wB97X-D3 SP def2-SVP
%pal
nprocs 16
end

* xyz 0 1
S 	 56.124 	 13.874 	 77.7017 	 
C 	 57.0989 	 15.2431 	 77.3105 	 
C 	 58.3604 	 14.8697 	 76.8868 	 
C 	 58.677 	 13.499 	 77.1395 	 
C 	 57.5643 	 12.8089 	 77.5223 	 
H 	 59.6406 	 13.0419 	 77.1809 	 
C 	 59.3684 	 15.8569 	 76.3329 	 
H 	 58.8572 	 16.7196 	 76.0511 	 
H 	 59.7013 	 15.4263 	 75.4056 	 
C 	 60.5695 	 16.1255 	 77.1968 	 
H 	 60.9723 	 15.1613 	 77.4645 	 
H 	 61.3488 	 16.6758 	 76.7777 	 
C 	 60.2697 	 17.0449 	 78.379 	 
H 	 59.7152 	 16.5404 	 79.1311 	 
H 	 61.2147 	 17.3959 	 78.8656 	 
H 	 59.6986 	 17.9104 	 78.0815 	 
S 	 57.0596 	 11.0056 	 79.5537 	 
C 	 57.1295 	 9.25053 	 79.2464 	 
C 	 57.5896 	 8.98933 	 77.9749 	 
C 	 57.8661 	 10.228 	 77.2497 	 
C 	 57.5035 	 11.3862 	 77.9491 	 
H 	 57.7124 	 7.92643 	 77.6504 	 
C 	 58.2933 	 10.0739 	 75.7983 	 
H 	 58.9974 	 9.20768 	 75.6547 	 
H 	 58.9082 	 10.9343 	 75.5627 	 
C 	 57.2888 	 9.74603 	 74.7006 	 
H 	 56.4684 	 10.4252 	 74.7763 	 
H 	 56.841 	 8.75672 	 74.9648 	 
C 	 57.9956 	 9.64322 	 73.3913 	 
H 	 58.7152 	 10.434 	 73.1849 	 
H 	 57.3493 	 9.71147 	 72.5004 	 
H 	 58.5434 	 8.65088 	 73.2966 	 
H 	 56.7621 	 16.2713 	 77.2507 	 
H 	 56.8652 	 8.4105 	 79.8573 	 
*
