! wB97X-D3 SP def2-SVP
%pal
nprocs 16
end

* xyz 0 1
S 	 -31.2298 	 66.1056 	 116.342 	 
C 	 -32.6881 	 65.0979 	 116.263 	 
C 	 -32.651 	 64.4769 	 115.043 	 
C 	 -31.4368 	 64.6209 	 114.237 	 
C 	 -30.5305 	 65.4752 	 114.814 	 
H 	 -31.0874 	 64.1271 	 113.301 	 
C 	 -33.6796 	 63.4642 	 114.556 	 
H 	 -33.5528 	 63.3547 	 113.485 	 
H 	 -34.6373 	 63.9379 	 114.766 	 
C 	 -33.5851 	 62.0781 	 115.288 	 
H 	 -34.0413 	 61.2115 	 114.769 	 
H 	 -32.5936 	 61.8152 	 115.37 	 
C 	 -34.2461 	 62.1443 	 116.72 	 
H 	 -34.0939 	 61.2474 	 117.281 	 
H 	 -33.701 	 62.8571 	 117.356 	 
H 	 -35.3243 	 62.3782 	 116.769 	 
S 	 -27.7201 	 65.4857 	 115.275 	 
C 	 -26.7492 	 65.7941 	 113.812 	 
C 	 -27.4749 	 66.5654 	 112.962 	 
C 	 -28.8902 	 66.6612 	 113.234 	 
C 	 -29.1991 	 65.8481 	 114.319 	 
H 	 -27.0248 	 66.9957 	 112.118 	 
C 	 -29.889 	 67.3274 	 112.373 	 
H 	 -30.4813 	 68.0527 	 112.992 	 
H 	 -30.6283 	 66.4551 	 112.121 	 
C 	 -29.2896 	 68.2093 	 111.148 	 
H 	 -28.7608 	 67.4377 	 110.489 	 
H 	 -28.4516 	 68.8536 	 111.599 	 
C 	 -30.262 	 68.9683 	 110.258 	 
H 	 -30.7466 	 69.7536 	 110.815 	 
H 	 -31.0293 	 68.3218 	 109.741 	 
H 	 -29.7693 	 69.5208 	 109.496 	 
H 	 -33.5447 	 65.0183 	 116.919 	 
H 	 -25.6553 	 65.7934 	 113.798 	 
*
