! wB97X-D3 SP def2-SVP
%pal
nprocs 16
end

* xyz 0 1
S 	 -87.9168 	 40.8681 	 113.84 	 
C 	 -86.5399 	 41.8632 	 113.422 	 
C 	 -86.5864 	 43.117 	 114.043 	 
C 	 -87.8445 	 43.2549 	 114.703 	 
C 	 -88.698 	 42.1773 	 114.679 	 
H 	 -88.144 	 44.1747 	 115.179 	 
C 	 -85.494 	 44.1523 	 114.022 	 
H 	 -84.4946 	 43.688 	 114.2 	 
H 	 -85.5581 	 44.8079 	 114.918 	 
C 	 -85.572 	 45.1178 	 112.739 	 
H 	 -86.5097 	 45.7488 	 112.76 	 
H 	 -84.7692 	 45.8568 	 112.875 	 
C 	 -85.5165 	 44.3405 	 111.434 	 
H 	 -86.3976 	 43.6597 	 111.42 	 
H 	 -85.3338 	 44.971 	 110.512 	 
H 	 -84.7069 	 43.5745 	 111.439 	 
S 	 -91.255 	 41.5386 	 114.072 	 
C 	 -92.5489 	 41.9343 	 115.131 	 
C 	 -92.1283 	 42.64 	 116.259 	 
C 	 -90.6862 	 42.8604 	 116.252 	 
C 	 -90.0979 	 42.226 	 115.201 	 
H 	 -92.7936 	 43.0266 	 117.059 	 
C 	 -90.0521 	 43.5457 	 117.406 	 
H 	 -90.7205 	 44.3376 	 117.679 	 
H 	 -89.2202 	 44.1701 	 117.114 	 
C 	 -89.8492 	 42.5793 	 118.569 	 
H 	 -89.0477 	 41.9508 	 118.257 	 
H 	 -90.8308 	 42.0339 	 118.625 	 
C 	 -89.5125 	 43.34 	 119.829 	 
H 	 -88.5671 	 43.9041 	 119.855 	 
H 	 -89.4931 	 42.5966 	 120.679 	 
H 	 -90.3178 	 44.0732 	 119.954 	 
H 	 -85.5861 	 41.5727 	 113.112 	 
H 	 -93.5664 	 41.7353 	 115.091 	 
*
