! wB97X-D3 SP def2-SVP
%pal
nprocs 16
end

* xyz 0 1
S 	 43.8198 	 21.5692 	 44.8329 	 
C 	 42.2729 	 21.2936 	 44.1928 	 
C 	 41.3112 	 22.3135 	 44.4754 	 
C 	 41.9582 	 23.342 	 45.2608 	 
C 	 43.2923 	 23.1171 	 45.497 	 
H 	 41.4055 	 24.1932 	 45.5786 	 
C 	 39.9332 	 22.3475 	 43.9375 	 
H 	 39.4232 	 21.4366 	 44.0457 	 
H 	 40.1324 	 22.5721 	 42.8161 	 
C 	 38.949 	 23.4716 	 44.4958 	 
H 	 39.4053 	 24.4879 	 44.4995 	 
H 	 38.2891 	 23.5196 	 43.6706 	 
C 	 38.2788 	 23.104 	 45.853 	 
H 	 37.4597 	 23.7753 	 46.2129 	 
H 	 37.8155 	 22.1 	 45.889 	 
H 	 39.0813 	 22.9849 	 46.5869 	 
S 	 44.9775 	 25.2353 	 45.4603 	 
C 	 46.0812 	 25.2935 	 46.7439 	 
C 	 45.6149 	 24.7635 	 47.9189 	 
C 	 44.6137 	 23.7835 	 47.5923 	 
C 	 44.2223 	 23.9278 	 46.2787 	 
H 	 46.1565 	 24.8538 	 48.913 	 
C 	 44.0144 	 22.8062 	 48.5972 	 
H 	 44.9005 	 22.3577 	 49.1906 	 
H 	 43.617 	 21.8879 	 48.0411 	 
C 	 42.9133 	 23.379 	 49.5618 	 
H 	 41.9834 	 23.6269 	 49.104 	 
H 	 43.2596 	 24.3203 	 50.0101 	 
C 	 42.7278 	 22.4685 	 50.7982 	 
H 	 42.0969 	 22.8087 	 51.6146 	 
H 	 43.672 	 22.2054 	 51.2646 	 
H 	 42.132 	 21.6268 	 50.4685 	 
H 	 42.062 	 20.39 	 43.646 	 
H 	 47.0919 	 25.7204 	 46.5955 	 
*
