! wB97X-D3 SP def2-SVP
%pal
nprocs 16
end

* xyz 0 1
S 	 -2.18348 	 -4.19596 	 77.1857 	 
C 	 -2.07893 	 -4.38709 	 78.9452 	 
C 	 -1.37113 	 -3.36179 	 79.5512 	 
C 	 -1.03886 	 -2.42762 	 78.5222 	 
C 	 -1.41687 	 -2.67871 	 77.1677 	 
H 	 -0.396708 	 -1.49651 	 78.7051 	 
C 	 -0.953892 	 -3.18727 	 80.9755 	 
H 	 -1.84595 	 -3.28523 	 81.6796 	 
H 	 -0.62996 	 -2.16352 	 81.106 	 
C 	 0.0973143 	 -4.08425 	 81.5382 	 
H 	 0.147612 	 -3.96383 	 82.6452 	 
H 	 -0.18053 	 -5.08504 	 81.3518 	 
C 	 1.51138 	 -3.76426 	 80.9428 	 
H 	 1.46119 	 -3.74313 	 79.9026 	 
H 	 1.8871 	 -2.84168 	 81.3815 	 
H 	 2.19536 	 -4.48897 	 81.2649 	 
S 	 0.270566 	 -2.72967 	 74.9689 	 
C 	 0.0383901 	 -1.5255 	 73.8137 	 
C 	 -0.991344 	 -0.62331 	 74.0844 	 
C 	 -1.50334 	 -0.838234 	 75.3895 	 
C 	 -1.00151 	 -2.04834 	 75.959 	 
H 	 -1.19582 	 0.153851 	 73.4001 	 
C 	 -2.58287 	 0.00451485 	 75.946 	 
H 	 -2.54957 	 1.04472 	 75.6774 	 
H 	 -2.4255 	 -0.08745 	 77.0262 	 
C 	 -4.03185 	 -0.572844 	 75.8248 	 
H 	 -4.12073 	 -1.36411 	 76.5141 	 
H 	 -4.18066 	 -0.871491 	 74.7857 	 
C 	 -5.0729 	 0.553519 	 76.2041 	 
H 	 -6.0084 	 0.0974912 	 76.4581 	 
H 	 -5.17622 	 1.22345 	 75.3548 	 
H 	 -4.78714 	 1.28831 	 76.9806 	 
H 	 -2.53131 	 -5.23156 	 79.4652 	 
H 	 0.699871 	 -1.35983 	 72.9536 	 
*
