! wB97X-D3 SP def2-SVP
%pal
nprocs 16
end

* xyz 0 1
S 	 44.4016 	 7.23834 	 86.9473 	 
C 	 45.5809 	 8.56504 	 87.073 	 
C 	 46.0677 	 8.65808 	 88.324 	 
C 	 45.5154 	 7.69378 	 89.1789 	 
C 	 44.7479 	 6.68646 	 88.5555 	 
H 	 45.7137 	 7.57927 	 90.2965 	 
C 	 46.8705 	 9.82924 	 88.843 	 
H 	 46.8474 	 9.77862 	 89.9474 	 
H 	 46.3322 	 10.7523 	 88.5615 	 
C 	 48.2314 	 10.0421 	 88.0943 	 
H 	 48.0329 	 10.0402 	 87.0139 	 
H 	 48.5972 	 11.0551 	 88.372 	 
C 	 49.2167 	 8.96832 	 88.4515 	 
H 	 49.348 	 8.85694 	 89.5397 	 
H 	 48.8486 	 8.10439 	 87.9603 	 
H 	 50.1997 	 9.23702 	 88.1144 	 
S 	 42.2494 	 5.35033 	 89.1333 	 
C 	 42.332 	 3.83335 	 89.9638 	 
C 	 43.6475 	 3.57965 	 90.3983 	 
C 	 44.6343 	 4.56494 	 89.9835 	 
C 	 44.0909 	 5.51185 	 89.162 	 
H 	 43.9213 	 2.76087 	 90.8921 	 
C 	 46.1103 	 4.47123 	 90.3984 	 
H 	 46.1411 	 3.9894 	 91.3364 	 
H 	 46.3301 	 5.47013 	 90.82 	 
C 	 47.0202 	 3.90955 	 89.2986 	 
H 	 46.925 	 4.41031 	 88.4215 	 
H 	 46.7286 	 2.84328 	 89.0096 	 
C 	 48.4871 	 3.85538 	 89.7298 	 
H 	 48.8281 	 4.91009 	 89.8444 	 
H 	 49.1496 	 3.34038 	 89.0002 	 
H 	 48.5464 	 3.27777 	 90.682 	 
H 	 45.8521 	 9.25543 	 86.2656 	 
H 	 41.5453 	 3.10019 	 89.8329 	 
*
