! wB97X-D3 SP def2-SVP
%pal
nprocs 16
end

* xyz 0 1
S 	 14.3859 	 4.53925 	 85.8699 	 
C 	 14.9716 	 6.11963 	 86.4912 	 
C 	 13.9175 	 7.01096 	 86.7458 	 
C 	 12.6534 	 6.39784 	 86.3646 	 
C 	 12.716 	 5.11439 	 85.8534 	 
H 	 11.7725 	 7.01017 	 86.3892 	 
C 	 14.0815 	 8.41128 	 87.2558 	 
H 	 15.1495 	 8.44458 	 87.4035 	 
H 	 13.5603 	 8.58828 	 88.2138 	 
C 	 13.6835 	 9.57264 	 86.3683 	 
H 	 12.6531 	 9.48866 	 86.1254 	 
H 	 13.7275 	 10.5023 	 86.9245 	 
C 	 14.6194 	 9.73662 	 85.2073 	 
H 	 14.4316 	 8.91962 	 84.523 	 
H 	 14.3462 	 10.6732 	 84.7413 	 
H 	 15.6768 	 9.81288 	 85.5972 	 
S 	 11.7701 	 2.45088 	 85.9712 	 
C 	 10.2462 	 2.12053 	 85.2635 	 
C 	 9.60943 	 3.25604 	 84.8469 	 
C 	 10.4095 	 4.40251 	 84.9686 	 
C 	 11.6488 	 4.16485 	 85.4497 	 
H 	 8.51644 	 3.15383 	 84.6361 	 
C 	 9.83783 	 5.72889 	 84.5624 	 
H 	 9.74797 	 5.68529 	 83.501 	 
H 	 10.4665 	 6.52765 	 84.8768 	 
C 	 8.50634 	 6.02303 	 85.2502 	 
H 	 7.75614 	 5.23769 	 84.9326 	 
H 	 8.18762 	 7.0868 	 84.9509 	 
C 	 8.49217 	 5.82598 	 86.7756 	 
H 	 9.3919 	 5.25407 	 86.9562 	 
H 	 7.60118 	 5.2866 	 87.094 	 
H 	 8.56989 	 6.75182 	 87.2765 	 
H 	 15.9626 	 6.30488 	 86.8858 	 
H 	 9.78948 	 1.13578 	 85.3262 	 
*
