! wB97X-D3 SP def2-SVP
%pal
nprocs 16
end

* xyz 0 1
S 	 44.3013 	 8.21655 	 101.612 	 
C 	 46.008 	 8.0697 	 101.849 	 
C 	 46.6282 	 7.92124 	 100.667 	 
C 	 45.7069 	 7.53629 	 99.6305 	 
C 	 44.4439 	 7.39584 	 100.107 	 
H 	 46.0449 	 7.24196 	 98.7176 	 
C 	 48.1059 	 7.96325 	 100.315 	 
H 	 48.145 	 8.53197 	 99.3496 	 
H 	 48.427 	 6.994 	 100.122 	 
C 	 49.0549 	 8.67825 	 101.275 	 
H 	 48.8194 	 9.75005 	 101.476 	 
H 	 48.7953 	 8.05648 	 102.19 	 
C 	 50.5134 	 8.41466 	 100.792 	 
H 	 50.6301 	 8.35997 	 99.6469 	 
H 	 51.2101 	 9.07283 	 101.332 	 
H 	 50.6867 	 7.35893 	 100.997 	 
S 	 42.3221 	 5.70704 	 100.339 	 
C 	 41.2146 	 5.44227 	 99.021 	 
C 	 41.4048 	 6.41078 	 98.0337 	 
C 	 42.5641 	 7.25836 	 98.2855 	 
C 	 43.2192 	 6.90894 	 99.4871 	 
H 	 40.7026 	 6.48058 	 97.1782 	 
C 	 42.9539 	 8.28897 	 97.2391 	 
H 	 42.4192 	 8.01302 	 96.3382 	 
H 	 44.0288 	 8.14806 	 97.0545 	 
C 	 42.7723 	 9.75707 	 97.6751 	 
H 	 41.7443 	 9.92531 	 98.0661 	 
H 	 42.8573 	 10.3858 	 96.8136 	 
C 	 43.7946 	 10.241 	 98.7264 	 
H 	 43.7094 	 9.79306 	 99.6687 	 
H 	 43.5082 	 11.2587 	 98.9814 	 
H 	 44.7877 	 10.0871 	 98.3813 	 
H 	 46.5486 	 8.40547 	 102.745 	 
H 	 40.415 	 4.73563 	 99.096 	 
*
