! wB97X-D3 SP def2-SVP
%pal
nprocs 16
end

* xyz 0 1
S 	 15.3397 	 36.7809 	 64.5673 	 
C 	 16.8047 	 37.7139 	 64.5149 	 
C 	 17.8866 	 36.9947 	 64.0782 	 
C 	 17.541 	 35.6418 	 63.7395 	 
C 	 16.1975 	 35.3377 	 64.0415 	 
H 	 18.1315 	 34.9017 	 63.3741 	 
C 	 19.2799 	 37.5722 	 63.8303 	 
H 	 19.8768 	 36.7402 	 63.6269 	 
H 	 19.5942 	 38.1075 	 64.7312 	 
C 	 19.3635 	 38.4768 	 62.5979 	 
H 	 18.5765 	 39.2073 	 62.459 	 
H 	 20.2609 	 39.136 	 62.4533 	 
C 	 19.3133 	 37.741 	 61.245 	 
H 	 18.545 	 36.8672 	 61.3536 	 
H 	 18.8868 	 38.3952 	 60.4696 	 
H 	 20.2624 	 37.2929 	 61.0546 	 
S 	 14.0916 	 33.946 	 62.6697 	 
C 	 14.0242 	 32.1609 	 62.8248 	 
C 	 14.8471 	 31.8111 	 63.8533 	 
C 	 15.7897 	 32.8166 	 64.2916 	 
C 	 15.503 	 34.091 	 63.7573 	 
H 	 14.8738 	 30.7999 	 64.2135 	 
C 	 16.9132 	 32.4414 	 65.2633 	 
H 	 17.6993 	 33.2428 	 65.2337 	 
H 	 17.3998 	 31.5049 	 64.8671 	 
C 	 16.49 	 32.2234 	 66.6834 	 
H 	 17.3699 	 31.8665 	 67.195 	 
H 	 15.8109 	 31.2434 	 66.6854 	 
C 	 15.7409 	 33.4222 	 67.2648 	 
H 	 15.6371 	 33.4064 	 68.3097 	 
H 	 14.6508 	 33.4758 	 66.9563 	 
H 	 16.0737 	 34.4066 	 66.9038 	 
H 	 16.8988 	 38.7649 	 64.6245 	 
H 	 13.2266 	 31.5622 	 62.4107 	 
*
