! wB97X-D3 SP def2-SVP
%pal
nprocs 16
end

* xyz 0 1
S 	 -88.3341 	 50.2672 	 131.25 	 
C 	 -90.0278 	 50.1781 	 131.318 	 
C 	 -90.6671 	 51.1914 	 130.638 	 
C 	 -89.7251 	 52.1481 	 130.1 	 
C 	 -88.4335 	 51.8533 	 130.495 	 
H 	 -90.0369 	 53.0041 	 129.476 	 
C 	 -92.1757 	 51.2518 	 130.341 	 
H 	 -92.4375 	 50.2053 	 130.003 	 
H 	 -92.3225 	 51.9245 	 129.538 	 
C 	 -93.0755 	 51.7256 	 131.422 	 
H 	 -94.0917 	 51.7999 	 131.012 	 
H 	 -93.1354 	 50.9122 	 132.201 	 
C 	 -92.6749 	 53.0903 	 132.018 	 
H 	 -92.725 	 53.8372 	 131.307 	 
H 	 -93.3952 	 53.4117 	 132.756 	 
H 	 -91.6553 	 52.9836 	 132.416 	 
S 	 -86.6838 	 51.6908 	 128.444 	 
C 	 -85.6487 	 53.0149 	 128.156 	 
C 	 -85.9806 	 54.1469 	 128.895 	 
C 	 -87.0553 	 53.8514 	 129.799 	 
C 	 -87.3961 	 52.5343 	 129.826 	 
H 	 -85.4919 	 55.0892 	 128.863 	 
C 	 -87.6298 	 54.9688 	 130.689 	 
H 	 -88.6278 	 54.8021 	 131.084 	 
H 	 -87.6856 	 55.8172 	 130.019 	 
C 	 -86.6662 	 55.3458 	 131.824 	 
H 	 -86.9862 	 56.3323 	 132.311 	 
H 	 -85.7157 	 55.7102 	 131.426 	 
C 	 -86.5238 	 54.1544 	 132.836 	 
H 	 -86.073 	 53.2055 	 132.556 	 
H 	 -87.4739 	 54.0896 	 133.363 	 
H 	 -85.9445 	 54.518 	 133.669 	 
H 	 -90.5711 	 49.3243 	 131.661 	 
H 	 -84.9164 	 52.9233 	 127.381 	 
*
