! wB97X-D3 SP def2-SVP
%pal
nprocs 16
end

* xyz 0 1
S 	 -22.4624 	 35.5325 	 35.106 	 
C 	 -22.3042 	 35.7007 	 33.4341 	 
C 	 -21.145 	 35.0714 	 32.9416 	 
C 	 -20.3941 	 34.4286 	 33.9696 	 
C 	 -21.0988 	 34.4646 	 35.1924 	 
H 	 -19.4199 	 33.9173 	 33.8982 	 
C 	 -20.6809 	 35.2644 	 31.518 	 
H 	 -21.5182 	 35.4429 	 30.9176 	 
H 	 -20.4394 	 34.3409 	 31.117 	 
C 	 -19.5564 	 36.3277 	 31.2436 	 
H 	 -19.9031 	 36.7587 	 30.312 	 
H 	 -19.6448 	 37.2043 	 31.9001 	 
C 	 -18.1774 	 35.7363 	 31.0719 	 
H 	 -18.1282 	 34.7212 	 30.521 	 
H 	 -17.5698 	 36.4468 	 30.5694 	 
H 	 -17.7048 	 35.6566 	 32.0459 	 
S 	 -21.6497 	 32.8719 	 37.3908 	 
C 	 -20.4562 	 32.7276 	 38.6853 	 
C 	 -19.3188 	 33.437 	 38.316 	 
C 	 -19.3416 	 34.0561 	 37.0241 	 
C 	 -20.6118 	 33.9036 	 36.4637 	 
H 	 -18.4454 	 33.5167 	 39.0271 	 
C 	 -18.1926 	 34.9016 	 36.528 	 
H 	 -17.8232 	 35.4655 	 37.3994 	 
H 	 -18.6733 	 35.6459 	 35.946 	 
C 	 -17.089 	 34.1366 	 35.8095 	 
H 	 -16.5181 	 35.0089 	 35.4516 	 
H 	 -17.53 	 33.6709 	 34.9072 	 
C 	 -16.3447 	 33.1993 	 36.776 	 
H 	 -15.3009 	 33.1106 	 36.4432 	 
H 	 -16.8541 	 32.2454 	 36.6866 	 
H 	 -16.4186 	 33.4767 	 37.8246 	 
H 	 -22.9318 	 36.2955 	 32.7976 	 
H 	 -20.5408 	 32.1566 	 39.5551 	 
*
