! wB97X-D3 SP def2-SVP
%pal
nprocs 16
end

* xyz 0 1
S 	 -42.6793 	 28.0259 	 81.002 	 
C 	 -42.0543 	 28.5183 	 79.4845 	 
C 	 -41.2189 	 27.5182 	 78.9242 	 
C 	 -41.0838 	 26.3388 	 79.7555 	 
C 	 -41.747 	 26.5125 	 80.9323 	 
H 	 -40.6161 	 25.432 	 79.4899 	 
C 	 -40.6836 	 27.4425 	 77.5345 	 
H 	 -39.7415 	 26.9492 	 77.488 	 
H 	 -40.3796 	 28.478 	 77.3043 	 
C 	 -41.7844 	 27.1142 	 76.4399 	 
H 	 -41.2645 	 26.859 	 75.4787 	 
H 	 -42.3591 	 26.2475 	 76.8805 	 
C 	 -42.8175 	 28.1403 	 76.1523 	 
H 	 -43.6467 	 28.2791 	 76.8485 	 
H 	 -42.2024 	 29.0574 	 76.1937 	 
H 	 -43.1507 	 28.066 	 75.1477 	 
S 	 -42.9858 	 24.6777 	 82.4096 	 
C 	 -42.1558 	 23.7799 	 83.6327 	 
C 	 -40.9279 	 24.3508 	 83.9007 	 
C 	 -40.6087 	 25.428 	 83.0025 	 
C 	 -41.601 	 25.6935 	 82.113 	 
H 	 -40.2967 	 23.9187 	 84.6939 	 
C 	 -39.278 	 26.0711 	 83.0436 	 
H 	 -39.0249 	 26.2849 	 84.1241 	 
H 	 -39.2646 	 27.0251 	 82.457 	 
C 	 -38.073 	 25.28 	 82.5529 	 
H 	 -37.9133 	 24.3441 	 83.0896 	 
H 	 -37.1896 	 25.7652 	 82.7021 	 
C 	 -38.0921 	 24.9892 	 81.0799 	 
H 	 -38.2143 	 25.8365 	 80.4706 	 
H 	 -38.9433 	 24.4008 	 80.8008 	 
H 	 -37.1688 	 24.5502 	 80.734 	 
H 	 -42.2619 	 29.5307 	 78.98 	 
H 	 -42.5204 	 22.8334 	 84.0795 	 
*
