! wB97X-D3 SP def2-SVP
%pal
nprocs 16
end

* xyz 0 1
S 	 40.5117 	 13.9675 	 84.908 	 
C 	 41.4102 	 15.3229 	 85.4714 	 
C 	 42.5952 	 14.903 	 86.0856 	 
C 	 42.73 	 13.4573 	 86.0843 	 
C 	 41.6313 	 12.7857 	 85.62 	 
H 	 43.6111 	 12.9832 	 86.4519 	 
C 	 43.6617 	 15.7398 	 86.738 	 
H 	 43.9055 	 15.3071 	 87.695 	 
H 	 43.2957 	 16.6753 	 87.0809 	 
C 	 44.8375 	 15.973 	 85.8061 	 
H 	 45.5059 	 16.5785 	 86.3244 	 
H 	 45.3172 	 15.0437 	 85.5606 	 
C 	 44.4761 	 16.7863 	 84.5837 	 
H 	 45.3523 	 17.2977 	 84.287 	 
H 	 44.1886 	 16.0378 	 83.8583 	 
H 	 43.7444 	 17.6037 	 84.8055 	 
S 	 41.7168 	 10.7743 	 83.7596 	 
C 	 41.6754 	 9.0997 	 84.1975 	 
C 	 41.499 	 9.02167 	 85.5776 	 
C 	 41.4224 	 10.2994 	 86.3037 	 
C 	 41.4943 	 11.3558 	 85.4308 	 
H 	 41.5272 	 8.0056 	 86.072 	 
C 	 41.294 	 10.2732 	 87.7984 	 
H 	 40.3083 	 9.89756 	 88.0861 	 
H 	 41.2414 	 11.2804 	 88.1483 	 
C 	 42.2965 	 9.42653 	 88.5909 	 
H 	 43.3268 	 9.53764 	 88.2966 	 
H 	 42.1392 	 8.35788 	 88.5955 	 
C 	 42.4423 	 9.87303 	 90.0233 	 
H 	 43.0546 	 9.07863 	 90.3852 	 
H 	 41.4945 	 9.96282 	 90.5693 	 
H 	 43.0985 	 10.7608 	 90.1588 	 
H 	 41.0351 	 16.309 	 85.4064 	 
H 	 41.4745 	 8.34658 	 83.4686 	 
*
