! wB97X-D3 SP def2-SVP
%pal
nprocs 16
end

* xyz 0 1
S 	 -1.469 	 -11.5111 	 82.5658 	 
C 	 -2.13911 	 -12.5777 	 83.6735 	 
C 	 -2.84819 	 -13.6288 	 83.133 	 
C 	 -2.88644 	 -13.5842 	 81.6846 	 
C 	 -2.17395 	 -12.4911 	 81.2253 	 
H 	 -3.25209 	 -14.2843 	 81.0134 	 
C 	 -3.51298 	 -14.6832 	 83.9077 	 
H 	 -3.96321 	 -15.2835 	 83.1346 	 
H 	 -4.26168 	 -14.1939 	 84.4594 	 
C 	 -2.62054 	 -15.6045 	 84.7468 	 
H 	 -1.92995 	 -16.1246 	 84.0508 	 
H 	 -2.07027 	 -15.0009 	 85.4379 	 
C 	 -3.44656 	 -16.575 	 85.564 	 
H 	 -3.89251 	 -15.9909 	 86.3371 	 
H 	 -4.25796 	 -17.074 	 84.9753 	 
H 	 -2.71068 	 -17.305 	 85.8757 	 
S 	 -0.868106 	 -13.2339 	 78.8056 	 
C 	 -1.39896 	 -12.4549 	 77.3394 	 
C 	 -2.04921 	 -11.287 	 77.6591 	 
C 	 -2.46352 	 -11.1557 	 79.0461 	 
C 	 -1.88014 	 -12.1506 	 79.8046 	 
H 	 -2.34763 	 -10.6962 	 76.8802 	 
C 	 -3.21719 	 -9.97064 	 79.5331 	 
H 	 -3.32162 	 -10.2072 	 80.6058 	 
H 	 -4.25532 	 -9.87049 	 79.1056 	 
C 	 -2.64461 	 -8.55685 	 79.3534 	 
H 	 -2.33607 	 -8.26786 	 78.334 	 
H 	 -1.79314 	 -8.54295 	 80.0606 	 
C 	 -3.47911 	 -7.39446 	 79.9269 	 
H 	 -4.48532 	 -7.36905 	 79.6279 	 
H 	 -2.9901 	 -6.45362 	 79.7289 	 
H 	 -3.48123 	 -7.65948 	 80.9737 	 
H 	 -2.3557 	 -12.3078 	 84.709 	 
H 	 -1.19268 	 -12.6634 	 76.2976 	 
*
