! wB97X-D3 SP def2-SVP
%pal
nprocs 16
end

* xyz 0 1
S 	 -59.7292 	 51.4041 	 127.44 	 
C 	 -60.8206 	 50.0846 	 127.605 	 
C 	 -61.2583 	 49.7172 	 126.319 	 
C 	 -60.7398 	 50.5406 	 125.283 	 
C 	 -59.9123 	 51.5253 	 125.745 	 
H 	 -61.0024 	 50.4141 	 124.25 	 
C 	 -62.0976 	 48.5205 	 125.978 	 
H 	 -61.4551 	 47.9442 	 125.344 	 
H 	 -62.8965 	 48.8601 	 125.377 	 
C 	 -62.6014 	 47.5194 	 127.095 	 
H 	 -61.6946 	 46.9597 	 127.323 	 
H 	 -63.0145 	 48.0397 	 127.978 	 
C 	 -63.6333 	 46.5081 	 126.551 	 
H 	 -64.4577 	 46.9113 	 126.116 	 
H 	 -63.1828 	 45.8317 	 125.833 	 
H 	 -64.0288 	 45.8382 	 127.38 	 
S 	 -60.0476 	 53.0315 	 123.472 	 
C 	 -58.9339 	 54.3499 	 123.158 	 
C 	 -57.8684 	 54.2791 	 124.036 	 
C 	 -58.0623 	 53.2914 	 125.069 	 
C 	 -59.2401 	 52.5692 	 124.955 	 
H 	 -56.9658 	 54.8079 	 123.865 	 
C 	 -57.0863 	 53.1853 	 126.216 	 
H 	 -57.1024 	 52.201 	 126.584 	 
H 	 -57.3805 	 53.9267 	 127.024 	 
C 	 -55.5814 	 53.4969 	 125.937 	 
H 	 -55.1169 	 53.7202 	 126.922 	 
H 	 -55.6524 	 54.5249 	 125.425 	 
C 	 -54.8752 	 52.4243 	 125.145 	 
H 	 -54.0756 	 52.8421 	 124.526 	 
H 	 -55.5234 	 51.8599 	 124.494 	 
H 	 -54.5445 	 51.6453 	 125.828 	 
H 	 -61.045 	 49.5603 	 128.547 	 
H 	 -58.9121 	 55.0165 	 122.285 	 
*
