! wB97X-D3 SP def2-SVP
%pal
nprocs 16
end

* xyz 0 1
S 	 11.6558 	 -5.02155 	 91.4367 	 
C 	 9.9202 	 -4.93018 	 92.0684 	 
C 	 9.11608 	 -5.87143 	 91.3804 	 
C 	 9.84773 	 -6.5726 	 90.3769 	 
C 	 11.1534 	 -6.21462 	 90.2717 	 
H 	 9.43431 	 -7.42873 	 89.8748 	 
C 	 7.67275 	 -6.12373 	 91.561 	 
H 	 7.31494 	 -6.4866 	 90.6242 	 
H 	 7.27977 	 -5.13372 	 91.6834 	 
C 	 7.33454 	 -7.10777 	 92.6885 	 
H 	 8.17663 	 -7.83127 	 92.8357 	 
H 	 7.50153 	 -6.55511 	 93.586 	 
C 	 6.03366 	 -7.904 	 92.4771 	 
H 	 6.14997 	 -8.76051 	 91.7664 	 
H 	 5.64043 	 -8.24432 	 93.3847 	 
H 	 5.3147 	 -7.22007 	 92.0062 	 
S 	 13.3946 	 -7.77807 	 89.8199 	 
C 	 13.7391 	 -8.30528 	 88.2218 	 
C 	 12.7949 	 -7.83267 	 87.3193 	 
C 	 11.8053 	 -6.99783 	 87.9251 	 
C 	 12.0536 	 -6.79354 	 89.2855 	 
H 	 12.8797 	 -8.19621 	 86.2556 	 
C 	 10.5825 	 -6.6137 	 87.0892 	 
H 	 9.78833 	 -6.16965 	 87.8151 	 
H 	 10.2444 	 -7.45077 	 86.6046 	 
C 	 10.9832 	 -5.5043 	 86.0141 	 
H 	 11.6926 	 -5.94756 	 85.2439 	 
H 	 11.5464 	 -4.69887 	 86.4751 	 
C 	 9.7849 	 -4.91485 	 85.2447 	 
H 	 10.0902 	 -4.09061 	 84.6676 	 
H 	 9.06672 	 -4.52052 	 86.0141 	 
H 	 9.29821 	 -5.57141 	 84.5533 	 
H 	 9.51271 	 -4.53054 	 93.0253 	 
H 	 14.6017 	 -8.90315 	 87.9341 	 
*
