! wB97X-D3 SP def2-SVP
%pal
nprocs 16
end

* xyz 0 1
S 	 -14.817 	 31.278 	 36.4732 	 
C 	 -15.0679 	 31.781 	 38.1183 	 
C 	 -14.3633 	 32.9671 	 38.422 	 
C 	 -13.7134 	 33.4979 	 37.2367 	 
C 	 -13.9206 	 32.7297 	 36.1151 	 
H 	 -13.2344 	 34.4548 	 37.1397 	 
C 	 -14.3595 	 33.6925 	 39.7511 	 
H 	 -13.7671 	 34.6177 	 39.6917 	 
H 	 -13.8532 	 33.0727 	 40.4621 	 
C 	 -15.7008 	 34.1754 	 40.2408 	 
H 	 -16.4307 	 33.337 	 40.1788 	 
H 	 -15.643 	 34.5266 	 41.2101 	 
C 	 -16.3582 	 35.2822 	 39.4218 	 
H 	 -15.8963 	 36.234 	 39.5292 	 
H 	 -16.3055 	 34.898 	 38.4379 	 
H 	 -17.4099 	 35.4716 	 39.649 	 
S 	 -12.3378 	 32.1908 	 33.9525 	 
C 	 -12.5169 	 33.084 	 32.4272 	 
C 	 -13.4656 	 34.0517 	 32.6489 	 
C 	 -14.0216 	 34.1955 	 33.9474 	 
C 	 -13.6406 	 33.1253 	 34.7521 	 
H 	 -13.6113 	 34.7864 	 31.8281 	 
C 	 -15.0976 	 35.1844 	 34.3381 	 
H 	 -15.2169 	 34.9215 	 35.4165 	 
H 	 -15.9303 	 34.923 	 33.7075 	 
C 	 -14.6059 	 36.6287 	 34.1567 	 
H 	 -14.4191 	 36.6577 	 33.1005 	 
H 	 -13.6926 	 36.681 	 34.6732 	 
C 	 -15.7074 	 37.6585 	 34.7325 	 
H 	 -15.3277 	 38.6096 	 34.7526 	 
H 	 -15.9482 	 37.4209 	 35.7587 	 
H 	 -16.5344 	 37.5907 	 34.0817 	 
H 	 -15.5963 	 31.2147 	 38.8857 	 
H 	 -11.7998 	 33.1467 	 31.5279 	 
*
