! wB97X-D3 SP def2-SVP
%pal
nprocs 16
end

* xyz 0 1
S 	 44.1621 	 19.3515 	 87.9442 	 
C 	 42.6389 	 20.1239 	 87.5757 	 
C 	 42.5234 	 20.5202 	 86.2691 	 
C 	 43.6116 	 20.0037 	 85.4836 	 
C 	 44.5515 	 19.3018 	 86.2162 	 
H 	 43.899 	 20.2336 	 84.4334 	 
C 	 41.3921 	 21.3854 	 85.681 	 
H 	 41.0371 	 20.9327 	 84.7876 	 
H 	 41.9739 	 22.2473 	 85.4414 	 
C 	 40.196 	 21.6664 	 86.6217 	 
H 	 39.7861 	 20.6964 	 86.958 	 
H 	 40.427 	 22.063 	 87.6278 	 
C 	 39.0919 	 22.4911 	 85.9705 	 
H 	 38.4755 	 22.0188 	 85.2061 	 
H 	 38.2695 	 22.8043 	 86.6424 	 
H 	 39.5324 	 23.4945 	 85.8067 	 
S 	 47.2247 	 19.6608 	 86.3145 	 
C 	 48.3963 	 18.5132 	 85.7366 	 
C 	 47.7053 	 17.6173 	 84.8955 	 
C 	 46.2537 	 17.6221 	 85.0939 	 
C 	 45.8233 	 18.7552 	 85.7973 	 
H 	 48.1725 	 16.8658 	 84.2636 	 
C 	 45.3613 	 16.5555 	 84.5038 	 
H 	 45.4891 	 16.6578 	 83.4642 	 
H 	 44.3693 	 16.8036 	 84.7736 	 
C 	 45.6956 	 14.9828 	 84.8137 	 
H 	 45.7394 	 14.7498 	 85.9146 	 
H 	 46.7569 	 14.7902 	 84.3914 	 
C 	 44.6901 	 13.9461 	 84.2266 	 
H 	 44.5121 	 14.285 	 83.2019 	 
H 	 43.6478 	 14.0594 	 84.7148 	 
H 	 45.0397 	 12.9207 	 84.3513 	 
H 	 41.8545 	 20.2248 	 88.2937 	 
H 	 49.4781 	 18.5282 	 85.8333 	 
*
