! wB97X-D3 SP def2-SVP
%pal
nprocs 16
end

* xyz 0 1
S 	 47.5567 	 5.17002 	 84.4191 	 
C 	 46.3148 	 5.54111 	 83.1675 	 
C 	 45.1667 	 6.04732 	 83.7659 	 
C 	 45.3496 	 6.06439 	 85.1933 	 
C 	 46.5599 	 5.7291 	 85.7069 	 
H 	 44.6385 	 6.46067 	 85.8893 	 
C 	 43.8508 	 6.41607 	 83.0459 	 
H 	 43.0287 	 6.03884 	 83.6997 	 
H 	 43.762 	 5.69334 	 82.253 	 
C 	 43.6248 	 7.78602 	 82.4709 	 
H 	 43.4203 	 8.43114 	 83.3341 	 
H 	 44.527 	 8.03796 	 81.9315 	 
C 	 42.48 	 7.8237 	 81.4862 	 
H 	 41.5882 	 7.44138 	 82.0208 	 
H 	 42.1866 	 8.84132 	 81.1175 	 
H 	 42.6017 	 7.17481 	 80.6119 	 
S 	 45.8402 	 4.92956 	 88.1848 	 
C 	 46.7238 	 5.45192 	 89.6422 	 
C 	 47.8345 	 6.21658 	 89.2474 	 
C 	 47.9441 	 6.36263 	 87.7978 	 
C 	 46.8952 	 5.78466 	 87.0975 	 
H 	 48.5102 	 6.61387 	 90.0076 	 
C 	 49.0765 	 7.02482 	 87.0545 	 
H 	 48.7068 	 7.5738 	 86.19 	 
H 	 49.8506 	 6.33452 	 86.685 	 
C 	 49.6966 	 8.0799 	 87.9106 	 
H 	 49.9631 	 7.74016 	 88.8244 	 
H 	 48.9777 	 8.89459 	 88.1629 	 
C 	 50.8442 	 8.86106 	 87.4002 	 
H 	 50.5891 	 9.3302 	 86.4636 	 
H 	 51.8404 	 8.28504 	 87.1952 	 
H 	 51.1226 	 9.58887 	 88.2209 	 
H 	 46.3386 	 5.17338 	 82.1602 	 
H 	 46.287 	 5.36363 	 90.6954 	 
*
