! wB97X-D3 SP def2-SVP
%pal
nprocs 16
end

* xyz 0 1
S 	 -109.274 	 55.2122 	 118.627 	 
C 	 -109.916 	 53.5975 	 118.855 	 
C 	 -108.901 	 52.6808 	 118.684 	 
C 	 -107.608 	 53.2602 	 118.431 	 
C 	 -107.667 	 54.6488 	 118.279 	 
H 	 -106.703 	 52.7629 	 118.355 	 
C 	 -109.031 	 51.1455 	 118.873 	 
H 	 -109.675 	 50.752 	 118.096 	 
H 	 -109.416 	 50.9212 	 119.841 	 
C 	 -107.79 	 50.2599 	 118.874 	 
H 	 -107.277 	 50.4247 	 117.978 	 
H 	 -107.152 	 50.5866 	 119.726 	 
C 	 -108.192 	 48.7679 	 118.88 	 
H 	 -108.747 	 48.6498 	 117.94 	 
H 	 -107.37 	 48.0934 	 119.091 	 
H 	 -108.918 	 48.636 	 119.694 	 
S 	 -105.714 	 56.2534 	 119.486 	 
C 	 -104.5 	 56.982 	 118.453 	 
C 	 -104.674 	 56.5748 	 117.149 	 
C 	 -105.789 	 55.7007 	 116.902 	 
C 	 -106.557 	 55.5977 	 118.021 	 
H 	 -103.904 	 56.7686 	 116.409 	 
C 	 -106.033 	 54.9924 	 115.625 	 
H 	 -105.617 	 55.6071 	 114.807 	 
H 	 -107.085 	 54.8626 	 115.428 	 
C 	 -105.229 	 53.5858 	 115.457 	 
H 	 -105.308 	 53.3711 	 114.389 	 
H 	 -105.832 	 52.8608 	 116.012 	 
C 	 -103.818 	 53.5383 	 115.944 	 
H 	 -103.453 	 54.5284 	 115.876 	 
H 	 -103.106 	 52.9076 	 115.439 	 
H 	 -103.657 	 53.1544 	 116.918 	 
H 	 -110.969 	 53.3689 	 119.087 	 
H 	 -103.628 	 57.5353 	 118.709 	 
*
