! wB97X-D3 SP def2-SVP
%pal
nprocs 16
end

* xyz 0 1
S 	 47.2189 	 4.72418 	 89.7597 	 
C 	 46.4106 	 6.10496 	 89.158 	 
C 	 45.522 	 5.87817 	 88.1701 	 
C 	 45.5597 	 4.48907 	 87.9006 	 
C 	 46.2948 	 3.68992 	 88.7749 	 
H 	 44.8473 	 4.14134 	 87.1844 	 
C 	 44.8413 	 6.97159 	 87.3656 	 
H 	 44.7758 	 7.92439 	 87.9401 	 
H 	 43.8356 	 6.61537 	 87.4056 	 
C 	 45.4697 	 7.19842 	 86.0738 	 
H 	 46.5143 	 7.52248 	 86.26 	 
H 	 45.5523 	 6.33949 	 85.4564 	 
C 	 44.7534 	 8.30683 	 85.2732 	 
H 	 44.6329 	 9.18074 	 85.9926 	 
H 	 45.3383 	 8.60235 	 84.3649 	 
H 	 43.7533 	 8.03885 	 84.9723 	 
S 	 44.8561 	 1.36096 	 89.0278 	 
C 	 45.7569 	 -0.154841 	 89.0566 	 
C 	 47.1261 	 0.0662896 	 88.8897 	 
C 	 47.4588 	 1.41672 	 88.675 	 
C 	 46.3423 	 2.24068 	 88.7193 	 
H 	 47.7393 	 -0.772958 	 88.7474 	 
C 	 48.8195 	 2.02852 	 88.5324 	 
H 	 49.0869 	 2.49903 	 89.4508 	 
H 	 48.8186 	 2.88173 	 87.8406 	 
C 	 49.9557 	 1.07309 	 88.2112 	 
H 	 49.7481 	 0.276319 	 87.5033 	 
H 	 50.1865 	 0.371251 	 89.0681 	 
C 	 51.2902 	 1.75537 	 87.7373 	 
H 	 51.2237 	 2.20821 	 86.7403 	 
H 	 52.1468 	 1.139 	 87.8455 	 
H 	 51.524 	 2.52471 	 88.5104 	 
H 	 46.6473 	 7.00622 	 89.6736 	 
H 	 45.3188 	 -1.14052 	 89.0918 	 
*
