! wB97X-D3 SP def2-SVP
%pal
nprocs 16
end

* xyz 0 1
S 	 -37.3394 	 -1.8086 	 101.335 	 
C 	 -35.9708 	 -2.8673 	 100.974 	 
C 	 -35.3064 	 -2.44499 	 99.8601 	 
C 	 -35.8245 	 -1.16826 	 99.3926 	 
C 	 -36.9064 	 -0.652567 	 100.12 	 
H 	 -35.4298 	 -0.571834 	 98.5466 	 
C 	 -33.9675 	 -2.99595 	 99.3053 	 
H 	 -33.9269 	 -4.08532 	 99.5312 	 
H 	 -33.219 	 -2.504 	 99.9949 	 
C 	 -33.7716 	 -2.84102 	 97.7718 	 
H 	 -33.9524 	 -1.80766 	 97.6117 	 
H 	 -32.6938 	 -2.89186 	 97.6701 	 
C 	 -34.5751 	 -3.70757 	 96.738 	 
H 	 -34.3108 	 -3.35755 	 95.7245 	 
H 	 -34.4203 	 -4.74423 	 96.8053 	 
H 	 -35.668 	 -3.59598 	 96.8689 	 
S 	 -38.8752 	 0.961997 	 101.054 	 
C 	 -39.1498 	 2.50679 	 100.333 	 
C 	 -38.4152 	 2.65427 	 99.2116 	 
C 	 -37.5692 	 1.54999 	 98.9174 	 
C 	 -37.563 	 0.61075 	 99.9377 	 
H 	 -38.6237 	 3.47799 	 98.55 	 
C 	 -36.6832 	 1.60227 	 97.7312 	 
H 	 -36.5365 	 0.619486 	 97.2887 	 
H 	 -35.7143 	 1.94798 	 98.1393 	 
C 	 -37.1835 	 2.62875 	 96.6657 	 
H 	 -36.9648 	 3.62658 	 97.0253 	 
H 	 -38.1879 	 2.44922 	 96.3516 	 
C 	 -36.4564 	 2.50359 	 95.3312 	 
H 	 -35.4193 	 2.81099 	 95.3429 	 
H 	 -37.0096 	 2.82556 	 94.3969 	 
H 	 -36.5167 	 1.44913 	 95.1126 	 
H 	 -35.6905 	 -3.69127 	 101.581 	 
H 	 -39.8952 	 3.29426 	 100.666 	 
*
