! wB97X-D3 SP def2-SVP
%pal
nprocs 16
end

* xyz 0 1
S 	 -31.614 	 37.5264 	 102.101 	 
C 	 -32.3038 	 36.0268 	 101.55 	 
C 	 -32.9384 	 36.1236 	 100.316 	 
C 	 -32.8741 	 37.4593 	 99.8184 	 
C 	 -32.0953 	 38.3075 	 100.617 	 
H 	 -33.3959 	 37.8995 	 99.0141 	 
C 	 -33.6711 	 35.0905 	 99.5992 	 
H 	 -32.9236 	 34.3676 	 99.6448 	 
H 	 -33.7981 	 35.3862 	 98.5408 	 
C 	 -35.0634 	 34.6677 	 100.137 	 
H 	 -35.1376 	 34.0957 	 101.064 	 
H 	 -35.6242 	 35.5777 	 100.368 	 
C 	 -35.9361 	 33.9326 	 99.1266 	 
H 	 -36.9495 	 33.7138 	 99.4577 	 
H 	 -36.1145 	 34.518 	 98.1752 	 
H 	 -35.6222 	 33.0119 	 98.7253 	 
S 	 -31.1336 	 40.4018 	 99.1025 	 
C 	 -31.415 	 42.0124 	 99.5231 	 
C 	 -32.0774 	 42.0671 	 100.767 	 
C 	 -32.4792 	 40.838 	 101.317 	 
C 	 -32.0218 	 39.7765 	 100.481 	 
H 	 -32.3215 	 43.0322 	 101.215 	 
C 	 -33.3587 	 40.6257 	 102.543 	 
H 	 -33.3603 	 41.59 	 103.009 	 
H 	 -32.8746 	 39.8163 	 103.158 	 
C 	 -34.7925 	 40.1747 	 102.117 	 
H 	 -34.8442 	 39.0156 	 101.978 	 
H 	 -34.9715 	 40.6488 	 101.148 	 
C 	 -35.9007 	 40.7757 	 103.086 	 
H 	 -36.8117 	 40.728 	 102.536 	 
H 	 -35.7939 	 41.7832 	 103.316 	 
H 	 -35.9716 	 40.2613 	 104.003 	 
H 	 -32.4112 	 35.1471 	 102.202 	 
H 	 -31.1743 	 42.889 	 98.8908 	 
*
