! wB97X-D3 SP def2-SVP
%pal
nprocs 16
end

* xyz 0 1
S 	 -50.7249 	 9.55761 	 80.7622 	 
C 	 -50.665 	 10.5602 	 82.1796 	 
C 	 -50.9652 	 9.83558 	 83.291 	 
C 	 -51.328 	 8.47915 	 83.0633 	 
C 	 -51.1963 	 8.15698 	 81.7209 	 
H 	 -51.7497 	 7.81884 	 83.8568 	 
C 	 -50.9538 	 10.4348 	 84.6944 	 
H 	 -51.7209 	 9.89493 	 85.3039 	 
H 	 -51.248 	 11.4818 	 84.6684 	 
C 	 -49.7111 	 10.2848 	 85.5116 	 
H 	 -49.9763 	 10.5184 	 86.5106 	 
H 	 -49.4107 	 9.24282 	 85.4946 	 
C 	 -48.6085 	 11.3537 	 85.159 	 
H 	 -47.7341 	 11.0177 	 85.7295 	 
H 	 -48.4473 	 11.2841 	 84.0883 	 
H 	 -48.9826 	 12.3146 	 85.4796 	 
S 	 -50.2478 	 5.57631 	 81.4042 	 
C 	 -51.0828 	 4.50278 	 80.2751 	 
C 	 -52.1314 	 5.12644 	 79.6337 	 
C 	 -52.3943 	 6.41058 	 80.1696 	 
C 	 -51.4315 	 6.83215 	 81.1171 	 
H 	 -52.7628 	 4.60942 	 78.9915 	 
C 	 -53.6409 	 7.09954 	 79.7 	 
H 	 -53.7035 	 7.04964 	 78.625 	 
H 	 -53.5153 	 8.15507 	 80.0243 	 
C 	 -54.95 	 6.643 	 80.3572 	 
H 	 -55.0054 	 6.96206 	 81.3803 	 
H 	 -54.9539 	 5.56073 	 80.356 	 
C 	 -56.1981 	 7.23988 	 79.7294 	 
H 	 -56.2439 	 8.38322 	 79.9163 	 
H 	 -57.1104 	 6.92035 	 80.1938 	 
H 	 -56.3183 	 7.02802 	 78.6008 	 
H 	 -50.3292 	 11.5731 	 82.1535 	 
H 	 -50.8496 	 3.46099 	 80.1922 	 
*
