! wB97X-D3 SP def2-SVP
%pal
nprocs 16
end

* xyz 0 1
S 	 -43.369 	 28.3279 	 76.1029 	 
C 	 -43.2367 	 29.7099 	 75.0087 	 
C 	 -42.9561 	 30.8302 	 75.7414 	 
C 	 -42.852 	 30.5974 	 77.1253 	 
C 	 -42.885 	 29.305 	 77.5116 	 
H 	 -42.5943 	 31.4118 	 77.8222 	 
C 	 -42.8322 	 32.2732 	 75.3111 	 
H 	 -42.2637 	 32.3448 	 74.434 	 
H 	 -42.2837 	 32.86 	 76.0403 	 
C 	 -44.181 	 32.8935 	 75.0479 	 
H 	 -44.8151 	 32.2979 	 74.4441 	 
H 	 -44.6945 	 33.1142 	 75.9557 	 
C 	 -44.0161 	 34.2138 	 74.3223 	 
H 	 -43.4948 	 34.9693 	 74.9406 	 
H 	 -43.5727 	 34.1582 	 73.3586 	 
H 	 -45.0188 	 34.6074 	 74.0993 	 
S 	 -41.0401 	 28.6219 	 79.4095 	 
C 	 -41.5531 	 27.6901 	 80.8209 	 
C 	 -42.8734 	 27.738 	 80.9957 	 
C 	 -43.6027 	 28.3197 	 79.896 	 
C 	 -42.7455 	 28.7547 	 78.8792 	 
H 	 -43.3271 	 27.2227 	 81.8546 	 
C 	 -45.1186 	 28.3981 	 79.8857 	 
H 	 -45.628 	 27.4181 	 80.0755 	 
H 	 -45.3314 	 28.7959 	 78.8548 	 
C 	 -45.7544 	 29.2708 	 81.0611 	 
H 	 -45.5264 	 30.2869 	 80.791 	 
H 	 -45.1964 	 29.0122 	 81.9293 	 
C 	 -47.238 	 29.0866 	 81.509 	 
H 	 -47.4972 	 28.0865 	 81.828 	 
H 	 -47.9673 	 29.171 	 80.7528 	 
H 	 -47.5322 	 29.861 	 82.2464 	 
H 	 -43.4988 	 29.7071 	 73.9863 	 
H 	 -40.8145 	 27.3296 	 81.5602 	 
*
