! wB97X-D3 SP def2-SVP
%pal
nprocs 16
end

* xyz 0 1
S 	 -3.39037 	 -12.7244 	 70.1564 	 
C 	 -5.09883 	 -12.9895 	 70.596 	 
C 	 -5.84875 	 -11.7855 	 70.333 	 
C 	 -5.03148 	 -10.7734 	 69.8166 	 
C 	 -3.69974 	 -11.119 	 69.6418 	 
H 	 -5.3156 	 -9.71172 	 69.6482 	 
C 	 -7.22618 	 -11.5606 	 70.8048 	 
H 	 -7.43264 	 -10.4844 	 70.628 	 
H 	 -7.29519 	 -11.8524 	 71.892 	 
C 	 -8.24832 	 -12.2967 	 69.9025 	 
H 	 -8.18675 	 -12.0391 	 68.8204 	 
H 	 -8.05378 	 -13.3298 	 69.8615 	 
C 	 -9.68178 	 -11.9522 	 70.251 	 
H 	 -9.86306 	 -12.1531 	 71.2732 	 
H 	 -9.91117 	 -10.9345 	 70.0435 	 
H 	 -10.3864 	 -12.5098 	 69.698 	 
S 	 -2.06947 	 -8.9119 	 70.0519 	 
C 	 -0.922373 	 -8.49988 	 68.7921 	 
C 	 -0.910709 	 -9.35483 	 67.6998 	 
C 	 -1.82243 	 -10.4275 	 67.9127 	 
C 	 -2.60966 	 -10.2948 	 69.0649 	 
H 	 -0.123926 	 -9.22619 	 66.9289 	 
C 	 -1.97159 	 -11.4888 	 66.8812 	 
H 	 -1.80834 	 -11.0804 	 65.9008 	 
H 	 -2.96681 	 -11.7012 	 66.8073 	 
C 	 -1.1049 	 -12.7171 	 67.0626 	 
H 	 -1.30882 	 -13.2789 	 67.9502 	 
H 	 -0.0734182 	 -12.38 	 67.3075 	 
C 	 -1.03924 	 -13.6156 	 65.8127 	 
H 	 -2.08448 	 -13.9756 	 65.6737 	 
H 	 -0.399543 	 -14.5528 	 65.9045 	 
H 	 -0.706124 	 -13.0836 	 64.9164 	 
H 	 -5.32178 	 -13.8576 	 71.2229 	 
H 	 -0.154623 	 -7.73284 	 68.9886 	 
*
