! wB97X-D3 SP def2-SVP
%pal
nprocs 16
end

* xyz 0 1
S 	 -34.9205 	 60.929 	 114.978 	 
C 	 -33.8152 	 61.2391 	 113.685 	 
C 	 -32.5108 	 60.9943 	 114.036 	 
C 	 -32.4286 	 60.7525 	 115.475 	 
C 	 -33.6217 	 60.9627 	 116.188 	 
H 	 -31.5586 	 60.5589 	 115.993 	 
C 	 -31.2794 	 60.9781 	 113.094 	 
H 	 -30.4616 	 60.8058 	 113.807 	 
H 	 -31.0907 	 61.9607 	 112.634 	 
C 	 -31.2331 	 59.8079 	 112.057 	 
H 	 -31.717 	 58.9545 	 112.524 	 
H 	 -31.7339 	 60.1561 	 111.157 	 
C 	 -29.836 	 59.5116 	 111.621 	 
H 	 -29.8862 	 58.4744 	 111.312 	 
H 	 -29.436 	 60.1664 	 110.75 	 
H 	 -29.178 	 59.5042 	 112.526 	 
S 	 -34.908 	 59.9066 	 118.403 	 
C 	 -34.6594 	 60.6835 	 119.934 	 
C 	 -33.5802 	 61.5442 	 119.944 	 
C 	 -33.1228 	 61.7265 	 118.617 	 
C 	 -33.8337 	 61.0601 	 117.65 	 
H 	 -33.2792 	 62.1107 	 120.804 	 
C 	 -31.8916 	 62.6096 	 118.385 	 
H 	 -31.1844 	 62.0047 	 117.84 	 
H 	 -31.2607 	 62.8047 	 119.313 	 
C 	 -32.1359 	 64.0068 	 117.682 	 
H 	 -32.7479 	 64.7886 	 118.185 	 
H 	 -32.6895 	 63.7201 	 116.761 	 
C 	 -30.8862 	 64.7826 	 117.203 	 
H 	 -31.1141 	 65.8472 	 117.052 	 
H 	 -30.3966 	 64.5487 	 116.25 	 
H 	 -30.1447 	 64.7681 	 117.975 	 
H 	 -34.1338 	 61.2777 	 112.639 	 
H 	 -35.1201 	 60.381 	 120.841 	 
*
