! wB97X-D3 SP def2-SVP
%pal
nprocs 16
end

* xyz 0 1
S 	 -49.1005 	 48.344 	 104.49 	 
C 	 -48.5464 	 49.79 	 105.279 	 
C 	 -47.2216 	 49.9028 	 105.513 	 
C 	 -46.6173 	 48.6478 	 105.295 	 
C 	 -47.4685 	 47.7286 	 104.675 	 
H 	 -45.5979 	 48.3648 	 105.514 	 
C 	 -46.6008 	 51.0853 	 106.171 	 
H 	 -47.2992 	 51.6486 	 106.825 	 
H 	 -46.3259 	 51.7748 	 105.398 	 
C 	 -45.3161 	 50.7726 	 106.926 	 
H 	 -45.472 	 49.9016 	 107.534 	 
H 	 -44.4552 	 50.5925 	 106.253 	 
C 	 -44.849 	 51.8549 	 107.913 	 
H 	 -44.3468 	 52.6497 	 107.314 	 
H 	 -45.585 	 52.4037 	 108.458 	 
H 	 -44.0439 	 51.5023 	 108.579 	 
S 	 -47.4795 	 45.8891 	 102.585 	 
C 	 -46.7038 	 44.3306 	 102.756 	 
C 	 -46.1701 	 44.2493 	 104.021 	 
C 	 -46.4163 	 45.4179 	 104.866 	 
C 	 -47.1603 	 46.3879 	 104.25 	 
H 	 -45.6561 	 43.3461 	 104.35 	 
C 	 -45.9868 	 45.4862 	 106.25 	 
H 	 -45.4851 	 46.4595 	 106.501 	 
H 	 -45.2206 	 44.7197 	 106.351 	 
C 	 -47.1298 	 45.4409 	 107.308 	 
H 	 -47.5629 	 44.4526 	 107.2 	 
H 	 -47.8878 	 46.2511 	 107.154 	 
C 	 -46.6639 	 45.7268 	 108.736 	 
H 	 -47.4233 	 45.5256 	 109.444 	 
H 	 -46.4173 	 46.8217 	 108.824 	 
H 	 -45.8599 	 45.126 	 108.998 	 
H 	 -49.298 	 50.5464 	 105.475 	 
H 	 -46.5621 	 43.5235 	 102.065 	 
*
