! wB97X-D3 SP def2-SVP
%pal
nprocs 16
end

* xyz 0 1
S 	 -28.7865 	 58.4817 	 111.198 	 
C 	 -27.9863 	 58.365 	 109.664 	 
C 	 -28.8231 	 57.8766 	 108.697 	 
C 	 -30.1759 	 57.6488 	 109.194 	 
C 	 -30.2655 	 57.8921 	 110.596 	 
H 	 -31.1226 	 57.5042 	 108.704 	 
C 	 -28.4484 	 57.9368 	 107.205 	 
H 	 -28.0737 	 59.0206 	 106.993 	 
H 	 -29.3346 	 57.8518 	 106.589 	 
C 	 -27.3299 	 56.9117 	 106.742 	 
H 	 -26.4971 	 57.1415 	 107.408 	 
H 	 -27.5443 	 55.838 	 106.849 	 
C 	 -26.8749 	 57.4133 	 105.371 	 
H 	 -27.5785 	 57.0895 	 104.543 	 
H 	 -26.6129 	 58.4306 	 105.355 	 
H 	 -25.9167 	 56.8644 	 105.17 	 
S 	 -31.6066 	 59.366 	 112.517 	 
C 	 -33.1988 	 58.8744 	 112.975 	 
C 	 -33.5573 	 57.6853 	 112.359 	 
C 	 -32.6626 	 57.1752 	 111.431 	 
C 	 -31.549 	 58.0081 	 111.394 	 
H 	 -34.4891 	 57.248 	 112.643 	 
C 	 -32.9222 	 55.9125 	 110.683 	 
H 	 -33.6924 	 55.3726 	 111.19 	 
H 	 -32.1036 	 55.2816 	 110.773 	 
C 	 -33.5387 	 55.9446 	 109.288 	 
H 	 -33.9357 	 54.8918 	 109.119 	 
H 	 -32.6898 	 56.1604 	 108.56 	 
C 	 -34.6468 	 56.9784 	 109.002 	 
H 	 -34.1793 	 58.0475 	 109.136 	 
H 	 -35.5621 	 56.9591 	 109.625 	 
H 	 -34.9024 	 56.9868 	 107.921 	 
H 	 -26.9815 	 58.6645 	 109.394 	 
H 	 -33.7025 	 59.4017 	 113.793 	 
*
