! wB97X-D3 SP def2-SVP
%pal
nprocs 16
end

* xyz 0 1
S 	 0.628931 	 15.3956 	 85.577 	 
C 	 -0.390572 	 14.9853 	 84.1925 	 
C 	 -1.33166 	 13.9789 	 84.4646 	 
C 	 -1.10739 	 13.5523 	 85.8406 	 
C 	 -0.0660983 	 14.1185 	 86.5418 	 
H 	 -1.71822 	 12.864 	 86.4055 	 
C 	 -2.30686 	 13.4332 	 83.509 	 
H 	 -2.34984 	 12.3432 	 83.6051 	 
H 	 -1.9115 	 13.568 	 82.4999 	 
C 	 -3.77765 	 13.925 	 83.822 	 
H 	 -3.89211 	 14.9475 	 83.7706 	 
H 	 -4.44086 	 13.4498 	 83.0679 	 
C 	 -4.28502 	 13.4919 	 85.1244 	 
H 	 -3.86726 	 12.474 	 85.4083 	 
H 	 -4.0296 	 14.1131 	 86.0381 	 
H 	 -5.34271 	 13.5391 	 85.1745 	 
S 	 -1.23732 	 14.0987 	 89.0208 	 
C 	 -0.237266 	 14.2417 	 90.4609 	 
C 	 1.09341 	 14.0394 	 90.177 	 
C 	 1.35973 	 14.0111 	 88.7604 	 
C 	 0.214584 	 14.0841 	 87.9728 	 
H 	 1.86593 	 14.2515 	 90.8189 	 
C 	 2.71886 	 13.9533 	 88.1545 	 
H 	 3.22936 	 14.6641 	 88.753 	 
H 	 2.5857 	 14.4728 	 87.2306 	 
C 	 3.3599 	 12.5729 	 87.8692 	 
H 	 3.2311 	 12.0082 	 88.7635 	 
H 	 4.49392 	 12.6715 	 87.6773 	 
C 	 2.85108 	 11.6689 	 86.7599 	 
H 	 1.85014 	 11.3014 	 86.9823 	 
H 	 3.40569 	 10.7195 	 86.7077 	 
H 	 2.8652 	 12.0991 	 85.7996 	 
H 	 -0.221576 	 15.3102 	 83.1775 	 
H 	 -0.526672 	 14.6079 	 91.413 	 
*
