! wB97X-D3 SP def2-SVP
%pal
nprocs 16
end

* xyz 0 1
S 	 42.0828 	 13.3563 	 89.8611 	 
C 	 43.0522 	 12.0211 	 89.3612 	 
C 	 42.3156 	 11.25 	 88.4526 	 
C 	 40.948 	 11.658 	 88.3479 	 
C 	 40.6333 	 12.7373 	 89.1276 	 
H 	 40.2029 	 11.1979 	 87.7215 	 
C 	 42.8631 	 10.133 	 87.597 	 
H 	 43.8714 	 9.86543 	 87.9273 	 
H 	 43.0373 	 10.363 	 86.5886 	 
C 	 42.0847 	 8.89022 	 87.4164 	 
H 	 41.1356 	 9.06821 	 86.9807 	 
H 	 42.4409 	 7.98603 	 86.8818 	 
C 	 41.8235 	 8.22918 	 88.8598 	 
H 	 42.6692 	 7.98247 	 89.4598 	 
H 	 41.1633 	 8.86702 	 89.4666 	 
H 	 41.3307 	 7.27216 	 88.6808 	 
S 	 38.8743 	 14.7626 	 88.6582 	 
C 	 37.3723 	 14.8203 	 89.3941 	 
C 	 37.172 	 13.7214 	 90.2112 	 
C 	 38.3601 	 12.8726 	 90.2613 	 
C 	 39.3493 	 13.3234 	 89.4064 	 
H 	 36.2845 	 13.7219 	 90.8243 	 
C 	 38.3777 	 11.5166 	 90.923 	 
H 	 37.9596 	 11.5464 	 91.9339 	 
H 	 39.3712 	 11.1145 	 91.08 	 
C 	 37.5767 	 10.551 	 90.1335 	 
H 	 37.8894 	 10.5285 	 89.1178 	 
H 	 36.4804 	 10.7732 	 90.0513 	 
C 	 37.6991 	 9.09466 	 90.5144 	 
H 	 37.0854 	 8.39448 	 89.8559 	 
H 	 37.4153 	 8.91249 	 91.5695 	 
H 	 38.7531 	 8.8188 	 90.3568 	 
H 	 44.0993 	 11.9487 	 89.5655 	 
H 	 36.5575 	 15.5587 	 89.3682 	 
*
