! wB97X-D3 SP def2-SVP
%pal
nprocs 16
end

* xyz 0 1
S 	 -58.2815 	 39.6997 	 114.742 	 
C 	 -58.1055 	 39.642 	 112.927 	 
C 	 -56.999 	 40.4508 	 112.529 	 
C 	 -56.5004 	 41.2058 	 113.628 	 
C 	 -57.0811 	 40.9777 	 114.852 	 
H 	 -55.6419 	 41.918 	 113.711 	 
C 	 -56.4691 	 40.4681 	 111.083 	 
H 	 -56.6012 	 41.4571 	 110.615 	 
H 	 -57.0376 	 39.7845 	 110.497 	 
C 	 -55.0656 	 39.9868 	 110.885 	 
H 	 -54.8191 	 40.3147 	 109.889 	 
H 	 -54.3973 	 40.3407 	 111.606 	 
C 	 -55.0451 	 38.4324 	 110.809 	 
H 	 -53.9942 	 38.0853 	 110.653 	 
H 	 -55.3895 	 38.0097 	 111.773 	 
H 	 -55.5936 	 37.9574 	 109.988 	 
S 	 -58.0855 	 42.3211 	 117.022 	 
C 	 -57.0917 	 43.1328 	 118.128 	 
C 	 -55.7881 	 42.7802 	 117.963 	 
C 	 -55.5513 	 42.0201 	 116.761 	 
C 	 -56.7515 	 41.6797 	 116.093 	 
H 	 -54.9717 	 43.1299 	 118.653 	 
C 	 -54.0571 	 41.6318 	 116.412 	 
H 	 -53.452 	 42.5123 	 116.566 	 
H 	 -53.9644 	 41.3687 	 115.404 	 
C 	 -53.3239 	 40.5075 	 117.226 	 
H 	 -53.0846 	 40.895 	 118.224 	 
H 	 -52.3221 	 40.2394 	 116.662 	 
C 	 -54.2619 	 39.3069 	 117.497 	 
H 	 -55.2061 	 39.4009 	 118.063 	 
H 	 -53.72 	 38.5811 	 118.128 	 
H 	 -54.5498 	 38.9495 	 116.522 	 
H 	 -58.7159 	 39.0952 	 112.233 	 
H 	 -57.55 	 43.7013 	 118.946 	 
*
