! wB97X-D3 SP def2-SVP
%pal
nprocs 16
end

* xyz 0 1
S 	 38.3224 	 11.7061 	 85.3907 	 
C 	 38.5052 	 10.2178 	 84.4096 	 
C 	 39.7755 	 10.0144 	 83.9483 	 
C 	 40.5567 	 11.2194 	 84.2304 	 
C 	 39.9612 	 12.2073 	 85.0699 	 
H 	 41.5531 	 11.4536 	 83.7977 	 
C 	 40.3925 	 8.81988 	 83.1446 	 
H 	 40.0342 	 7.87871 	 83.6978 	 
H 	 41.4577 	 8.95976 	 83.0591 	 
C 	 39.9433 	 8.61265 	 81.6551 	 
H 	 38.9112 	 8.29445 	 81.7045 	 
H 	 39.9529 	 9.54335 	 81.125 	 
C 	 40.7551 	 7.60638 	 80.8825 	 
H 	 40.7382 	 6.58192 	 81.3947 	 
H 	 40.3317 	 7.3847 	 79.8902 	 
H 	 41.8064 	 8.02583 	 80.7438 	 
S 	 39.2214 	 14.7943 	 85.4333 	 
C 	 40.2243 	 15.9468 	 86.1671 	 
C 	 41.4608 	 15.3624 	 86.4946 	 
C 	 41.5677 	 13.9892 	 86.0408 	 
C 	 40.3907 	 13.4972 	 85.5698 	 
H 	 42.1981 	 15.9535 	 86.8864 	 
C 	 42.7914 	 13.1538 	 86.1871 	 
H 	 42.6624 	 12.324 	 85.5816 	 
H 	 42.6609 	 12.8778 	 87.2255 	 
C 	 44.2409 	 13.8294 	 86.0794 	 
H 	 44.4103 	 14.6124 	 86.8215 	 
H 	 44.3986 	 14.222 	 85.0705 	 
C 	 45.3807 	 12.8107 	 86.198 	 
H 	 46.2881 	 13.3387 	 85.9322 	 
H 	 45.2341 	 11.9944 	 85.5422 	 
H 	 45.4129 	 12.3533 	 87.2022 	 
H 	 37.7794 	 9.39001 	 84.2087 	 
H 	 39.9309 	 17.0015 	 86.2665 	 
*
