! wB97X-D3 SP def2-SVP
%pal
nprocs 16
end

* xyz 0 1
S 	 -95.5309 	 43.5933 	 126.135 	 
C 	 -94.4374 	 43.0358 	 124.921 	 
C 	 -94.7765 	 41.7874 	 124.434 	 
C 	 -95.9613 	 41.2901 	 125.046 	 
C 	 -96.5474 	 42.2164 	 125.885 	 
H 	 -96.4441 	 40.3098 	 124.907 	 
C 	 -94.0041 	 40.9349 	 123.397 	 
H 	 -93.4638 	 41.55 	 122.708 	 
H 	 -94.7852 	 40.4732 	 122.776 	 
C 	 -93.0902 	 39.8662 	 124.064 	 
H 	 -92.2708 	 40.5128 	 124.359 	 
H 	 -93.684 	 39.4148 	 124.828 	 
C 	 -92.7561 	 38.7341 	 123.064 	 
H 	 -91.9393 	 38.1259 	 123.394 	 
H 	 -93.6261 	 38.1073 	 122.917 	 
H 	 -92.4641 	 39.1173 	 122.084 	 
S 	 -98.0656 	 41.0033 	 127.938 	 
C 	 -99.715 	 41.3524 	 128.106 	 
C 	 -100.069 	 42.4134 	 127.299 	 
C 	 -99.0165 	 42.8497 	 126.403 	 
C 	 -97.8688 	 42.071 	 126.496 	 
H 	 -101.072 	 42.7737 	 127.3 	 
C 	 -99.3429 	 43.8749 	 125.295 	 
H 	 -98.4283 	 44.4611 	 124.982 	 
H 	 -100.016 	 44.5543 	 125.799 	 
C 	 -100.12 	 43.2257 	 124.151 	 
H 	 -100.812 	 42.5229 	 124.626 	 
H 	 -99.4599 	 42.7215 	 123.407 	 
C 	 -100.92 	 44.2367 	 123.388 	 
H 	 -101.743 	 44.5706 	 123.972 	 
H 	 -101.272 	 43.7002 	 122.506 	 
H 	 -100.441 	 45.1155 	 122.993 	 
H 	 -93.6191 	 43.6484 	 124.539 	 
H 	 -100.421 	 40.808 	 128.782 	 
*
