! wB97X-D3 SP def2-SVP
%pal
nprocs 16
end

* xyz 0 1
S 	 -4.50191 	 75.3895 	 48.8813 	 
C 	 -3.72208 	 75.6066 	 50.4673 	 
C 	 -2.44476 	 76.1729 	 50.3484 	 
C 	 -2.08179 	 76.1812 	 48.9288 	 
C 	 -3.08829 	 75.8574 	 48.0381 	 
H 	 -1.15729 	 76.523 	 48.4442 	 
C 	 -1.51338 	 76.4915 	 51.4706 	 
H 	 -0.722633 	 75.8183 	 51.6966 	 
H 	 -2.2749 	 76.3434 	 52.2529 	 
C 	 -1.00736 	 77.9756 	 51.5207 	 
H 	 -0.518834 	 78.3014 	 50.6437 	 
H 	 -1.92724 	 78.6373 	 51.5123 	 
C 	 -0.0553833 	 78.1785 	 52.7199 	 
H 	 0.901102 	 77.6477 	 52.7259 	 
H 	 0.188951 	 79.252 	 52.9393 	 
H 	 -0.54226 	 77.9657 	 53.669 	 
S 	 -1.38623 	 75.3582 	 45.9217 	 
C 	 -1.93464 	 75.6531 	 44.346 	 
C 	 -3.31249 	 75.68 	 44.3085 	 
C 	 -3.93005 	 75.7746 	 45.5728 	 
C 	 -2.99608 	 75.6962 	 46.6086 	 
H 	 -3.78565 	 75.6583 	 43.3374 	 
C 	 -5.4393 	 75.9947 	 45.6868 	 
H 	 -5.69051 	 76.9342 	 46.222 	 
H 	 -5.91894 	 75.338 	 46.4597 	 
C 	 -6.30058 	 75.9003 	 44.3823 	 
H 	 -6.13996 	 74.9743 	 43.893 	 
H 	 -6.15009 	 76.6061 	 43.5495 	 
C 	 -7.80415 	 75.9341 	 44.7843 	 
H 	 -8.3327 	 76.068 	 43.8687 	 
H 	 -7.99 	 76.8136 	 45.3871 	 
H 	 -8.11858 	 74.94 	 45.0813 	 
H 	 -4.2546 	 75.5343 	 51.3639 	 
H 	 -1.33422 	 75.3593 	 43.4775 	 
*
