! wB97X-D3 SP def2-SVP
%pal
nprocs 16
end

* xyz 0 1
S 	 -28.5911 	 66.7936 	 108.642 	 
C 	 -29.3338 	 66.3693 	 107.17 	 
C 	 -30.6957 	 66.5283 	 107.256 	 
C 	 -31.1274 	 66.9537 	 108.563 	 
C 	 -30.1173 	 66.9473 	 109.504 	 
H 	 -32.1419 	 67.228 	 108.69 	 
C 	 -31.6839 	 66.5106 	 106.068 	 
H 	 -32.4906 	 65.8091 	 106.32 	 
H 	 -31.2415 	 66.1549 	 105.178 	 
C 	 -32.2439 	 67.9138 	 105.86 	 
H 	 -32.7776 	 68.373 	 106.696 	 
H 	 -31.4851 	 68.5988 	 105.718 	 
C 	 -33.3728 	 67.809 	 104.789 	 
H 	 -32.924 	 67.6624 	 103.815 	 
H 	 -34.147 	 67.0377 	 105.018 	 
H 	 -33.8357 	 68.7717 	 104.703 	 
S 	 -29.6061 	 66.5452 	 112.184 	 
C 	 -30.14 	 67.7026 	 113.3 	 
C 	 -30.8793 	 68.6909 	 112.695 	 
C 	 -30.8378 	 68.6246 	 111.267 	 
C 	 -30.2474 	 67.4549 	 110.841 	 
H 	 -31.312 	 69.4912 	 113.25 	 
C 	 -31.485 	 69.6891 	 110.441 	 
H 	 -32.1118 	 70.2286 	 111.032 	 
H 	 -32.0928 	 69.2361 	 109.648 	 
C 	 -30.57 	 70.6233 	 109.67 	 
H 	 -29.7456 	 70.0737 	 109.153 	 
H 	 -30.0228 	 71.2527 	 110.333 	 
C 	 -31.2417 	 71.4413 	 108.565 	 
H 	 -30.6116 	 72.0905 	 107.937 	 
H 	 -31.9887 	 72.0236 	 109.005 	 
H 	 -31.8879 	 70.8451 	 107.987 	 
H 	 -28.884 	 66.1856 	 106.186 	 
H 	 -30.0554 	 67.6866 	 114.329 	 
*
