! wB97X-D3 SP def2-SVP
%pal
nprocs 16
end

* xyz 0 1
S 	 -35.1598 	 61.966 	 110.655 	 
C 	 -36.5798 	 62.9012 	 111.242 	 
C 	 -36.3014 	 63.9019 	 112.108 	 
C 	 -34.8899 	 64.0913 	 112.113 	 
C 	 -34.069 	 63.1422 	 111.431 	 
H 	 -34.5923 	 64.9426 	 112.693 	 
C 	 -37.3579 	 64.8079 	 112.728 	 
H 	 -37.7691 	 64.178 	 113.411 	 
H 	 -37.961 	 65.0928 	 111.831 	 
C 	 -36.9628 	 66.1205 	 113.386 	 
H 	 -37.9149 	 66.4474 	 113.836 	 
H 	 -36.3495 	 65.8553 	 114.192 	 
C 	 -36.3115 	 67.0844 	 112.42 	 
H 	 -36.4433 	 68.0825 	 112.821 	 
H 	 -35.2912 	 66.864 	 112.237 	 
H 	 -36.8305 	 67 	 111.469 	 
S 	 -31.8478 	 63.9071 	 112.819 	 
C 	 -30.3012 	 63.389 	 112.252 	 
C 	 -30.357 	 62.8102 	 110.97 	 
C 	 -31.6703 	 62.6931 	 110.497 	 
C 	 -32.606 	 63.1807 	 111.398 	 
H 	 -29.4426 	 62.5366 	 110.405 	 
C 	 -32.0704 	 62.1077 	 109.113 	 
H 	 -33.09 	 61.5813 	 109.106 	 
H 	 -31.327 	 61.3952 	 108.814 	 
C 	 -32.1455 	 63.2293 	 107.97 	 
H 	 -32.1859 	 62.7265 	 106.981 	 
H 	 -31.2019 	 63.8512 	 108.043 	 
C 	 -33.4207 	 64.216 	 108.113 	 
H 	 -33.5547 	 64.8483 	 107.298 	 
H 	 -33.4791 	 64.7197 	 109.085 	 
H 	 -34.333 	 63.5782 	 108.069 	 
H 	 -37.6287 	 62.63 	 111.014 	 
H 	 -29.355 	 63.6932 	 112.594 	 
*
