! wB97X-D3 SP def2-SVP
%pal
nprocs 16
end

* xyz 0 1
S 	 -31.9243 	 28.6703 	 41.7547 	 
C 	 -33.3669 	 28.8553 	 42.7605 	 
C 	 -33.0861 	 29.3966 	 43.967 	 
C 	 -31.8441 	 30.1694 	 43.9035 	 
C 	 -31.0525 	 29.7783 	 42.8462 	 
H 	 -31.3244 	 30.7966 	 44.6532 	 
C 	 -34.1659 	 29.5527 	 45.0143 	 
H 	 -35.1125 	 29.3531 	 44.51 	 
H 	 -34.2655 	 30.555 	 45.4338 	 
C 	 -34.0829 	 28.5367 	 46.2192 	 
H 	 -33.0629 	 28.6408 	 46.6083 	 
H 	 -34.6997 	 28.6581 	 47.1126 	 
C 	 -34.1783 	 27.0975 	 45.7207 	 
H 	 -35.167 	 26.7764 	 45.3815 	 
H 	 -33.6107 	 26.9378 	 44.8805 	 
H 	 -33.7721 	 26.4761 	 46.5119 	 
S 	 -28.4149 	 29.6482 	 43.5153 	 
C 	 -27.2289 	 30.5172 	 42.5955 	 
C 	 -27.8635 	 31.3418 	 41.6668 	 
C 	 -29.2762 	 31.332 	 41.76 	 
C 	 -29.7191 	 30.2797 	 42.5165 	 
H 	 -27.3917 	 31.8888 	 40.8683 	 
C 	 -30.162 	 31.8635 	 40.6752 	 
H 	 -30.878 	 31.0819 	 40.3445 	 
H 	 -29.557 	 31.9974 	 39.6963 	 
C 	 -30.9896 	 33.1559 	 40.951 	 
H 	 -31.6298 	 32.9906 	 41.7626 	 
H 	 -31.6712 	 33.2846 	 40.1644 	 
C 	 -30.1629 	 34.4567 	 41.0539 	 
H 	 -29.3319 	 34.3885 	 41.8219 	 
H 	 -30.8552 	 35.2668 	 41.4458 	 
H 	 -29.8667 	 34.735 	 40.0202 	 
H 	 -34.2828 	 28.3647 	 42.5759 	 
H 	 -26.1704 	 30.4401 	 42.5902 	 
*
