! wB97X-D3 SP def2-SVP
%pal
nprocs 16
end

* xyz 0 1
S 	 -33.1299 	 73.8778 	 151.134 	 
C 	 -31.6183 	 73.9957 	 150.219 	 
C 	 -31.4599 	 72.8927 	 149.43 	 
C 	 -32.4229 	 71.8787 	 149.781 	 
C 	 -33.3376 	 72.1929 	 150.756 	 
H 	 -32.4071 	 70.8746 	 149.401 	 
C 	 -30.2819 	 72.6229 	 148.607 	 
H 	 -29.7711 	 73.5488 	 148.496 	 
H 	 -30.6842 	 72.519 	 147.579 	 
C 	 -29.3126 	 71.5753 	 149.111 	 
H 	 -29.2045 	 71.6847 	 150.165 	 
H 	 -29.6974 	 70.5979 	 149.026 	 
C 	 -27.87 	 71.8044 	 148.525 	 
H 	 -27.2818 	 71.0648 	 149.027 	 
H 	 -27.761 	 71.5437 	 147.419 	 
H 	 -27.4147 	 72.7038 	 148.645 	 
S 	 -35.8418 	 72.0992 	 151.958 	 
C 	 -36.4807 	 70.5586 	 152.436 	 
C 	 -35.5861 	 69.5368 	 152.175 	 
C 	 -34.4062 	 69.9398 	 151.517 	 
C 	 -34.2955 	 71.326 	 151.404 	 
H 	 -35.8816 	 68.5809 	 152.512 	 
C 	 -33.4822 	 68.8427 	 151.122 	 
H 	 -33.4371 	 69.0268 	 150.037 	 
H 	 -34.0566 	 67.8739 	 151.093 	 
C 	 -32.1146 	 68.6567 	 151.808 	 
H 	 -32.0897 	 68.3984 	 152.817 	 
H 	 -31.5204 	 69.5454 	 151.691 	 
C 	 -31.3989 	 67.5299 	 151.15 	 
H 	 -30.7097 	 67.0732 	 151.775 	 
H 	 -30.9394 	 67.8397 	 150.244 	 
H 	 -32.0771 	 66.7079 	 150.871 	 
H 	 -30.9318 	 74.8521 	 150.262 	 
H 	 -37.3796 	 70.4006 	 152.996 	 
*
