! wB97X-D3 SP def2-SVP
%pal
nprocs 16
end

* xyz 0 1
S 	 -31.6868 	 61.7402 	 113.067 	 
C 	 -31.2575 	 60.0426 	 112.674 	 
C 	 -31.3352 	 59.2789 	 113.779 	 
C 	 -31.6481 	 60.0504 	 114.923 	 
C 	 -32.0213 	 61.3606 	 114.7 	 
H 	 -31.4894 	 59.6661 	 115.948 	 
C 	 -31.0193 	 57.7449 	 113.745 	 
H 	 -31.2058 	 57.3946 	 114.648 	 
H 	 -29.9385 	 57.5998 	 113.621 	 
C 	 -31.8213 	 56.9213 	 112.739 	 
H 	 -32.9339 	 56.9904 	 112.758 	 
H 	 -31.5529 	 57.2888 	 111.789 	 
C 	 -31.605 	 55.444 	 112.843 	 
H 	 -31.9038 	 55.0341 	 113.796 	 
H 	 -32.2052 	 54.8031 	 112.203 	 
H 	 -30.5915 	 55.2494 	 112.654 	 
S 	 -30.791 	 63.4697 	 115.936 	 
C 	 -31.5487 	 64.1447 	 117.391 	 
C 	 -32.659 	 63.4107 	 117.863 	 
C 	 -33.0354 	 62.4255 	 116.89 	 
C 	 -32.1992 	 62.3877 	 115.747 	 
H 	 -33.0147 	 63.7572 	 118.817 	 
C 	 -34.1629 	 61.4406 	 117.237 	 
H 	 -34.4006 	 61.7303 	 118.257 	 
H 	 -33.9123 	 60.3915 	 117.28 	 
C 	 -35.4547 	 61.6514 	 116.44 	 
H 	 -35.2904 	 61.6565 	 115.478 	 
H 	 -35.7329 	 62.7364 	 116.549 	 
C 	 -36.5634 	 60.5793 	 116.811 	 
H 	 -36.7356 	 60.745 	 117.886 	 
H 	 -36.2991 	 59.49 	 116.654 	 
H 	 -37.5026 	 60.7917 	 116.332 	 
H 	 -31.0844 	 59.7188 	 111.695 	 
H 	 -31.0818 	 64.9468 	 117.95 	 
*
