! wB97X-D3 SP def2-SVP
%pal
nprocs 16
end

* xyz 0 1
S 	 3.31714 	 -8.40914 	 70.5004 	 
C 	 2.4952 	 -7.3587 	 69.4013 	 
C 	 2.6982 	 -6.00876 	 69.6005 	 
C 	 3.56993 	 -5.77908 	 70.6671 	 
C 	 3.94849 	 -6.97116 	 71.2856 	 
H 	 3.85708 	 -4.85015 	 71.0816 	 
C 	 2.16446 	 -4.8667 	 68.737 	 
H 	 1.4613 	 -5.2881 	 67.982 	 
H 	 2.99074 	 -4.44454 	 68.1592 	 
C 	 1.56772 	 -3.66934 	 69.5513 	 
H 	 2.30452 	 -2.94066 	 69.917 	 
H 	 0.97775 	 -3.11717 	 68.8817 	 
C 	 0.635436 	 -4.1371 	 70.7091 	 
H 	 0.223834 	 -3.29211 	 71.1899 	 
H 	 -0.164963 	 -4.64397 	 70.2726 	 
H 	 1.17782 	 -4.75964 	 71.4578 	 
S 	 4.30265 	 -8.26317 	 73.5787 	 
C 	 5.68044 	 -7.86396 	 74.5827 	 
C 	 6.63111 	 -7.16524 	 73.8361 	 
C 	 6.10638 	 -6.58805 	 72.5924 	 
C 	 4.855 	 -7.12912 	 72.3643 	 
H 	 7.60462 	 -6.96474 	 74.2793 	 
C 	 6.96158 	 -5.60473 	 71.7903 	 
H 	 6.27273 	 -5.09169 	 71.1131 	 
H 	 7.57194 	 -6.17733 	 71.1154 	 
C 	 7.77541 	 -4.51839 	 72.5634 	 
H 	 8.32449 	 -3.91566 	 71.8079 	 
H 	 8.52123 	 -5.02698 	 73.0982 	 
C 	 6.8838 	 -3.59456 	 73.4961 	 
H 	 5.86976 	 -3.98522 	 73.7078 	 
H 	 6.53581 	 -2.66174 	 72.8889 	 
H 	 7.29678 	 -3.27296 	 74.4518 	 
H 	 1.90345 	 -7.56716 	 68.516 	 
H 	 5.95707 	 -8.3643 	 75.4818 	 
*
