! wB97X-D3 SP def2-SVP
%pal
nprocs 16
end

* xyz 0 1
S 	 17.8153 	 -8.1917 	 80.1005 	 
C 	 16.8556 	 -8.69993 	 78.7231 	 
C 	 15.5157 	 -8.83234 	 78.9325 	 
C 	 15.2006 	 -8.76502 	 80.3312 	 
C 	 16.3532 	 -8.36256 	 81.0738 	 
H 	 14.2771 	 -8.81946 	 80.8245 	 
C 	 14.4968 	 -9.06778 	 77.8964 	 
H 	 14.6085 	 -8.42783 	 77.0609 	 
H 	 13.4649 	 -8.9696 	 78.2971 	 
C 	 14.545 	 -10.4724 	 77.2512 	 
H 	 15.4429 	 -10.519 	 76.5409 	 
H 	 14.6073 	 -11.2292 	 78.0267 	 
C 	 13.274 	 -10.8653 	 76.3564 	 
H 	 12.9311 	 -10.0137 	 75.7359 	 
H 	 13.4493 	 -11.7113 	 75.7236 	 
H 	 12.3612 	 -11.1575 	 76.9394 	 
S 	 16.0935 	 -7.00669 	 83.4734 	 
C 	 16.4903 	 -7.86003 	 84.9694 	 
C 	 17.0729 	 -9.07444 	 84.6842 	 
C 	 17.0901 	 -9.44516 	 83.285 	 
C 	 16.4338 	 -8.45976 	 82.5059 	 
H 	 17.3387 	 -9.55894 	 85.5387 	 
C 	 17.6257 	 -10.8204 	 82.8156 	 
H 	 18.1185 	 -11.2286 	 83.743 	 
H 	 18.4592 	 -10.7417 	 82.02 	 
C 	 16.5862 	 -11.8104 	 82.4213 	 
H 	 16.1411 	 -11.5059 	 81.5187 	 
H 	 15.868 	 -11.6973 	 83.2537 	 
C 	 16.8881 	 -13.298 	 82.4074 	 
H 	 17.7617 	 -13.3765 	 81.7213 	 
H 	 15.9777 	 -13.839 	 82.0638 	 
H 	 17.2276 	 -13.5888 	 83.4613 	 
H 	 17.3258 	 -8.79822 	 77.758 	 
H 	 16.5033 	 -7.3223 	 85.9049 	 
*
