! wB97X-D3 SP def2-SVP
%pal
nprocs 16
end

* xyz 0 1
S 	 -13.4289 	 -11.3006 	 91.6525 	 
C 	 -14.9804 	 -10.579 	 92.0461 	 
C 	 -15.3241 	 -9.59046 	 91.1821 	 
C 	 -14.3994 	 -9.44091 	 90.0836 	 
C 	 -13.2941 	 -10.2966 	 90.1711 	 
H 	 -14.4691 	 -8.76627 	 89.2671 	 
C 	 -16.4847 	 -8.59081 	 91.2943 	 
H 	 -17.2402 	 -9.26638 	 91.7961 	 
H 	 -16.832 	 -8.19275 	 90.3656 	 
C 	 -16.1665 	 -7.48255 	 92.2628 	 
H 	 -15.9149 	 -7.87431 	 93.2313 	 
H 	 -15.2807 	 -6.92663 	 91.8236 	 
C 	 -17.2587 	 -6.41274 	 92.5214 	 
H 	 -17.5751 	 -6.0528 	 91.5453 	 
H 	 -18.129 	 -6.85526 	 93.0523 	 
H 	 -16.8924 	 -5.63708 	 93.0842 	 
S 	 -10.5781 	 -10.3436 	 89.934 	 
C 	 -9.84397 	 -10.3997 	 88.4035 	 
C 	 -10.7955 	 -10.2906 	 87.371 	 
C 	 -12.1232 	 -10.312 	 87.8336 	 
C 	 -12.1885 	 -10.3456 	 89.2329 	 
H 	 -10.4308 	 -10.3129 	 86.3599 	 
C 	 -13.2903 	 -10.4468 	 86.9544 	 
H 	 -13.9826 	 -11.0559 	 87.4578 	 
H 	 -12.9806 	 -10.9767 	 86.0785 	 
C 	 -13.9711 	 -9.12195 	 86.5106 	 
H 	 -13.197 	 -8.32913 	 86.226 	 
H 	 -14.637 	 -8.72685 	 87.1777 	 
C 	 -14.8586 	 -9.35143 	 85.2272 	 
H 	 -14.3233 	 -9.68063 	 84.3055 	 
H 	 -15.3262 	 -8.3579 	 85.0064 	 
H 	 -15.6767 	 -10.0254 	 85.4505 	 
H 	 -15.5516 	 -10.9323 	 92.9102 	 
H 	 -8.82541 	 -10.6078 	 88.2393 	 
*
