! wB97X-D3 SP def2-SVP
%pal
nprocs 16
end

* xyz 0 1
S 	 67.6215 	 16.1143 	 73.3536 	 
C 	 66.9533 	 14.9223 	 72.2343 	 
C 	 65.615 	 15.0733 	 72.0963 	 
C 	 64.9752 	 15.9518 	 73.0939 	 
C 	 65.9442 	 16.4272 	 73.9928 	 
H 	 63.9702 	 16.2392 	 73.2249 	 
C 	 64.8106 	 14.3347 	 71.0205 	 
H 	 65.6048 	 13.8433 	 70.4058 	 
H 	 64.3566 	 14.9385 	 70.2138 	 
C 	 63.7823 	 13.188 	 71.3649 	 
H 	 62.8237 	 13.5142 	 71.7351 	 
H 	 63.3797 	 12.8136 	 70.4109 	 
C 	 64.3915 	 12.0494 	 72.1454 	 
H 	 65.2987 	 11.5661 	 71.6843 	 
H 	 64.6837 	 12.5105 	 73.1501 	 
H 	 63.7755 	 11.1097 	 72.2785 	 
S 	 65.0489 	 18.9631 	 74.428 	 
C 	 65.1123 	 19.6382 	 76.0645 	 
C 	 65.5124 	 18.7141 	 76.992 	 
C 	 66.0208 	 17.4886 	 76.3721 	 
C 	 65.7659 	 17.4294 	 75.0134 	 
H 	 65.5233 	 19.077 	 78.0336 	 
C 	 66.6966 	 16.3696 	 77.1742 	 
H 	 66.8257 	 15.509 	 76.5453 	 
H 	 66.0227 	 16.0077 	 77.9742 	 
C 	 68.1432 	 16.6098 	 77.6239 	 
H 	 68.4178 	 15.7869 	 78.2808 	 
H 	 68.2334 	 17.554 	 78.2137 	 
C 	 69.1492 	 16.6291 	 76.3976 	 
H 	 68.8304 	 17.4465 	 75.7076 	 
H 	 69.1858 	 15.7035 	 75.7565 	 
H 	 70.116 	 16.9194 	 76.7506 	 
H 	 67.5638 	 14.2282 	 71.7265 	 
H 	 64.7345 	 20.5944 	 76.3665 	 
*
