! wB97X-D3 SP def2-SVP
%pal
nprocs 16
end

* xyz 0 1
S 	 -15.0564 	 32.1751 	 34.0065 	 
C 	 -14.0633 	 33.6194 	 34.3951 	 
C 	 -14.8076 	 34.4956 	 35.1537 	 
C 	 -16.1325 	 34.0512 	 35.4802 	 
C 	 -16.4143 	 32.8246 	 34.9048 	 
H 	 -16.8908 	 34.6428 	 36.0699 	 
C 	 -14.3718 	 35.8626 	 35.5775 	 
H 	 -13.3033 	 35.8296 	 35.4034 	 
H 	 -14.5778 	 35.999 	 36.6327 	 
C 	 -15.0452 	 36.8778 	 34.6574 	 
H 	 -14.9208 	 36.4527 	 33.6203 	 
H 	 -16.1036 	 36.8191 	 34.9157 	 
C 	 -14.6036 	 38.2992 	 34.8543 	 
H 	 -14.7593 	 38.824 	 35.7801 	 
H 	 -13.5325 	 38.1248 	 34.7606 	 
H 	 -14.9068 	 38.9208 	 34.0059 	 
S 	 -18.3301 	 31.8814 	 36.6647 	 
C 	 -19.7378 	 31.05 	 35.9054 	 
C 	 -19.7629 	 31.1314 	 34.5065 	 
C 	 -18.5039 	 31.637 	 33.9702 	 
C 	 -17.6957 	 32.1362 	 34.9855 	 
H 	 -20.6016 	 30.6253 	 33.9459 	 
C 	 -18.1914 	 31.6941 	 32.4892 	 
H 	 -18.6606 	 30.822 	 32.1203 	 
H 	 -17.0923 	 31.645 	 32.285 	 
C 	 -18.8517 	 32.988 	 31.8123 	 
H 	 -19.9528 	 32.9257 	 31.9008 	 
H 	 -18.5723 	 32.9591 	 30.703 	 
C 	 -18.4577 	 34.2969 	 32.461 	 
H 	 -17.3927 	 34.4306 	 32.471 	 
H 	 -18.9889 	 34.3487 	 33.4272 	 
H 	 -18.8117 	 35.1803 	 31.8618 	 
H 	 -12.9697 	 33.5744 	 34.3852 	 
H 	 -20.5415 	 30.5385 	 36.4387 	 
*
