! wB97X-D3 SP def2-SVP
%pal
nprocs 16
end

* xyz 0 1
S 	 -43.9365 	 27.03 	 82.0657 	 
C 	 -43.9952 	 25.4144 	 82.7607 	 
C 	 -45.2405 	 24.8292 	 82.5109 	 
C 	 -46.0832 	 25.6743 	 81.7365 	 
C 	 -45.6453 	 26.957 	 81.6667 	 
H 	 -47.0653 	 25.2979 	 81.3057 	 
C 	 -45.5798 	 23.3814 	 82.6347 	 
H 	 -46.6199 	 23.2867 	 82.9624 	 
H 	 -45.0165 	 22.9808 	 83.4356 	 
C 	 -45.4175 	 22.4815 	 81.4048 	 
H 	 -46.146 	 21.6305 	 81.42 	 
H 	 -45.6372 	 23.0099 	 80.5081 	 
C 	 -43.8893 	 22.1559 	 81.054 	 
H 	 -43.7899 	 21.737 	 80.0678 	 
H 	 -43.2459 	 23.0211 	 80.9877 	 
H 	 -43.4154 	 21.4286 	 81.7942 	 
S 	 -47.9016 	 28.4724 	 81.4966 	 
C 	 -47.7954 	 29.8862 	 80.4186 	 
C 	 -46.7402 	 29.9041 	 79.5598 	 
C 	 -45.8299 	 28.8701 	 79.8917 	 
C 	 -46.2959 	 27.9988 	 80.9003 	 
H 	 -46.49 	 30.7107 	 78.9498 	 
C 	 -44.4913 	 28.6984 	 79.2112 	 
H 	 -44.0783 	 27.7639 	 79.564 	 
H 	 -43.7693 	 29.447 	 79.6322 	 
C 	 -44.295 	 28.6478 	 77.6702 	 
H 	 -44.8597 	 27.9073 	 77.1244 	 
H 	 -43.2303 	 28.4031 	 77.6061 	 
C 	 -44.496 	 29.9963 	 76.9044 	 
H 	 -45.3668 	 30.4846 	 77.213 	 
H 	 -44.4399 	 29.6884 	 75.7571 	 
H 	 -43.6122 	 30.6328 	 77.0962 	 
H 	 -43.255 	 24.851 	 83.2997 	 
H 	 -48.3793 	 30.7708 	 80.4786 	 
*
