! wB97X-D3 SP def2-SVP
%pal
nprocs 16
end

* xyz 0 1
S 	 -65.7632 	 40.9087 	 121.582 	 
C 	 -67.2484 	 40.4063 	 120.841 	 
C 	 -67.9593 	 39.5702 	 121.706 	 
C 	 -67.2575 	 39.3375 	 122.887 	 
C 	 -66.1157 	 40.042 	 123.018 	 
H 	 -67.4592 	 38.6201 	 123.66 	 
C 	 -69.2746 	 38.9219 	 121.229 	 
H 	 -69.0905 	 38.707 	 120.209 	 
H 	 -69.9501 	 39.7711 	 121.378 	 
C 	 -69.8337 	 37.7078 	 121.97 	 
H 	 -69.1471 	 36.857 	 121.943 	 
H 	 -69.8406 	 37.8333 	 123.038 	 
C 	 -71.2222 	 37.1352 	 121.476 	 
H 	 -71.6516 	 36.2694 	 122.016 	 
H 	 -72.0099 	 37.8596 	 121.533 	 
H 	 -71.234 	 37.0641 	 120.391 	 
S 	 -63.7881 	 39.1171 	 124.06 	 
C 	 -63.4797 	 39.3148 	 125.818 	 
C 	 -64.5982 	 39.7945 	 126.505 	 
C 	 -65.6959 	 40.0097 	 125.562 	 
C 	 -65.3433 	 39.9025 	 124.217 	 
H 	 -64.6274 	 39.9158 	 127.586 	 
C 	 -66.9064 	 40.7921 	 126.022 	 
H 	 -67.2192 	 41.4821 	 125.23 	 
H 	 -66.6849 	 41.5721 	 126.786 	 
C 	 -68.0937 	 39.9056 	 126.44 	 
H 	 -67.6729 	 39.1727 	 127.163 	 
H 	 -68.4218 	 39.1271 	 125.685 	 
C 	 -69.2677 	 40.7076 	 126.954 	 
H 	 -69.1025 	 41.272 	 127.844 	 
H 	 -70.0998 	 40.0342 	 127.21 	 
H 	 -69.7057 	 41.3837 	 126.193 	 
H 	 -67.6793 	 40.8103 	 119.968 	 
H 	 -62.5097 	 39.1712 	 126.294 	 
*
