! wB97X-D3 SP def2-SVP
%pal
nprocs 16
end

* xyz 0 1
S 	 34.793 	 25.1182 	 56.5275 	 
C 	 35.9583 	 26.2621 	 56.0916 	 
C 	 36.7835 	 25.8102 	 55.0102 	 
C 	 36.3443 	 24.5347 	 54.533 	 
C 	 35.3035 	 23.9847 	 55.2806 	 
H 	 36.7559 	 23.9335 	 53.8363 	 
C 	 37.8922 	 26.5372 	 54.3287 	 
H 	 37.723 	 27.5783 	 54.5713 	 
H 	 37.8047 	 26.274 	 53.2475 	 
C 	 39.3679 	 26.1284 	 54.6414 	 
H 	 39.6526 	 25.1194 	 54.3981 	 
H 	 39.9806 	 26.7186 	 54.0291 	 
C 	 39.9099 	 26.2869 	 56.0485 	 
H 	 39.2623 	 25.6382 	 56.7382 	 
H 	 40.9485 	 25.8796 	 56.1382 	 
H 	 39.9367 	 27.3366 	 56.3197 	 
S 	 34.6552 	 21.7333 	 56.6348 	 
C 	 33.8049 	 20.4289 	 55.8347 	 
C 	 33.5588 	 20.7843 	 54.4962 	 
C 	 34.0426 	 22.0899 	 54.1034 	 
C 	 34.6947 	 22.6904 	 55.1314 	 
H 	 33.0148 	 20.1597 	 53.79 	 
C 	 33.734 	 22.6364 	 52.748 	 
H 	 33.4651 	 23.7087 	 52.8453 	 
H 	 33.008 	 21.9908 	 52.4307 	 
C 	 34.8018 	 22.6138 	 51.717 	 
H 	 35.2304 	 21.6007 	 51.5449 	 
H 	 35.6464 	 23.2598 	 51.9218 	 
C 	 34.275 	 23.0093 	 50.2859 	 
H 	 33.8394 	 23.9847 	 50.1972 	 
H 	 33.5847 	 22.3318 	 49.8811 	 
H 	 35.0714 	 22.9996 	 49.596 	 
H 	 36.0459 	 27.2553 	 56.5669 	 
H 	 33.4847 	 19.5006 	 56.3611 	 
*
