! wB97X-D3 SP def2-SVP
%pal
nprocs 16
end

* xyz 0 1
S 	 53.4995 	 1.55524 	 84.4352 	 
C 	 53.7714 	 2.34593 	 82.8407 	 
C 	 54.6783 	 1.5564 	 82.0739 	 
C 	 55.0206 	 0.336227 	 82.699 	 
C 	 54.5663 	 0.181661 	 84.014 	 
H 	 55.5985 	 -0.426393 	 82.2312 	 
C 	 55.1371 	 1.91865 	 80.699 	 
H 	 56.1838 	 1.95486 	 80.6315 	 
H 	 54.7636 	 2.92139 	 80.5485 	 
C 	 54.5915 	 1.05997 	 79.6101 	 
H 	 54.9203 	 0.0593286 	 79.7117 	 
H 	 53.5324 	 1.05376 	 79.7415 	 
C 	 54.9737 	 1.45894 	 78.2204 	 
H 	 54.5065 	 2.43111 	 77.9595 	 
H 	 55.9933 	 1.46165 	 78.0093 	 
H 	 54.461 	 0.837837 	 77.5295 	 
S 	 53.2013 	 -1.62101 	 85.5212 	 
C 	 54.0143 	 -2.81943 	 86.4435 	 
C 	 55.3827 	 -2.73429 	 86.1587 	 
C 	 55.7649 	 -1.80489 	 85.1386 	 
C 	 54.6899 	 -1.00362 	 84.8059 	 
H 	 56.1261 	 -3.39269 	 86.6367 	 
C 	 57.2221 	 -1.58079 	 84.8067 	 
H 	 57.1166 	 -1.0812 	 83.8776 	 
H 	 57.6882 	 -2.45945 	 84.3726 	 
C 	 58.0242 	 -0.845505 	 85.8304 	 
H 	 57.7333 	 -1.19047 	 86.8507 	 
H 	 57.764 	 0.174845 	 85.6581 	 
C 	 59.5985 	 -1.2057 	 85.7853 	 
H 	 59.8636 	 -1.19747 	 84.7633 	 
H 	 59.8447 	 -2.24342 	 86.0438 	 
H 	 60.2843 	 -0.491776 	 86.3056 	 
H 	 53.2957 	 3.20668 	 82.5393 	 
H 	 53.6294 	 -3.58978 	 87.1474 	 
*
