! wB97X-D3 SP def2-SVP
%pal
nprocs 16
end

* xyz 0 1
S 	 61.7144 	 -3.91805 	 87.6945 	 
C 	 60.2392 	 -3.42141 	 88.4445 	 
C 	 60.4129 	 -2.61157 	 89.5623 	 
C 	 61.8226 	 -2.35916 	 89.7547 	 
C 	 62.6117 	 -2.86561 	 88.7432 	 
H 	 62.3376 	 -1.78353 	 90.5275 	 
C 	 59.2984 	 -2.04233 	 90.4289 	 
H 	 58.6345 	 -1.41663 	 89.8424 	 
H 	 59.7661 	 -1.20662 	 90.9927 	 
C 	 58.5348 	 -2.98717 	 91.2953 	 
H 	 57.9214 	 -2.34625 	 91.8313 	 
H 	 57.8982 	 -3.55858 	 90.6962 	 
C 	 59.2472 	 -4.03825 	 92.0933 	 
H 	 60.0951 	 -3.63627 	 92.5868 	 
H 	 58.6591 	 -4.57557 	 92.8522 	 
H 	 59.589 	 -4.80611 	 91.3216 	 
S 	 65.022 	 -4.1547 	 88.2679 	 
C 	 66.4646 	 -3.19405 	 88.2941 	 
C 	 66.2106 	 -1.89277 	 88.6732 	 
C 	 64.8261 	 -1.5953 	 88.835 	 
C 	 64.0523 	 -2.70407 	 88.5845 	 
H 	 67.0318 	 -1.21078 	 88.9375 	 
C 	 64.2883 	 -0.219057 	 89.1741 	 
H 	 63.8243 	 -0.323568 	 90.1805 	 
H 	 63.4945 	 0.0189342 	 88.4434 	 
C 	 65.3504 	 0.892873 	 89.1361 	 
H 	 65.7546 	 0.943055 	 88.1209 	 
H 	 66.1671 	 0.716614 	 89.8593 	 
C 	 64.7802 	 2.2413 	 89.4155 	 
H 	 64.0137 	 2.5158 	 88.6687 	 
H 	 65.4702 	 3.00208 	 89.357 	 
H 	 64.2571 	 2.36857 	 90.3592 	 
H 	 59.3087 	 -3.90859 	 88.2523 	 
H 	 67.5068 	 -3.53858 	 88.301 	 
*
