! wB97X-D3 SP def2-SVP
%pal
nprocs 16
end

* xyz 0 1
S 	 7.20836 	 -26.4322 	 82.7792 	 
C 	 7.3744 	 -26.958 	 84.3992 	 
C 	 7.46851 	 -25.8806 	 85.2422 	 
C 	 7.38708 	 -24.5911 	 84.5861 	 
C 	 7.19265 	 -24.7433 	 83.2106 	 
H 	 7.38527 	 -23.5874 	 85.0383 	 
C 	 7.66933 	 -25.9721 	 86.765 	 
H 	 7.34057 	 -25.0355 	 87.1488 	 
H 	 8.74379 	 -26.0806 	 86.9985 	 
C 	 6.84373 	 -27.0535 	 87.4878 	 
H 	 5.72558 	 -26.9094 	 87.3146 	 
H 	 7.06484 	 -28.0476 	 87.0087 	 
C 	 7.13796 	 -27.3232 	 88.9946 	 
H 	 6.86785 	 -26.3697 	 89.5014 	 
H 	 6.42177 	 -28.194 	 89.3968 	 
H 	 8.20011 	 -27.5254 	 89.1445 	 
S 	 8.74958 	 -24.0178 	 80.9666 	 
C 	 8.63223 	 -22.4141 	 80.3835 	 
C 	 7.55042 	 -21.7525 	 80.9732 	 
C 	 6.8406 	 -22.5417 	 81.9075 	 
C 	 7.46807 	 -23.7348 	 82.1706 	 
H 	 7.29215 	 -20.7603 	 80.6728 	 
C 	 5.69234 	 -22.0698 	 82.6559 	 
H 	 5.74368 	 -21.0289 	 82.8757 	 
H 	 5.85352 	 -22.4188 	 83.6225 	 
C 	 4.27706 	 -22.5056 	 82.3063 	 
H 	 3.64248 	 -22.1342 	 83.0543 	 
H 	 4.20509 	 -23.6119 	 82.2333 	 
C 	 3.806 	 -22.1677 	 80.8491 	 
H 	 4.40921 	 -22.4847 	 79.9874 	 
H 	 3.58906 	 -21.0918 	 80.7713 	 
H 	 2.86931 	 -22.7201 	 80.6517 	 
H 	 7.56875 	 -27.9653 	 84.7925 	 
H 	 9.34067 	 -22.0132 	 79.7109 	 
*
