! wB97X-D3 SP def2-SVP
%pal
nprocs 16
end

* xyz 0 1
S 	 -117.087 	 47.8563 	 130.963 	 
C 	 -115.63 	 48.6001 	 130.286 	 
C 	 -115.503 	 49.8413 	 130.834 	 
C 	 -116.411 	 50.0423 	 131.924 	 
C 	 -117.292 	 49.0662 	 132.135 	 
H 	 -116.343 	 51.0075 	 132.511 	 
C 	 -114.39 	 50.8224 	 130.412 	 
H 	 -113.721 	 50.3227 	 129.695 	 
H 	 -113.745 	 51.0046 	 131.3 	 
C 	 -114.944 	 52.1807 	 129.911 	 
H 	 -115.741 	 52.1312 	 129.263 	 
H 	 -115.382 	 52.5718 	 130.788 	 
C 	 -113.788 	 53.0267 	 129.319 	 
H 	 -113.621 	 52.7533 	 128.283 	 
H 	 -114.038 	 54.042 	 129.294 	 
H 	 -112.805 	 53.0246 	 129.787 	 
S 	 -120.024 	 49.0539 	 132.587 	 
C 	 -120.649 	 49.0084 	 134.169 	 
C 	 -119.682 	 49.163 	 135.123 	 
C 	 -118.326 	 49.1716 	 134.559 	 
C 	 -118.318 	 49.0615 	 133.173 	 
H 	 -119.909 	 49.1831 	 136.183 	 
C 	 -117.124 	 49.1886 	 135.427 	 
H 	 -116.457 	 48.7626 	 134.742 	 
H 	 -117.429 	 48.5012 	 136.284 	 
C 	 -116.779 	 50.6358 	 135.75 	 
H 	 -117.608 	 50.9576 	 136.367 	 
H 	 -116.937 	 51.4202 	 134.975 	 
C 	 -115.325 	 50.6553 	 136.327 	 
H 	 -114.579 	 50.4671 	 135.567 	 
H 	 -115.177 	 50.0176 	 137.204 	 
H 	 -115.025 	 51.6241 	 136.771 	 
H 	 -115.014 	 48.0746 	 129.551 	 
H 	 -121.703 	 49.0346 	 134.473 	 
*
