! wB97X-D3 SP def2-SVP
%pal
nprocs 16
end

* xyz 0 1
S 	 -56.5244 	 38.4666 	 117.527 	 
C 	 -56.2321 	 36.816 	 118.107 	 
C 	 -56.6795 	 35.8917 	 117.263 	 
C 	 -57.3637 	 36.4349 	 116.115 	 
C 	 -57.0771 	 37.7585 	 115.942 	 
H 	 -57.7622 	 35.8292 	 115.328 	 
C 	 -56.4247 	 34.3458 	 117.362 	 
H 	 -57.1162 	 33.9538 	 116.718 	 
H 	 -56.6882 	 33.9323 	 118.296 	 
C 	 -55.0717 	 33.8447 	 116.962 	 
H 	 -55.1777 	 32.8019 	 116.689 	 
H 	 -54.7226 	 34.4079 	 116.098 	 
C 	 -53.9798 	 34.0214 	 117.94 	 
H 	 -54.2789 	 33.4173 	 118.839 	 
H 	 -53.0958 	 33.5692 	 117.504 	 
H 	 -53.8077 	 35.0824 	 118.205 	 
S 	 -58.6012 	 39.9144 	 115.094 	 
C 	 -58.729 	 40.2195 	 113.399 	 
C 	 -57.9282 	 39.37 	 112.685 	 
C 	 -57.1976 	 38.4191 	 113.452 	 
C 	 -57.5441 	 38.5539 	 114.791 	 
H 	 -57.8724 	 39.3275 	 111.606 	 
C 	 -56.3428 	 37.3215 	 112.829 	 
H 	 -55.8606 	 36.6182 	 113.565 	 
H 	 -55.4193 	 37.7729 	 112.46 	 
C 	 -57.0402 	 36.4021 	 111.709 	 
H 	 -56.3331 	 35.6086 	 111.567 	 
H 	 -56.9976 	 36.9602 	 110.757 	 
C 	 -58.4349 	 35.9606 	 112.044 	 
H 	 -59.0403 	 36.7635 	 112.426 	 
H 	 -58.3872 	 35.198 	 112.869 	 
H 	 -58.9579 	 35.4628 	 111.164 	 
H 	 -55.4799 	 36.5629 	 118.914 	 
H 	 -59.3709 	 40.9741 	 112.988 	 
*
