! wB97X-D3 SP def2-SVP
%pal
nprocs 16
end

* xyz 0 1
S 	 -40.9726 	 35.4954 	 84.6653 	 
C 	 -42.6871 	 35.7511 	 84.6225 	 
C 	 -43.281 	 35.0487 	 85.642 	 
C 	 -42.3435 	 34.3906 	 86.5331 	 
C 	 -41.0526 	 34.6904 	 86.2105 	 
H 	 -42.615 	 33.7563 	 87.3859 	 
C 	 -44.7645 	 34.9162 	 85.7379 	 
H 	 -45.0764 	 35.9564 	 85.6376 	 
H 	 -45.0425 	 34.741 	 86.8164 	 
C 	 -45.5085 	 34.0735 	 84.6687 	 
H 	 -46.4453 	 34.519 	 84.7025 	 
H 	 -45.2293 	 34.3451 	 83.6192 	 
C 	 -45.4488 	 32.5099 	 84.6644 	 
H 	 -45.5514 	 32.1878 	 83.6356 	 
H 	 -44.4774 	 32.1545 	 85.0314 	 
H 	 -46.1749 	 32.0508 	 85.366 	 
S 	 -39.3706 	 35.2044 	 88.2194 	 
C 	 -37.8821 	 34.2998 	 88.2756 	 
C 	 -37.8517 	 33.2857 	 87.3936 	 
C 	 -38.9951 	 33.192 	 86.521 	 
C 	 -39.8493 	 34.2273 	 86.8614 	 
H 	 -36.9995 	 32.5409 	 87.4009 	 
C 	 -39.2143 	 32.1394 	 85.4197 	 
H 	 -38.4302 	 31.3377 	 85.368 	 
H 	 -39.5132 	 32.6737 	 84.5078 	 
C 	 -40.3694 	 31.241 	 85.9234 	 
H 	 -41.3041 	 31.7931 	 85.9025 	 
H 	 -40.0518 	 31.0646 	 87.0012 	 
C 	 -40.4624 	 29.8435 	 85.1446 	 
H 	 -39.6178 	 29.2313 	 85.2031 	 
H 	 -40.7125 	 30.0707 	 84.2014 	 
H 	 -41.3407 	 29.2875 	 85.4691 	 
H 	 -43.2191 	 36.4872 	 83.9568 	 
H 	 -37.0727 	 34.5095 	 89.008 	 
*
