! wB97X-D3 SP def2-SVP
%pal
nprocs 16
end

* xyz 0 1
S 	 -36.7953 	 67.4858 	 145.452 	 
C 	 -36.0155 	 66.5865 	 144.177 	 
C 	 -34.7371 	 66.0764 	 144.532 	 
C 	 -34.5208 	 66.3132 	 145.933 	 
C 	 -35.4677 	 67.0655 	 146.542 	 
H 	 -33.5815 	 66.0105 	 146.489 	 
C 	 -33.786 	 65.3794 	 143.583 	 
H 	 -34.3224 	 64.9678 	 142.73 	 
H 	 -33.2567 	 64.6203 	 144.164 	 
C 	 -32.6691 	 66.2917 	 143.051 	 
H 	 -32.1923 	 66.822 	 143.871 	 
H 	 -31.8436 	 65.6479 	 142.662 	 
C 	 -33.1334 	 67.3593 	 142.078 	 
H 	 -33.5005 	 66.9628 	 141.096 	 
H 	 -34.0009 	 67.8832 	 142.589 	 
H 	 -32.3193 	 68.0749 	 141.884 	 
S 	 -36.9085 	 67.4649 	 148.848 	 
C 	 -36.1816 	 68.4526 	 150.137 	 
C 	 -34.8624 	 68.7688 	 149.787 	 
C 	 -34.5099 	 68.4702 	 148.459 	 
C 	 -35.4161 	 67.6037 	 147.853 	 
H 	 -34.3509 	 69.4199 	 150.503 	 
C 	 -33.1315 	 68.7556 	 147.927 	 
H 	 -33.1184 	 68.4212 	 146.873 	 
H 	 -32.3853 	 68.1304 	 148.418 	 
C 	 -32.5952 	 70.1408 	 148.048 	 
H 	 -32.2978 	 70.3566 	 149.099 	 
H 	 -33.3739 	 70.6972 	 147.533 	 
C 	 -31.3518 	 70.4291 	 147.136 	 
H 	 -31.1802 	 71.5001 	 147.287 	 
H 	 -31.4556 	 70.196 	 146.104 	 
H 	 -30.4199 	 69.9041 	 147.507 	 
H 	 -36.3934 	 66.4591 	 143.134 	 
H 	 -36.582 	 68.7105 	 151.044 	 
*
