! wB97X-D3 SP def2-SVP
%pal
nprocs 16
end

* xyz 0 1
S 	 11.8097 	 26.071 	 61.4733 	 
C 	 12.2947 	 25.9849 	 59.8199 	 
C 	 11.1897 	 25.6107 	 59.0212 	 
C 	 9.92713 	 25.4961 	 59.7497 	 
C 	 10.0973 	 25.8055 	 61.1344 	 
H 	 8.99228 	 25.0898 	 59.4618 	 
C 	 11.2608 	 25.3214 	 57.5074 	 
H 	 11.887 	 26.144 	 57.1286 	 
H 	 10.2282 	 25.4442 	 57.1026 	 
C 	 11.8092 	 23.9694 	 57.246 	 
H 	 11.9319 	 23.88 	 56.1767 	 
H 	 12.7289 	 23.8102 	 57.8613 	 
C 	 10.9083 	 22.7656 	 57.667 	 
H 	 10.7388 	 22.7197 	 58.7474 	 
H 	 9.90153 	 22.7922 	 57.2727 	 
H 	 11.2542 	 21.823 	 57.3836 	 
S 	 9.70736 	 25.0532 	 63.8533 	 
C 	 8.12877 	 25.1262 	 64.6139 	 
C 	 7.23297 	 25.3755 	 63.6087 	 
C 	 7.79259 	 25.7873 	 62.3505 	 
C 	 9.1399 	 25.6162 	 62.2319 	 
H 	 6.17186 	 25.4396 	 63.7689 	 
C 	 6.83198 	 26.3701 	 61.3287 	 
H 	 7.43561 	 26.8927 	 60.4975 	 
H 	 6.2229 	 27.1754 	 61.7021 	 
C 	 5.69331 	 25.4605 	 60.882 	 
H 	 4.99139 	 26.0049 	 60.2792 	 
H 	 5.07502 	 25.2131 	 61.762 	 
C 	 6.11551 	 24.2096 	 60.1391 	 
H 	 6.87514 	 23.6128 	 60.6383 	 
H 	 6.4591 	 24.4402 	 59.0819 	 
H 	 5.16102 	 23.6554 	 60.0518 	 
H 	 13.2055 	 26.1746 	 59.3203 	 
H 	 7.95335 	 24.9467 	 65.6475 	 
*
