! wB97X-D3 SP def2-SVP
%pal
nprocs 16
end

* xyz 0 1
S 	 -44.3361 	 36.4302 	 78.7964 	 
C 	 -44.7853 	 36.484 	 77.0504 	 
C 	 -44.5319 	 35.2979 	 76.4676 	 
C 	 -43.9017 	 34.3965 	 77.3736 	 
C 	 -43.6063 	 34.886 	 78.61 	 
H 	 -43.5694 	 33.3286 	 77.2328 	 
C 	 -44.743 	 34.8783 	 74.9947 	 
H 	 -43.7512 	 35.0568 	 74.5321 	 
H 	 -45.5304 	 35.4101 	 74.5068 	 
C 	 -45.0111 	 33.433 	 74.568 	 
H 	 -44.7336 	 33.2747 	 73.5144 	 
H 	 -44.465 	 32.8157 	 75.2376 	 
C 	 -46.5117 	 33.1046 	 74.514 	 
H 	 -46.6844 	 32.0696 	 74.2771 	 
H 	 -47.1689 	 33.2972 	 75.4294 	 
H 	 -46.8711 	 33.8019 	 73.7371 	 
S 	 -42.9897 	 34.9091 	 81.329 	 
C 	 -41.6575 	 33.9401 	 81.8822 	 
C 	 -41.2216 	 33.0868 	 80.9067 	 
C 	 -41.9642 	 33.1732 	 79.6693 	 
C 	 -42.9151 	 34.2088 	 79.7153 	 
H 	 -40.3924 	 32.5487 	 81.1291 	 
C 	 -41.4424 	 32.4223 	 78.4502 	 
H 	 -41.4968 	 33.2076 	 77.7142 	 
H 	 -42.1188 	 31.6568 	 78.1607 	 
C 	 -39.9896 	 32.1115 	 78.3902 	 
H 	 -39.7633 	 31.388 	 79.1859 	 
H 	 -39.4716 	 33.0561 	 78.5866 	 
C 	 -39.488 	 31.6164 	 77.0594 	 
H 	 -38.3777 	 31.3106 	 77.1654 	 
H 	 -39.5388 	 32.3294 	 76.1699 	 
H 	 -40.1095 	 30.6946 	 76.7578 	 
H 	 -45.0576 	 37.3868 	 76.5026 	 
H 	 -41.1014 	 34.1793 	 82.8073 	 
*
