! wB97X-D3 SP def2-SVP
%pal
nprocs 16
end

* xyz 0 1
S 	 -36.9076 	 35.9754 	 84.4196 	 
C 	 -38.1922 	 35.7423 	 83.2311 	 
C 	 -38.8454 	 34.5217 	 83.4629 	 
C 	 -38.4914 	 33.9575 	 84.7541 	 
C 	 -37.5732 	 34.6992 	 85.4882 	 
H 	 -38.8424 	 33.0548 	 85.2186 	 
C 	 -39.8064 	 33.9382 	 82.4657 	 
H 	 -40.4463 	 34.7194 	 82.0617 	 
H 	 -40.4438 	 33.3566 	 83.0957 	 
C 	 -39.1743 	 33.0267 	 81.3882 	 
H 	 -39.9114 	 32.6605 	 80.5836 	 
H 	 -38.3892 	 33.5756 	 80.8439 	 
C 	 -38.5141 	 31.7895 	 82.0938 	 
H 	 -37.8446 	 32.127 	 82.9118 	 
H 	 -39.2324 	 31.1424 	 82.5436 	 
H 	 -37.9642 	 31.196 	 81.4473 	 
S 	 -36.8861 	 35.8092 	 87.869 	 
C 	 -36.558 	 34.7898 	 89.2191 	 
C 	 -36.4002 	 33.4497 	 88.8953 	 
C 	 -36.7323 	 33.269 	 87.4579 	 
C 	 -36.9536 	 34.4617 	 86.7583 	 
H 	 -36.1198 	 32.623 	 89.5316 	 
C 	 -36.6321 	 31.8494 	 86.916 	 
H 	 -37.6792 	 31.6231 	 86.6601 	 
H 	 -36.4025 	 31.2142 	 87.7891 	 
C 	 -35.6956 	 31.5759 	 85.7355 	 
H 	 -34.6642 	 31.7661 	 86.0023 	 
H 	 -35.9825 	 32.3392 	 84.9456 	 
C 	 -35.8432 	 30.0992 	 85.2177 	 
H 	 -36.8513 	 29.838 	 84.9465 	 
H 	 -35.5677 	 29.4367 	 86.0586 	 
H 	 -35.0844 	 29.9202 	 84.4098 	 
H 	 -38.1837 	 36.2963 	 82.2992 	 
H 	 -36.5179 	 35.1863 	 90.2635 	 
*
