! wB97X-D3 SP def2-SVP
%pal
nprocs 16
end

* xyz 0 1
S 	 -41.7655 	 38.7808 	 75.8131 	 
C 	 -42.8315 	 38.1376 	 77.0259 	 
C 	 -42.3061 	 37.0214 	 77.6746 	 
C 	 -40.9736 	 36.7458 	 77.2716 	 
C 	 -40.4696 	 37.6724 	 76.3879 	 
H 	 -40.3628 	 35.9482 	 77.7535 	 
C 	 -43.1166 	 36.2306 	 78.7071 	 
H 	 -43.1627 	 35.1941 	 78.3611 	 
H 	 -44.106 	 36.6631 	 78.6373 	 
C 	 -42.4997 	 36.0879 	 80.1114 	 
H 	 -41.6339 	 35.4939 	 80.0676 	 
H 	 -42.1288 	 37.0754 	 80.4827 	 
C 	 -43.492 	 35.5106 	 81.1719 	 
H 	 -43.1917 	 35.6666 	 82.2165 	 
H 	 -44.4604 	 35.9856 	 81.2456 	 
H 	 -43.5342 	 34.4043 	 81.0698 	 
S 	 -38.2567 	 39.2538 	 76.0022 	 
C 	 -36.7207 	 38.4995 	 75.631 	 
C 	 -36.8034 	 37.1328 	 75.5256 	 
C 	 -38.1618 	 36.6415 	 75.7054 	 
C 	 -39.0969 	 37.7155 	 75.9246 	 
H 	 -35.9214 	 36.6044 	 75.3127 	 
C 	 -38.4686 	 35.1956 	 75.2907 	 
H 	 -39.018 	 34.7656 	 76.1015 	 
H 	 -37.5139 	 34.6519 	 75.2661 	 
C 	 -39.0684 	 34.9747 	 73.8796 	 
H 	 -40.1466 	 35.1834 	 73.8859 	 
H 	 -39.0364 	 33.9015 	 73.5908 	 
C 	 -38.4195 	 35.8303 	 72.854 	 
H 	 -37.3582 	 35.819 	 72.9766 	 
H 	 -38.5302 	 36.8702 	 73.0363 	 
H 	 -38.7025 	 35.6273 	 71.8079 	 
H 	 -43.8102 	 38.4269 	 77.3038 	 
H 	 -35.8958 	 39.1078 	 75.3802 	 
*
