! wB97X-D3 SP def2-SVP
%pal
nprocs 16
end

* xyz 0 1
S 	 -33.0459 	 42.0669 	 96.9651 	 
C 	 -34.5814 	 42.1291 	 97.8537 	 
C 	 -34.6019 	 43.1709 	 98.7222 	 
C 	 -33.4548 	 44.0126 	 98.6215 	 
C 	 -32.4106 	 43.4281 	 97.8688 	 
H 	 -33.2856 	 45.0116 	 99.0535 	 
C 	 -35.8369 	 43.5109 	 99.553 	 
H 	 -36.4395 	 42.6083 	 99.7756 	 
H 	 -36.3586 	 44.3809 	 99.0323 	 
C 	 -35.4398 	 44.1225 	 100.914 	 
H 	 -34.9424 	 43.3814 	 101.522 	 
H 	 -34.6712 	 44.8937 	 100.828 	 
C 	 -36.5959 	 44.3924 	 101.944 	 
H 	 -37.3804 	 45.0452 	 101.644 	 
H 	 -37.0425 	 43.4689 	 102.296 	 
H 	 -36.158 	 44.858 	 102.854 	 
S 	 -29.9509 	 42.7889 	 98.1463 	 
C 	 -28.733 	 43.8513 	 97.536 	 
C 	 -29.164 	 45.108 	 97.3014 	 
C 	 -30.5824 	 45.2818 	 97.465 	 
C 	 -31.1695 	 44.003 	 97.6377 	 
H 	 -28.4665 	 45.8619 	 97.1899 	 
C 	 -31.2699 	 46.517 	 97.1009 	 
H 	 -30.5441 	 47.3498 	 97.2167 	 
H 	 -31.8904 	 46.6991 	 98.024 	 
C 	 -32.2212 	 46.5512 	 95.8509 	 
H 	 -32.7015 	 47.4877 	 95.8489 	 
H 	 -33.1805 	 46.0091 	 95.9298 	 
C 	 -31.5093 	 46.4114 	 94.5223 	 
H 	 -31.2784 	 45.3387 	 94.3335 	 
H 	 -30.5903 	 46.9431 	 94.5948 	 
H 	 -32.1813 	 46.8138 	 93.7476 	 
H 	 -35.3048 	 41.3496 	 97.731 	 
H 	 -27.7081 	 43.8849 	 97.7345 	 
*
