! wB97X-D3 SP def2-SVP
%pal
nprocs 16
end

* xyz 0 1
S 	 6.79526 	 -10.471 	 71.1211 	 
C 	 7.10786 	 -11.0543 	 69.5066 	 
C 	 7.8934 	 -10.2349 	 68.7377 	 
C 	 8.3984 	 -9.14393 	 69.4935 	 
C 	 7.89008 	 -9.09624 	 70.8432 	 
H 	 9.0342 	 -8.43439 	 69.0853 	 
C 	 8.26835 	 -10.5599 	 67.3422 	 
H 	 8.00034 	 -11.6452 	 67.2173 	 
H 	 9.32469 	 -10.2773 	 67.2425 	 
C 	 7.55865 	 -9.76454 	 66.2066 	 
H 	 7.97096 	 -8.78408 	 66.4765 	 
H 	 8.03862 	 -9.88395 	 65.2241 	 
C 	 6.01659 	 -9.77698 	 66.2285 	 
H 	 5.61547 	 -8.86764 	 65.6641 	 
H 	 5.68019 	 -10.7163 	 65.7479 	 
H 	 5.55847 	 -9.84519 	 67.2472 	 
S 	 8.80362 	 -9.08646 	 73.4524 	 
C 	 9.02987 	 -7.57097 	 74.2688 	 
C 	 8.56636 	 -6.50668 	 73.5212 	 
C 	 8.0997 	 -6.84167 	 72.1937 	 
C 	 8.30074 	 -8.25849 	 71.9842 	 
H 	 8.64002 	 -5.47999 	 73.9408 	 
C 	 7.75319 	 -5.87263 	 71.1008 	 
H 	 7.29335 	 -6.43996 	 70.2803 	 
H 	 8.75744 	 -5.43393 	 70.7951 	 
C 	 6.86889 	 -4.71903 	 71.4601 	 
H 	 6.90305 	 -4.10561 	 70.5295 	 
H 	 7.27028 	 -3.97048 	 72.1105 	 
C 	 5.36572 	 -5.0948 	 71.797 	 
H 	 5.15759 	 -5.97328 	 72.4474 	 
H 	 4.73164 	 -5.20965 	 70.9204 	 
H 	 4.87276 	 -4.25484 	 72.3355 	 
H 	 6.71619 	 -11.9625 	 69.1347 	 
H 	 9.63741 	 -7.51679 	 75.1593 	 
*
