! wB97X-D3 SP def2-SVP
%pal
nprocs 16
end

* xyz 0 1
S 	 1.11958 	 -11.6176 	 70.0298 	 
C 	 1.90244 	 -12.8458 	 69.0097 	 
C 	 2.16155 	 -13.9887 	 69.6871 	 
C 	 1.77792 	 -13.8712 	 71.0804 	 
C 	 1.43119 	 -12.5648 	 71.5029 	 
H 	 1.8299 	 -14.5867 	 71.9357 	 
C 	 2.73009 	 -15.2736 	 69.0709 	 
H 	 2.59597 	 -16.0028 	 69.8923 	 
H 	 3.79103 	 -15.1177 	 68.9517 	 
C 	 2.03282 	 -15.8176 	 67.789 	 
H 	 0.943551 	 -15.9926 	 67.9509 	 
H 	 2.0693 	 -15.03 	 67.0351 	 
C 	 2.6879 	 -17.0663 	 67.1986 	 
H 	 3.66155 	 -16.8106 	 66.9027 	 
H 	 2.83195 	 -17.8756 	 67.8992 	 
H 	 2.2439 	 -17.4562 	 66.2822 	 
S 	 -0.668956 	 -11.7218 	 73.0256 	 
C 	 -0.480236 	 -11.4024 	 74.6738 	 
C 	 0.770154 	 -11.7896 	 75.1578 	 
C 	 1.59486 	 -12.2345 	 74.067 	 
C 	 0.997901 	 -12.1731 	 72.8134 	 
H 	 1.02893 	 -11.7946 	 76.1696 	 
C 	 3.0083 	 -12.6661 	 74.3594 	 
H 	 3.24785 	 -13.3199 	 73.5644 	 
H 	 3.01218 	 -13.2 	 75.282 	 
C 	 4.17396 	 -11.5965 	 74.3495 	 
H 	 3.98135 	 -10.9072 	 75.1486 	 
H 	 4.21638 	 -11.0928 	 73.3634 	 
C 	 5.62865 	 -12.1338 	 74.5263 	 
H 	 5.69569 	 -13.1407 	 74.1111 	 
H 	 5.89976 	 -12.2208 	 75.5935 	 
H 	 6.26959 	 -11.5207 	 73.9215 	 
H 	 2.11708 	 -12.6369 	 67.9031 	 
H 	 -1.31032 	 -11.0348 	 75.2693 	 
*
