! wB97X-D3 SP def2-SVP
%pal
nprocs 16
end

* xyz 0 1
S 	 -76.7447 	 41.9552 	 124.357 	 
C 	 -77.5209 	 40.4023 	 124.005 	 
C 	 -77.6623 	 40.1416 	 122.664 	 
C 	 -77.2326 	 41.2333 	 121.861 	 
C 	 -76.6706 	 42.3172 	 122.611 	 
H 	 -77.3168 	 41.2351 	 120.763 	 
C 	 -78.4793 	 39.028 	 121.997 	 
H 	 -77.7898 	 38.4053 	 121.573 	 
H 	 -79.0606 	 39.3957 	 121.199 	 
C 	 -79.397 	 38.0326 	 122.767 	 
H 	 -79.6696 	 37.1977 	 122.141 	 
H 	 -78.8058 	 37.587 	 123.579 	 
C 	 -80.7239 	 38.5802 	 123.275 	 
H 	 -81.2661 	 38.7418 	 122.327 	 
H 	 -81.0865 	 37.7579 	 123.823 	 
H 	 -80.6304 	 39.6098 	 123.773 	 
S 	 -76.8931 	 44.3777 	 120.733 	 
C 	 -75.9183 	 45.7919 	 121.173 	 
C 	 -74.744 	 45.3679 	 121.787 	 
C 	 -74.8718 	 44.0769 	 122.365 	 
C 	 -76.1699 	 43.5969 	 122.14 	 
H 	 -73.9401 	 46.0712 	 121.867 	 
C 	 -73.8138 	 43.5354 	 123.259 	 
H 	 -74.2726 	 43.456 	 124.304 	 
H 	 -72.9694 	 44.2869 	 123.397 	 
C 	 -73.3908 	 42.1913 	 122.823 	 
H 	 -74.1192 	 41.7855 	 122.155 	 
H 	 -73.3626 	 41.5431 	 123.652 	 
C 	 -72.0148 	 42.108 	 122.139 	 
H 	 -71.8497 	 41.0638 	 122.024 	 
H 	 -71.257 	 42.489 	 122.652 	 
H 	 -72.1652 	 42.5106 	 121.114 	 
H 	 -77.8083 	 39.7004 	 124.791 	 
H 	 -76.0651 	 46.72 	 120.654 	 
*
