! wB97X-D3 SP def2-SVP
%pal
nprocs 16
end

* xyz 0 1
S 	 -115.191 	 55.0697 	 110.691 	 
C 	 -114.297 	 53.7511 	 109.975 	 
C 	 -113.012 	 54.2287 	 109.59 	 
C 	 -112.707 	 55.6082 	 109.943 	 
C 	 -113.917 	 56.2154 	 110.447 	 
H 	 -111.744 	 56.1065 	 109.972 	 
C 	 -112.036 	 53.4797 	 108.78 	 
H 	 -112.13 	 52.47 	 109.094 	 
H 	 -111.02 	 53.808 	 108.947 	 
C 	 -112.255 	 53.3873 	 107.269 	 
H 	 -111.745 	 52.4213 	 106.931 	 
H 	 -113.322 	 53.175 	 107.122 	 
C 	 -111.772 	 54.6186 	 106.504 	 
H 	 -110.622 	 54.7078 	 106.555 	 
H 	 -112.027 	 54.679 	 105.403 	 
H 	 -112.134 	 55.628 	 106.834 	 
S 	 -113.031 	 58.6812 	 110.085 	 
C 	 -113.776 	 60.0712 	 110.85 	 
C 	 -114.828 	 59.5696 	 111.64 	 
C 	 -114.965 	 58.1399 	 111.732 	 
C 	 -114.161 	 57.5564 	 110.837 	 
H 	 -115.594 	 60.236 	 112.157 	 
C 	 -115.943 	 57.4955 	 112.711 	 
H 	 -116.566 	 56.7693 	 112.213 	 
H 	 -116.645 	 58.2607 	 113.108 	 
C 	 -115.167 	 56.8738 	 113.941 	 
H 	 -114.371 	 56.2209 	 113.634 	 
H 	 -115.818 	 56.0865 	 114.333 	 
C 	 -114.546 	 57.8859 	 114.855 	 
H 	 -114.047 	 58.6807 	 114.395 	 
H 	 -113.933 	 57.2959 	 115.516 	 
H 	 -115.179 	 58.5026 	 115.517 	 
H 	 -114.618 	 52.7941 	 109.715 	 
H 	 -113.565 	 61.1501 	 110.587 	 
*
