! wB97X-D3 SP def2-SVP
%pal
nprocs 16
end

* xyz 0 1
S 	 45.5139 	 24.0204 	 82.3636 	 
C 	 46.374 	 24.5076 	 80.925 	 
C 	 47.235 	 23.5128 	 80.4703 	 
C 	 47.0932 	 22.3016 	 81.2375 	 
C 	 46.1642 	 22.4114 	 82.2794 	 
H 	 47.6218 	 21.3302 	 81.0479 	 
C 	 48.0996 	 23.5667 	 79.186 	 
H 	 48.7456 	 22.7034 	 79.1414 	 
H 	 48.816 	 24.4016 	 79.2136 	 
C 	 47.2029 	 23.7641 	 77.9495 	 
H 	 46.3845 	 23.0616 	 78.0799 	 
H 	 46.8185 	 24.7753 	 77.8647 	 
C 	 47.8406 	 23.4588 	 76.6172 	 
H 	 48.843 	 23.926 	 76.6005 	 
H 	 47.8832 	 22.3461 	 76.6851 	 
H 	 47.2305 	 23.8241 	 75.8094 	 
S 	 46.1568 	 21.4581 	 84.8376 	 
C 	 45.4757 	 19.9001 	 85.266 	 
C 	 45.0974 	 19.253 	 84.0565 	 
C 	 45.3472 	 19.9699 	 82.895 	 
C 	 45.8126 	 21.2759 	 83.1332 	 
H 	 44.5369 	 18.3182 	 84.1035 	 
C 	 44.71 	 19.5745 	 81.6123 	 
H 	 44.6825 	 20.3432 	 80.7655 	 
H 	 43.61 	 19.3433 	 81.7887 	 
C 	 45.4348 	 18.3229 	 81.0683 	 
H 	 45.5328 	 17.5302 	 81.7775 	 
H 	 46.3794 	 18.64 	 80.8169 	 
C 	 44.8261 	 17.6565 	 79.8415 	 
H 	 45.3856 	 16.7479 	 79.5417 	 
H 	 44.8562 	 18.3125 	 78.9625 	 
H 	 43.7939 	 17.3957 	 80.1662 	 
H 	 46.2113 	 25.5013 	 80.4318 	 
H 	 45.1573 	 19.4798 	 86.2061 	 
*
