! wB97X-D3 SP def2-SVP
%pal
nprocs 16
end

* xyz 0 1
S 	 -49.5348 	 36.3775 	 109.998 	 
C 	 -48.865 	 37.9972 	 109.948 	 
C 	 -49.2614 	 38.6929 	 108.844 	 
C 	 -50.0374 	 37.8963 	 107.942 	 
C 	 -50.3062 	 36.6324 	 108.378 	 
H 	 -50.4593 	 38.2379 	 107.026 	 
C 	 -48.7908 	 40.1157 	 108.592 	 
H 	 -48.7535 	 40.3179 	 107.511 	 
H 	 -47.789 	 40.2272 	 109.019 	 
C 	 -49.6918 	 41.33 	 109.034 	 
H 	 -50.5088 	 41.4056 	 108.397 	 
H 	 -50.1516 	 41.0963 	 110.035 	 
C 	 -48.9535 	 42.6828 	 108.921 	 
H 	 -48.3928 	 42.9018 	 108.024 	 
H 	 -49.6024 	 43.4542 	 109.262 	 
H 	 -48.1295 	 42.629 	 109.597 	 
S 	 -50.3803 	 34.436 	 106.732 	 
C 	 -51.8371 	 33.4882 	 106.706 	 
C 	 -52.9149 	 34.1655 	 107.29 	 
C 	 -52.4953 	 35.4242 	 107.852 	 
C 	 -51.1315 	 35.6421 	 107.698 	 
H 	 -53.8439 	 33.6345 	 107.237 	 
C 	 -53.3231 	 36.2162 	 108.776 	 
H 	 -53.7003 	 37.1004 	 108.155 	 
H 	 -52.7148 	 36.4098 	 109.638 	 
C 	 -54.5978 	 35.5365 	 109.368 	 
H 	 -54.9271 	 36.0965 	 110.303 	 
H 	 -54.3513 	 34.4464 	 109.566 	 
C 	 -55.8108 	 35.633 	 108.404 	 
H 	 -56.0922 	 36.6241 	 108.162 	 
H 	 -56.701 	 35.2784 	 108.973 	 
H 	 -55.6566 	 34.9903 	 107.578 	 
H 	 -48.2872 	 38.4602 	 110.749 	 
H 	 -52.0467 	 32.5267 	 106.326 	 
*
