! wB97X-D3 SP def2-SVP
%pal
nprocs 16
end

* xyz 0 1
S 	 15.4965 	 -11.8216 	 79.4579 	 
C 	 17.0104 	 -11.2653 	 78.7327 	 
C 	 17.4694 	 -12.149 	 77.7501 	 
C 	 16.4519 	 -13.0681 	 77.3443 	 
C 	 15.2989 	 -12.9337 	 78.0886 	 
H 	 16.4759 	 -13.6377 	 76.373 	 
C 	 18.7524 	 -11.9792 	 77.0267 	 
H 	 19.4409 	 -12.8246 	 77.1106 	 
H 	 19.1235 	 -11.0833 	 77.3335 	 
C 	 18.5345 	 -11.6816 	 75.5321 	 
H 	 18.1247 	 -12.5795 	 75.0146 	 
H 	 17.8589 	 -10.8412 	 75.4578 	 
C 	 19.9297 	 -11.5668 	 74.7912 	 
H 	 20.5208 	 -10.8826 	 75.4207 	 
H 	 20.5597 	 -12.4575 	 74.793 	 
H 	 19.9169 	 -11.2591 	 73.7531 	 
S 	 13.4846 	 -14.6593 	 79.1599 	 
C 	 12.1404 	 -15.3115 	 78.2257 	 
C 	 12.2014 	 -14.8719 	 76.9126 	 
C 	 13.3964 	 -14.0861 	 76.6574 	 
C 	 14.0681 	 -13.7284 	 77.7975 	 
H 	 11.381 	 -15.1972 	 76.2867 	 
C 	 13.7051 	 -13.6273 	 75.2568 	 
H 	 12.9887 	 -14.0992 	 74.6439 	 
H 	 14.6105 	 -14.1241 	 75.0194 	 
C 	 13.7401 	 -12.1143 	 75.0029 	 
H 	 14.2662 	 -11.5793 	 75.7697 	 
H 	 12.7344 	 -11.7696 	 75.3096 	 
C 	 14.0899 	 -11.715 	 73.5603 	 
H 	 13.8948 	 -12.486 	 72.8327 	 
H 	 15.1645 	 -11.5271 	 73.4793 	 
H 	 13.5557 	 -10.8263 	 73.2368 	 
H 	 17.579 	 -10.5103 	 79.1063 	 
H 	 11.3816 	 -16.035 	 78.4913 	 
*
