! wB97X-D3 SP def2-SVP
%pal
nprocs 16
end

* xyz 0 1
S 	 -10.7118 	 64.1271 	 54.1391 	 
C 	 -10.969 	 62.4957 	 53.4673 	 
C 	 -11.3152 	 61.612 	 54.4725 	 
C 	 -11.413 	 62.2592 	 55.7065 	 
C 	 -11.1282 	 63.6201 	 55.7449 	 
H 	 -11.812 	 61.6674 	 56.4916 	 
C 	 -11.7883 	 60.2097 	 54.3248 	 
H 	 -12.7828 	 60.202 	 54.6574 	 
H 	 -11.199 	 59.4825 	 54.916 	 
C 	 -11.5938 	 59.5987 	 52.9473 	 
H 	 -12.0776 	 60.1149 	 52.1112 	 
H 	 -10.519 	 59.5171 	 52.742 	 
C 	 -12.1375 	 58.1904 	 52.8957 	 
H 	 -13.2116 	 58.3119 	 53.0746 	 
H 	 -12.1275 	 57.6575 	 51.9468 	 
H 	 -11.619 	 57.5194 	 53.5629 	 
S 	 -11.205 	 66.2555 	 56.7359 	 
C 	 -11.2214 	 66.6064 	 58.3887 	 
C 	 -11.0423 	 65.468 	 59.1427 	 
C 	 -10.9721 	 64.3026 	 58.2737 	 
C 	 -11.1548 	 64.5647 	 56.9145 	 
H 	 -10.9598 	 65.4706 	 60.224 	 
C 	 -10.7411 	 62.9141 	 58.7927 	 
H 	 -11.6432 	 62.1895 	 58.7419 	 
H 	 -10.5685 	 63.1645 	 59.8851 	 
C 	 -9.39034 	 62.2519 	 58.4564 	 
H 	 -8.66456 	 63.092 	 58.5641 	 
H 	 -9.37264 	 61.8958 	 57.4469 	 
C 	 -9.06804 	 61.2057 	 59.4198 	 
H 	 -8.70391 	 61.6492 	 60.2832 	 
H 	 -8.26252 	 60.5737 	 59.0036 	 
H 	 -9.95518 	 60.7035 	 59.7598 	 
H 	 -10.9671 	 62.2662 	 52.3825 	 
H 	 -11.3216 	 67.598 	 58.8277 	 
*
