! wB97X-D3 SP def2-SVP
%pal
nprocs 16
end

* xyz 0 1
S 	 45.6394 	 19.7754 	 86.6469 	 
C 	 43.9955 	 20.3905 	 86.7796 	 
C 	 43.1405 	 19.5586 	 86.121 	 
C 	 43.856 	 18.4174 	 85.5025 	 
C 	 45.1935 	 18.4607 	 85.6666 	 
H 	 43.3933 	 17.5931 	 84.9721 	 
C 	 41.6754 	 19.7779 	 85.8851 	 
H 	 41.129 	 19.9637 	 86.8205 	 
H 	 41.3588 	 18.7028 	 85.5844 	 
C 	 41.3446 	 20.7576 	 84.7327 	 
H 	 41.5583 	 21.8053 	 84.967 	 
H 	 42.0026 	 20.4226 	 83.93 	 
C 	 39.897 	 20.7446 	 84.229 	 
H 	 39.5962 	 19.7807 	 83.8512 	 
H 	 39.2543 	 21.0389 	 84.9987 	 
H 	 39.7427 	 21.4474 	 83.3977 	 
S 	 47.7174 	 17.1242 	 86.1239 	 
C 	 48.2716 	 15.9173 	 84.9344 	 
C 	 47.1935 	 15.6562 	 84.1102 	 
C 	 46.0905 	 16.4232 	 84.2537 	 
C 	 46.1803 	 17.3989 	 85.2569 	 
H 	 47.3939 	 14.8201 	 83.4543 	 
C 	 44.9587 	 16.212 	 83.2399 	 
H 	 45.3952 	 16.135 	 82.2783 	 
H 	 44.3396 	 17.1471 	 83.0433 	 
C 	 43.9913 	 14.9507 	 83.4001 	 
H 	 43.5142 	 14.9147 	 84.3856 	 
H 	 44.6245 	 14.05 	 83.4638 	 
C 	 42.9644 	 14.7949 	 82.2916 	 
H 	 42.3752 	 15.7175 	 82.268 	 
H 	 42.4352 	 13.9138 	 82.4422 	 
H 	 43.4736 	 14.6563 	 81.3657 	 
H 	 43.7074 	 21.35 	 87.1883 	 
H 	 49.2812 	 15.4877 	 84.8547 	 
*
