! wB97X-D3 SP def2-SVP
%pal
nprocs 16
end

* xyz 0 1
S 	 -45.7297 	 28.6844 	 90.3501 	 
C 	 -45.5551 	 28.6358 	 92.0653 	 
C 	 -46.2022 	 29.6986 	 92.6346 	 
C 	 -46.9276 	 30.5178 	 91.711 	 
C 	 -46.6411 	 30.1919 	 90.3898 	 
H 	 -47.6124 	 31.3857 	 91.8656 	 
C 	 -46.2648 	 29.8552 	 94.0788 	 
H 	 -47.1567 	 29.238 	 94.317 	 
H 	 -46.4893 	 30.898 	 94.1872 	 
C 	 -45.0298 	 29.4821 	 94.8962 	 
H 	 -45.1705 	 28.4587 	 95.1805 	 
H 	 -44.1624 	 29.6392 	 94.3485 	 
C 	 -44.9506 	 30.3164 	 96.144 	 
H 	 -44.3106 	 29.9173 	 96.9478 	 
H 	 -44.6799 	 31.4044 	 95.9143 	 
H 	 -45.9268 	 30.4348 	 96.5905 	 
S 	 -48.3537 	 30.5139 	 88.1494 	 
C 	 -47.9926 	 31.8228 	 87.1117 	 
C 	 -47.1176 	 32.6919 	 87.6553 	 
C 	 -46.3457 	 32.1073 	 88.6946 	 
C 	 -46.9127 	 30.9202 	 89.1749 	 
H 	 -47.0063 	 33.6692 	 87.2589 	 
C 	 -45.2646 	 32.7964 	 89.496 	 
H 	 -44.6823 	 33.3693 	 88.7664 	 
H 	 -44.5011 	 32.1145 	 89.8071 	 
C 	 -45.6948 	 33.6009 	 90.7301 	 
H 	 -44.8069 	 34.2209 	 91.1592 	 
H 	 -46.0376 	 32.8699 	 91.5205 	 
C 	 -46.765 	 34.6029 	 90.2969 	 
H 	 -46.3616 	 35.4327 	 89.744 	 
H 	 -47.1611 	 35.1136 	 91.2028 	 
H 	 -47.5777 	 34.1005 	 89.8635 	 
H 	 -45.2195 	 27.755 	 92.6842 	 
H 	 -48.6054 	 31.9316 	 86.2208 	 
*
