! wB97X-D3 SP def2-SVP
%pal
nprocs 16
end

* xyz 0 1
S 	 60.7359 	 21.3363 	 81.4636 	 
C 	 60.5891 	 21.6031 	 83.249 	 
C 	 60.07 	 20.4318 	 83.7632 	 
C 	 59.6477 	 19.4511 	 82.8106 	 
C 	 59.851 	 19.8298 	 81.4993 	 
H 	 59.1993 	 18.4946 	 83.0382 	 
C 	 59.8596 	 20.0221 	 85.2042 	 
H 	 60.7917 	 19.6222 	 85.6077 	 
H 	 59.1169 	 19.1469 	 85.1686 	 
C 	 59.2716 	 21.1591 	 86.0974 	 
H 	 59.2923 	 20.9286 	 87.1746 	 
H 	 59.9188 	 22.0184 	 85.9283 	 
C 	 57.7622 	 21.4318 	 85.7058 	 
H 	 57.0559 	 20.6928 	 85.9731 	 
H 	 57.3768 	 22.3111 	 86.2515 	 
H 	 57.6774 	 21.6197 	 84.6654 	 
S 	 60.8957 	 18.7704 	 79.122 	 
C 	 59.9284 	 17.7976 	 78.1285 	 
C 	 58.6562 	 17.7047 	 78.5717 	 
C 	 58.5046 	 18.3872 	 79.8675 	 
C 	 59.6233 	 19.0071 	 80.2476 	 
H 	 57.8659 	 17.0589 	 78.1371 	 
C 	 57.2064 	 18.3595 	 80.5836 	 
H 	 56.5015 	 18.5065 	 79.8028 	 
H 	 57.1522 	 19.2202 	 81.2808 	 
C 	 56.7876 	 17.0669 	 81.3458 	 
H 	 57.1548 	 17.0798 	 82.3722 	 
H 	 57.2365 	 16.2191 	 80.8377 	 
C 	 55.2323 	 16.9205 	 81.3766 	 
H 	 55.045 	 15.9949 	 81.981 	 
H 	 54.7537 	 16.9005 	 80.3482 	 
H 	 54.7942 	 17.7913 	 81.9329 	 
H 	 61.0394 	 22.4637 	 83.7063 	 
H 	 60.2502 	 17.4762 	 77.1396 	 
*
