! wB97X-D3 SP def2-SVP
%pal
nprocs 16
end

* xyz 0 1
S 	 -98.4657 	 43.2424 	 120.053 	 
C 	 -98.3089 	 44.4214 	 121.343 	 
C 	 -97.11 	 45.0814 	 121.31 	 
C 	 -96.3372 	 44.7117 	 120.181 	 
C 	 -96.9506 	 43.7618 	 119.351 	 
H 	 -95.3701 	 45.1298 	 119.908 	 
C 	 -96.7537 	 46.3075 	 122.21 	 
H 	 -96.8039 	 47.2587 	 121.643 	 
H 	 -95.7209 	 46.1571 	 122.618 	 
C 	 -97.7127 	 46.6237 	 123.398 	 
H 	 -98.5795 	 46.9781 	 122.912 	 
H 	 -97.9522 	 45.844 	 124.028 	 
C 	 -97.2153 	 47.7509 	 124.25 	 
H 	 -98.0228 	 47.9283 	 124.996 	 
H 	 -96.2557 	 47.5202 	 124.819 	 
H 	 -97.0435 	 48.6744 	 123.747 	 
S 	 -95.8135 	 41.4454 	 118.314 	 
C 	 -95.4119 	 41.3849 	 116.615 	 
C 	 -95.5641 	 42.5937 	 116.034 	 
C 	 -96.0935 	 43.557 	 116.911 	 
C 	 -96.3608 	 43.0809 	 118.157 	 
H 	 -95.4241 	 42.7904 	 115.001 	 
C 	 -96.3523 	 45.003 	 116.468 	 
H 	 -97.2995 	 45.4145 	 116.958 	 
H 	 -96.4312 	 44.9404 	 115.376 	 
C 	 -95.1683 	 45.9994 	 116.794 	 
H 	 -95.2316 	 46.2394 	 117.788 	 
H 	 -95.2526 	 46.988 	 116.302 	 
C 	 -93.7926 	 45.4371 	 116.532 	 
H 	 -93.0262 	 46.1935 	 116.535 	 
H 	 -93.7612 	 45.0719 	 115.507 	 
H 	 -93.538 	 44.6033 	 117.16 	 
H 	 -99.0073 	 44.6159 	 122.108 	 
H 	 -95.017 	 40.4971 	 116.163 	 
*
