! wB97X-D3 SP def2-SVP
%pal
nprocs 16
end

* xyz 0 1
S 	 -37.1149 	 36.6945 	 82.4428 	 
C 	 -35.9632 	 36.7124 	 81.1246 	 
C 	 -36.6152 	 36.7177 	 79.858 	 
C 	 -38.0437 	 36.6868 	 80.0163 	 
C 	 -38.4611 	 36.7237 	 81.3217 	 
H 	 -38.7833 	 36.7127 	 79.2506 	 
C 	 -35.9 	 36.9638 	 78.5127 	 
H 	 -35.9801 	 36.0085 	 77.9663 	 
H 	 -34.871 	 37.007 	 78.6986 	 
C 	 -36.3611 	 38.1454 	 77.6574 	 
H 	 -37.3642 	 37.8392 	 77.3792 	 
H 	 -36.4261 	 39.0041 	 78.2886 	 
C 	 -35.6992 	 38.3802 	 76.2522 	 
H 	 -34.6435 	 38.6333 	 76.2587 	 
H 	 -35.91 	 37.5056 	 75.6003 	 
H 	 -36.1159 	 39.279 	 75.8056 	 
S 	 -40.2553 	 38.4074 	 82.3735 	 
C 	 -41.8865 	 37.8863 	 82.7789 	 
C 	 -42.0725 	 36.6042 	 82.3821 	 
C 	 -40.9578 	 36.0233 	 81.7745 	 
C 	 -39.8138 	 36.8406 	 81.841 	 
H 	 -42.9902 	 36.0812 	 82.7267 	 
C 	 -41.0286 	 34.5526 	 81.3879 	 
H 	 -40.6712 	 34.5604 	 80.3184 	 
H 	 -42.1058 	 34.2539 	 81.3325 	 
C 	 -40.209 	 33.6179 	 82.3141 	 
H 	 -40.4629 	 33.714 	 83.3994 	 
H 	 -39.1931 	 33.8549 	 82.2373 	 
C 	 -40.4202 	 32.1423 	 81.8718 	 
H 	 -40.2276 	 31.9746 	 80.8047 	 
H 	 -41.4672 	 31.8362 	 82.0615 	 
H 	 -39.7084 	 31.4633 	 82.3596 	 
H 	 -34.8689 	 36.7781 	 81.262 	 
H 	 -42.5495 	 38.501 	 83.3138 	 
*
