! wB97X-D3 SP def2-SVP
%pal
nprocs 16
end

* xyz 0 1
S 	 6.72046 	 -5.47984 	 101.003 	 
C 	 6.00303 	 -4.88979 	 99.5485 	 
C 	 5.67813 	 -5.91419 	 98.7057 	 
C 	 5.90475 	 -7.26148 	 99.2344 	 
C 	 6.42102 	 -7.19199 	 100.499 	 
H 	 5.79429 	 -8.24958 	 98.7967 	 
C 	 4.88775 	 -5.6908 	 97.3801 	 
H 	 4.64743 	 -4.61042 	 97.1952 	 
H 	 3.90919 	 -6.09744 	 97.4997 	 
C 	 5.60065 	 -6.11681 	 96.1593 	 
H 	 6.44599 	 -5.52936 	 95.9604 	 
H 	 5.80289 	 -7.15024 	 96.3513 	 
C 	 4.73167 	 -6.0402 	 94.9155 	 
H 	 3.75058 	 -6.36041 	 95.2301 	 
H 	 4.46308 	 -4.97394 	 94.6981 	 
H 	 5.17089 	 -6.58558 	 94.0811 	 
S 	 5.76213 	 -9.28945 	 102.193 	 
C 	 7.07176 	 -10.3247 	 102.762 	 
C 	 8.27059 	 -9.96767 	 102.261 	 
C 	 8.26282 	 -8.76773 	 101.418 	 
C 	 6.96435 	 -8.26325 	 101.325 	 
H 	 9.09335 	 -10.6088 	 102.51 	 
C 	 9.4937 	 -8.3612 	 100.737 	 
H 	 9.17992 	 -7.87784 	 99.756 	 
H 	 10.087 	 -9.18433 	 100.481 	 
C 	 10.3591 	 -7.39237 	 101.537 	 
H 	 10.6348 	 -7.76539 	 102.507 	 
H 	 9.66027 	 -6.52604 	 101.706 	 
C 	 11.6689 	 -6.90002 	 100.81 	 
H 	 12.0505 	 -6.05062 	 101.323 	 
H 	 11.521 	 -6.66121 	 99.7489 	 
H 	 12.3282 	 -7.70475 	 100.855 	 
H 	 5.85772 	 -3.82531 	 99.505 	 
H 	 6.95602 	 -11.1749 	 103.436 	 
*
