! wB97X-D3 SP def2-SVP
%pal
nprocs 16
end

* xyz 0 1
S 	 -102.04 	 42.6182 	 122.125 	 
C 	 -103.315 	 43.2479 	 123.087 	 
C 	 -103.292 	 44.645 	 123.088 	 
C 	 -102.299 	 45.1763 	 122.195 	 
C 	 -101.547 	 44.1955 	 121.578 	 
H 	 -102.061 	 46.1778 	 121.919 	 
C 	 -104.205 	 45.5526 	 123.979 	 
H 	 -103.6 	 46.3782 	 124.398 	 
H 	 -104.491 	 44.9706 	 124.865 	 
C 	 -105.447 	 45.9886 	 123.265 	 
H 	 -105.301 	 47.0031 	 122.854 	 
H 	 -105.597 	 45.3667 	 122.298 	 
C 	 -106.755 	 45.9836 	 124.057 	 
H 	 -107.535 	 46.476 	 123.492 	 
H 	 -107.045 	 44.93 	 124.301 	 
H 	 -106.456 	 46.5296 	 124.933 	 
S 	 -99.1036 	 45.3311 	 121.457 	 
C 	 -98.2264 	 45.3224 	 119.961 	 
C 	 -98.9069 	 44.6827 	 118.974 	 
C 	 -100.234 	 44.3095 	 119.356 	 
C 	 -100.411 	 44.445 	 120.711 	 
H 	 -98.4265 	 44.5778 	 117.939 	 
C 	 -101.313 	 43.8076 	 118.42 	 
H 	 -102.327 	 43.6495 	 118.857 	 
H 	 -100.989 	 42.7884 	 118.116 	 
C 	 -101.525 	 44.6934 	 117.214 	 
H 	 -102.124 	 44.2791 	 116.494 	 
H 	 -100.553 	 44.946 	 116.781 	 
C 	 -102.048 	 46.1094 	 117.585 	 
H 	 -101.335 	 46.7643 	 118.132 	 
H 	 -102.911 	 46.2031 	 118.228 	 
H 	 -102.35 	 46.5481 	 116.636 	 
H 	 -103.978 	 42.7282 	 123.718 	 
H 	 -97.1971 	 45.6252 	 119.872 	 
*
