! wB97X-D3 SP def2-SVP
%pal
nprocs 16
end

* xyz 0 1
S 	 5.52795 	 9.01824 	 83.0998 	 
C 	 6.68009 	 7.88958 	 82.4697 	 
C 	 7.11275 	 6.97936 	 83.4778 	 
C 	 6.51236 	 7.31861 	 84.7647 	 
C 	 5.76988 	 8.46646 	 84.7477 	 
H 	 6.68919 	 6.71512 	 85.6215 	 
C 	 7.97924 	 5.75694 	 83.2431 	 
H 	 7.40886 	 5.0237 	 82.5915 	 
H 	 8.04285 	 5.17666 	 84.2238 	 
C 	 9.31954 	 6.04268 	 82.6303 	 
H 	 9.18621 	 6.57461 	 81.6971 	 
H 	 9.89865 	 6.69156 	 83.275 	 
C 	 10.1577 	 4.78944 	 82.3225 	 
H 	 11.0683 	 5.0393 	 81.7867 	 
H 	 10.2812 	 4.27345 	 83.2628 	 
H 	 9.62766 	 4.03595 	 81.6957 	 
S 	 5.93099 	 10.9513 	 85.9818 	 
C 	 4.92587 	 11.1775 	 87.4051 	 
C 	 4.43118 	 9.99571 	 87.9995 	 
C 	 4.74731 	 8.83179 	 87.2036 	 
C 	 5.40218 	 9.21477 	 85.9716 	 
H 	 3.87441 	 10.0768 	 88.9438 	 
C 	 4.12955 	 7.47617 	 87.4639 	 
H 	 4.61982 	 6.77304 	 86.7907 	 
H 	 3.16929 	 7.50454 	 87.0402 	 
C 	 4.11641 	 7.14233 	 89.0151 	 
H 	 3.58845 	 6.18206 	 89.2182 	 
H 	 3.61653 	 7.93848 	 89.5967 	 
C 	 5.5526 	 6.95117 	 89.6505 	 
H 	 6.11424 	 6.30761 	 89.0296 	 
H 	 5.57304 	 6.57588 	 90.6793 	 
H 	 6.06912 	 7.87665 	 89.6 	 
H 	 7.1188 	 7.7704 	 81.4721 	 
H 	 4.98814 	 12.1373 	 87.9651 	 
*
