! wB97X-D3 SP def2-SVP
%pal
nprocs 16
end

* xyz 0 1
S 	 -13.7643 	 35.7977 	 37.7253 	 
C 	 -13.7384 	 37.3633 	 38.4629 	 
C 	 -14.7838 	 38.0853 	 37.8849 	 
C 	 -15.5179 	 37.3925 	 36.9064 	 
C 	 -15.1081 	 36.0848 	 36.6151 	 
H 	 -16.4659 	 37.8056 	 36.5129 	 
C 	 -15.1075 	 39.5309 	 38.0379 	 
H 	 -15.545 	 39.8761 	 37.0987 	 
H 	 -14.1961 	 40.0914 	 38.136 	 
C 	 -16.0943 	 39.8718 	 39.1134 	 
H 	 -15.573 	 39.5674 	 39.9777 	 
H 	 -16.3127 	 40.9326 	 39.0689 	 
C 	 -17.4924 	 39.2808 	 39.1259 	 
H 	 -18.1148 	 39.6272 	 38.2739 	 
H 	 -17.5044 	 38.2392 	 39.0606 	 
H 	 -17.9505 	 39.5281 	 40.1072 	 
S 	 -15.4113 	 33.4199 	 35.9745 	 
C 	 -16.5287 	 33.0211 	 34.7239 	 
C 	 -17.0822 	 34.1409 	 34.1525 	 
C 	 -16.6206 	 35.3965 	 34.7132 	 
C 	 -15.6962 	 35.1576 	 35.7311 	 
H 	 -17.8441 	 34.0105 	 33.376 	 
C 	 -17.2081 	 36.7118 	 34.2468 	 
H 	 -17.8351 	 37.0721 	 34.9993 	 
H 	 -17.9244 	 36.4128 	 33.5018 	 
C 	 -16.2596 	 37.8211 	 33.7185 	 
H 	 -15.7004 	 37.4647 	 32.8685 	 
H 	 -15.5369 	 38.104 	 34.5262 	 
C 	 -17.0493 	 39.0985 	 33.4321 	 
H 	 -16.4495 	 39.8913 	 32.8806 	 
H 	 -17.4979 	 39.5579 	 34.3263 	 
H 	 -17.9457 	 38.9981 	 32.783 	 
H 	 -12.9918 	 37.8414 	 39.0173 	 
H 	 -16.9301 	 32.0847 	 34.3196 	 
*
