! wB97X-D3 SP def2-SVP
%pal
nprocs 16
end

* xyz 0 1
S 	 22.899 	 -0.779644 	 85.643 	 
C 	 23.7945 	 0.69797 	 85.9903 	 
C 	 23.099 	 1.85555 	 85.5804 	 
C 	 21.7345 	 1.54558 	 85.3208 	 
C 	 21.4776 	 0.16091 	 85.2936 	 
H 	 20.9496 	 2.30855 	 85.0756 	 
C 	 23.6922 	 3.28948 	 85.6518 	 
H 	 23.4214 	 3.80212 	 84.8007 	 
H 	 24.7636 	 3.22748 	 85.5141 	 
C 	 23.5975 	 4.0852 	 86.9293 	 
H 	 22.5903 	 4.03118 	 87.2679 	 
H 	 24.0933 	 3.62223 	 87.7106 	 
C 	 24.0383 	 5.50731 	 86.7425 	 
H 	 25.1779 	 5.65505 	 86.6024 	 
H 	 23.5925 	 6.06237 	 85.8932 	 
H 	 23.7821 	 6.01236 	 87.6392 	 
S 	 19.2664 	 -0.965939 	 86.4309 	 
C 	 17.9859 	 -1.57685 	 85.4033 	 
C 	 18.2222 	 -1.24032 	 84.0605 	 
C 	 19.4958 	 -0.589723 	 83.8898 	 
C 	 20.1981 	 -0.483657 	 85.0418 	 
H 	 17.5055 	 -1.43949 	 83.341 	 
C 	 19.901 	 0.0674392 	 82.5154 	 
H 	 20.1011 	 1.08568 	 82.7104 	 
H 	 19.0317 	 0.0711799 	 81.8051 	 
C 	 20.9679 	 -0.656882 	 81.7207 	 
H 	 20.694 	 -1.70477 	 81.3083 	 
H 	 21.7969 	 -0.858713 	 82.38 	 
C 	 21.7091 	 0.238302 	 80.6821 	 
H 	 22.3864 	 -0.371638 	 80.0649 	 
H 	 22.2148 	 1.1072 	 81.0713 	 
H 	 21.0033 	 0.738684 	 80.0564 	 
H 	 24.8695 	 0.719556 	 86.2495 	 
H 	 17.1084 	 -2.10919 	 85.6906 	 
*
