! wB97X-D3 SP def2-SVP
%pal
nprocs 16
end

* xyz 0 1
S 	 -103.83 	 47.4846 	 119.124 	 
C 	 -104.137 	 48.7594 	 120.256 	 
C 	 -103.9 	 48.396 	 121.573 	 
C 	 -103.381 	 47.0603 	 121.646 	 
C 	 -103.307 	 46.4334 	 120.405 	 
H 	 -103.095 	 46.4527 	 122.537 	 
C 	 -104.233 	 49.311 	 122.784 	 
H 	 -105.231 	 49.0424 	 123.145 	 
H 	 -104.402 	 50.3437 	 122.46 	 
C 	 -103.197 	 49.3385 	 123.921 	 
H 	 -103.627 	 49.6753 	 124.88 	 
H 	 -102.697 	 48.3722 	 124.153 	 
C 	 -102.067 	 50.3115 	 123.606 	 
H 	 -101.203 	 50.3172 	 124.227 	 
H 	 -101.664 	 50.0719 	 122.62 	 
H 	 -102.423 	 51.2716 	 123.499 	 
S 	 -104.108 	 43.902 	 119.589 	 
C 	 -102.988 	 42.659 	 119.821 	 
C 	 -101.795 	 43.0187 	 120.328 	 
C 	 -101.731 	 44.4015 	 120.532 	 
C 	 -102.944 	 45.0648 	 120.163 	 
H 	 -100.923 	 42.3576 	 120.458 	 
C 	 -100.48 	 45.1033 	 121.145 	 
H 	 -100.562 	 44.9987 	 122.185 	 
H 	 -100.483 	 46.1421 	 120.806 	 
C 	 -99.1212 	 44.5952 	 120.588 	 
H 	 -99.1153 	 44.556 	 119.491 	 
H 	 -99.0655 	 43.557 	 120.787 	 
C 	 -97.9125 	 45.3758 	 121.07 	 
H 	 -97.7028 	 45.0041 	 122.064 	 
H 	 -97.9721 	 46.4775 	 121.081 	 
H 	 -97.0773 	 45.1456 	 120.443 	 
H 	 -104.529 	 49.7179 	 119.894 	 
H 	 -103.198 	 41.6493 	 119.643 	 
*
