! wB97X-D3 SP def2-SVP
%pal
nprocs 16
end

* xyz 0 1
S 	 6.36432 	 -6.84418 	 80.8493 	 
C 	 6.53036 	 -7.12921 	 82.567 	 
C 	 5.35714 	 -6.79602 	 83.183 	 
C 	 4.36727 	 -6.34722 	 82.3441 	 
C 	 4.67676 	 -6.43498 	 80.9841 	 
H 	 3.42949 	 -5.95577 	 82.601 	 
C 	 5.10478 	 -6.90293 	 84.688 	 
H 	 4.41791 	 -6.07493 	 85.0449 	 
H 	 5.97986 	 -6.5962 	 85.1612 	 
C 	 4.58139 	 -8.21624 	 85.2508 	 
H 	 4.49712 	 -8.07439 	 86.3154 	 
H 	 3.53948 	 -8.37107 	 84.8671 	 
C 	 5.41014 	 -9.39343 	 84.956 	 
H 	 5.01473 	 -10.1213 	 85.6065 	 
H 	 5.28904 	 -9.62712 	 83.8992 	 
H 	 6.41756 	 -9.20495 	 85.0651 	 
S 	 4.8617 	 -5.3811 	 78.4488 	 
C 	 3.43672 	 -5.04636 	 77.6013 	 
C 	 2.32828 	 -5.38141 	 78.3847 	 
C 	 2.57432 	 -6.06203 	 79.5988 	 
C 	 3.94421 	 -6.04731 	 79.7897 	 
H 	 1.30936 	 -5.07117 	 77.9854 	 
C 	 1.48605 	 -6.51214 	 80.5604 	 
H 	 1.23164 	 -5.5873 	 81.1645 	 
H 	 1.96906 	 -7.11888 	 81.279 	 
C 	 0.291941 	 -7.16722 	 79.9397 	 
H 	 -0.224072 	 -6.57181 	 79.2636 	 
H 	 -0.417985 	 -7.21076 	 80.7947 	 
C 	 0.60507 	 -8.60078 	 79.3495 	 
H 	 1.60145 	 -8.6593 	 78.9972 	 
H 	 -0.0904393 	 -8.96939 	 78.5462 	 
H 	 0.522521 	 -9.396 	 80.1129 	 
H 	 7.37162 	 -7.6686 	 82.9527 	 
H 	 3.27348 	 -4.51175 	 76.6683 	 
*
