! wB97X-D3 SP def2-SVP
%pal
nprocs 16
end

* xyz 0 1
S 	 7.37631 	 25.025 	 60.9962 	 
C 	 7.44593 	 25.169 	 59.2568 	 
C 	 6.346 	 24.596 	 58.6068 	 
C 	 5.53114 	 23.8896 	 59.5799 	 
C 	 5.90208 	 24.0609 	 60.9261 	 
H 	 4.72762 	 23.1477 	 59.3501 	 
C 	 6.24666 	 24.481 	 57.0589 	 
H 	 5.9094 	 25.4039 	 56.5604 	 
H 	 5.47228 	 23.7533 	 56.8475 	 
C 	 7.4942 	 23.8184 	 56.3921 	 
H 	 7.46996 	 23.9879 	 55.2991 	 
H 	 8.34925 	 24.3123 	 56.8266 	 
C 	 7.62287 	 22.3308 	 56.6746 	 
H 	 8.3291 	 21.9194 	 55.9424 	 
H 	 8.0907 	 21.9711 	 57.5663 	 
H 	 6.64451 	 21.7854 	 56.5314 	 
S 	 6.51706 	 22.5976 	 63.033 	 
C 	 5.26246 	 21.986 	 64.0658 	 
C 	 3.99885 	 22.2411 	 63.6078 	 
C 	 4.03616 	 22.9372 	 62.3988 	 
C 	 5.31292 	 23.3709 	 62.0542 	 
H 	 3.07633 	 21.7599 	 64.0475 	 
C 	 2.73216 	 23.3672 	 61.7979 	 
H 	 2.8857 	 24.1078 	 60.9772 	 
H 	 2.19717 	 24.0407 	 62.5132 	 
C 	 1.7471 	 22.3473 	 61.2325 	 
H 	 0.925547 	 22.7971 	 60.7555 	 
H 	 1.37386 	 21.7441 	 62.0685 	 
C 	 2.39959 	 21.45 	 60.1712 	 
H 	 1.58368 	 20.7567 	 59.8096 	 
H 	 3.15627 	 20.8556 	 60.6928 	 
H 	 2.79253 	 22.0712 	 59.3867 	 
H 	 8.17888 	 25.6189 	 58.6204 	 
H 	 5.41478 	 21.423 	 64.9256 	 
*
