! wB97X-D3 SP def2-SVP
%pal
nprocs 16
end

* xyz 0 1
S 	 -48.1904 	 63.739 	 132.056 	 
C 	 -46.785 	 64.7754 	 132.179 	 
C 	 -46.0617 	 64.7536 	 130.987 	 
C 	 -46.6559 	 63.8129 	 130.049 	 
C 	 -47.7124 	 63.1368 	 130.472 	 
H 	 -46.2954 	 63.6376 	 129.107 	 
C 	 -44.8844 	 65.5921 	 130.734 	 
H 	 -44.9871 	 66.3828 	 131.521 	 
H 	 -45.0109 	 65.9698 	 129.709 	 
C 	 -43.5178 	 64.7634 	 130.946 	 
H 	 -43.5141 	 64.2269 	 131.902 	 
H 	 -43.3618 	 64.0145 	 130.13 	 
C 	 -42.2749 	 65.6362 	 130.953 	 
H 	 -42.1027 	 65.8895 	 129.96 	 
H 	 -42.3545 	 66.6104 	 131.506 	 
H 	 -41.4737 	 65.0208 	 131.367 	 
S 	 -50.1281 	 62.0349 	 129.847 	 
C 	 -50.1976 	 60.5153 	 128.972 	 
C 	 -48.8893 	 60.227 	 128.551 	 
C 	 -47.8598 	 61.0673 	 128.994 	 
C 	 -48.3916 	 62.0646 	 129.783 	 
H 	 -48.6751 	 59.3435 	 127.998 	 
C 	 -46.412 	 60.7737 	 128.605 	 
H 	 -46.2806 	 61.6098 	 127.889 	 
H 	 -46.5012 	 59.8612 	 128.004 	 
C 	 -45.3432 	 60.5859 	 129.677 	 
H 	 -45.4814 	 59.6246 	 130.254 	 
H 	 -45.4182 	 61.3838 	 130.365 	 
C 	 -43.9301 	 60.6194 	 129.196 	 
H 	 -43.2387 	 60.3865 	 129.893 	 
H 	 -43.7002 	 61.6446 	 128.915 	 
H 	 -43.8072 	 59.9254 	 128.374 	 
H 	 -46.649 	 65.3842 	 133.034 	 
H 	 -51.1203 	 60.0355 	 128.604 	 
*
