! wB97X-D3 SP def2-SVP
%pal
nprocs 16
end

* xyz 0 1
S 	 54.5066 	 27.8739 	 41.9124 	 
C 	 56.0643 	 28.556 	 42.3459 	 
C 	 56.8722 	 27.62 	 42.9996 	 
C 	 56.2331 	 26.3952 	 43.1066 	 
C 	 54.9347 	 26.3185 	 42.5406 	 
H 	 56.6148 	 25.4728 	 43.508 	 
C 	 58.2833 	 27.8082 	 43.457 	 
H 	 58.8418 	 28.5663 	 42.8706 	 
H 	 58.7897 	 26.8351 	 43.3835 	 
C 	 58.4065 	 28.2701 	 44.9109 	 
H 	 59.522 	 28.3683 	 45.0757 	 
H 	 57.9425 	 29.2551 	 45.0294 	 
C 	 57.8221 	 27.2621 	 45.9552 	 
H 	 56.7805 	 27.5269 	 46.169 	 
H 	 57.8279 	 26.2761 	 45.4733 	 
H 	 58.3848 	 27.3159 	 46.8532 	 
S 	 52.4848 	 25.3367 	 43.2186 	 
C 	 52.1836 	 23.6673 	 42.9029 	 
C 	 53.1577 	 23.0887 	 42.1101 	 
C 	 54.2958 	 23.9297 	 41.9741 	 
C 	 54.0769 	 25.1765 	 42.491 	 
H 	 53.0046 	 22.0077 	 41.9826 	 
C 	 55.558 	 23.4425 	 41.1053 	 
H 	 56.2051 	 24.3198 	 40.8602 	 
H 	 55.2833 	 23.0634 	 40.1899 	 
C 	 56.4504 	 22.4124 	 41.7926 	 
H 	 55.8643 	 21.6026 	 41.8906 	 
H 	 56.6538 	 22.7088 	 42.8024 	 
C 	 57.7815 	 22.1365 	 41.0475 	 
H 	 57.5207 	 21.835 	 39.9694 	 
H 	 58.366 	 21.4557 	 41.6139 	 
H 	 58.4286 	 23.0321 	 40.9701 	 
H 	 56.4159 	 29.5349 	 42.2039 	 
H 	 51.2567 	 23.1614 	 43.1578 	 
*
