! wB97X-D3 SP def2-SVP
%pal
nprocs 16
end

* xyz 0 1
S 	 -48.7764 	 6.27851 	 86.1404 	 
C 	 -48.0881 	 6.45699 	 87.7456 	 
C 	 -48.8439 	 7.16339 	 88.6526 	 
C 	 -50.0813 	 7.45873 	 88.0884 	 
C 	 -50.2604 	 6.9567 	 86.7821 	 
H 	 -50.8316 	 8.12453 	 88.5107 	 
C 	 -48.4373 	 7.47215 	 90.125 	 
H 	 -47.5841 	 6.86707 	 90.2716 	 
H 	 -49.1604 	 7.07721 	 90.8406 	 
C 	 -48.0374 	 8.92708 	 90.3667 	 
H 	 -47.3853 	 8.79111 	 91.2169 	 
H 	 -47.3852 	 9.2707 	 89.6598 	 
C 	 -49.1638 	 9.97989 	 90.826 	 
H 	 -48.6979 	 10.9511 	 91.0564 	 
H 	 -49.906 	 10.1932 	 90.0373 	 
H 	 -49.7297 	 9.83951 	 91.7827 	 
S 	 -51.286 	 7.48596 	 84.139 	 
C 	 -53.0485 	 7.77713 	 83.9016 	 
C 	 -53.6475 	 7.53759 	 85.094 	 
C 	 -52.7614 	 7.27937 	 86.2384 	 
C 	 -51.4362 	 7.19658 	 85.9177 	 
H 	 -54.6886 	 7.70548 	 85.3197 	 
C 	 -53.4319 	 7.00726 	 87.5747 	 
H 	 -52.843 	 6.33176 	 88.2671 	 
H 	 -54.3915 	 6.49259 	 87.3064 	 
C 	 -53.6574 	 8.23861 	 88.4561 	 
H 	 -54.4646 	 8.76483 	 87.9402 	 
H 	 -52.7442 	 8.86413 	 88.5663 	 
C 	 -54.0774 	 7.91697 	 89.9279 	 
H 	 -54.8626 	 7.19474 	 89.8319 	 
H 	 -54.3152 	 8.81794 	 90.5531 	 
H 	 -53.2864 	 7.41178 	 90.3917 	 
H 	 -47.0104 	 6.27445 	 87.9611 	 
H 	 -53.6178 	 8.1289 	 83.0308 	 
*
