! wB97X-D3 SP def2-SVP
%pal
nprocs 16
end

* xyz 0 1
S 	 -52.3491 	 36.0818 	 88.5381 	 
C 	 -51.9381 	 34.6145 	 87.6688 	 
C 	 -53.069 	 34.0801 	 87.0396 	 
C 	 -54.2297 	 34.9053 	 87.2076 	 
C 	 -54.0312 	 35.9443 	 88.1083 	 
H 	 -55.1949 	 34.7695 	 86.732 	 
C 	 -53.0711 	 32.8437 	 86.1748 	 
H 	 -54.124 	 32.4165 	 86.0172 	 
H 	 -52.5449 	 32.0203 	 86.6778 	 
C 	 -52.4882 	 33.1232 	 84.7807 	 
H 	 -51.5352 	 33.7107 	 84.8836 	 
H 	 -52.2734 	 32.1898 	 84.1928 	 
C 	 -53.4486 	 33.9562 	 83.87 	 
H 	 -52.9268 	 34.3943 	 83.0263 	 
H 	 -54.1421 	 33.271 	 83.3398 	 
H 	 -54.1337 	 34.6876 	 84.3118 	 
S 	 -54.6496 	 38.4999 	 87.4756 	 
C 	 -56.2606 	 39.0539 	 87.886 	 
C 	 -56.954 	 38.1791 	 88.5867 	 
C 	 -56.2011 	 36.9848 	 88.7784 	 
C 	 -54.9254 	 37.0316 	 88.3753 	 
H 	 -57.9731 	 38.463 	 88.8678 	 
C 	 -56.8447 	 35.697 	 89.323 	 
H 	 -56.3475 	 34.7927 	 88.9674 	 
H 	 -57.7204 	 35.6089 	 88.7241 	 
C 	 -57.1677 	 35.6973 	 90.824 	 
H 	 -58.1687 	 36.0635 	 91.0184 	 
H 	 -56.608 	 36.4091 	 91.4465 	 
C 	 -57.1602 	 34.3364 	 91.4191 	 
H 	 -56.1126 	 34.1345 	 91.5669 	 
H 	 -57.5542 	 33.4574 	 90.9268 	 
H 	 -57.5777 	 34.4425 	 92.4186 	 
H 	 -51.037 	 34.01 	 87.7085 	 
H 	 -56.6004 	 40.0731 	 87.5881 	 
*
