! wB97X-D3 SP def2-SVP
%pal
nprocs 16
end

* xyz 0 1
S 	 -8.36642 	 59.2048 	 57.0514 	 
C 	 -7.57261 	 58.8288 	 58.5535 	 
C 	 -7.30357 	 59.9559 	 59.2665 	 
C 	 -7.60123 	 61.1625 	 58.6507 	 
C 	 -8.15379 	 60.9336 	 57.4168 	 
H 	 -7.46365 	 62.1569 	 58.9396 	 
C 	 -6.61001 	 59.9292 	 60.6069 	 
H 	 -5.46542 	 60.0319 	 60.4811 	 
H 	 -6.76278 	 58.9682 	 61.169 	 
C 	 -6.9329 	 61.1467 	 61.5054 	 
H 	 -6.73372 	 62.1469 	 61.0453 	 
H 	 -7.96849 	 61.0696 	 61.5429 	 
C 	 -6.45701 	 60.9052 	 62.9791 	 
H 	 -6.87038 	 61.6019 	 63.7075 	 
H 	 -6.61038 	 59.9 	 63.4362 	 
H 	 -5.43178 	 61.1944 	 62.9305 	 
S 	 -10.0165 	 61.4566 	 55.4915 	 
C 	 -10.0536 	 62.9826 	 54.7093 	 
C 	 -9.1008 	 63.8373 	 55.1983 	 
C 	 -8.23615 	 63.1742 	 56.1072 	 
C 	 -8.61132 	 61.9102 	 56.4516 	 
H 	 -9.02484 	 64.8452 	 54.8461 	 
C 	 -6.97532 	 63.9084 	 56.5453 	 
H 	 -6.4056 	 63.2985 	 57.1814 	 
H 	 -7.21213 	 64.9018 	 57.0243 	 
C 	 -6.10596 	 64.2782 	 55.2695 	 
H 	 -6.58429 	 65.1793 	 54.7239 	 
H 	 -5.9451 	 63.4146 	 54.6152 	 
C 	 -4.73651 	 64.7404 	 55.7056 	 
H 	 -4.79471 	 65.5885 	 56.3579 	 
H 	 -4.2734 	 64.9661 	 54.7736 	 
H 	 -4.12603 	 63.9278 	 56.1086 	 
H 	 -7.30473 	 57.7762 	 58.7676 	 
H 	 -10.9378 	 63.2384 	 54.1023 	 
*
