! wB97X-D3 SP def2-SVP
%pal
nprocs 16
end

* xyz 0 1
S 	 -13.7308 	 76.7483 	 54.5589 	 
C 	 -15.2567 	 77.0268 	 53.8552 	 
C 	 -16.1756 	 75.9699 	 54.0071 	 
C 	 -15.5573 	 74.8771 	 54.7482 	 
C 	 -14.1849 	 75.113 	 54.9838 	 
H 	 -15.955 	 73.944 	 55.0223 	 
C 	 -17.6066 	 76.022 	 53.7529 	 
H 	 -17.8806 	 75.1315 	 53.331 	 
H 	 -17.9397 	 76.7398 	 52.9981 	 
C 	 -18.4262 	 76.2373 	 55.056 	 
H 	 -18.3288 	 75.3485 	 55.7139 	 
H 	 -17.8975 	 77.0519 	 55.6263 	 
C 	 -19.9267 	 76.4692 	 54.8197 	 
H 	 -20.0488 	 77.3485 	 54.1693 	 
H 	 -20.2518 	 75.6786 	 54.1282 	 
H 	 -20.4121 	 76.3999 	 55.7798 	 
S 	 -12.4879 	 74.9267 	 57.1806 	 
C 	 -11.5669 	 73.4868 	 57.2672 	 
C 	 -11.6603 	 72.7232 	 56.1121 	 
C 	 -12.6526 	 73.1175 	 55.1884 	 
C 	 -13.1753 	 74.3199 	 55.61 	 
H 	 -11.0505 	 71.817 	 56.0879 	 
C 	 -13.0823 	 72.2499 	 54.0505 	 
H 	 -13.265 	 72.8832 	 53.1471 	 
H 	 -14.1564 	 72.0529 	 54.3116 	 
C 	 -12.3382 	 70.9349 	 53.7207 	 
H 	 -12.224 	 70.3311 	 54.5414 	 
H 	 -11.3402 	 71.2436 	 53.3287 	 
C 	 -12.9259 	 70.0356 	 52.6853 	 
H 	 -12.2279 	 69.3042 	 52.3414 	 
H 	 -13.1884 	 70.6383 	 51.7872 	 
H 	 -13.8599 	 69.5822 	 52.944 	 
H 	 -15.588 	 78.0177 	 53.5902 	 
H 	 -11.0041 	 73.1845 	 58.1601 	 
*
