! wB97X-D3 SP def2-SVP
%pal
nprocs 16
end

* xyz 0 1
S 	 3.21514 	 -14.6769 	 50.2614 	 
C 	 1.71304 	 -15.2646 	 49.6163 	 
C 	 0.857049 	 -15.6863 	 50.5831 	 
C 	 1.369 	 -15.579 	 51.8912 	 
C 	 2.68544 	 -15.0685 	 51.928 	 
H 	 0.910501 	 -16.1289 	 52.6939 	 
C 	 -0.513838 	 -16.2543 	 50.3062 	 
H 	 -0.620711 	 -17.1926 	 50.794 	 
H 	 -0.495988 	 -16.4817 	 49.2552 	 
C 	 -1.73744 	 -15.3855 	 50.5416 	 
H 	 -2.49921 	 -15.8936 	 49.8492 	 
H 	 -2.11646 	 -15.3284 	 51.5046 	 
C 	 -1.62479 	 -13.9521 	 50.0362 	 
H 	 -1.18361 	 -13.8629 	 49.1073 	 
H 	 -2.60257 	 -13.4424 	 49.9736 	 
H 	 -0.979592 	 -13.3041 	 50.7285 	 
S 	 5.11989 	 -16.115 	 52.7746 	 
C 	 5.58945 	 -15.9361 	 54.4204 	 
C 	 4.75471 	 -15.1022 	 55.1231 	 
C 	 3.612 	 -14.7019 	 54.3204 	 
C 	 3.65564 	 -15.1473 	 53.0464 	 
H 	 4.95184 	 -14.8968 	 56.1616 	 
C 	 2.52177 	 -13.8353 	 54.8657 	 
H 	 2.75954 	 -13.794 	 55.8495 	 
H 	 1.67838 	 -14.5531 	 54.8065 	 
C 	 2.16743 	 -12.4828 	 54.3414 	 
H 	 2.10238 	 -12.6564 	 53.2544 	 
H 	 2.95467 	 -11.8347 	 54.5228 	 
C 	 0.808579 	 -11.9635 	 54.8215 	 
H 	 0.727192 	 -12.0903 	 55.8882 	 
H 	 -0.0478681 	 -12.4944 	 54.4319 	 
H 	 0.752355 	 -10.8639 	 54.5776 	 
H 	 1.53153 	 -15.1853 	 48.6074 	 
H 	 6.44922 	 -16.3414 	 54.7947 	 
*
