! wB97X-D3 SP def2-SVP
%pal
nprocs 16
end

* xyz 0 1
S 	 32.9818 	 -2.59138 	 67.4629 	 
C 	 31.9775 	 -1.09719 	 67.5639 	 
C 	 32.4694 	 -0.198714 	 68.5114 	 
C 	 33.5304 	 -0.729979 	 69.2335 	 
C 	 33.8867 	 -2.02362 	 68.8463 	 
H 	 34.137 	 -0.246939 	 69.9801 	 
C 	 31.8196 	 1.12259 	 68.9008 	 
H 	 32.0805 	 1.30427 	 69.9178 	 
H 	 30.7878 	 1.03617 	 68.731 	 
C 	 32.2654 	 2.39268 	 68.0525 	 
H 	 32.0349 	 2.21815 	 67.0166 	 
H 	 31.6744 	 3.24646 	 68.4154 	 
C 	 33.689 	 2.78747 	 68.2275 	 
H 	 33.9087 	 3.14026 	 69.2721 	 
H 	 34.2722 	 1.9873 	 67.8643 	 
H 	 33.8551 	 3.66732 	 67.6067 	 
S 	 34.0256 	 -4.11354 	 70.5727 	 
C 	 35.5283 	 -4.60743 	 71.2568 	 
C 	 36.6175 	 -3.80218 	 70.7692 	 
C 	 36.1132 	 -2.73415 	 69.8893 	 
C 	 34.7684 	 -2.86252 	 69.5828 	 
H 	 37.6987 	 -4.01798 	 71.0648 	 
C 	 36.9712 	 -1.73753 	 69.1209 	 
H 	 37.564 	 -1.24992 	 69.8582 	 
H 	 36.4595 	 -0.845906 	 68.7335 	 
C 	 37.8523 	 -2.34972 	 68.0699 	 
H 	 37.3858 	 -2.53124 	 67.1018 	 
H 	 38.4347 	 -3.21546 	 68.3243 	 
C 	 38.9341 	 -1.36008 	 67.6918 	 
H 	 39.3632 	 -1.59276 	 66.7172 	 
H 	 39.7687 	 -1.41366 	 68.3976 	 
H 	 38.5428 	 -0.381416 	 67.5382 	 
H 	 31.1975 	 -0.830317 	 66.9588 	 
H 	 35.6432 	 -5.39739 	 72.0113 	 
*
