! wB97X-D3 SP def2-SVP
%pal
nprocs 16
end

* xyz 0 1
S 	 -68.4348 	 51.6201 	 125.351 	 
C 	 -68.2087 	 52.9841 	 124.311 	 
C 	 -69.4773 	 53.4284 	 123.876 	 
C 	 -70.5575 	 52.5303 	 124.219 	 
C 	 -70.1278 	 51.4705 	 125.042 	 
H 	 -71.655 	 52.6012 	 123.885 	 
C 	 -69.7727 	 54.7053 	 123.106 	 
H 	 -69.2529 	 55.5617 	 123.645 	 
H 	 -70.8068 	 55.0486 	 123.161 	 
C 	 -69.3222 	 54.7008 	 121.691 	 
H 	 -68.2936 	 54.4786 	 121.863 	 
H 	 -69.6516 	 53.8306 	 121.073 	 
C 	 -69.3813 	 55.9949 	 120.904 	 
H 	 -70.349 	 56.4615 	 120.666 	 
H 	 -68.6847 	 56.7919 	 121.289 	 
H 	 -68.9328 	 55.8442 	 119.894 	 
S 	 -70.4316 	 48.6694 	 125.048 	 
C 	 -71.8419 	 48.0559 	 125.73 	 
C 	 -72.7361 	 49.0414 	 126.123 	 
C 	 -72.2249 	 50.3753 	 125.969 	 
C 	 -71.0092 	 50.3095 	 125.341 	 
H 	 -73.6989 	 48.7548 	 126.636 	 
C 	 -72.943 	 51.561 	 126.616 	 
H 	 -72.1928 	 52.3016 	 126.911 	 
H 	 -73.2126 	 51.1967 	 127.648 	 
C 	 -74.2013 	 52.202 	 126.034 	 
H 	 -74.7871 	 51.3659 	 125.809 	 
H 	 -73.9907 	 52.6407 	 125.036 	 
C 	 -75.0382 	 53.0697 	 126.995 	 
H 	 -75.54 	 52.575 	 127.778 	 
H 	 -75.8693 	 53.4087 	 126.444 	 
H 	 -74.5067 	 53.9723 	 127.317 	 
H 	 -67.2428 	 53.4307 	 124.084 	 
H 	 -72.2241 	 47.0277 	 125.818 	 
*
