! wB97X-D3 SP def2-SVP
%pal
nprocs 16
end

* xyz 0 1
S 	 -6.55797 	 76.2749 	 45.4685 	 
C 	 -6.23701 	 77.8914 	 46.0895 	 
C 	 -4.86278 	 78.1579 	 46.2087 	 
C 	 -4.10646 	 77.0464 	 45.7286 	 
C 	 -4.87734 	 75.9078 	 45.4748 	 
H 	 -3.00806 	 76.9276 	 45.6428 	 
C 	 -4.07227 	 79.3578 	 46.7432 	 
H 	 -4.72875 	 80.1427 	 47.0978 	 
H 	 -3.54692 	 79.7179 	 45.868 	 
C 	 -3.23762 	 79.0564 	 47.989 	 
H 	 -3.93782 	 78.7286 	 48.8018 	 
H 	 -2.46775 	 78.3179 	 47.7057 	 
C 	 -2.53924 	 80.3399 	 48.4149 	 
H 	 -3.16944 	 81.2398 	 48.6108 	 
H 	 -2.0903 	 80.1339 	 49.382 	 
H 	 -1.79166 	 80.5911 	 47.6534 	 
S 	 -2.96864 	 74.046 	 46.0534 	 
C 	 -3.08081 	 72.5033 	 45.2942 	 
C 	 -3.92861 	 72.5734 	 44.1716 	 
C 	 -4.52644 	 73.7964 	 43.9666 	 
C 	 -4.28663 	 74.6683 	 45.036 	 
H 	 -3.88062 	 71.7658 	 43.4884 	 
C 	 -5.44702 	 74.0761 	 42.7651 	 
H 	 -6.46933 	 74.5193 	 43.0665 	 
H 	 -5.60289 	 73.0634 	 42.4186 	 
C 	 -4.78126 	 74.8735 	 41.6519 	 
H 	 -3.75696 	 74.5689 	 41.6199 	 
H 	 -4.69025 	 75.8298 	 42.1782 	 
C 	 -5.52184 	 74.7736 	 40.3193 	 
H 	 -4.96549 	 75.4068 	 39.5669 	 
H 	 -6.58137 	 74.9577 	 40.4162 	 
H 	 -5.43324 	 73.7351 	 39.9377 	 
H 	 -6.99631 	 78.6505 	 46.3382 	 
H 	 -2.50632 	 71.6598 	 45.5815 	 
*
