! wB97X-D3 SP def2-SVP
%pal
nprocs 16
end

* xyz 0 1
S 	 2.73261 	 -2.48788 	 79.8197 	 
C 	 0.987415 	 -2.66356 	 79.8182 	 
C 	 0.375103 	 -1.50857 	 80.1386 	 
C 	 1.28474 	 -0.492599 	 80.5761 	 
C 	 2.59372 	 -0.854893 	 80.445 	 
H 	 1.1169 	 0.470375 	 80.9485 	 
C 	 -1.13054 	 -1.38011 	 80.335 	 
H 	 -1.30975 	 -0.782935 	 81.2603 	 
H 	 -1.59031 	 -2.39903 	 80.4583 	 
C 	 -1.73377 	 -0.46386 	 79.2509 	 
H 	 -2.65052 	 -0.0855267 	 79.5179 	 
H 	 -1.17749 	 0.448769 	 79.1025 	 
C 	 -1.91222 	 -1.01466 	 77.8627 	 
H 	 -2.46523 	 -1.92488 	 77.7544 	 
H 	 -2.18166 	 -0.244005 	 77.167 	 
H 	 -1.01655 	 -1.48217 	 77.4334 	 
S 	 4.94153 	 -0.607159 	 81.9236 	 
C 	 5.79732 	 0.894568 	 81.7597 	 
C 	 5.18389 	 1.86181 	 81.056 	 
C 	 3.99916 	 1.29375 	 80.4527 	 
C 	 3.77727 	 -0.0561844 	 80.7137 	 
H 	 5.43525 	 2.84984 	 81.0253 	 
C 	 3.20684 	 2.17744 	 79.5248 	 
H 	 2.30357 	 1.73599 	 79.1752 	 
H 	 3.71588 	 2.40368 	 78.5736 	 
C 	 2.8633 	 3.48447 	 80.1367 	 
H 	 2.49357 	 4.04164 	 79.3097 	 
H 	 3.79362 	 4.07382 	 80.4012 	 
C 	 1.84671 	 3.47893 	 81.3118 	 
H 	 1.82417 	 2.60043 	 81.9924 	 
H 	 0.899464 	 3.51294 	 80.9063 	 
H 	 1.96615 	 4.40094 	 81.9295 	 
H 	 0.482377 	 -3.5999 	 79.5373 	 
H 	 6.83559 	 1.08967 	 82.2384 	 
*
