! wB97X-D3 SP def2-SVP
%pal
nprocs 16
end

* xyz 0 1
S 	 -1.06361 	 58.9587 	 48.8915 	 
C 	 -2.55019 	 58.8893 	 49.7098 	 
C 	 -3.56816 	 59.5374 	 49.0803 	 
C 	 -3.10035 	 60.1122 	 47.8522 	 
C 	 -1.75178 	 59.8969 	 47.5885 	 
H 	 -3.79483 	 60.6921 	 47.2747 	 
C 	 -4.99908 	 59.6036 	 49.5618 	 
H 	 -5.16011 	 60.633 	 49.2505 	 
H 	 -5.02423 	 59.501 	 50.6846 	 
C 	 -5.93844 	 58.5617 	 49.0189 	 
H 	 -6.00478 	 58.5699 	 47.9476 	 
H 	 -5.65219 	 57.5316 	 49.2497 	 
C 	 -7.30219 	 58.6056 	 49.7449 	 
H 	 -7.83836 	 59.5291 	 49.6447 	 
H 	 -7.8548 	 57.7688 	 49.2912 	 
H 	 -7.1768 	 58.3699 	 50.8155 	 
S 	 0.304661 	 61.4165 	 46.5794 	 
C 	 0.535242 	 61.4282 	 44.8184 	 
C 	 -0.396083 	 60.7301 	 44.1248 	 
C 	 -1.27444 	 60.0318 	 45.0389 	 
C 	 -1.00581 	 60.2579 	 46.4235 	 
H 	 -0.309532 	 60.546 	 43.0889 	 
C 	 -2.37545 	 59.1885 	 44.4312 	 
H 	 -3.12033 	 59.8678 	 44.0811 	 
H 	 -2.94595 	 58.745 	 45.19 	 
C 	 -1.99672 	 58.2612 	 43.3003 	 
H 	 -1.70591 	 58.9052 	 42.4217 	 
H 	 -2.8715 	 57.8071 	 42.8784 	 
C 	 -1.12046 	 57.0562 	 43.5487 	 
H 	 -1.61024 	 56.3597 	 44.1841 	 
H 	 -0.295333 	 57.4801 	 44.1148 	 
H 	 -0.933097 	 56.7091 	 42.6064 	 
H 	 -2.72058 	 58.2529 	 50.5619 	 
H 	 1.23612 	 62.123 	 44.2638 	 
*
