! wB97X-D3 SP def2-SVP
%pal
nprocs 16
end

* xyz 0 1
S 	 42.5931 	 21.5697 	 46.3095 	 
C 	 41.0054 	 20.9941 	 45.8845 	 
C 	 40.2576 	 21.9942 	 45.3076 	 
C 	 40.848 	 23.2783 	 45.5476 	 
C 	 42.0341 	 23.2318 	 46.2063 	 
H 	 40.5269 	 24.2051 	 45.1007 	 
C 	 38.9179 	 21.7741 	 44.6674 	 
H 	 38.6229 	 20.7008 	 44.998 	 
H 	 38.9775 	 21.914 	 43.543 	 
C 	 37.7074 	 22.6097 	 45.0714 	 
H 	 37.9358 	 23.6007 	 44.6229 	 
H 	 36.7964 	 22.2058 	 44.6333 	 
C 	 37.3758 	 22.6051 	 46.5583 	 
H 	 37.2141 	 21.5966 	 46.879 	 
H 	 38.133 	 23.0106 	 47.1924 	 
H 	 36.3789 	 23.0711 	 46.6852 	 
S 	 44.5734 	 24.064 	 45.734 	 
C 	 45.2124 	 25.5666 	 46.251 	 
C 	 44.2299 	 26.2668 	 46.9013 	 
C 	 42.951 	 25.6188 	 46.9975 	 
C 	 43.0448 	 24.3458 	 46.3921 	 
H 	 44.5162 	 27.2327 	 47.3503 	 
C 	 41.6043 	 26.2711 	 47.4433 	 
H 	 41.1268 	 25.4401 	 47.9608 	 
H 	 41.1215 	 26.5369 	 46.5148 	 
C 	 41.8105 	 27.4798 	 48.3454 	 
H 	 42.3965 	 28.2387 	 47.7317 	 
H 	 42.4567 	 27.1022 	 49.1354 	 
C 	 40.533 	 28.1309 	 48.9193 	 
H 	 39.9457 	 28.6458 	 48.1513 	 
H 	 40.5885 	 28.9292 	 49.6982 	 
H 	 39.8312 	 27.3414 	 49.3379 	 
H 	 40.62 	 19.9528 	 45.8716 	 
H 	 46.2079 	 25.8897 	 46.3319 	 
*
