! wB97X-D3 SP def2-SVP
%pal
nprocs 16
end

* xyz 0 1
S 	 39.8773 	 14.4278 	 71.3983 	 
C 	 38.1078 	 14.3111 	 71.292 	 
C 	 37.5424 	 15.4856 	 70.7748 	 
C 	 38.5751 	 16.3661 	 70.2703 	 
C 	 39.8874 	 15.9392 	 70.5053 	 
H 	 38.4166 	 17.3899 	 69.868 	 
C 	 36.0381 	 15.7308 	 70.6357 	 
H 	 35.8156 	 16.1706 	 69.6902 	 
H 	 35.8659 	 16.444 	 71.4549 	 
C 	 35.0523 	 14.6743 	 70.9958 	 
H 	 35.2591 	 14.4884 	 72.0884 	 
H 	 34.0814 	 15.2306 	 70.9396 	 
C 	 35.013 	 13.4116 	 70.0104 	 
H 	 34.3785 	 12.6211 	 70.5306 	 
H 	 34.6953 	 13.5308 	 68.9708 	 
H 	 36.0442 	 13.0005 	 69.7404 	 
S 	 41.9985 	 16.6855 	 68.9125 	 
C 	 43.3135 	 17.5442 	 69.4682 	 
C 	 43.1642 	 17.9321 	 70.841 	 
C 	 41.8459 	 17.4973 	 71.3818 	 
C 	 41.111 	 16.7434 	 70.4473 	 
H 	 43.9082 	 18.4865 	 71.4089 	 
C 	 41.4037 	 17.7528 	 72.8644 	 
H 	 42.1879 	 18.3118 	 73.3489 	 
H 	 41.4894 	 16.831 	 73.412 	 
C 	 40.1697 	 18.5816 	 73.1459 	 
H 	 39.3274 	 18.2584 	 72.463 	 
H 	 40.3034 	 19.5671 	 72.7774 	 
C 	 39.69 	 18.6153 	 74.5029 	 
H 	 40.4243 	 19.0747 	 75.1424 	 
H 	 39.6791 	 17.5725 	 74.9025 	 
H 	 38.7686 	 19.0728 	 74.7188 	 
H 	 37.4942 	 13.6454 	 71.7903 	 
H 	 44.2103 	 17.9702 	 68.9323 	 
*
