! wB97X-D3 SP def2-SVP
%pal
nprocs 16
end

* xyz 0 1
S 	 -35.6058 	 68.2495 	 145.549 	 
C 	 -37.1254 	 68.2808 	 144.587 	 
C 	 -36.733 	 68.3327 	 143.218 	 
C 	 -35.3537 	 68.3104 	 143.032 	 
C 	 -34.5876 	 68.1013 	 144.181 	 
H 	 -34.7552 	 68.2707 	 142.086 	 
C 	 -37.7866 	 68.347 	 142.118 	 
H 	 -37.4746 	 69.1929 	 141.501 	 
H 	 -38.8111 	 68.629 	 142.506 	 
C 	 -37.9324 	 67.0362 	 141.397 	 
H 	 -38.2073 	 66.2281 	 142.102 	 
H 	 -38.7632 	 67.1083 	 140.711 	 
C 	 -36.6829 	 66.5103 	 140.609 	 
H 	 -35.9171 	 65.9985 	 141.209 	 
H 	 -37.1337 	 65.8102 	 139.939 	 
H 	 -36.2252 	 67.262 	 140.003 	 
S 	 -32.024 	 68.7365 	 143.93 	 
C 	 -30.7374 	 67.5383 	 144.271 	 
C 	 -31.3195 	 66.3932 	 144.669 	 
C 	 -32.7348 	 66.4237 	 144.688 	 
C 	 -33.2477 	 67.6519 	 144.347 	 
H 	 -30.7464 	 65.4593 	 144.845 	 
C 	 -33.5301 	 65.21 	 145.149 	 
H 	 -34.5264 	 65.4682 	 145.547 	 
H 	 -33.1422 	 64.9096 	 146.138 	 
C 	 -33.6315 	 63.9902 	 144.224 	 
H 	 -34.1868 	 63.2934 	 144.875 	 
H 	 -32.6787 	 63.5377 	 144.078 	 
C 	 -34.3612 	 64.5323 	 143.024 	 
H 	 -33.6667 	 65.1976 	 142.49 	 
H 	 -35.2383 	 65.0665 	 143.325 	 
H 	 -34.5542 	 63.6511 	 142.404 	 
H 	 -38.1084 	 68.3183 	 145.041 	 
H 	 -29.7405 	 67.687 	 144.038 	 
*
