! wB97X-D3 SP def2-SVP
%pal
nprocs 16
end

* xyz 0 1
S 	 58.2327 	 -7.59903 	 86.8367 	 
C 	 58.7205 	 -6.00421 	 87.5132 	 
C 	 59.0967 	 -5.15016 	 86.4367 	 
C 	 59.0886 	 -5.79322 	 85.1912 	 
C 	 58.6894 	 -7.10652 	 85.2249 	 
H 	 59.2246 	 -5.35893 	 84.2706 	 
C 	 59.4032 	 -3.67708 	 86.6115 	 
H 	 60.4762 	 -3.60629 	 86.9412 	 
H 	 58.7315 	 -3.25159 	 87.3562 	 
C 	 59.3729 	 -2.81282 	 85.3489 	 
H 	 59.81 	 -1.88802 	 85.6395 	 
H 	 59.9585 	 -3.19089 	 84.5394 	 
C 	 57.9572 	 -2.56278 	 84.8267 	 
H 	 57.4049 	 -1.87325 	 85.4011 	 
H 	 58.1209 	 -2.11197 	 83.8001 	 
H 	 57.3232 	 -3.47125 	 84.6908 	 
S 	 56.8873 	 -8.18817 	 83.5053 	 
C 	 57.4923 	 -8.97781 	 82.0674 	 
C 	 58.8707 	 -8.97856 	 82.0511 	 
C 	 59.4698 	 -8.16278 	 83.0444 	 
C 	 58.5224 	 -7.88442 	 84.0342 	 
H 	 59.3498 	 -9.4753 	 81.2034 	 
C 	 61.0197 	 -7.98692 	 83.1694 	 
H 	 61.219 	 -7.26374 	 83.9569 	 
H 	 61.3148 	 -7.5699 	 82.2914 	 
C 	 61.8163 	 -9.26108 	 83.4005 	 
H 	 62.899 	 -9.05396 	 83.3524 	 
H 	 61.6693 	 -10.0217 	 82.5439 	 
C 	 61.6781 	 -10.1213 	 84.673 	 
H 	 62.2724 	 -11.0518 	 84.4942 	 
H 	 60.6754 	 -10.4199 	 84.8536 	 
H 	 62.0415 	 -9.64535 	 85.574 	 
H 	 58.5709 	 -5.79678 	 88.5359 	 
H 	 57.0086 	 -9.68506 	 81.4895 	 
*
