! wB97X-D3 SP def2-SVP
%pal
nprocs 16
end

* xyz 0 1
S 	 -0.787828 	 1.7017 	 82.9417 	 
C 	 -0.830462 	 -0.0155113 	 83.2504 	 
C 	 -0.23966 	 -0.298175 	 84.4926 	 
C 	 0.395255 	 0.874997 	 85.0606 	 
C 	 0.214254 	 1.9821 	 84.3761 	 
H 	 1.0971 	 0.847357 	 85.9434 	 
C 	 -0.159916 	 -1.77192 	 85.0424 	 
H 	 0.831246 	 -2.0774 	 85.2949 	 
H 	 -0.51553 	 -2.30485 	 84.1459 	 
C 	 -1.18252 	 -2.14036 	 86.1755 	 
H 	 -0.883099 	 -3.1949 	 86.4149 	 
H 	 -1.07535 	 -1.48441 	 86.9845 	 
C 	 -2.63348 	 -2.08481 	 85.7176 	 
H 	 -2.82292 	 -1.1511 	 85.1894 	 
H 	 -2.79007 	 -2.97875 	 85.0828 	 
H 	 -3.30834 	 -2.21498 	 86.475 	 
S 	 1.36812 	 4.29653 	 83.4552 	 
C 	 1.65851 	 5.53946 	 84.6386 	 
C 	 1.32855 	 5.1479 	 85.9022 	 
C 	 0.607281 	 3.90709 	 85.9367 	 
C 	 0.697851 	 3.25326 	 84.75 	 
H 	 1.47967 	 5.73382 	 86.7802 	 
C 	 0.263203 	 3.18145 	 87.332 	 
H 	 1.20447 	 2.94045 	 87.8633 	 
H 	 -0.19305 	 2.1931 	 87.2131 	 
C 	 -0.725387 	 3.94216 	 88.2383 	 
H 	 -0.261037 	 4.97866 	 88.4279 	 
H 	 -0.718133 	 3.51079 	 89.237 	 
C 	 -2.17407 	 3.8725 	 87.7737 	 
H 	 -2.27671 	 4.7968 	 87.2031 	 
H 	 -2.9011 	 3.9663 	 88.6037 	 
H 	 -2.39226 	 3.058 	 87.1698 	 
H 	 -1.31682 	 -0.805039 	 82.68 	 
H 	 2.04226 	 6.49721 	 84.3373 	 
*
