! wB97X-D3 SP def2-SVP
%pal
nprocs 16
end

* xyz 0 1
S 	 -106.904 	 52.1525 	 111.718 	 
C 	 -108.245 	 53.2859 	 111.406 	 
C 	 -108.096 	 54.416 	 112.136 	 
C 	 -106.956 	 54.3364 	 113.011 	 
C 	 -106.125 	 53.2189 	 112.847 	 
H 	 -106.658 	 55.2192 	 113.638 	 
C 	 -108.96 	 55.6355 	 112.081 	 
H 	 -108.962 	 56.1303 	 113.148 	 
H 	 -109.993 	 55.381 	 112.049 	 
C 	 -108.543 	 56.7158 	 111.108 	 
H 	 -108.593 	 56.2164 	 110.143 	 
H 	 -109.279 	 57.4587 	 111.087 	 
C 	 -107.183 	 57.4642 	 111.182 	 
H 	 -106.405 	 56.8929 	 110.778 	 
H 	 -107.164 	 58.4368 	 110.667 	 
H 	 -106.992 	 57.6974 	 112.26 	 
S 	 -104.429 	 53.1029 	 115.002 	 
C 	 -102.775 	 52.7817 	 114.711 	 
C 	 -102.494 	 52.4709 	 113.42 	 
C 	 -103.66 	 52.6846 	 112.607 	 
C 	 -104.802 	 52.9465 	 113.322 	 
H 	 -101.482 	 52.251 	 113.078 	 
C 	 -103.647 	 52.6213 	 111.12 	 
H 	 -103.907 	 53.631 	 110.825 	 
H 	 -104.52 	 52.0015 	 110.85 	 
C 	 -102.401 	 52.1212 	 110.367 	 
H 	 -101.572 	 52.8185 	 110.736 	 
H 	 -102.31 	 52.3913 	 109.298 	 
C 	 -102.127 	 50.6965 	 110.753 	 
H 	 -102.918 	 50.0605 	 110.259 	 
H 	 -102.161 	 50.5218 	 111.774 	 
H 	 -101.152 	 50.3717 	 110.47 	 
H 	 -108.985 	 53.0933 	 110.69 	 
H 	 -101.973 	 52.6587 	 115.371 	 
*
