! wB97X-D3 SP def2-SVP
%pal
nprocs 16
end

* xyz 0 1
S 	 -47.8074 	 66.3202 	 131.35 	 
C 	 -47.7994 	 64.5688 	 131.198 	 
C 	 -46.9394 	 64.0011 	 132.141 	 
C 	 -46.4549 	 65.0066 	 133.049 	 
C 	 -46.9008 	 66.2848 	 132.791 	 
H 	 -45.6986 	 64.9523 	 133.806 	 
C 	 -46.4011 	 62.5311 	 132.223 	 
H 	 -47.2118 	 61.8712 	 132.428 	 
H 	 -45.6884 	 62.557 	 132.991 	 
C 	 -45.7086 	 61.9273 	 130.98 	 
H 	 -45.411 	 60.9435 	 131.267 	 
H 	 -46.3889 	 61.7891 	 130.157 	 
C 	 -44.4041 	 62.6025 	 130.395 	 
H 	 -44.2117 	 61.9981 	 129.526 	 
H 	 -44.5776 	 63.6136 	 129.913 	 
H 	 -43.5491 	 62.84 	 131.096 	 
S 	 -45.8908 	 68.8922 	 132.453 	 
C 	 -45.1464 	 69.631 	 133.888 	 
C 	 -45.4866 	 69.0035 	 135.037 	 
C 	 -46.0044 	 67.7134 	 134.786 	 
C 	 -46.4067 	 67.4755 	 133.488 	 
H 	 -45.3 	 69.4666 	 135.957 	 
C 	 -46.2517 	 66.7058 	 135.942 	 
H 	 -45.7651 	 67.2035 	 136.834 	 
H 	 -45.7002 	 65.7259 	 135.815 	 
C 	 -47.6727 	 66.2906 	 136.184 	 
H 	 -47.9968 	 65.9969 	 135.183 	 
H 	 -48.3142 	 67.0907 	 136.402 	 
C 	 -47.7777 	 65.2057 	 137.266 	 
H 	 -48.8329 	 65.1808 	 137.574 	 
H 	 -47.3346 	 65.4159 	 138.244 	 
H 	 -47.5934 	 64.2455 	 136.787 	 
H 	 -48.1487 	 64.0095 	 130.427 	 
H 	 -44.7441 	 70.6209 	 133.764 	 
*
