! wB97X-D3 SP def2-SVP
%pal
nprocs 16
end

* xyz 0 1
S 	 68.4023 	 21.6846 	 75.045 	 
C 	 69.2175 	 21.526 	 76.5435 	 
C 	 70.3734 	 22.2887 	 76.5022 	 
C 	 70.5614 	 23.026 	 75.2892 	 
C 	 69.5002 	 22.8633 	 74.4137 	 
H 	 71.2607 	 23.7237 	 74.9016 	 
C 	 71.2678 	 22.3567 	 77.7166 	 
H 	 70.9263 	 21.7973 	 78.5121 	 
H 	 71.207 	 23.3797 	 78.055 	 
C 	 72.782 	 22.1891 	 77.3901 	 
H 	 72.8558 	 21.1423 	 77.015 	 
H 	 73.1477 	 22.8276 	 76.5699 	 
C 	 73.7833 	 22.3175 	 78.5854 	 
H 	 73.5009 	 21.6292 	 79.3834 	 
H 	 74.75 	 22.1167 	 78.2443 	 
H 	 73.8746 	 23.3748 	 79.0335 	 
S 	 68.918 	 21.8755 	 71.982 	 
C 	 68.9732 	 23.0044 	 70.5851 	 
C 	 69.494 	 24.2768 	 70.9058 	 
C 	 69.8225 	 24.4056 	 72.3089 	 
C 	 69.4361 	 23.2246 	 72.9969 	 
H 	 69.5274 	 25.0975 	 70.1126 	 
C 	 70.6045 	 25.573 	 72.9672 	 
H 	 70.9831 	 26.3649 	 72.2061 	 
H 	 71.4865 	 25.0356 	 73.3727 	 
C 	 69.8783 	 26.3876 	 74.0458 	 
H 	 70.4915 	 27.2737 	 74.355 	 
H 	 69.6773 	 25.7535 	 74.9128 	 
C 	 68.5372 	 27.0287 	 73.5553 	 
H 	 68.3057 	 27.9456 	 74.1816 	 
H 	 67.735 	 26.28 	 73.7617 	 
H 	 68.5519 	 27.2612 	 72.4779 	 
H 	 68.8859 	 21.0191 	 77.4783 	 
H 	 68.8383 	 22.721 	 69.5679 	 
*
