! wB97X-D3 SP def2-SVP
%pal
nprocs 16
end

* xyz 0 1
S 	 -73.8173 	 44.4237 	 126.002 	 
C 	 -74.1238 	 42.6936 	 125.985 	 
C 	 -72.9556 	 41.9722 	 125.859 	 
C 	 -71.8385 	 42.8283 	 125.656 	 
C 	 -72.0814 	 44.2042 	 125.709 	 
H 	 -70.8635 	 42.4876 	 125.477 	 
C 	 -72.8664 	 40.4627 	 125.932 	 
H 	 -73.7377 	 40.0789 	 126.457 	 
H 	 -71.8971 	 40.3603 	 126.54 	 
C 	 -72.782 	 39.6612 	 124.611 	 
H 	 -71.7977 	 39.8479 	 124.138 	 
H 	 -72.7497 	 38.6347 	 124.909 	 
C 	 -73.8291 	 39.8618 	 123.555 	 
H 	 -73.7676 	 40.8958 	 123.101 	 
H 	 -73.5459 	 39.2329 	 122.723 	 
H 	 -74.8518 	 39.5233 	 123.953 	 
S 	 -71.5113 	 46.2751 	 124.052 	 
C 	 -70.094 	 47.2752 	 124.315 	 
C 	 -69.3594 	 46.7463 	 125.35 	 
C 	 -69.9095 	 45.5672 	 125.954 	 
C 	 -71.1136 	 45.2711 	 125.37 	 
H 	 -68.4435 	 47.1798 	 125.568 	 
C 	 -69.4053 	 44.8924 	 127.164 	 
H 	 -68.3121 	 44.7472 	 127.207 	 
H 	 -69.8743 	 43.8904 	 127.198 	 
C 	 -69.8084 	 45.6464 	 128.476 	 
H 	 -69.2559 	 46.5914 	 128.479 	 
H 	 -69.4379 	 45.043 	 129.332 	 
C 	 -71.3516 	 45.8255 	 128.727 	 
H 	 -71.8647 	 44.9431 	 128.813 	 
H 	 -71.8505 	 46.4946 	 127.971 	 
H 	 -71.5116 	 46.2772 	 129.7 	 
H 	 -75.0444 	 42.2539 	 126.342 	 
H 	 -69.7734 	 48.0931 	 123.678 	 
*
