! wB97X-D3 SP def2-SVP
%pal
nprocs 16
end

* xyz 0 1
S 	 -29.707 	 62.8357 	 106.221 	 
C 	 -31.1835 	 63.5855 	 105.527 	 
C 	 -32.3062 	 62.8672 	 105.909 	 
C 	 -32.0362 	 61.7945 	 106.822 	 
C 	 -30.67 	 61.7025 	 107.172 	 
H 	 -32.7147 	 61.0155 	 107.196 	 
C 	 -33.6841 	 63.1808 	 105.347 	 
H 	 -33.9605 	 62.2692 	 104.753 	 
H 	 -33.6618 	 63.985 	 104.624 	 
C 	 -34.7248 	 63.5783 	 106.452 	 
H 	 -34.7092 	 62.7238 	 107.205 	 
H 	 -34.3238 	 64.4961 	 106.912 	 
C 	 -36.1446 	 63.687 	 105.756 	 
H 	 -36.369 	 64.3659 	 104.949 	 
H 	 -36.3241 	 62.795 	 105.312 	 
H 	 -36.9406 	 63.7314 	 106.52 	 
S 	 -30.488 	 61.0275 	 109.863 	 
C 	 -29.4527 	 59.6394 	 110.285 	 
C 	 -28.7894 	 59.1059 	 109.193 	 
C 	 -29.2085 	 59.7085 	 107.964 	 
C 	 -30.1158 	 60.7288 	 108.124 	 
H 	 -28.1423 	 58.2784 	 109.237 	 
C 	 -28.6108 	 59.2502 	 106.623 	 
H 	 -27.5072 	 59.1349 	 106.749 	 
H 	 -28.7436 	 60.089 	 105.944 	 
C 	 -29.3394 	 57.9565 	 106.178 	 
H 	 -30.4265 	 58.0838 	 106.259 	 
H 	 -29.1574 	 57.09 	 106.858 	 
C 	 -29.0002 	 57.6676 	 104.674 	 
H 	 -29.3868 	 56.6631 	 104.443 	 
H 	 -27.9869 	 57.6581 	 104.399 	 
H 	 -29.4998 	 58.4484 	 103.999 	 
H 	 -31.2237 	 64.3285 	 104.738 	 
H 	 -29.2227 	 59.3181 	 111.333 	 
*
