! wB97X-D3 SP def2-SVP
%pal
nprocs 16
end

* xyz 0 1
S 	 -48.9363 	 61.0034 	 129.132 	 
C 	 -48.7394 	 59.9979 	 127.658 	 
C 	 -47.4805 	 59.458 	 127.583 	 
C 	 -46.714 	 60.0594 	 128.635 	 
C 	 -47.3046 	 60.8207 	 129.613 	 
H 	 -45.6236 	 59.9536 	 128.824 	 
C 	 -47.0137 	 58.4572 	 126.538 	 
H 	 -46.7488 	 58.944 	 125.603 	 
H 	 -47.8305 	 57.7874 	 126.223 	 
C 	 -45.8324 	 57.5975 	 126.992 	 
H 	 -45.6185 	 56.9911 	 126.096 	 
H 	 -44.9678 	 58.1929 	 127.177 	 
C 	 -46.1391 	 56.5864 	 128.093 	 
H 	 -45.3231 	 55.9111 	 128.135 	 
H 	 -46.2257 	 56.9687 	 129.09 	 
H 	 -47.0153 	 55.9491 	 127.867 	 
S 	 -46.7374 	 63.2705 	 130.846 	 
C 	 -45.8479 	 63.2191 	 132.331 	 
C 	 -45.6142 	 61.9642 	 132.886 	 
C 	 -46.0375 	 60.9877 	 131.928 	 
C 	 -46.5691 	 61.4641 	 130.735 	 
H 	 -44.9836 	 61.8291 	 133.797 	 
C 	 -45.9218 	 59.5248 	 132.145 	 
H 	 -46.3098 	 59.0501 	 131.217 	 
H 	 -46.4998 	 59.1713 	 133.028 	 
C 	 -44.5227 	 58.9144 	 132.146 	 
H 	 -43.8719 	 59.3825 	 132.877 	 
H 	 -44.148 	 59.1385 	 131.177 	 
C 	 -44.5041 	 57.3789 	 132.182 	 
H 	 -44.5095 	 57.0139 	 133.259 	 
H 	 -43.5028 	 57.0497 	 131.758 	 
H 	 -45.2229 	 56.9167 	 131.557 	 
H 	 -49.4769 	 59.6409 	 127.022 	 
H 	 -45.6547 	 64.1362 	 132.867 	 
*
