! wB97X-D3 SP def2-SVP
%pal
nprocs 16
end

* xyz 0 1
S 	 -8.26235 	 60.3735 	 54.7049 	 
C 	 -6.89973 	 59.3137 	 54.8792 	 
C 	 -6.16881 	 59.6008 	 56.0244 	 
C 	 -6.86859 	 60.5141 	 56.8428 	 
C 	 -8.02725 	 61.0973 	 56.3237 	 
H 	 -6.61373 	 60.8794 	 57.7834 	 
C 	 -4.86304 	 58.8646 	 56.4155 	 
H 	 -4.18407 	 59.7413 	 56.4878 	 
H 	 -4.52464 	 58.2853 	 55.5968 	 
C 	 -4.88013 	 58.1081 	 57.7737 	 
H 	 -3.82731 	 57.8554 	 58.0652 	 
H 	 -5.20802 	 58.6836 	 58.6391 	 
C 	 -5.71773 	 56.8561 	 57.6454 	 
H 	 -5.7376 	 56.4385 	 58.6469 	 
H 	 -6.76832 	 57.0814 	 57.2159 	 
H 	 -5.24411 	 56.1804 	 56.9446 	 
S 	 -9.06615 	 61.9943 	 58.6963 	 
C 	 -10.2091 	 63.3606 	 58.7034 	 
C 	 -10.4669 	 63.813 	 57.415 	 
C 	 -9.7314 	 63.1167 	 56.4225 	 
C 	 -8.9112 	 62.1024 	 56.9532 	 
H 	 -11.1457 	 64.688 	 57.3067 	 
C 	 -9.72953 	 63.4327 	 54.9443 	 
H 	 -10.5264 	 62.7775 	 54.6588 	 
H 	 -8.83043 	 63.1747 	 54.386 	 
C 	 -10.1979 	 64.822 	 54.5503 	 
H 	 -11.1646 	 65.1419 	 54.8852 	 
H 	 -10.2004 	 64.9737 	 53.4593 	 
C 	 -9.35226 	 66.0387 	 55.0703 	 
H 	 -8.31275 	 65.746 	 54.9655 	 
H 	 -9.62556 	 66.1798 	 56.0807 	 
H 	 -9.55445 	 66.9378 	 54.4907 	 
H 	 -6.69754 	 58.5938 	 54.092 	 
H 	 -10.6956 	 63.7764 	 59.5419 	 
*
