! wB97X-D3 SP def2-SVP
%pal
nprocs 16
end

* xyz 0 1
S 	 2.30541 	 75.54 	 46.6766 	 
C 	 1.74895 	 76.9877 	 47.3621 	 
C 	 1.00252 	 76.7289 	 48.4951 	 
C 	 0.683589 	 75.395 	 48.6738 	 
C 	 1.11757 	 74.54 	 47.6463 	 
H 	 0.0291471 	 75.0152 	 49.4626 	 
C 	 0.761208 	 77.8398 	 49.4599 	 
H 	 -0.0466927 	 77.5035 	 50.0607 	 
H 	 0.48721 	 78.7514 	 49.0053 	 
C 	 1.96368 	 78.1866 	 50.3945 	 
H 	 1.49624 	 78.7649 	 51.2872 	 
H 	 2.40891 	 77.2073 	 50.7613 	 
C 	 3.15023 	 78.9951 	 49.8307 	 
H 	 2.7895 	 79.9358 	 49.3187 	 
H 	 3.9284 	 79.3793 	 50.5861 	 
H 	 3.74606 	 78.3759 	 49.1647 	 
S 	 2.1254 	 72.3028 	 46.3825 	 
C 	 1.54878 	 70.7625 	 46.9268 	 
C 	 0.300844 	 70.8887 	 47.5284 	 
C 	 -0.0520089 	 72.2157 	 47.8167 	 
C 	 0.912277 	 73.1001 	 47.3712 	 
H 	 -0.21731 	 69.968 	 47.8883 	 
C 	 -1.2395 	 72.4391 	 48.7524 	 
H 	 -1.86196 	 72.9078 	 48.0608 	 
H 	 -1.11323 	 73.2295 	 49.5254 	 
C 	 -1.9062 	 71.1803 	 49.4243 	 
H 	 -2.1237 	 70.3052 	 48.8083 	 
H 	 -2.92092 	 71.4948 	 49.7639 	 
C 	 -1.11812 	 70.7341 	 50.657 	 
H 	 -1.83523 	 70.1167 	 51.1898 	 
H 	 -0.962537 	 71.6207 	 51.2908 	 
H 	 -0.168384 	 70.3508 	 50.631 	 
H 	 2.20926 	 77.9479 	 47.147 	 
H 	 2.00945 	 69.794 	 46.6194 	 
*
