! wB97X-D3 SP def2-SVP
%pal
nprocs 16
end

* xyz 0 1
S 	 4.93287 	 29.7222 	 68.3343 	 
C 	 3.9874 	 28.6324 	 67.3318 	 
C 	 4.86655 	 27.7562 	 66.6095 	 
C 	 6.24452 	 28.1382 	 66.6903 	 
C 	 6.42842 	 29.1832 	 67.6018 	 
H 	 7.09715 	 27.693 	 66.1721 	 
C 	 4.3779 	 26.8133 	 65.5705 	 
H 	 3.91323 	 27.4812 	 64.7339 	 
H 	 3.41899 	 26.3889 	 65.8654 	 
C 	 5.36453 	 25.8433 	 64.8864 	 
H 	 6.32459 	 26.2737 	 64.5769 	 
H 	 5.53778 	 25.1099 	 65.6881 	 
C 	 4.76295 	 25.1012 	 63.7224 	 
H 	 5.38134 	 24.2721 	 63.4162 	 
H 	 3.90802 	 24.5361 	 64.1302 	 
H 	 4.4597 	 25.8191 	 62.8893 	 
S 	 7.39064 	 31.78 	 67.6204 	 
C 	 9.11592 	 32.0453 	 67.5179 	 
C 	 9.77711 	 30.8602 	 67.6222 	 
C 	 8.95024 	 29.6967 	 67.7366 	 
C 	 7.60803 	 30.0464 	 67.6341 	 
H 	 10.8662 	 30.8489 	 67.4954 	 
C 	 9.47202 	 28.2875 	 67.763 	 
H 	 8.72295 	 27.5906 	 68.0779 	 
H 	 10.1477 	 28.2279 	 68.5665 	 
C 	 10.165 	 27.8067 	 66.5122 	 
H 	 11.0592 	 28.4077 	 66.345 	 
H 	 9.47723 	 27.8312 	 65.6293 	 
C 	 10.6517 	 26.3463 	 66.5558 	 
H 	 9.87686 	 25.7804 	 66.8785 	 
H 	 11.4001 	 26.2787 	 67.3191 	 
H 	 11.0549 	 25.9268 	 65.6281 	 
H 	 2.89221 	 28.6071 	 67.2769 	 
H 	 9.61379 	 32.9454 	 67.2626 	 
*
