! wB97X-D3 SP def2-SVP
%pal
nprocs 16
end

* xyz 0 1
S 	 59.0874 	 -10.1134 	 90.6064 	 
C 	 59.4302 	 -8.56717 	 91.341 	 
C 	 60.028 	 -7.64023 	 90.439 	 
C 	 60.2391 	 -8.25219 	 89.1735 	 
C 	 59.9835 	 -9.59466 	 89.1964 	 
H 	 60.643 	 -7.75923 	 88.3425 	 
C 	 60.0936 	 -6.16794 	 90.6775 	 
H 	 60.8622 	 -5.89469 	 91.4127 	 
H 	 59.1846 	 -5.774 	 91.1148 	 
C 	 60.3396 	 -5.29424 	 89.4499 	 
H 	 60.8253 	 -4.32424 	 89.7576 	 
H 	 61.2307 	 -5.76554 	 88.8889 	 
C 	 59.2692 	 -4.96737 	 88.3464 	 
H 	 59.7729 	 -4.40848 	 87.5633 	 
H 	 58.9472 	 -5.83132 	 87.823 	 
H 	 58.3949 	 -4.40935 	 88.658 	 
S 	 58.9032 	 -10.9176 	 87.0904 	 
C 	 59.861 	 -11.8245 	 85.9595 	 
C 	 61.2073 	 -11.8103 	 86.3795 	 
C 	 61.4447 	 -10.9414 	 87.5033 	 
C 	 60.2911 	 -10.4502 	 88.0833 	 
H 	 61.9509 	 -12.2684 	 85.7923 	 
C 	 62.805 	 -10.8419 	 88.1339 	 
H 	 62.8372 	 -9.85693 	 88.621 	 
H 	 63.6341 	 -10.8985 	 87.4536 	 
C 	 63.0524 	 -11.7983 	 89.2262 	 
H 	 62.2226 	 -11.8615 	 89.9467 	 
H 	 63.9408 	 -11.4678 	 89.8024 	 
C 	 63.1892 	 -13.2911 	 88.6189 	 
H 	 64.136 	 -13.4319 	 88.0064 	 
H 	 62.2595 	 -13.5454 	 88.0666 	 
H 	 63.2521 	 -14.062 	 89.4057 	 
H 	 59.1736 	 -8.24537 	 92.3394 	 
H 	 59.4698 	 -12.4568 	 85.215 	 
*
