! wB97X-D3 SP def2-SVP
%pal
nprocs 16
end

* xyz 0 1
S 	 -101.295 	 55.6477 	 121.223 	 
C 	 -101.739 	 54.1969 	 120.233 	 
C 	 -102.952 	 54.4896 	 119.641 	 
C 	 -103.637 	 55.5567 	 120.223 	 
C 	 -102.903 	 56.2292 	 121.16 	 
H 	 -104.57 	 55.8618 	 119.947 	 
C 	 -103.697 	 53.5961 	 118.713 	 
H 	 -103.661 	 54.13 	 117.772 	 
H 	 -104.747 	 53.5599 	 118.983 	 
C 	 -103.237 	 52.1054 	 118.58 	 
H 	 -102.152 	 51.9079 	 118.533 	 
H 	 -103.417 	 51.6269 	 119.613 	 
C 	 -103.935 	 51.3298 	 117.458 	 
H 	 -103.564 	 50.2525 	 117.434 	 
H 	 -104.996 	 51.3085 	 117.668 	 
H 	 -103.749 	 51.7977 	 116.515 	 
S 	 -102.193 	 58.8349 	 121.484 	 
C 	 -103.041 	 59.7692 	 122.634 	 
C 	 -104.007 	 59.0268 	 123.245 	 
C 	 -104.035 	 57.669 	 122.911 	 
C 	 -103.24 	 57.4381 	 121.824 	 
H 	 -104.613 	 59.4695 	 124.014 	 
C 	 -104.794 	 56.5256 	 123.654 	 
H 	 -105.431 	 56.0379 	 122.927 	 
H 	 -105.458 	 56.9905 	 124.344 	 
C 	 -103.965 	 55.4309 	 124.357 	 
H 	 -103.354 	 55.0164 	 123.601 	 
H 	 -104.692 	 54.6976 	 124.788 	 
C 	 -103.139 	 55.8708 	 125.579 	 
H 	 -103.74 	 56.4195 	 126.333 	 
H 	 -102.334 	 56.5318 	 125.337 	 
H 	 -102.576 	 55.0987 	 126.119 	 
H 	 -100.949 	 53.4655 	 119.772 	 
H 	 -102.771 	 60.7808 	 123.05 	 
*
