! wB97X-D3 SP def2-SVP
%pal
nprocs 16
end

* xyz 0 1
S 	 48.0843 	 2.15841 	 84.5845 	 
C 	 49.5427 	 1.52713 	 83.751 	 
C 	 50.5464 	 1.34839 	 84.6933 	 
C 	 50.0787 	 1.33816 	 86.0211 	 
C 	 48.7416 	 1.6981 	 86.2197 	 
H 	 50.6341 	 1.21684 	 86.8999 	 
C 	 52.0022 	 1.08996 	 84.2883 	 
H 	 52.1154 	 1.3787 	 83.2357 	 
H 	 51.9747 	 0.0143476 	 84.3539 	 
C 	 53.1649 	 1.69989 	 85.1528 	 
H 	 53.068 	 2.80896 	 85.051 	 
H 	 52.9627 	 1.43972 	 86.2202 	 
C 	 54.6017 	 1.27086 	 84.8 	 
H 	 54.6744 	 1.3078 	 83.7036 	 
H 	 55.3635 	 1.87169 	 85.1549 	 
H 	 54.8723 	 0.259002 	 85.0622 	 
S 	 46.9847 	 3.46355 	 87.4437 	 
C 	 46.438 	 3.24633 	 89.1027 	 
C 	 46.9614 	 2.06691 	 89.6069 	 
C 	 47.9493 	 1.45657 	 88.7133 	 
C 	 47.9743 	 2.03872 	 87.4785 	 
H 	 46.733 	 1.78606 	 90.6238 	 
C 	 48.609 	 0.174095 	 89.0694 	 
H 	 48.6545 	 -0.529407 	 88.2282 	 
H 	 47.9356 	 -0.174083 	 89.9159 	 
C 	 50.0036 	 0.441908 	 89.761 	 
H 	 49.7894 	 1.21957 	 90.5345 	 
H 	 50.8203 	 0.839691 	 89.1857 	 
C 	 50.489 	 -0.881239 	 90.4971 	 
H 	 51.3777 	 -0.576597 	 91.1 	 
H 	 50.6222 	 -1.6176 	 89.737 	 
H 	 49.7847 	 -1.39708 	 91.1888 	 
H 	 49.6596 	 1.47666 	 82.6745 	 
H 	 46.0195 	 4.07713 	 89.674 	 
*
