! wB97X-D3 SP def2-SVP
%pal
nprocs 16
end

* xyz 0 1
S 	 -11.161 	 -2.61278 	 79.9183 	 
C 	 -10.2917 	 -2.35051 	 81.4452 	 
C 	 -11.0765 	 -1.83823 	 82.4722 	 
C 	 -12.3808 	 -1.59258 	 81.9186 	 
C 	 -12.6014 	 -1.84918 	 80.5897 	 
H 	 -13.1541 	 -1.14787 	 82.4942 	 
C 	 -10.5503 	 -1.47222 	 83.8534 	 
H 	 -10.2863 	 -0.401497 	 83.8974 	 
H 	 -9.56629 	 -1.9231 	 83.9487 	 
C 	 -11.4255 	 -1.97677 	 84.9823 	 
H 	 -12.4241 	 -1.5613 	 84.8329 	 
H 	 -11.5232 	 -3.08829 	 84.9695 	 
C 	 -10.8713 	 -1.67252 	 86.4259 	 
H 	 -9.93954 	 -2.28217 	 86.5421 	 
H 	 -10.6295 	 -0.633676 	 86.5489 	 
H 	 -11.6369 	 -1.88502 	 87.0872 	 
S 	 -13.5242 	 -1.05321 	 78.1543 	 
C 	 -15.1928 	 -0.634637 	 77.8299 	 
C 	 -15.8964 	 -0.925971 	 78.9447 	 
C 	 -15.1255 	 -1.42757 	 80.0877 	 
C 	 -13.7748 	 -1.55261 	 79.7951 	 
H 	 -16.9632 	 -0.860913 	 78.9427 	 
C 	 -15.8964 	 -1.97603 	 81.3087 	 
H 	 -15.1732 	 -2.4028 	 82.0373 	 
H 	 -16.4775 	 -2.80261 	 80.9962 	 
C 	 -16.8749 	 -1.08196 	 82.1127 	 
H 	 -17.4856 	 -1.71822 	 82.7863 	 
H 	 -17.6623 	 -0.633336 	 81.4594 	 
C 	 -16.1369 	 -0.0317628 	 82.8792 	 
H 	 -16.8349 	 0.649644 	 83.3982 	 
H 	 -15.598 	 0.607221 	 82.2225 	 
H 	 -15.4511 	 -0.591843 	 83.5085 	 
H 	 -9.23035 	 -2.49092 	 81.6729 	 
H 	 -15.6526 	 -0.196927 	 76.9753 	 
*
