! wB97X-D3 SP def2-SVP
%pal
nprocs 16
end

* xyz 0 1
S 	 -0.839138 	 79.9811 	 49.5633 	 
C 	 0.748253 	 80.5816 	 49.7309 	 
C 	 1.36945 	 79.8637 	 50.7193 	 
C 	 0.508964 	 78.9668 	 51.3961 	 
C 	 -0.78406 	 78.9462 	 50.9577 	 
H 	 0.865148 	 78.3454 	 52.2389 	 
C 	 2.88983 	 80.0283 	 51.0532 	 
H 	 2.81633 	 80.5934 	 51.9741 	 
H 	 3.28903 	 80.7878 	 50.346 	 
C 	 3.86928 	 78.8045 	 51.0758 	 
H 	 4.93382 	 79.0713 	 51.206 	 
H 	 3.59668 	 78.2546 	 51.979 	 
C 	 3.80669 	 77.8834 	 49.8817 	 
H 	 2.78369 	 77.6385 	 49.7928 	 
H 	 4.07439 	 78.2926 	 48.9193 	 
H 	 4.30091 	 76.9073 	 50.0248 	 
S 	 -2.19745 	 77.8327 	 52.9336 	 
C 	 -3.37019 	 76.5722 	 52.5577 	 
C 	 -3.42489 	 76.3011 	 51.1602 	 
C 	 -2.45473 	 77.0131 	 50.4264 	 
C 	 -1.82143 	 77.9723 	 51.258 	 
H 	 -4.03059 	 75.6001 	 50.7315 	 
C 	 -2.25284 	 76.8008 	 48.9111 	 
H 	 -2.00675 	 77.698 	 48.4145 	 
H 	 -3.10325 	 76.3833 	 48.5246 	 
C 	 -1.19597 	 75.7082 	 48.5529 	 
H 	 -0.982529 	 75.707 	 47.4335 	 
H 	 -1.45484 	 74.6637 	 48.7797 	 
C 	 0.186502 	 76.064 	 49.1514 	 
H 	 0.13205 	 76.3963 	 50.1528 	 
H 	 0.597017 	 76.9332 	 48.6255 	 
H 	 0.886129 	 75.1727 	 49.0781 	 
H 	 1.17024 	 81.2925 	 49.0048 	 
H 	 -4.11187 	 76.1149 	 53.217 	 
*
