! wB97X-D3 SP def2-SVP
%pal
nprocs 16
end

* xyz 0 1
S 	 -52.6866 	 32.0455 	 92.8994 	 
C 	 -53.4906 	 30.5616 	 92.3272 	 
C 	 -54.8964 	 30.6923 	 92.3997 	 
C 	 -55.2343 	 31.931 	 93.1419 	 
C 	 -54.1843 	 32.74 	 93.4649 	 
H 	 -56.2011 	 32.1508 	 93.5054 	 
C 	 -55.9904 	 29.7303 	 92.0186 	 
H 	 -56.844 	 30.2477 	 91.5617 	 
H 	 -56.384 	 29.481 	 93.0358 	 
C 	 -55.5643 	 28.512 	 91.2091 	 
H 	 -54.6252 	 28.0874 	 91.7498 	 
H 	 -56.189 	 27.7073 	 91.2634 	 
C 	 -55.2068 	 28.8641 	 89.7398 	 
H 	 -54.8518 	 27.9234 	 89.2673 	 
H 	 -56.0998 	 29.2606 	 89.3578 	 
H 	 -54.4523 	 29.6022 	 89.7489 	 
S 	 -54.2017 	 35.4845 	 93.2676 	 
C 	 -54.6121 	 36.4334 	 94.6825 	 
C 	 -54.5035 	 35.6295 	 95.7951 	 
C 	 -54.4347 	 34.2019 	 95.5714 	 
C 	 -54.3122 	 33.9584 	 94.2387 	 
H 	 -54.6322 	 36.1292 	 96.7363 	 
C 	 -54.5391 	 33.1909 	 96.7062 	 
H 	 -53.9256 	 33.4395 	 97.604 	 
H 	 -53.9681 	 32.2408 	 96.4276 	 
C 	 -56.011 	 32.8771 	 97.0753 	 
H 	 -56.5352 	 32.4078 	 96.183 	 
H 	 -56.4807 	 33.8636 	 97.2771 	 
C 	 -56.3081 	 31.9989 	 98.2214 	 
H 	 -57.3007 	 32.0459 	 98.7241 	 
H 	 -55.5461 	 32.1557 	 99.018 	 
H 	 -56.2181 	 30.9315 	 97.9618 	 
H 	 -52.9735 	 29.7427 	 91.909 	 
H 	 -54.6253 	 37.5606 	 94.7275 	 
*
