! wB97X-D3 SP def2-SVP
%pal
nprocs 16
end

* xyz 0 1
S 	 -41.7135 	 50.7163 	 103.927 	 
C 	 -41.0837 	 49.4233 	 104.903 	 
C 	 -42.0163 	 48.8255 	 105.702 	 
C 	 -43.3057 	 49.3682 	 105.431 	 
C 	 -43.345 	 50.4163 	 104.617 	 
H 	 -44.1912 	 49.0524 	 105.994 	 
C 	 -41.7984 	 47.655 	 106.537 	 
H 	 -40.7648 	 47.2658 	 106.482 	 
H 	 -42.4427 	 46.8241 	 106.246 	 
C 	 -42.1771 	 47.7794 	 108.065 	 
H 	 -43.235 	 48.1007 	 108.187 	 
H 	 -42.0458 	 46.669 	 108.468 	 
C 	 -41.2355 	 48.8004 	 108.795 	 
H 	 -41.4812 	 49.0239 	 109.819 	 
H 	 -40.3121 	 48.3558 	 108.678 	 
H 	 -41.2592 	 49.7541 	 108.157 	 
S 	 -44.9603 	 52.6305 	 104.879 	 
C 	 -46.4937 	 52.742 	 104.009 	 
C 	 -46.6811 	 51.5983 	 103.281 	 
C 	 -45.5768 	 50.6492 	 103.255 	 
C 	 -44.5307 	 51.1405 	 104.084 	 
H 	 -47.5324 	 51.4285 	 102.703 	 
C 	 -45.5936 	 49.2992 	 102.609 	 
H 	 -46.4341 	 48.7281 	 102.962 	 
H 	 -44.6582 	 48.8102 	 102.957 	 
C 	 -45.6587 	 49.3386 	 101.066 	 
H 	 -46.582 	 49.7899 	 100.791 	 
H 	 -45.7348 	 48.3188 	 100.651 	 
C 	 -44.6197 	 50.2346 	 100.44 	 
H 	 -44.6925 	 51.2771 	 100.725 	 
H 	 -44.7139 	 50.2297 	 99.322 	 
H 	 -43.6021 	 49.9038 	 100.724 	 
H 	 -40.0573 	 48.9976 	 104.698 	 
H 	 -47.1953 	 53.5237 	 103.987 	 
*
