! wB97X-D3 SP def2-SVP
%pal
nprocs 16
end

* xyz 0 1
S 	 -4.29341 	 13.0009 	 86.7619 	 
C 	 -5.96565 	 12.4603 	 87.0326 	 
C 	 -6.66094 	 13.4125 	 87.8001 	 
C 	 -5.762 	 14.4153 	 88.3021 	 
C 	 -4.47012 	 14.3269 	 87.8511 	 
H 	 -5.99223 	 15.268 	 88.9347 	 
C 	 -8.14694 	 13.2641 	 88.2034 	 
H 	 -8.61013 	 13.0814 	 87.2269 	 
H 	 -8.60815 	 14.1928 	 88.6898 	 
C 	 -8.55689 	 11.9862 	 88.9681 	 
H 	 -9.61546 	 12.1321 	 89.2484 	 
H 	 -8.4191 	 11.0809 	 88.3513 	 
C 	 -7.80816 	 11.6458 	 90.2687 	 
H 	 -6.80159 	 11.4863 	 89.9355 	 
H 	 -7.55836 	 12.3854 	 91.078 	 
H 	 -8.2616 	 10.7872 	 90.7499 	 
S 	 -2.57069 	 16.0425 	 86.669 	 
C 	 -1.80059 	 17.1931 	 87.7362 	 
C 	 -2.08852 	 16.9689 	 89.0192 	 
C 	 -3.05181 	 15.9028 	 89.2835 	 
C 	 -3.36906 	 15.222 	 88.0924 	 
H 	 -1.52027 	 17.694 	 89.7072 	 
C 	 -3.48821 	 15.5984 	 90.7206 	 
H 	 -4.42811 	 16.0777 	 90.8463 	 
H 	 -2.90423 	 16.121 	 91.4508 	 
C 	 -3.62548 	 14.1045 	 91.0908 	 
H 	 -4.45395 	 13.611 	 90.5368 	 
H 	 -3.79306 	 14.0642 	 92.1956 	 
C 	 -2.41328 	 13.1652 	 90.7715 	 
H 	 -2.66987 	 12.2011 	 91.0769 	 
H 	 -1.45524 	 13.429 	 91.2932 	 
H 	 -2.28562 	 13.0937 	 89.6894 	 
H 	 -6.40018 	 11.6293 	 86.5206 	 
H 	 -1.01913 	 17.8203 	 87.3857 	 
*
