! wB97X-D3 SP def2-SVP
%pal
nprocs 16
end

* xyz 0 1
S 	 64.77 	 19.5785 	 77.3083 	 
C 	 66.4375 	 19.1741 	 77.5645 	 
C 	 67.2275 	 20.0749 	 76.9625 	 
C 	 66.5401 	 21.2994 	 76.5768 	 
C 	 65.1783 	 21.2134 	 76.8578 	 
H 	 66.8751 	 22.2703 	 76.188 	 
C 	 68.7286 	 19.9898 	 76.756 	 
H 	 69.1584 	 20.4561 	 75.8779 	 
H 	 68.8165 	 18.9226 	 76.5461 	 
C 	 69.5523 	 20.4219 	 77.9432 	 
H 	 69.5664 	 21.4954 	 78.0693 	 
H 	 69.0427 	 19.9598 	 78.709 	 
C 	 70.9725 	 19.8875 	 77.8695 	 
H 	 71.0315 	 18.8914 	 77.5718 	 
H 	 71.4248 	 20.3152 	 76.9814 	 
H 	 71.5978 	 20.1873 	 78.6763 	 
S 	 63.0966 	 21.6216 	 75.0057 	 
C 	 62.6842 	 23.2834 	 74.6464 	 
C 	 63.1746 	 24.1302 	 75.5974 	 
C 	 64.0192 	 23.4974 	 76.5791 	 
C 	 64.1765 	 22.1306 	 76.401 	 
H 	 62.9411 	 25.1862 	 75.6248 	 
C 	 64.7411 	 24.2486 	 77.5916 	 
H 	 65.0034 	 25.1756 	 77.259 	 
H 	 65.7051 	 23.7856 	 77.7218 	 
C 	 64.1126 	 24.3384 	 78.9364 	 
H 	 64.967 	 24.8229 	 79.5249 	 
H 	 63.9933 	 23.3307 	 79.2656 	 
C 	 62.8169 	 25.0649 	 78.9286 	 
H 	 62.274 	 24.831 	 79.814 	 
H 	 62.1842 	 24.7761 	 78.1136 	 
H 	 62.924 	 26.1663 	 78.7159 	 
H 	 66.8227 	 18.2599 	 78.1397 	 
H 	 62.093 	 23.5287 	 73.7532 	 
*
