! wB97X-D3 SP def2-SVP
%pal
nprocs 16
end

* xyz 0 1
S 	 34.6606 	 13.8361 	 71.015 	 
C 	 33.1245 	 14.2236 	 70.3082 	 
C 	 33.0484 	 13.7137 	 69.0173 	 
C 	 34.0745 	 12.7209 	 68.7862 	 
C 	 34.9309 	 12.6132 	 69.8186 	 
H 	 34.0966 	 12.1091 	 67.9345 	 
C 	 31.9659 	 14.0124 	 67.9932 	 
H 	 30.9957 	 13.7482 	 68.4862 	 
H 	 32.071 	 13.3875 	 67.0239 	 
C 	 31.7182 	 15.4643 	 67.5479 	 
H 	 31.4642 	 16.072 	 68.4101 	 
H 	 32.6102 	 15.7693 	 67.043 	 
C 	 30.6118 	 15.6754 	 66.5607 	 
H 	 29.6534 	 15.3221 	 66.9089 	 
H 	 30.4663 	 16.7592 	 66.3941 	 
H 	 30.6497 	 15.2028 	 65.606 	 
S 	 37.7077 	 12.8281 	 69.9925 	 
C 	 38.6512 	 11.3929 	 69.6951 	 
C 	 37.8553 	 10.2811 	 69.3585 	 
C 	 36.4698 	 10.5064 	 69.501 	 
C 	 36.1936 	 11.8741 	 69.7873 	 
H 	 38.3988 	 9.41204 	 69.0092 	 
C 	 35.3696 	 9.47756 	 69.0689 	 
H 	 35.6357 	 9.10794 	 68.0836 	 
H 	 34.3651 	 9.93999 	 68.8778 	 
C 	 35.2406 	 8.2923 	 70.0734 	 
H 	 35.3207 	 8.6416 	 71.1003 	 
H 	 36.2016 	 7.71068 	 70.0202 	 
C 	 34.0191 	 7.44728 	 69.7523 	 
H 	 34.0409 	 6.39284 	 70.1799 	 
H 	 33.9521 	 7.31627 	 68.6812 	 
H 	 33.0993 	 7.95042 	 70.0692 	 
H 	 32.3753 	 14.9324 	 70.7147 	 
H 	 39.7358 	 11.4674 	 69.4867 	 
*
