! wB97X-D3 SP def2-SVP
%pal
nprocs 16
end

* xyz 0 1
S 	 -83.2886 	 52.653 	 134.73 	 
C 	 -83.6402 	 51.0659 	 135.151 	 
C 	 -83.3623 	 50.7347 	 136.456 	 
C 	 -82.4811 	 51.7611 	 136.971 	 
C 	 -82.2722 	 52.8505 	 136.134 	 
H 	 -82.0625 	 51.8373 	 137.938 	 
C 	 -83.7114 	 49.4481 	 137.178 	 
H 	 -83.4303 	 49.5463 	 138.213 	 
H 	 -83.1034 	 48.5697 	 136.765 	 
C 	 -85.2507 	 49.0907 	 137.15 	 
H 	 -85.6854 	 49.9062 	 137.798 	 
H 	 -85.6669 	 49.3057 	 136.139 	 
C 	 -85.7697 	 47.7335 	 137.59 	 
H 	 -85.46 	 47.5397 	 138.624 	 
H 	 -86.8791 	 47.6749 	 137.396 	 
H 	 -85.3453 	 46.9146 	 136.977 	 
S 	 -82.1495 	 55.6094 	 135.897 	 
C 	 -80.8445 	 56.5803 	 136.695 	 
C 	 -79.976 	 55.6752 	 137.214 	 
C 	 -80.3522 	 54.3043 	 137.026 	 
C 	 -81.5262 	 54.0737 	 136.342 	 
H 	 -79.1596 	 56.0013 	 137.808 	 
C 	 -79.4183 	 53.1686 	 137.332 	 
H 	 -78.4853 	 53.4272 	 136.794 	 
H 	 -79.7921 	 52.218 	 136.894 	 
C 	 -78.9447 	 52.9693 	 138.812 	 
H 	 -78.2107 	 53.717 	 139.038 	 
H 	 -78.5825 	 52.0047 	 138.928 	 
C 	 -80.1163 	 53.0073 	 139.835 	 
H 	 -79.7603 	 53.0739 	 140.859 	 
H 	 -80.7484 	 52.1796 	 139.72 	 
H 	 -80.8251 	 53.8697 	 139.71 	 
H 	 -84.2024 	 50.4935 	 134.424 	 
H 	 -80.8675 	 57.6448 	 136.723 	 
*
