! wB97X-D3 SP def2-SVP
%pal
nprocs 16
end

* xyz 0 1
S 	 -54.4885 	 39.9398 	 109.721 	 
C 	 -54.0251 	 41.5429 	 109.174 	 
C 	 -55.0747 	 42.4442 	 109.402 	 
C 	 -56.2324 	 41.8433 	 109.979 	 
C 	 -56.0729 	 40.515 	 110.262 	 
H 	 -57.1655 	 42.2907 	 110.207 	 
C 	 -54.98 	 43.9296 	 108.906 	 
H 	 -54.9801 	 43.781 	 107.843 	 
H 	 -53.9159 	 44.2839 	 108.954 	 
C 	 -55.9905 	 45.0656 	 109.294 	 
H 	 -55.6175 	 45.9639 	 108.976 	 
H 	 -57.0245 	 44.9233 	 108.78 	 
C 	 -56.1959 	 45.2487 	 110.761 	 
H 	 -56.813 	 44.5186 	 111.277 	 
H 	 -55.2455 	 45.3031 	 111.342 	 
H 	 -56.7108 	 46.2232 	 110.962 	 
S 	 -56.5285 	 38.3612 	 111.865 	 
C 	 -58.1696 	 37.7488 	 112.153 	 
C 	 -59.0567 	 38.5894 	 111.536 	 
C 	 -58.527 	 39.7198 	 110.896 	 
C 	 -57.1 	 39.6758 	 110.884 	 
H 	 -60.1199 	 38.2708 	 111.685 	 
C 	 -59.4112 	 40.8251 	 110.33 	 
H 	 -59.0666 	 41.7968 	 110.682 	 
H 	 -60.4407 	 40.7467 	 110.8 	 
C 	 -59.5839 	 41.0078 	 108.823 	 
H 	 -60.1287 	 40.1108 	 108.408 	 
H 	 -58.6264 	 41.0245 	 108.314 	 
C 	 -60.335 	 42.2603 	 108.39 	 
H 	 -61.3753 	 42.2183 	 108.773 	 
H 	 -60.4491 	 42.265 	 107.281 	 
H 	 -59.8496 	 43.1511 	 108.683 	 
H 	 -53.0706 	 41.8092 	 108.766 	 
H 	 -58.4189 	 36.8239 	 112.673 	 
*
