! wB97X-D3 SP def2-SVP
%pal
nprocs 16
end

* xyz 0 1
S 	 -55.9535 	 38.5998 	 86.7917 	 
C 	 -56.4013 	 39.6033 	 88.0518 	 
C 	 -56.299 	 39.0234 	 89.3013 	 
C 	 -55.9848 	 37.6657 	 89.1873 	 
C 	 -55.9515 	 37.243 	 87.8788 	 
H 	 -55.6482 	 36.9946 	 90.0203 	 
C 	 -56.3599 	 39.7771 	 90.5829 	 
H 	 -56.1353 	 40.8933 	 90.4749 	 
H 	 -55.6404 	 39.3914 	 91.2592 	 
C 	 -57.735 	 39.6082 	 91.2029 	 
H 	 -58.0923 	 38.5244 	 91.3026 	 
H 	 -57.7671 	 40.0641 	 92.2845 	 
C 	 -58.7908 	 40.2107 	 90.2866 	 
H 	 -59.0822 	 39.4469 	 89.5811 	 
H 	 -59.5776 	 40.7957 	 90.7897 	 
H 	 -58.3901 	 40.9948 	 89.6381 	 
S 	 -54.0654 	 35.7873 	 86.4975 	 
C 	 -54.378 	 34.0648 	 86.3154 	 
C 	 -55.4438 	 33.6339 	 87.0478 	 
C 	 -56.0192 	 34.6273 	 87.889 	 
C 	 -55.4853 	 35.8998 	 87.5464 	 
H 	 -55.5679 	 32.5562 	 86.9992 	 
C 	 -57.2619 	 34.3916 	 88.7524 	 
H 	 -58.0963 	 33.8842 	 88.1613 	 
H 	 -57.6904 	 35.3609 	 89.0718 	 
C 	 -56.95 	 33.519 	 89.9502 	 
H 	 -56.9768 	 32.5203 	 89.7303 	 
H 	 -57.737 	 33.5858 	 90.6673 	 
C 	 -55.5814 	 33.8304 	 90.4581 	 
H 	 -55.3805 	 34.8749 	 90.818 	 
H 	 -54.7389 	 33.4765 	 89.7734 	 
H 	 -55.4007 	 33.1451 	 91.3623 	 
H 	 -56.4865 	 40.6937 	 87.8878 	 
H 	 -53.6985 	 33.4313 	 85.7723 	 
*
