! wB97X-D3 SP def2-SVP
%pal
nprocs 16
end

* xyz 0 1
S 	 -1.84972 	 -24.8835 	 61.7594 	 
C 	 -1.11713 	 -23.3859 	 62.1763 	 
C 	 0.285958 	 -23.5258 	 62.1836 	 
C 	 0.763429 	 -24.7392 	 61.6144 	 
C 	 -0.359467 	 -25.5145 	 61.1449 	 
H 	 1.85409 	 -25.0662 	 61.4791 	 
C 	 1.18301 	 -22.3746 	 62.697 	 
H 	 1.16777 	 -22.3481 	 63.7985 	 
H 	 0.627421 	 -21.4581 	 62.354 	 
C 	 2.6314 	 -22.2469 	 62.0407 	 
H 	 3.20464 	 -21.5555 	 62.6093 	 
H 	 3.26342 	 -23.1028 	 62.2216 	 
C 	 2.5837 	 -21.809 	 60.5869 	 
H 	 3.54368 	 -22.0703 	 60.0478 	 
H 	 1.72186 	 -22.2393 	 60.021 	 
H 	 2.42291 	 -20.6712 	 60.573 	 
S 	 -0.559705 	 -28.2371 	 61.7783 	 
C 	 -0.159246 	 -29.4416 	 60.5271 	 
C 	 0.0112047 	 -28.8035 	 59.2985 	 
C 	 0.0503848 	 -27.3432 	 59.3465 	 
C 	 -0.307249 	 -26.9017 	 60.6235 	 
H 	 0.226572 	 -29.4636 	 58.4286 	 
C 	 0.251374 	 -26.4694 	 58.0903 	 
H 	 0.874307 	 -27.2114 	 57.5454 	 
H 	 0.885019 	 -25.6183 	 58.3176 	 
C 	 -1.05332 	 -26.1191 	 57.3207 	 
H 	 -1.56702 	 -25.2096 	 57.796 	 
H 	 -1.76021 	 -26.9228 	 57.5718 	 
C 	 -0.890912 	 -25.7399 	 55.849 	 
H 	 -0.647756 	 -26.6469 	 55.2346 	 
H 	 -0.0845823 	 -25.0151 	 55.8244 	 
H 	 -1.7386 	 -25.3374 	 55.3346 	 
H 	 -1.68297 	 -22.6547 	 62.6568 	 
H 	 -0.203049 	 -30.5524 	 60.6586 	 
*
