! wB97X-D3 SP def2-SVP
%pal
nprocs 16
end

* xyz 0 1
S 	 -8.31114 	 69.4272 	 53.8244 	 
C 	 -8.94786 	 67.8477 	 54.3933 	 
C 	 -10.0373 	 67.428 	 53.664 	 
C 	 -10.1947 	 68.2751 	 52.503 	 
C 	 -9.27256 	 69.2897 	 52.3449 	 
H 	 -10.9053 	 68.2234 	 51.6773 	 
C 	 -10.9915 	 66.3839 	 54.0532 	 
H 	 -11.9513 	 66.6806 	 53.6449 	 
H 	 -10.9052 	 66.3258 	 55.1693 	 
C 	 -10.5488 	 65.0548 	 53.4188 	 
H 	 -10.7189 	 65.0771 	 52.4156 	 
H 	 -9.42145 	 64.8973 	 53.536 	 
C 	 -11.1033 	 63.7703 	 54.0158 	 
H 	 -11.2981 	 62.9278 	 53.349 	 
H 	 -10.4079 	 63.4975 	 54.809 	 
H 	 -12.0721 	 63.9598 	 54.5064 	 
S 	 -9.69913 	 71.7965 	 51.3009 	 
C 	 -9.05857 	 72.2093 	 49.7503 	 
C 	 -8.45723 	 71.1214 	 49.1582 	 
C 	 -8.6209 	 69.8925 	 49.9014 	 
C 	 -9.16358 	 70.1068 	 51.1688 	 
H 	 -7.93859 	 71.2763 	 48.2392 	 
C 	 -7.98157 	 68.6057 	 49.4959 	 
H 	 -8.3827 	 68.3882 	 48.4662 	 
H 	 -8.46673 	 67.7664 	 50.0486 	 
C 	 -6.48972 	 68.5147 	 49.6759 	 
H 	 -6.33511 	 68.4391 	 50.7238 	 
H 	 -5.96534 	 69.456 	 49.445 	 
C 	 -5.79531 	 67.281 	 49.0336 	 
H 	 -4.73323 	 67.4841 	 49.0838 	 
H 	 -6.17422 	 67.1278 	 48.0158 	 
H 	 -6.0555 	 66.4244 	 49.5807 	 
H 	 -8.59203 	 67.2889 	 55.3132 	 
H 	 -8.99699 	 73.241 	 49.3946 	 
*
