! wB97X-D3 SP def2-SVP
%pal
nprocs 16
end

* xyz 0 1
S 	 -25.7246 	 -3.89357 	 98.1052 	 
C 	 -25.0983 	 -5.01383 	 99.2614 	 
C 	 -25.7016 	 -4.95769 	 100.511 	 
C 	 -26.662 	 -3.86871 	 100.54 	 
C 	 -26.8002 	 -3.21818 	 99.2921 	 
H 	 -27.1625 	 -3.43836 	 101.443 	 
C 	 -25.3568 	 -5.89787 	 101.642 	 
H 	 -25.9614 	 -5.60638 	 102.514 	 
H 	 -24.308 	 -5.74822 	 101.78 	 
C 	 -25.6369 	 -7.42745 	 101.454 	 
H 	 -25.1287 	 -7.74259 	 100.55 	 
H 	 -25.218 	 -7.97456 	 102.276 	 
C 	 -27.1454 	 -7.69664 	 101.322 	 
H 	 -27.7335 	 -7.18034 	 102.129 	 
H 	 -27.3714 	 -7.37028 	 100.321 	 
H 	 -27.4981 	 -8.6569 	 101.43 	 
S 	 -26.4393 	 -0.622604 	 98.7696 	 
C 	 -27.7567 	 0.521465 	 98.8057 	 
C 	 -28.9603 	 -0.160531 	 98.8085 	 
C 	 -28.7754 	 -1.59825 	 98.9037 	 
C 	 -27.4601 	 -1.93421 	 98.9893 	 
H 	 -29.8571 	 0.40119 	 98.7004 	 
C 	 -29.8995 	 -2.58753 	 98.8158 	 
H 	 -29.5259 	 -3.45119 	 98.2757 	 
H 	 -30.7316 	 -2.09055 	 98.2853 	 
C 	 -30.4457 	 -2.79476 	 100.226 	 
H 	 -30.8165 	 -1.86509 	 100.656 	 
H 	 -29.7054 	 -2.98192 	 100.968 	 
C 	 -31.5856 	 -3.82353 	 100.427 	 
H 	 -31.4738 	 -4.75207 	 99.9506 	 
H 	 -32.5126 	 -3.40642 	 99.9263 	 
H 	 -31.9192 	 -4.05568 	 101.463 	 
H 	 -24.3406 	 -5.777 	 99.1736 	 
H 	 -27.7253 	 1.5908 	 98.6816 	 
*
