! wB97X-D3 SP def2-SVP
%pal
nprocs 16
end

* xyz 0 1
S 	 50.671 	 5.51784 	 83.2422 	 
C 	 49.1862 	 6.20995 	 83.809 	 
C 	 48.1866 	 6.05562 	 82.8559 	 
C 	 48.6038 	 5.34794 	 81.7039 	 
C 	 49.968 	 5.08284 	 81.6988 	 
H 	 47.976 	 5.14971 	 80.813 	 
C 	 46.8085 	 6.58598 	 83.0045 	 
H 	 46.7071 	 7.29551 	 82.2029 	 
H 	 46.7614 	 7.1326 	 83.9392 	 
C 	 45.6403 	 5.62205 	 83.0425 	 
H 	 44.6958 	 6.17245 	 83.1542 	 
H 	 45.6049 	 5.08626 	 82.1288 	 
C 	 45.7157 	 4.55063 	 84.1728 	 
H 	 44.7371 	 3.98155 	 84.2988 	 
H 	 46.5613 	 3.82914 	 84.0604 	 
H 	 45.8493 	 5.12111 	 85.0832 	 
S 	 51.6423 	 5.90629 	 79.7877 	 
C 	 52.3471 	 4.74849 	 78.6667 	 
C 	 51.7865 	 3.4949 	 78.851 	 
C 	 50.8544 	 3.41069 	 79.957 	 
C 	 50.6682 	 4.62379 	 80.5606 	 
H 	 52.1277 	 2.72561 	 78.1831 	 
C 	 50.2288 	 2.1015 	 80.4205 	 
H 	 50.3689 	 1.44396 	 79.5419 	 
H 	 49.2058 	 2.15664 	 80.5949 	 
C 	 51.0944 	 1.54009 	 81.5674 	 
H 	 51.0487 	 2.15973 	 82.4485 	 
H 	 52.144 	 1.53805 	 81.2077 	 
C 	 50.996 	 0.0320774 	 81.876 	 
H 	 51.8203 	 -0.310676 	 82.4267 	 
H 	 51.014 	 -0.713815 	 81.0391 	 
H 	 50.1281 	 -0.131408 	 82.5371 	 
H 	 49.0639 	 6.72102 	 84.7462 	 
H 	 53.0747 	 4.85166 	 77.9063 	 
*
