! wB97X-D3 SP def2-SVP
%pal
nprocs 16
end

* xyz 0 1
S 	 -100.438 	 40.4257 	 124.696 	 
C 	 -98.9645 	 39.4315 	 124.387 	 
C 	 -97.8629 	 40.2307 	 124.563 	 
C 	 -98.2115 	 41.6024 	 124.898 	 
C 	 -99.5484 	 41.8095 	 125.108 	 
H 	 -97.5126 	 42.416 	 125.094 	 
C 	 -96.4524 	 39.7172 	 124.446 	 
H 	 -96.3466 	 39.239 	 123.441 	 
H 	 -96.3522 	 38.8164 	 125.117 	 
C 	 -95.3306 	 40.7741 	 124.36 	 
H 	 -95.5806 	 41.6479 	 123.819 	 
H 	 -94.9855 	 41.113 	 125.398 	 
C 	 -94.0549 	 40.232 	 123.769 	 
H 	 -94.2407 	 39.7758 	 122.779 	 
H 	 -93.3392 	 40.9381 	 123.534 	 
H 	 -93.8129 	 39.4263 	 124.475 	 
S 	 -101.547 	 43.0262 	 126.556 	 
C 	 -101.793 	 44.7087 	 126.478 	 
C 	 -100.847 	 45.3259 	 125.641 	 
C 	 -99.9084 	 44.392 	 125.064 	 
C 	 -100.185 	 43.07 	 125.447 	 
H 	 -100.685 	 46.363 	 125.621 	 
C 	 -98.9428 	 44.8415 	 124.057 	 
H 	 -97.9796 	 44.4074 	 124.258 	 
H 	 -98.7069 	 45.8899 	 124.27 	 
C 	 -99.3349 	 44.5762 	 122.66 	 
H 	 -100.358 	 44.9592 	 122.501 	 
H 	 -99.2284 	 43.488 	 122.624 	 
C 	 -98.3483 	 45.2324 	 121.624 	 
H 	 -98.6118 	 46.3221 	 121.631 	 
H 	 -98.5301 	 44.7705 	 120.642 	 
H 	 -97.2603 	 45.0556 	 121.735 	 
H 	 -99.1099 	 38.4462 	 124.165 	 
H 	 -102.633 	 45.327 	 126.964 	 
*
