! wB97X-D3 SP def2-SVP
%pal
nprocs 16
end

* xyz 0 1
S 	 -40.9205 	 27.7571 	 83.675 	 
C 	 -41.3027 	 28.6172 	 82.2295 	 
C 	 -41.038 	 27.9368 	 81.0878 	 
C 	 -40.3487 	 26.7305 	 81.4607 	 
C 	 -40.2084 	 26.4616 	 82.7973 	 
H 	 -39.989 	 26.0978 	 80.7559 	 
C 	 -41.1014 	 28.5123 	 79.6887 	 
H 	 -40.1799 	 28.2728 	 79.0496 	 
H 	 -41.0896 	 29.6068 	 79.6674 	 
C 	 -42.3022 	 27.9807 	 78.7425 	 
H 	 -42.1616 	 28.4308 	 77.7279 	 
H 	 -42.0569 	 26.9397 	 78.5919 	 
C 	 -43.6562 	 28.2696 	 79.3191 	 
H 	 -43.8682 	 27.729 	 80.2014 	 
H 	 -43.7298 	 29.3154 	 79.598 	 
H 	 -44.4885 	 28.0758 	 78.6458 	 
S 	 -40.4803 	 24.2308 	 84.1901 	 
C 	 -39.0502 	 23.1982 	 84.5087 	 
C 	 -37.8984 	 23.7935 	 83.9851 	 
C 	 -38.1574 	 25.0466 	 83.3713 	 
C 	 -39.5345 	 25.4298 	 83.4711 	 
H 	 -36.8968 	 23.3684 	 84.1022 	 
C 	 -37.0357 	 25.856 	 82.6972 	 
H 	 -37.5447 	 26.3471 	 81.8673 	 
H 	 -36.4008 	 25.0705 	 82.2424 	 
C 	 -36.2635 	 27.0048 	 83.5821 	 
H 	 -36.9778 	 27.7561 	 83.9655 	 
H 	 -35.494 	 27.4804 	 82.907 	 
C 	 -35.4132 	 26.3466 	 84.6923 	 
H 	 -35.9143 	 25.6946 	 85.3276 	 
H 	 -34.9425 	 27.0023 	 85.3895 	 
H 	 -34.638 	 25.7032 	 84.2913 	 
H 	 -41.7582 	 29.5889 	 82.237 	 
H 	 -39.0264 	 22.2634 	 85.0028 	 
*
