! wB97X-D3 SP def2-SVP
%pal
nprocs 16
end

* xyz 0 1
S 	 -68.6336 	 40.6438 	 137.187 	 
C 	 -67.1642 	 41.5852 	 137.326 	 
C 	 -66.1621 	 41.0087 	 138.082 	 
C 	 -66.5635 	 39.6848 	 138.589 	 
C 	 -67.8897 	 39.3699 	 138.277 	 
H 	 -65.9668 	 38.9202 	 139.118 	 
C 	 -64.8455 	 41.7044 	 138.446 	 
H 	 -64.4877 	 42.4548 	 137.757 	 
H 	 -64.1576 	 40.8596 	 138.465 	 
C 	 -64.8324 	 42.4436 	 139.836 	 
H 	 -63.9249 	 43.0522 	 139.951 	 
H 	 -65.8226 	 43.0556 	 139.926 	 
C 	 -64.672 	 41.4361 	 141.02 	 
H 	 -63.6422 	 41.0151 	 140.92 	 
H 	 -64.8014 	 41.911 	 141.981 	 
H 	 -65.4323 	 40.6124 	 140.896 	 
S 	 -68.6401 	 37.9313 	 140.49 	 
C 	 -69.8986 	 36.7286 	 140.299 	 
C 	 -70.2362 	 36.5018 	 138.978 	 
C 	 -69.5196 	 37.2791 	 138.067 	 
C 	 -68.7015 	 38.2205 	 138.702 	 
H 	 -70.9351 	 35.7669 	 138.732 	 
C 	 -69.7041 	 37.113 	 136.588 	 
H 	 -69.5713 	 38.0794 	 136.039 	 
H 	 -70.7835 	 36.9271 	 136.497 	 
C 	 -68.8008 	 36.0838 	 135.881 	 
H 	 -67.857 	 36.5185 	 135.727 	 
H 	 -69.2295 	 35.8152 	 134.939 	 
C 	 -68.6087 	 34.8856 	 136.737 	 
H 	 -67.9771 	 34.9356 	 137.562 	 
H 	 -68.1248 	 34.0656 	 136.223 	 
H 	 -69.5521 	 34.4555 	 137.138 	 
H 	 -66.9956 	 42.5719 	 136.901 	 
H 	 -70.419 	 36.1999 	 141.08 	 
*
