! wB97X-D3 SP def2-SVP
%pal
nprocs 16
end

* xyz 0 1
S 	 -21.3935 	 -4.49562 	 84.4755 	 
C 	 -20.6022 	 -4.53858 	 82.8977 	 
C 	 -19.2123 	 -4.40227 	 83.058 	 
C 	 -18.7983 	 -4.21305 	 84.3953 	 
C 	 -19.8409 	 -4.1281 	 85.3002 	 
H 	 -17.7654 	 -4.14792 	 84.8159 	 
C 	 -18.3119 	 -4.39078 	 81.8855 	 
H 	 -17.8531 	 -3.43092 	 81.764 	 
H 	 -18.936 	 -4.49919 	 81.0285 	 
C 	 -17.2963 	 -5.51852 	 81.9019 	 
H 	 -16.6161 	 -5.45944 	 82.7749 	 
H 	 -17.8113 	 -6.43522 	 82.0471 	 
C 	 -16.4834 	 -5.68003 	 80.663 	 
H 	 -17.0561 	 -5.92481 	 79.7795 	 
H 	 -15.7616 	 -4.81575 	 80.4738 	 
H 	 -15.7601 	 -6.48823 	 80.8687 	 
S 	 -20.827 	 -5.05883 	 87.6224 	 
C 	 -20.0425 	 -4.49993 	 89.1392 	 
C 	 -19.0473 	 -3.57079 	 88.8971 	 
C 	 -18.8146 	 -3.27178 	 87.4911 	 
C 	 -19.7076 	 -4.04334 	 86.7666 	 
H 	 -18.4958 	 -3.1359 	 89.6978 	 
C 	 -17.8638 	 -2.20983 	 86.9701 	 
H 	 -17.8239 	 -2.10408 	 85.8913 	 
H 	 -16.8724 	 -2.42279 	 87.1551 	 
C 	 -18.2879 	 -0.823953 	 87.4058 	 
H 	 -17.866 	 -0.714877 	 88.4217 	 
H 	 -19.4114 	 -0.815715 	 87.3841 	 
C 	 -17.8728 	 0.333158 	 86.5498 	 
H 	 -18.2311 	 1.28889 	 86.982 	 
H 	 -18.3572 	 0.313829 	 85.6037 	 
H 	 -16.7655 	 0.359639 	 86.3658 	 
H 	 -21.1357 	 -4.61835 	 81.979 	 
H 	 -20.3602 	 -4.82538 	 90.1152 	 
*
