! wB97X-D3 SP def2-SVP
%pal
nprocs 16
end

* xyz 0 1
S 	 -9.17269 	 44.4884 	 39.147 	 
C 	 -7.89463 	 44.2868 	 37.9738 	 
C 	 -6.92441 	 43.415 	 38.3723 	 
C 	 -7.18604 	 42.8488 	 39.6618 	 
C 	 -8.40972 	 43.2603 	 40.1568 	 
H 	 -6.46404 	 42.2084 	 40.2099 	 
C 	 -5.75309 	 42.9431 	 37.5804 	 
H 	 -5.62755 	 43.467 	 36.6454 	 
H 	 -5.86579 	 41.9449 	 37.2629 	 
C 	 -4.40685 	 43.0631 	 38.3199 	 
H 	 -4.29821 	 44.0779 	 38.5853 	 
H 	 -4.37785 	 42.5417 	 39.2666 	 
C 	 -3.30369 	 42.4598 	 37.4858 	 
H 	 -3.13616 	 43.0973 	 36.6019 	 
H 	 -2.39074 	 42.4757 	 37.923 	 
H 	 -3.60389 	 41.3871 	 37.1966 	 
S 	 -10.7087 	 43.075 	 41.6836 	 
C 	 -10.644 	 42.7925 	 43.4723 	 
C 	 -9.32238 	 42.4363 	 43.7796 	 
C 	 -8.37685 	 42.6508 	 42.7107 	 
C 	 -8.94104 	 42.9599 	 41.4964 	 
H 	 -9.08346 	 42.2066 	 44.7924 	 
C 	 -6.92442 	 42.5248 	 43.0191 	 
H 	 -6.67183 	 42.7904 	 44.0403 	 
H 	 -6.3184 	 43.1125 	 42.3569 	 
C 	 -6.42143 	 41.0573 	 42.9747 	 
H 	 -6.53951 	 40.6941 	 41.9435 	 
H 	 -6.92216 	 40.4134 	 43.6969 	 
C 	 -4.94904 	 41.069 	 43.2305 	 
H 	 -4.82131 	 41.1855 	 44.318 	 
H 	 -4.27231 	 41.8024 	 42.7072 	 
H 	 -4.53587 	 40.036 	 42.8533 	 
H 	 -7.97704 	 44.7213 	 36.9881 	 
H 	 -11.4663 	 42.8668 	 44.1613 	 
*
