! wB97X-D3 SP def2-SVP
%pal
nprocs 16
end

* xyz 0 1
S 	 31.4037 	 3.97422 	 71.8802 	 
C 	 30.0908 	 4.28483 	 73.1009 	 
C 	 29.5501 	 3.12335 	 73.5626 	 
C 	 30.348 	 1.99459 	 73.1295 	 
C 	 31.3351 	 2.26237 	 72.2293 	 
H 	 30.181 	 0.900478 	 73.4476 	 
C 	 28.5518 	 3.00409 	 74.589 	 
H 	 28.322 	 4.0061 	 75.0142 	 
H 	 29.1515 	 2.4082 	 75.2867 	 
C 	 27.2697 	 2.27526 	 74.1428 	 
H 	 27.5701 	 1.33182 	 73.6847 	 
H 	 26.7419 	 2.01465 	 75.0842 	 
C 	 26.4639 	 3.07265 	 73.0475 	 
H 	 26.4626 	 4.12185 	 73.2557 	 
H 	 26.9029 	 2.86703 	 72.105 	 
H 	 25.4314 	 2.6312 	 73.0931 	 
S 	 31.9932 	 1.61769 	 69.6628 	 
C 	 33.0447 	 0.246341 	 69.2777 	 
C 	 33.5113 	 -0.367497 	 70.4208 	 
C 	 32.8091 	 0.157421 	 71.6342 	 
C 	 32.0354 	 1.30207 	 71.3958 	 
H 	 34.1288 	 -1.21077 	 70.3353 	 
C 	 32.9612 	 -0.41107 	 72.9887 	 
H 	 33.4596 	 -1.37863 	 72.8786 	 
H 	 31.9386 	 -0.701749 	 73.3866 	 
C 	 33.8913 	 0.359301 	 73.9774 	 
H 	 33.4572 	 1.34865 	 74.0373 	 
H 	 34.9474 	 0.394365 	 73.6362 	 
C 	 33.8503 	 -0.296218 	 75.391 	 
H 	 34.4009 	 0.313741 	 76.0949 	 
H 	 34.3283 	 -1.29933 	 75.4289 	 
H 	 32.8235 	 -0.468995 	 75.8069 	 
H 	 29.7071 	 5.19782 	 73.4912 	 
H 	 33.4332 	 0.023376 	 68.2886 	 
*
