! wB97X-D3 SP def2-SVP
%pal
nprocs 16
end

* xyz 0 1
S 	 12.4908 	 -1.18383 	 65.0749 	 
C 	 11.6825 	 -0.146246 	 63.918 	 
C 	 12.5638 	 0.557217 	 63.1582 	 
C 	 13.9185 	 0.216938 	 63.4686 	 
C 	 14.0462 	 -0.529806 	 64.611 	 
H 	 14.9193 	 0.456586 	 63.0423 	 
C 	 12.2138 	 1.55923 	 62.0691 	 
H 	 11.4261 	 1.1557 	 61.509 	 
H 	 13.0175 	 1.66066 	 61.3349 	 
C 	 11.7844 	 2.97882 	 62.6079 	 
H 	 11.7188 	 3.66479 	 61.742 	 
H 	 10.7374 	 2.90034 	 62.9942 	 
C 	 12.6644 	 3.51493 	 63.7159 	 
H 	 13.7262 	 3.64304 	 63.4216 	 
H 	 12.2236 	 4.48461 	 64.0724 	 
H 	 12.6544 	 2.78226 	 64.5164 	 
S 	 15.861 	 -2.69982 	 65.2627 	 
C 	 17.4288 	 -2.35364 	 66.0383 	 
C 	 17.4987 	 -0.988625 	 66.1277 	 
C 	 16.4791 	 -0.238769 	 65.538 	 
C 	 15.3643 	 -0.992367 	 65.1246 	 
H 	 18.3756 	 -0.555069 	 66.5869 	 
C 	 16.5133 	 1.24984 	 65.5829 	 
H 	 16.1625 	 1.69178 	 64.672 	 
H 	 17.4886 	 1.57793 	 65.61 	 
C 	 15.655 	 1.83587 	 66.6629 	 
H 	 14.5396 	 1.70701 	 66.4272 	 
H 	 15.829 	 2.85124 	 66.8065 	 
C 	 15.9033 	 1.16651 	 68.1208 	 
H 	 15.2452 	 1.63551 	 68.9179 	 
H 	 16.9175 	 1.33811 	 68.3901 	 
H 	 15.7753 	 0.0802464 	 68.1317 	 
H 	 10.6267 	 0.0358625 	 63.7819 	 
H 	 18.1139 	 -3.07736 	 66.3574 	 
*
