! wB97X-D3 SP def2-SVP
%pal
nprocs 16
end

* xyz 0 1
S 	 0.527164 	 -23.6888 	 88.5154 	 
C 	 2.11923 	 -24.3042 	 88.0609 	 
C 	 3.10584 	 -23.3286 	 87.9428 	 
C 	 2.57693 	 -22.0705 	 88.0686 	 
C 	 1.23878 	 -22.0428 	 88.4078 	 
H 	 3.19791 	 -21.1304 	 88.0739 	 
C 	 4.57818 	 -23.583 	 87.681 	 
H 	 4.71341 	 -23.2153 	 86.6858 	 
H 	 4.74907 	 -24.6041 	 87.6231 	 
C 	 5.52565 	 -22.8047 	 88.6655 	 
H 	 6.46947 	 -22.7541 	 88.1378 	 
H 	 5.18763 	 -21.8207 	 88.9577 	 
C 	 5.93696 	 -23.6821 	 89.8037 	 
H 	 6.35641 	 -24.6183 	 89.5422 	 
H 	 6.76785 	 -23.2965 	 90.3838 	 
H 	 5.0611 	 -23.7626 	 90.5792 	 
S 	 -0.647046 	 -21.0611 	 90.1527 	 
C 	 -1.1443 	 -19.293 	 90.0676 	 
C 	 -0.499279 	 -18.7026 	 89.021 	 
C 	 0.299721 	 -19.571 	 88.2534 	 
C 	 0.514927 	 -20.871 	 88.7729 	 
H 	 -0.670893 	 -17.6931 	 88.708 	 
C 	 0.785121 	 -19.0534 	 86.9353 	 
H 	 1.81451 	 -19.4334 	 86.7575 	 
H 	 0.835576 	 -17.9105 	 87.0516 	 
C 	 -0.157971 	 -19.3176 	 85.8001 	 
H 	 0.198875 	 -18.7772 	 84.9661 	 
H 	 -1.07131 	 -18.9294 	 86.1909 	 
C 	 -0.304004 	 -20.7901 	 85.3868 	 
H 	 -0.744926 	 -20.9849 	 84.4358 	 
H 	 -0.991845 	 -21.3015 	 86.1553 	 
H 	 0.634553 	 -21.342 	 85.3497 	 
H 	 2.31294 	 -25.3885 	 87.9298 	 
H 	 -2.04917 	 -18.818 	 90.473 	 
*
