! wB97X-D3 SP def2-SVP
%pal
nprocs 16
end

* xyz 0 1
S 	 -56.1282 	 35.4847 	 93.9953 	 
C 	 -57.2524 	 34.522 	 93.1662 	 
C 	 -57.6948 	 33.437 	 93.8848 	 
C 	 -56.8874 	 33.2299 	 95.0226 	 
C 	 -55.8997 	 34.1303 	 95.141 	 
H 	 -56.8535 	 32.3392 	 95.6841 	 
C 	 -58.9521 	 32.5182 	 93.6503 	 
H 	 -58.6728 	 31.626 	 93.1906 	 
H 	 -59.5631 	 33.0386 	 92.9039 	 
C 	 -59.7275 	 32.2031 	 94.9898 	 
H 	 -59.0446 	 31.7307 	 95.7163 	 
H 	 -60.069 	 33.0693 	 95.5325 	 
C 	 -60.8005 	 31.2098 	 94.7445 	 
H 	 -61.5811 	 31.0019 	 95.574 	 
H 	 -61.4692 	 31.4754 	 93.9075 	 
H 	 -60.3939 	 30.1969 	 94.5353 	 
S 	 -54.5794 	 32.6332 	 97.0213 	 
C 	 -53.607 	 33.403 	 98.1998 	 
C 	 -53.6721 	 34.7424 	 98.1029 	 
C 	 -54.3679 	 35.1918 	 96.9521 	 
C 	 -55.0465 	 34.151 	 96.2962 	 
H 	 -53.2322 	 35.3069 	 98.8563 	 
C 	 -54.4645 	 36.6186 	 96.5188 	 
H 	 -55.5096 	 36.9082 	 96.4851 	 
H 	 -54.1957 	 36.8058 	 95.4683 	 
C 	 -53.7677 	 37.6647 	 97.3366 	 
H 	 -52.694 	 37.47 	 97.3006 	 
H 	 -54.1338 	 37.5969 	 98.3967 	 
C 	 -54.0451 	 39.0369 	 96.6477 	 
H 	 -53.5866 	 39.6829 	 97.3613 	 
H 	 -55.1698 	 39.2576 	 96.553 	 
H 	 -53.529 	 39.2165 	 95.6758 	 
H 	 -57.6702 	 34.981 	 92.3297 	 
H 	 -53.2462 	 32.8555 	 99.0307 	 
*
