! wB97X-D3 SP def2-SVP
%pal
nprocs 16
end

* xyz 0 1
S 	 -24.4707 	 51.3327 	 67.2632 	 
C 	 -23.5214 	 51.887 	 65.926 	 
C 	 -22.2096 	 51.8445 	 66.2369 	 
C 	 -21.9024 	 51.5615 	 67.5882 	 
C 	 -23.0836 	 51.3773 	 68.3424 	 
H 	 -20.9187 	 51.5067 	 68.0494 	 
C 	 -21.1307 	 52.1723 	 65.3231 	 
H 	 -20.6 	 52.9999 	 65.8923 	 
H 	 -21.4977 	 52.586 	 64.3498 	 
C 	 -20.0499 	 51.1597 	 65.0018 	 
H 	 -19.2806 	 51.6426 	 64.3543 	 
H 	 -19.6333 	 50.7098 	 66.029 	 
C 	 -20.5731 	 50.0173 	 64.2622 	 
H 	 -20.9222 	 50.2265 	 63.2685 	 
H 	 -19.8684 	 49.2204 	 64.1819 	 
H 	 -21.4616 	 49.6166 	 64.7783 	 
S 	 -22.5207 	 52.3768 	 70.8716 	 
C 	 -23.3151 	 51.577 	 72.2241 	 
C 	 -23.6638 	 50.2591 	 71.9126 	 
C 	 -23.671 	 50.0321 	 70.5369 	 
C 	 -23.0962 	 51.072 	 69.7688 	 
H 	 -24.1618 	 49.7358 	 72.7742 	 
C 	 -24.3968 	 48.8456 	 69.8838 	 
H 	 -23.5989 	 48.2245 	 69.5275 	 
H 	 -24.9141 	 49.2446 	 68.9999 	 
C 	 -25.4249 	 48.1135 	 70.7854 	 
H 	 -26.1019 	 48.8274 	 71.1544 	 
H 	 -24.874 	 47.6274 	 71.6416 	 
C 	 -26.2491 	 46.9846 	 70.1492 	 
H 	 -25.6977 	 46.1468 	 69.6028 	 
H 	 -26.7925 	 47.4792 	 69.3126 	 
H 	 -26.998 	 46.6459 	 70.9044 	 
H 	 -23.8004 	 51.902 	 64.9171 	 
H 	 -23.4101 	 51.966 	 73.1733 	 
*
