! wB97X-D3 SP def2-SVP
%pal
nprocs 16
end

* xyz 0 1
S 	 39.7139 	 16.3854 	 51.0578 	 
C 	 39.4506 	 17.2904 	 52.5649 	 
C 	 40.0996 	 16.6563 	 53.5771 	 
C 	 40.923 	 15.6118 	 53.1817 	 
C 	 40.8017 	 15.2633 	 51.8296 	 
H 	 41.5186 	 14.9865 	 53.8098 	 
C 	 39.9875 	 17.0654 	 55.0156 	 
H 	 39.4975 	 18.0246 	 55.1787 	 
H 	 41.0054 	 17.1924 	 55.3852 	 
C 	 39.3883 	 16.0144 	 55.9652 	 
H 	 38.3253 	 15.9212 	 55.7525 	 
H 	 39.8035 	 14.9982 	 55.7959 	 
C 	 39.6481 	 16.2358 	 57.4885 	 
H 	 40.562 	 16.6934 	 57.6677 	 
H 	 38.8566 	 16.7575 	 58.011 	 
H 	 39.8084 	 15.2549 	 57.9045 	 
S 	 40.4382 	 12.5253 	 51.433 	 
C 	 41.6645 	 11.6564 	 50.5804 	 
C 	 42.7181 	 12.433 	 50.1806 	 
C 	 42.4884 	 13.8456 	 50.4818 	 
C 	 41.3315 	 14.0627 	 51.2238 	 
H 	 43.5369 	 12.0055 	 49.7482 	 
C 	 43.4446 	 14.9606 	 50.1265 	 
H 	 43.9777 	 15.1109 	 51.0528 	 
H 	 43.0013 	 15.9915 	 49.9849 	 
C 	 44.4991 	 14.6484 	 48.9402 	 
H 	 44.8888 	 13.5853 	 49.0414 	 
H 	 45.3801 	 15.3447 	 49.0404 	 
C 	 43.8379 	 14.9085 	 47.5558 	 
H 	 43.4591 	 15.9888 	 47.4894 	 
H 	 42.9738 	 14.2726 	 47.3305 	 
H 	 44.5506 	 14.8007 	 46.7486 	 
H 	 38.6326 	 18.0231 	 52.7258 	 
H 	 41.6741 	 10.5886 	 50.4673 	 
*
