! wB97X-D3 SP def2-SVP
%pal
nprocs 16
end

* xyz 0 1
S 	 -93.5412 	 56.0265 	 122.879 	 
C 	 -93.6501 	 54.9137 	 121.462 	 
C 	 -94.2484 	 53.7559 	 121.826 	 
C 	 -94.481 	 53.6325 	 123.255 	 
C 	 -93.9377 	 54.6903 	 123.966 	 
H 	 -94.9857 	 52.7872 	 123.76 	 
C 	 -94.643 	 52.7294 	 120.78 	 
H 	 -94.0771 	 52.9003 	 119.855 	 
H 	 -95.7177 	 52.8568 	 120.458 	 
C 	 -94.3923 	 51.2235 	 121.198 	 
H 	 -93.2992 	 51.0822 	 121.323 	 
H 	 -94.8675 	 51.0758 	 122.139 	 
C 	 -94.8626 	 50.2914 	 120.107 	 
H 	 -94.4833 	 49.237 	 120.133 	 
H 	 -95.9338 	 50.2807 	 119.941 	 
H 	 -94.4637 	 50.6585 	 119.149 	 
S 	 -95.1313 	 56.0445 	 126.046 	 
C 	 -94.6513 	 55.6562 	 127.726 	 
C 	 -93.7656 	 54.6067 	 127.734 	 
C 	 -93.3883 	 54.1672 	 126.433 	 
C 	 -93.965 	 54.9109 	 125.396 	 
H 	 -93.3572 	 54.2196 	 128.66 	 
C 	 -92.8288 	 52.7533 	 126.253 	 
H 	 -91.8628 	 52.6249 	 126.808 	 
H 	 -92.4907 	 52.5792 	 125.212 	 
C 	 -93.8384 	 51.5853 	 126.458 	 
H 	 -94.5539 	 51.7123 	 125.752 	 
H 	 -94.2745 	 51.7245 	 127.458 	 
C 	 -93.2022 	 50.1523 	 126.277 	 
H 	 -93.8106 	 49.2488 	 126.296 	 
H 	 -92.4034 	 50.061 	 126.97 	 
H 	 -92.6949 	 50.1503 	 125.279 	 
H 	 -93.3201 	 55.1635 	 120.453 	 
H 	 -95.039 	 56.1673 	 128.567 	 
*
