! wB97X-D3 SP def2-SVP
%pal
nprocs 16
end

* xyz 0 1
S 	 39.7524 	 27.7591 	 49.7122 	 
C 	 39.8528 	 28.7649 	 51.144 	 
C 	 39.6367 	 30.0846 	 50.9226 	 
C 	 39.3985 	 30.299 	 49.5137 	 
C 	 39.3342 	 29.1518 	 48.7592 	 
H 	 39.3747 	 31.1934 	 48.9997 	 
C 	 39.9092 	 31.1066 	 51.9867 	 
H 	 39.5741 	 30.6237 	 52.9575 	 
H 	 39.2715 	 31.8821 	 51.7336 	 
C 	 41.325 	 31.7466 	 52.1052 	 
H 	 41.7622 	 32.0235 	 51.1145 	 
H 	 41.1676 	 32.6158 	 52.7227 	 
C 	 42.3425 	 30.8848 	 52.7758 	 
H 	 41.9676 	 30.4243 	 53.6507 	 
H 	 42.7409 	 30.1249 	 52.11 	 
H 	 43.2096 	 31.4724 	 53.1134 	 
S 	 40.1298 	 27.5088 	 46.6292 	 
C 	 39.3102 	 27.7315 	 45.0364 	 
C 	 38.3673 	 28.7123 	 45.082 	 
C 	 38.2481 	 29.3371 	 46.3938 	 
C 	 39.2294 	 28.8814 	 47.3451 	 
H 	 37.7951 	 28.9751 	 44.2615 	 
C 	 37.1614 	 30.4104 	 46.6461 	 
H 	 36.9704 	 30.9148 	 45.7423 	 
H 	 37.6081 	 31.1939 	 47.3071 	 
C 	 35.8023 	 29.9869 	 47.1925 	 
H 	 35.2486 	 30.9388 	 47.3982 	 
H 	 35.8186 	 29.3387 	 48.129 	 
C 	 34.9298 	 29.1895 	 46.1884 	 
H 	 34.0247 	 28.976 	 46.7086 	 
H 	 35.4201 	 28.2443 	 45.8634 	 
H 	 34.7396 	 29.7294 	 45.2986 	 
H 	 40.2776 	 28.4015 	 52.069 	 
H 	 39.5361 	 27.2342 	 44.1246 	 
*
