! wB97X-D3 SP def2-SVP
%pal
nprocs 16
end

* xyz 0 1
S 	 -105.508 	 45.6592 	 124.847 	 
C 	 -103.92 	 46.3387 	 124.99 	 
C 	 -102.947 	 45.6648 	 124.243 	 
C 	 -103.578 	 44.6149 	 123.455 	 
C 	 -104.936 	 44.5664 	 123.666 	 
H 	 -103.095 	 43.9195 	 122.76 	 
C 	 -101.457 	 45.9422 	 124.328 	 
H 	 -100.954 	 45.2535 	 125.009 	 
H 	 -101.313 	 46.8989 	 124.827 	 
C 	 -100.656 	 45.8641 	 123.042 	 
H 	 -100.818 	 44.7838 	 122.665 	 
H 	 -100.911 	 46.6362 	 122.32 	 
C 	 -99.227 	 46.2776 	 123.298 	 
H 	 -98.6112 	 45.4512 	 123.604 	 
H 	 -98.8887 	 46.596 	 122.304 	 
H 	 -99.0471 	 47.2097 	 123.857 	 
S 	 -106.615 	 42.3873 	 124.119 	 
C 	 -107.559 	 41.7157 	 122.752 	 
C 	 -107.03 	 42.2431 	 121.589 	 
C 	 -105.996 	 43.2052 	 121.774 	 
C 	 -105.81 	 43.565 	 123.112 	 
H 	 -107.405 	 41.9437 	 120.602 	 
C 	 -105.304 	 43.9376 	 120.597 	 
H 	 -104.789 	 44.7668 	 121.042 	 
H 	 -106.095 	 44.2716 	 119.89 	 
C 	 -104.262 	 43.0568 	 119.815 	 
H 	 -104.66 	 42.0639 	 119.715 	 
H 	 -103.433 	 42.9524 	 120.547 	 
C 	 -103.734 	 43.5681 	 118.44 	 
H 	 -103.111 	 42.8745 	 117.924 	 
H 	 -103.115 	 44.4269 	 118.635 	 
H 	 -104.51 	 44.1075 	 117.814 	 
H 	 -103.669 	 47.1185 	 125.694 	 
H 	 -108.486 	 41.0659 	 122.89 	 
*
