! wB97X-D3 SP def2-SVP
%pal
nprocs 16
end

* xyz 0 1
S 	 7.21167 	 -11.8621 	 78.6063 	 
C 	 5.6727 	 -12.1571 	 79.1768 	 
C 	 4.92527 	 -12.8317 	 78.2461 	 
C 	 5.69461 	 -13.0394 	 77.0412 	 
C 	 7.02774 	 -12.7528 	 77.165 	 
H 	 5.32991 	 -13.3885 	 76.1075 	 
C 	 3.46287 	 -13.0364 	 78.3388 	 
H 	 3.2024 	 -13.1061 	 79.4175 	 
H 	 3.27894 	 -14.0095 	 77.9885 	 
C 	 2.60238 	 -12.0064 	 77.5733 	 
H 	 2.62176 	 -11.0725 	 78.0887 	 
H 	 2.88271 	 -11.8652 	 76.5407 	 
C 	 1.12828 	 -12.5116 	 77.519 	 
H 	 0.880349 	 -12.7721 	 78.5083 	 
H 	 0.339164 	 -11.8289 	 77.2208 	 
H 	 0.971672 	 -13.3818 	 76.92 	 
S 	 8.6305 	 -11.1324 	 75.5765 	 
C 	 9.41177 	 -11.8492 	 74.2532 	 
C 	 9.43552 	 -13.1975 	 74.2573 	 
C 	 8.71521 	 -13.7941 	 75.336 	 
C 	 8.14179 	 -12.7899 	 76.1355 	 
H 	 9.96074 	 -13.7275 	 73.488 	 
C 	 8.61103 	 -15.2704 	 75.5152 	 
H 	 9.03008 	 -15.9652 	 74.8024 	 
H 	 7.55424 	 -15.4511 	 75.3558 	 
C 	 8.95545 	 -15.82 	 76.9019 	 
H 	 8.29321 	 -15.3664 	 77.6325 	 
H 	 9.9577 	 -15.4483 	 77.2204 	 
C 	 8.93708 	 -17.3504 	 76.8412 	 
H 	 7.96649 	 -17.7028 	 76.7384 	 
H 	 9.36596 	 -17.8137 	 77.6963 	 
H 	 9.39205 	 -17.7391 	 75.887 	 
H 	 5.17355 	 -11.8049 	 80.062 	 
H 	 9.77778 	 -11.3776 	 73.3406 	 
*
