! wB97X-D3 SP def2-SVP
%pal
nprocs 16
end

* xyz 0 1
S 	 -118.632 	 48.7015 	 129.982 	 
C 	 -119.144 	 49.1695 	 131.59 	 
C 	 -118.589 	 48.3118 	 132.546 	 
C 	 -117.72 	 47.408 	 131.917 	 
C 	 -117.538 	 47.4647 	 130.565 	 
H 	 -117.23 	 46.5912 	 132.466 	 
C 	 -118.686 	 48.4029 	 134.059 	 
H 	 -118.137 	 49.2727 	 134.377 	 
H 	 -118.066 	 47.6009 	 134.459 	 
C 	 -120.064 	 48.3401 	 134.766 	 
H 	 -120.052 	 48.586 	 135.85 	 
H 	 -120.792 	 48.9619 	 134.34 	 
C 	 -120.487 	 46.9073 	 134.763 	 
H 	 -121.564 	 46.7871 	 134.923 	 
H 	 -120.123 	 46.4141 	 133.888 	 
H 	 -120.01 	 46.3521 	 135.622 	 
S 	 -117.593 	 45.8077 	 128.444 	 
C 	 -116.113 	 45.1239 	 127.808 	 
C 	 -115.018 	 45.5504 	 128.542 	 
C 	 -115.36 	 46.3775 	 129.685 	 
C 	 -116.726 	 46.6338 	 129.702 	 
H 	 -113.957 	 45.3137 	 128.342 	 
C 	 -114.364 	 47.0018 	 130.618 	 
H 	 -113.426 	 46.4585 	 130.681 	 
H 	 -114.708 	 47.1639 	 131.649 	 
C 	 -113.84 	 48.3784 	 130.193 	 
H 	 -113.501 	 48.2778 	 129.18 	 
H 	 -112.952 	 48.6472 	 130.807 	 
C 	 -114.902 	 49.4841 	 130.299 	 
H 	 -115.552 	 49.3303 	 131.164 	 
H 	 -115.361 	 49.6596 	 129.328 	 
H 	 -114.421 	 50.4245 	 130.554 	 
H 	 -119.783 	 49.9498 	 131.923 	 
H 	 -115.911 	 44.4615 	 126.976 	 
*
