! wB97X-D3 SP def2-SVP
%pal
nprocs 16
end

* xyz 0 1
S 	 -35.9207 	 49.2848 	 100.343 	 
C 	 -34.2831 	 48.7639 	 100.655 	 
C 	 -33.327 	 49.4941 	 99.9352 	 
C 	 -33.9627 	 50.4948 	 99.1249 	 
C 	 -35.3634 	 50.4578 	 99.1285 	 
H 	 -33.4976 	 51.1896 	 98.444 	 
C 	 -31.8475 	 49.3092 	 99.8288 	 
H 	 -31.3309 	 49.0236 	 100.789 	 
H 	 -31.3947 	 50.2571 	 99.6574 	 
C 	 -31.3212 	 48.3137 	 98.7876 	 
H 	 -30.1686 	 48.3162 	 98.9585 	 
H 	 -31.6532 	 47.2704 	 99.1514 	 
C 	 -31.6856 	 48.5235 	 97.2313 	 
H 	 -30.9385 	 49.053 	 96.6884 	 
H 	 -31.9773 	 47.5984 	 96.7706 	 
H 	 -32.5475 	 49.1959 	 97.2189 	 
S 	 -36.0558 	 53.1645 	 98.5706 	 
C 	 -37.3483 	 53.5357 	 97.4862 	 
C 	 -37.9818 	 52.3639 	 97.0602 	 
C 	 -37.3496 	 51.218 	 97.5462 	 
C 	 -36.2434 	 51.4309 	 98.3905 	 
H 	 -38.8366 	 52.5212 	 96.4317 	 
C 	 -37.8761 	 49.8711 	 97.2121 	 
H 	 -38.7223 	 50.1235 	 96.6134 	 
H 	 -38.307 	 49.5599 	 98.1808 	 
C 	 -36.9567 	 48.873 	 96.4738 	 
H 	 -36.0941 	 48.6153 	 97.078 	 
H 	 -36.4713 	 49.3035 	 95.579 	 
C 	 -37.7844 	 47.7198 	 95.9659 	 
H 	 -38.0987 	 47.1284 	 96.8111 	 
H 	 -37.1528 	 47.0333 	 95.3182 	 
H 	 -38.6421 	 48.049 	 95.4694 	 
H 	 -33.9975 	 47.9527 	 101.281 	 
H 	 -37.4922 	 54.4529 	 97.0044 	 
*
