! wB97X-D3 SP def2-SVP
%pal
nprocs 16
end

* xyz 0 1
S 	 -57.3294 	 54.0001 	 135.822 	 
C 	 -55.6602 	 54.3244 	 136.294 	 
C 	 -54.9197 	 53.171 	 136.297 	 
C 	 -55.6757 	 51.9692 	 136.109 	 
C 	 -57.0153 	 52.2561 	 135.858 	 
H 	 -55.2229 	 50.9968 	 136.269 	 
C 	 -53.346 	 53.1752 	 136.424 	 
H 	 -52.9385 	 52.1402 	 136.346 	 
H 	 -53.0894 	 53.4902 	 137.435 	 
C 	 -52.6492 	 54.093 	 135.322 	 
H 	 -52.8763 	 55.1135 	 135.523 	 
H 	 -51.5551 	 53.8904 	 135.399 	 
C 	 -53.007 	 53.6156 	 133.87 	 
H 	 -52.7581 	 52.6071 	 133.678 	 
H 	 -54.0552 	 53.7363 	 133.658 	 
H 	 -52.4107 	 54.2128 	 133.14 	 
S 	 -58.8959 	 51.3503 	 134.178 	 
C 	 -60.0841 	 50.1172 	 134.676 	 
C 	 -59.9232 	 49.768 	 136.002 	 
C 	 -58.78 	 50.4232 	 136.574 	 
C 	 -58.1191 	 51.2991 	 135.721 	 
H 	 -60.6208 	 49.0632 	 136.437 	 
C 	 -58.3131 	 49.9899 	 137.954 	 
H 	 -59.1366 	 49.5167 	 138.48 	 
H 	 -58.0729 	 50.8759 	 138.581 	 
C 	 -57.0303 	 49.1102 	 137.967 	 
H 	 -56.3272 	 49.2828 	 137.194 	 
H 	 -57.4801 	 48.0904 	 137.708 	 
C 	 -56.2762 	 49.0007 	 139.362 	 
H 	 -56.9792 	 48.8416 	 140.138 	 
H 	 -55.875 	 49.955 	 139.644 	 
H 	 -55.491 	 48.2214 	 139.297 	 
H 	 -55.2462 	 55.3328 	 136.428 	 
H 	 -60.8918 	 49.743 	 134.052 	 
*
