! wB97X-D3 SP def2-SVP
%pal
nprocs 16
end

* xyz 0 1
S 	 -7.28033 	 78.04 	 49.2917 	 
C 	 -5.70757 	 78.543 	 48.692 	 
C 	 -4.73387 	 77.6804 	 49.1035 	 
C 	 -5.27807 	 76.5219 	 49.7954 	 
C 	 -6.64678 	 76.5021 	 49.8599 	 
H 	 -4.78957 	 75.6645 	 50.1916 	 
C 	 -3.30699 	 77.7489 	 48.7245 	 
H 	 -3.13157 	 78.6281 	 48.0692 	 
H 	 -3.21381 	 76.8168 	 48.1491 	 
C 	 -2.30651 	 77.7272 	 49.8866 	 
H 	 -2.41883 	 78.6297 	 50.4898 	 
H 	 -2.4091 	 76.8351 	 50.5399 	 
C 	 -0.899972 	 77.5741 	 49.3375 	 
H 	 -0.239809 	 77.1856 	 50.1161 	 
H 	 -0.936924 	 76.9022 	 48.5007 	 
H 	 -0.463209 	 78.4676 	 49.0004 	 
S 	 -8.75639 	 76.0564 	 51.524 	 
C 	 -9.45019 	 74.504 	 51.6646 	 
C 	 -8.66878 	 73.6562 	 50.8733 	 
C 	 -7.49812 	 74.1624 	 50.228 	 
C 	 -7.52172 	 75.479 	 50.3504 	 
H 	 -8.89941 	 72.6028 	 50.7986 	 
C 	 -6.3645 	 73.3018 	 49.6963 	 
H 	 -6.57511 	 72.3204 	 50.0329 	 
H 	 -5.43929 	 73.5126 	 50.2558 	 
C 	 -6.19116 	 73.3698 	 48.193 	 
H 	 -5.26096 	 72.7765 	 47.9685 	 
H 	 -5.95394 	 74.3425 	 47.8714 	 
C 	 -7.31273 	 72.7085 	 47.4859 	 
H 	 -7.44276 	 71.6922 	 47.7497 	 
H 	 -7.08313 	 72.7648 	 46.408 	 
H 	 -8.24718 	 73.1882 	 47.7829 	 
H 	 -5.50541 	 79.2813 	 47.994 	 
H 	 -10.2884 	 74.1223 	 52.1621 	 
*
