! wB97X-D3 SP def2-SVP
%pal
nprocs 16
end

* xyz 0 1
S 	 -21.6815 	 34.687 	 38.4758 	 
C 	 -20.6528 	 33.2706 	 38.465 	 
C 	 -20.8029 	 32.4491 	 39.549 	 
C 	 -21.7684 	 33.0148 	 40.4564 	 
C 	 -22.3957 	 34.168 	 40.0595 	 
H 	 -22.0864 	 32.6013 	 41.3589 	 
C 	 -20.1163 	 31.1178 	 39.8214 	 
H 	 -20.4009 	 30.759 	 40.8289 	 
H 	 -19.0343 	 31.1833 	 39.9689 	 
C 	 -20.4864 	 29.9187 	 38.8775 	 
H 	 -21.4159 	 30.0979 	 38.4092 	 
H 	 -19.7903 	 29.9583 	 38.0195 	 
C 	 -20.5178 	 28.5476 	 39.6494 	 
H 	 -20.7354 	 27.767 	 38.9049 	 
H 	 -19.651 	 28.3348 	 40.1714 	 
H 	 -21.3337 	 28.6661 	 40.409 	 
S 	 -24.9784 	 34.6066 	 39.383 	 
C 	 -26.0477 	 35.2831 	 40.6181 	 
C 	 -25.4808 	 35.3017 	 41.8788 	 
C 	 -24.0572 	 35.0364 	 41.7605 	 
C 	 -23.6389 	 34.7497 	 40.4575 	 
H 	 -26.0375 	 35.4956 	 42.7707 	 
C 	 -23.2179 	 35.0957 	 42.9993 	 
H 	 -22.9233 	 36.2132 	 43.1349 	 
H 	 -22.2295 	 34.6262 	 42.8498 	 
C 	 -23.9423 	 34.5304 	 44.1966 	 
H 	 -24.3785 	 33.6151 	 44.0032 	 
H 	 -24.707 	 35.2628 	 44.3862 	 
C 	 -23.0021 	 34.4581 	 45.4091 	 
H 	 -23.4725 	 33.9996 	 46.3039 	 
H 	 -22.648 	 35.4812 	 45.6897 	 
H 	 -21.9989 	 34.0514 	 45.2374 	 
H 	 -19.9443 	 33.158 	 37.6639 	 
H 	 -27.1273 	 35.4517 	 40.5059 	 
*
