! wB97X-D3 SP def2-SVP
%pal
nprocs 16
end

* xyz 0 1
S 	 24.2292 	 -9.08485 	 77.3524 	 
C 	 25.6385 	 -8.62127 	 76.2753 	 
C 	 26.8469 	 -9.25796 	 76.7033 	 
C 	 26.628 	 -9.80917 	 77.9809 	 
C 	 25.2999 	 -9.75927 	 78.48 	 
H 	 27.3558 	 -10.3556 	 78.5842 	 
C 	 28.2251 	 -9.13412 	 76.0729 	 
H 	 28.3409 	 -8.07745 	 76.0458 	 
H 	 28.2319 	 -9.43329 	 75.0369 	 
C 	 29.3304 	 -9.7696 	 76.8671 	 
H 	 29.4101 	 -9.2552 	 77.835 	 
H 	 29.1057 	 -10.8562 	 76.9956 	 
C 	 30.736 	 -9.67289 	 76.209 	 
H 	 31.5073 	 -10.1497 	 76.7212 	 
H 	 30.7574 	 -10.1067 	 75.1636 	 
H 	 31.1812 	 -8.67116 	 76.0991 	 
S 	 24.0649 	 -11.9227 	 79.5927 	 
C 	 24.4539 	 -12.3334 	 81.2618 	 
C 	 24.9789 	 -11.237 	 81.873 	 
C 	 25.3061 	 -10.1336 	 80.9922 	 
C 	 24.8494 	 -10.3445 	 79.7223 	 
H 	 25.2283 	 -11.3461 	 82.9103 	 
C 	 26.1543 	 -8.95145 	 81.4549 	 
H 	 25.5638 	 -8.3784 	 82.1509 	 
H 	 26.4191 	 -8.37445 	 80.5634 	 
C 	 27.5014 	 -9.31887 	 82.1493 	 
H 	 27.928 	 -10.2662 	 81.8369 	 
H 	 27.1539 	 -9.5535 	 83.1224 	 
C 	 28.5608 	 -8.21029 	 82.1029 	 
H 	 28.7631 	 -7.81832 	 81.1007 	 
H 	 29.5152 	 -8.55715 	 82.4965 	 
H 	 28.2365 	 -7.37851 	 82.6615 	 
H 	 25.6825 	 -7.83462 	 75.5253 	 
H 	 24.1917 	 -13.2877 	 81.6789 	 
*
