! wB97X-D3 SP def2-SVP
%pal
nprocs 16
end

* xyz 0 1
S 	 49.3925 	 5.79713 	 85.7201 	 
C 	 48.8462 	 4.89006 	 84.3126 	 
C 	 47.8706 	 4.00556 	 84.7026 	 
C 	 47.648 	 4.01389 	 86.0812 	 
C 	 48.4787 	 4.81477 	 86.8024 	 
H 	 46.966 	 3.35364 	 86.6881 	 
C 	 47.0415 	 3.16589 	 83.8393 	 
H 	 47.0002 	 3.53745 	 82.7944 	 
H 	 46.055 	 3.12901 	 84.2054 	 
C 	 47.7916 	 1.80662 	 83.8619 	 
H 	 47.868 	 1.45272 	 84.8472 	 
H 	 47.1986 	 1.13688 	 83.329 	 
C 	 49.2389 	 1.76853 	 83.2773 	 
H 	 49.3629 	 2.07272 	 82.2143 	 
H 	 49.9825 	 2.2692 	 83.8879 	 
H 	 49.57 	 0.729699 	 83.2844 	 
S 	 47.7251 	 6.8525 	 88.3742 	 
C 	 47.5875 	 6.65159 	 90.0467 	 
C 	 48.1107 	 5.42922 	 90.4824 	 
C 	 48.3902 	 4.51126 	 89.3641 	 
C 	 48.256 	 5.2029 	 88.1376 	 
H 	 48.1316 	 5.15017 	 91.4947 	 
C 	 48.8253 	 3.11812 	 89.5502 	 
H 	 48.124 	 2.57269 	 88.9171 	 
H 	 48.6102 	 2.87006 	 90.5976 	 
C 	 50.3071 	 2.74984 	 89.3928 	 
H 	 50.5408 	 3.19286 	 88.4271 	 
H 	 50.4178 	 1.66274 	 89.1768 	 
C 	 51.3812 	 3.0649 	 90.4333 	 
H 	 52.3623 	 2.98548 	 89.9114 	 
H 	 51.5104 	 2.3575 	 91.2305 	 
H 	 51.1609 	 4.08938 	 90.7356 	 
H 	 49.1686 	 5.0252 	 83.3474 	 
H 	 47.2876 	 7.39102 	 90.7144 	 
*
