! wB97X-D3 SP def2-SVP
%pal
nprocs 16
end

* xyz 0 1
S 	 6.36265 	 -15.2811 	 85.651 	 
C 	 7.22576 	 -14.9112 	 84.1245 	 
C 	 8.49345 	 -14.4524 	 84.4673 	 
C 	 8.67755 	 -14.2415 	 85.8747 	 
C 	 7.61481 	 -14.6654 	 86.6488 	 
H 	 9.5423 	 -13.8131 	 86.4014 	 
C 	 9.62512 	 -14.2232 	 83.4491 	 
H 	 10.073 	 -13.3164 	 83.9049 	 
H 	 9.25465 	 -14.0775 	 82.4529 	 
C 	 10.6644 	 -15.3761 	 83.4518 	 
H 	 11.2029 	 -15.4393 	 84.3754 	 
H 	 10.1693 	 -16.2965 	 83.2762 	 
C 	 11.7467 	 -15.1934 	 82.3432 	 
H 	 11.387 	 -15.4612 	 81.3868 	 
H 	 12.2551 	 -14.2457 	 82.2907 	 
H 	 12.5111 	 -15.8429 	 82.5376 	 
S 	 6.57684 	 -15.9314 	 88.924 	 
C 	 6.932 	 -15.2667 	 90.496 	 
C 	 7.65257 	 -14.0968 	 90.4381 	 
C 	 8.0336 	 -13.7812 	 89.0872 	 
C 	 7.50617 	 -14.6565 	 88.1087 	 
H 	 7.98139 	 -13.5021 	 91.2727 	 
C 	 8.81085 	 -12.5322 	 88.9272 	 
H 	 8.16463 	 -11.7511 	 89.2933 	 
H 	 8.79806 	 -12.1469 	 87.9091 	 
C 	 10.2151 	 -12.5185 	 89.6344 	 
H 	 10.7722 	 -13.3286 	 89.2552 	 
H 	 10.1923 	 -12.7456 	 90.6992 	 
C 	 10.9079 	 -11.1202 	 89.3806 	 
H 	 10.8645 	 -10.7857 	 88.2804 	 
H 	 11.9391 	 -11.1249 	 89.6844 	 
H 	 10.4965 	 -10.3083 	 90.0453 	 
H 	 7.01608 	 -15.0983 	 83.0784 	 
H 	 6.62239 	 -15.735 	 91.4214 	 
*
