! wB97X-D3 SP def2-SVP
%pal
nprocs 16
end

* xyz 0 1
S 	 7.73051 	 -24.8095 	 85.1214 	 
C 	 6.05156 	 -24.402 	 85.4598 	 
C 	 5.39759 	 -24.2287 	 84.2456 	 
C 	 6.26838 	 -24.3352 	 83.081 	 
C 	 7.57305 	 -24.5435 	 83.418 	 
H 	 5.91255 	 -24.1514 	 82.1008 	 
C 	 3.89036 	 -23.8593 	 84.1063 	 
H 	 3.40999 	 -24.3183 	 84.9652 	 
H 	 3.47303 	 -24.4652 	 83.2925 	 
C 	 3.62219 	 -22.3345 	 83.8203 	 
H 	 4.27936 	 -21.7143 	 84.5004 	 
H 	 3.96216 	 -22.2266 	 82.8027 	 
C 	 2.12359 	 -22.0685 	 84.0093 	 
H 	 1.82796 	 -21.0456 	 84.1226 	 
H 	 1.52962 	 -22.3526 	 83.1422 	 
H 	 1.63815 	 -22.6102 	 84.8598 	 
S 	 9.83709 	 -26.1612 	 82.8376 	 
C 	 10.7804 	 -25.8436 	 81.4543 	 
C 	 10.2794 	 -24.7457 	 80.7643 	 
C 	 9.11763 	 -24.1099 	 81.3308 	 
C 	 8.72124 	 -24.7884 	 82.53 	 
H 	 10.7485 	 -24.4882 	 79.8202 	 
C 	 8.45986 	 -22.9864 	 80.5878 	 
H 	 9.11932 	 -22.1852 	 80.4095 	 
H 	 7.71504 	 -22.5494 	 81.1762 	 
C 	 7.72996 	 -23.4625 	 79.2821 	 
H 	 7.00637 	 -24.2967 	 79.533 	 
H 	 8.37588 	 -24.0301 	 78.6473 	 
C 	 7.05758 	 -22.3088 	 78.5004 	 
H 	 7.73379 	 -21.4917 	 78.1607 	 
H 	 6.32353 	 -21.7737 	 79.0855 	 
H 	 6.5988 	 -22.7321 	 77.5902 	 
H 	 5.62798 	 -24.31 	 86.4307 	 
H 	 11.7206 	 -26.4061 	 81.17 	 
*
