! wB97X-D3 SP def2-SVP
%pal
nprocs 16
end

* xyz 0 1
S 	 -26.3275 	 63.1446 	 104.282 	 
C 	 -27.4409 	 64.3393 	 103.714 	 
C 	 -28.7347 	 63.9261 	 103.704 	 
C 	 -28.7607 	 62.523 	 104.064 	 
C 	 -27.5519 	 61.9523 	 104.241 	 
H 	 -29.6098 	 61.7898 	 104.04 	 
C 	 -29.9706 	 64.6909 	 103.428 	 
H 	 -29.7796 	 65.7154 	 103.861 	 
H 	 -30.8199 	 64.2752 	 103.966 	 
C 	 -30.4026 	 64.742 	 101.963 	 
H 	 -29.5102 	 65.237 	 101.559 	 
H 	 -30.4649 	 63.8161 	 101.435 	 
C 	 -31.5733 	 65.7312 	 101.75 	 
H 	 -32.4448 	 65.6103 	 102.466 	 
H 	 -31.3592 	 66.7872 	 101.816 	 
H 	 -31.9587 	 65.5439 	 100.762 	 
S 	 -26.9032 	 60.2032 	 106.285 	 
C 	 -26.6084 	 58.5 	 105.914 	 
C 	 -27.0927 	 58.2216 	 104.667 	 
C 	 -27.542 	 59.3765 	 103.934 	 
C 	 -27.3025 	 60.551 	 104.637 	 
H 	 -27.1518 	 57.241 	 104.236 	 
C 	 -28.1185 	 59.3103 	 102.52 	 
H 	 -27.2853 	 58.9975 	 101.926 	 
H 	 -28.2935 	 60.3309 	 102.04 	 
C 	 -29.2836 	 58.3271 	 102.399 	 
H 	 -28.9337 	 57.2782 	 102.553 	 
H 	 -29.4528 	 58.308 	 101.39 	 
C 	 -30.4192 	 58.7306 	 103.321 	 
H 	 -30.0831 	 58.3917 	 104.262 	 
H 	 -31.2169 	 58.0458 	 103.039 	 
H 	 -30.7475 	 59.7279 	 103.34 	 
H 	 -27.2159 	 65.3325 	 103.283 	 
H 	 -26.1337 	 57.8304 	 106.617 	 
*
