! wB97X-D3 SP def2-SVP
%pal
nprocs 16
end

* xyz 0 1
S 	 -9.60929 	 -8.92129 	 76.0481 	 
C 	 -9.08188 	 -10.5378 	 76.1239 	 
C 	 -9.70598 	 -11.3609 	 75.1871 	 
C 	 -10.6156 	 -10.593 	 74.4064 	 
C 	 -10.8356 	 -9.2894 	 74.8248 	 
H 	 -11.2829 	 -11.0057 	 73.6789 	 
C 	 -9.24316 	 -12.771 	 74.8116 	 
H 	 -8.30609 	 -12.9893 	 75.4534 	 
H 	 -8.83528 	 -12.6788 	 73.8039 	 
C 	 -10.2748 	 -13.908 	 74.8527 	 
H 	 -10.4739 	 -14.1593 	 75.902 	 
H 	 -11.1473 	 -13.5419 	 74.3429 	 
C 	 -9.83564 	 -15.2087 	 74.145 	 
H 	 -9.70956 	 -15.1194 	 73.0687 	 
H 	 -9.00212 	 -15.7311 	 74.5605 	 
H 	 -10.605 	 -15.9492 	 74.2143 	 
S 	 -12.4745 	 -7.2074 	 75.4908 	 
C 	 -13.4805 	 -6.39098 	 74.2474 	 
C 	 -13.1444 	 -6.87328 	 73.0286 	 
C 	 -12.1895 	 -7.98427 	 73.0441 	 
C 	 -11.6607 	 -8.28067 	 74.3113 	 
H 	 -13.7114 	 -6.45927 	 72.1773 	 
C 	 -11.8275 	 -8.6019 	 71.7377 	 
H 	 -12.6883 	 -8.81334 	 71.1309 	 
H 	 -11.4032 	 -9.57079 	 71.8355 	 
C 	 -10.8751 	 -7.76873 	 70.9328 	 
H 	 -11.1937 	 -6.72834 	 71.0785 	 
H 	 -11.0465 	 -7.9469 	 69.8393 	 
C 	 -9.49604 	 -7.95072 	 71.3165 	 
H 	 -9.20917 	 -8.98489 	 71.008 	 
H 	 -9.29454 	 -7.94828 	 72.4447 	 
H 	 -8.82181 	 -7.25465 	 70.7479 	 
H 	 -8.49324 	 -10.917 	 76.9368 	 
H 	 -14.0436 	 -5.45451 	 74.4447 	 
*
