! wB97X-D3 SP def2-SVP
%pal
nprocs 16
end

* xyz 0 1
S 	 2.91596 	 -12.9325 	 100.794 	 
C 	 4.18813 	 -11.9369 	 101.425 	 
C 	 5.41405 	 -12.5156 	 101.352 	 
C 	 5.28308 	 -13.8799 	 100.968 	 
C 	 3.96917 	 -14.2846 	 100.595 	 
H 	 6.05455 	 -14.6008 	 100.98 	 
C 	 6.72974 	 -11.8916 	 101.562 	 
H 	 7.30146 	 -12.3945 	 102.31 	 
H 	 6.65646 	 -10.8725 	 102.04 	 
C 	 7.55571 	 -11.8188 	 100.273 	 
H 	 8.61543 	 -11.5407 	 100.436 	 
H 	 7.65325 	 -12.8134 	 99.8593 	 
C 	 6.92417 	 -10.8702 	 99.1979 	 
H 	 7.27145 	 -9.85213 	 99.3688 	 
H 	 7.34704 	 -11.0964 	 98.2831 	 
H 	 5.83276 	 -10.9058 	 99.0857 	 
S 	 1.83953 	 -15.833 	 99.7781 	 
C 	 2.01975 	 -17.3911 	 99.1049 	 
C 	 3.39992 	 -17.79 	 99.1419 	 
C 	 4.25472 	 -16.8332 	 99.8339 	 
C 	 3.56271 	 -15.5857 	 100.079 	 
H 	 3.66037 	 -18.76 	 98.7413 	 
C 	 5.74538 	 -17.1193 	 99.934 	 
H 	 6.38898 	 -16.3466 	 99.558 	 
H 	 6.04353 	 -17.9244 	 99.1704 	 
C 	 6.1737 	 -17.5316 	 101.36 	 
H 	 5.56895 	 -18.4089 	 101.69 	 
H 	 6.00929 	 -16.672 	 101.962 	 
C 	 7.73193 	 -17.9309 	 101.44 	 
H 	 8.01571 	 -18.0816 	 102.465 	 
H 	 8.38041 	 -17.1119 	 101.1 	 
H 	 8.0783 	 -18.7655 	 100.736 	 
H 	 4.0826 	 -10.8892 	 101.639 	 
H 	 1.19381 	 -18.0288 	 98.7708 	 
*
