! wB97X-D3 SP def2-SVP
%pal
nprocs 16
end

* xyz 0 1
S 	 -65.224 	 41.6697 	 137.491 	 
C 	 -64.5404 	 40.7881 	 138.888 	 
C 	 -64.0076 	 39.5307 	 138.557 	 
C 	 -64.2081 	 39.2548 	 137.154 	 
C 	 -64.6518 	 40.3398 	 136.4 	 
H 	 -63.9092 	 38.3443 	 136.682 	 
C 	 -63.4387 	 38.5181 	 139.573 	 
H 	 -63.8674 	 38.784 	 140.608 	 
H 	 -62.4504 	 38.8531 	 139.655 	 
C 	 -63.438 	 37.0493 	 139.206 	 
H 	 -62.812 	 36.934 	 138.282 	 
H 	 -62.9636 	 36.5644 	 140.033 	 
C 	 -64.8635 	 36.5209 	 139.01 	 
H 	 -65.4349 	 37.0291 	 138.23 	 
H 	 -64.8145 	 35.4485 	 138.706 	 
H 	 -65.4295 	 36.4976 	 139.901 	 
S 	 -66.0716 	 41.1342 	 134.138 	 
C 	 -65.2298 	 41.0371 	 132.615 	 
C 	 -64.0209 	 40.4097 	 132.685 	 
C 	 -63.7557 	 39.9088 	 133.985 	 
C 	 -64.6981 	 40.3225 	 134.918 	 
H 	 -63.4389 	 40.1772 	 131.89 	 
C 	 -62.5505 	 39.0293 	 134.263 	 
H 	 -62.1747 	 39.3329 	 135.231 	 
H 	 -61.7671 	 39.2617 	 133.49 	 
C 	 -62.8914 	 37.544 	 134.197 	 
H 	 -63.6855 	 37.4064 	 134.923 	 
H 	 -62.0313 	 36.8247 	 134.53 	 
C 	 -63.4405 	 37.1581 	 132.791 	 
H 	 -64.296 	 37.7252 	 132.43 	 
H 	 -63.6082 	 36.1143 	 132.738 	 
H 	 -62.6612 	 37.3312 	 132.064 	 
H 	 -64.4975 	 41.2719 	 139.816 	 
H 	 -65.7783 	 41.4054 	 131.729 	 
*
