! wB97X-D3 SP def2-SVP
%pal
nprocs 16
end

* xyz 0 1
S 	 -31.7075 	 68.4392 	 118.906 	 
C 	 -32.8511 	 67.1753 	 119.362 	 
C 	 -32.2136 	 65.9344 	 119.621 	 
C 	 -30.7983 	 66.0479 	 119.391 	 
C 	 -30.3998 	 67.3183 	 119.134 	 
H 	 -30.1151 	 65.1661 	 119.522 	 
C 	 -32.9064 	 64.69 	 120.155 	 
H 	 -32.7875 	 63.8662 	 119.494 	 
H 	 -34.0136 	 64.7719 	 120.042 	 
C 	 -32.4801 	 64.2361 	 121.559 	 
H 	 -32.775 	 63.1772 	 121.596 	 
H 	 -31.3906 	 64.1478 	 121.575 	 
C 	 -33.0071 	 65.1525 	 122.725 	 
H 	 -32.9085 	 64.6347 	 123.689 	 
H 	 -32.5017 	 66.0918 	 122.783 	 
H 	 -34.186 	 65.2143 	 122.648 	 
S 	 -28.2994 	 68.7344 	 120.111 	 
C 	 -26.8637 	 68.9094 	 119.175 	 
C 	 -26.8209 	 68.0085 	 118.121 	 
C 	 -28.073 	 67.3549 	 117.997 	 
C 	 -29.034 	 67.7734 	 118.89 	 
H 	 -25.9939 	 67.945 	 117.397 	 
C 	 -28.3551 	 66.3546 	 116.894 	 
H 	 -29.3646 	 65.9705 	 117.098 	 
H 	 -27.7499 	 65.5191 	 116.997 	 
C 	 -28.2983 	 66.9167 	 115.454 	 
H 	 -27.4551 	 67.5544 	 115.521 	 
H 	 -29.2302 	 67.4989 	 115.304 	 
C 	 -28.1009 	 65.7262 	 114.442 	 
H 	 -29.019 	 65.0973 	 114.498 	 
H 	 -27.2448 	 65.1203 	 114.765 	 
H 	 -28.0751 	 66.0718 	 113.393 	 
H 	 -33.9196 	 67.4759 	 119.41 	 
H 	 -26 	 69.5026 	 119.479 	 
*
