! wB97X-D3 SP def2-SVP
%pal
nprocs 16
end

* xyz 0 1
S 	 -52.7464 	 12.542 	 90.9178 	 
C 	 -51.4019 	 13.6268 	 90.8429 	 
C 	 -51.1066 	 13.9706 	 89.5302 	 
C 	 -52.0155 	 13.4601 	 88.586 	 
C 	 -53.072 	 12.7493 	 89.2006 	 
H 	 -52.0786 	 13.658 	 87.5795 	 
C 	 -50.0712 	 15.0608 	 89.2773 	 
H 	 -50.4748 	 15.933 	 89.7863 	 
H 	 -50.1416 	 15.3384 	 88.2002 	 
C 	 -48.5978 	 14.7056 	 89.6802 	 
H 	 -47.883 	 15.5217 	 89.353 	 
H 	 -48.4958 	 14.7342 	 90.7732 	 
C 	 -48.0562 	 13.4593 	 88.9805 	 
H 	 -47.8658 	 12.6293 	 89.6281 	 
H 	 -48.7137 	 13.1625 	 88.1593 	 
H 	 -47.1177 	 13.5525 	 88.5271 	 
S 	 -54.559 	 10.4027 	 88.9606 	 
C 	 -55.905 	 10.3651 	 87.8762 	 
C 	 -55.9684 	 11.5141 	 87.075 	 
C 	 -54.963 	 12.4927 	 87.3773 	 
C 	 -54.1965 	 12.0411 	 88.4916 	 
H 	 -56.736 	 11.6911 	 86.3468 	 
C 	 -55.0079 	 13.9413 	 86.833 	 
H 	 -53.9746 	 14.2505 	 86.5338 	 
H 	 -55.3075 	 14.5703 	 87.7676 	 
C 	 -55.9956 	 14.3228 	 85.7463 	 
H 	 -55.7717 	 15.4067 	 85.6433 	 
H 	 -56.9511 	 14.201 	 86.2849 	 
C 	 -55.7152 	 13.6422 	 84.3792 	 
H 	 -55.9744 	 12.5641 	 84.2625 	 
H 	 -54.6755 	 13.7847 	 84.0247 	 
H 	 -56.3499 	 14.0232 	 83.5355 	 
H 	 -50.7932 	 13.8509 	 91.7543 	 
H 	 -56.4688 	 9.48119 	 87.5467 	 
*
