! wB97X-D3 SP def2-SVP
%pal
nprocs 16
end

* xyz 0 1
S 	 -72.6571 	 51.3306 	 123.557 	 
C 	 -71.7523 	 51.2976 	 122.072 	 
C 	 -70.4675 	 50.7775 	 122.299 	 
C 	 -70.3463 	 50.0848 	 123.571 	 
C 	 -71.4408 	 50.2397 	 124.38 	 
H 	 -69.5274 	 49.5596 	 124.039 	 
C 	 -69.4033 	 50.9544 	 121.275 	 
H 	 -68.9175 	 51.9098 	 121.528 	 
H 	 -69.8477 	 51.0113 	 120.244 	 
C 	 -68.3476 	 49.8498 	 121.317 	 
H 	 -67.7373 	 49.9852 	 122.179 	 
H 	 -68.8403 	 48.8307 	 121.359 	 
C 	 -67.3909 	 49.9244 	 120.073 	 
H 	 -66.4811 	 49.2929 	 120.277 	 
H 	 -67.8795 	 49.5928 	 119.215 	 
H 	 -67.0537 	 51.0014 	 119.902 	 
S 	 -71.8118 	 51.1878 	 126.994 	 
C 	 -71.8641 	 50.0111 	 128.293 	 
C 	 -71.6151 	 48.7192 	 127.822 	 
C 	 -71.2468 	 48.6525 	 126.439 	 
C 	 -71.4325 	 49.8869 	 125.806 	 
H 	 -71.8277 	 47.9073 	 128.557 	 
C 	 -70.9623 	 47.3466 	 125.67 	 
H 	 -70.1343 	 46.7367 	 126.139 	 
H 	 -70.6326 	 47.5174 	 124.697 	 
C 	 -72.185 	 46.51 	 125.678 	 
H 	 -72.4585 	 46.3867 	 126.683 	 
H 	 -71.925 	 45.5304 	 125.345 	 
C 	 -73.2213 	 47.1728 	 124.68 	 
H 	 -73.3376 	 48.2279 	 124.897 	 
H 	 -74.2401 	 46.7235 	 124.855 	 
H 	 -72.938 	 46.9184 	 123.618 	 
H 	 -71.9871 	 51.6727 	 121.112 	 
H 	 -72.2457 	 50.2838 	 129.254 	 
*
