! wB97X-D3 SP def2-SVP
%pal
nprocs 16
end

* xyz 0 1
S 	 0.825272 	 -25.2963 	 82.8857 	 
C 	 2.47464 	 -25.934 	 82.8603 	 
C 	 3.43478 	 -25.0585 	 83.302 	 
C 	 2.81752 	 -23.7939 	 83.7347 	 
C 	 1.48616 	 -23.699 	 83.4965 	 
H 	 3.31042 	 -22.898 	 84.103 	 
C 	 4.90234 	 -25.3305 	 83.5701 	 
H 	 5.46996 	 -24.8103 	 82.7838 	 
H 	 5.18125 	 -26.3872 	 83.3452 	 
C 	 5.56236 	 -24.8784 	 84.8229 	 
H 	 6.57714 	 -25.2052 	 84.9208 	 
H 	 5.53191 	 -23.8192 	 84.8909 	 
C 	 4.76477 	 -25.4255 	 86.019 	 
H 	 5.33247 	 -25.2465 	 86.9048 	 
H 	 3.72899 	 -25.1005 	 86.104 	 
H 	 4.66915 	 -26.525 	 85.9071 	 
S 	 -1.08886 	 -23.3052 	 84.3846 	 
C 	 -1.67807 	 -21.7984 	 84.9753 	 
C 	 -0.705943 	 -20.8637 	 84.7992 	 
C 	 0.532781 	 -21.246 	 84.2325 	 
C 	 0.507466 	 -22.6796 	 84.0165 	 
H 	 -0.907847 	 -19.9055 	 85.2521 	 
C 	 1.70016 	 -20.2881 	 83.9927 	 
H 	 2.26306 	 -20.6095 	 83.1483 	 
H 	 2.45158 	 -20.3857 	 84.8313 	 
C 	 1.23977 	 -18.8175 	 83.8812 	 
H 	 2.14959 	 -18.3048 	 83.8769 	 
H 	 0.700767 	 -18.4974 	 84.7744 	 
C 	 0.599482 	 -18.403 	 82.5735 	 
H 	 -0.0710009 	 -17.579 	 82.4126 	 
H 	 -0.112911 	 -19.1863 	 82.3584 	 
H 	 1.24673 	 -18.4007 	 81.6791 	 
H 	 2.67565 	 -26.9252 	 82.4102 	 
H 	 -2.56333 	 -21.5918 	 85.5141 	 
*
