! wB97X-D3 SP def2-SVP
%pal
nprocs 16
end

* xyz 0 1
S 	 -0.828379 	 8.94262 	 83.7574 	 
C 	 -2.52751 	 8.93358 	 83.4494 	 
C 	 -3.07688 	 10.1961 	 83.3268 	 
C 	 -2.04416 	 11.1551 	 83.4856 	 
C 	 -0.776734 	 10.6475 	 83.8247 	 
H 	 -2.24775 	 12.2212 	 83.4949 	 
C 	 -4.53039 	 10.589 	 83.0881 	 
H 	 -4.50059 	 11.6308 	 83.4288 	 
H 	 -5.11779 	 9.96599 	 83.7961 	 
C 	 -5.04572 	 10.4373 	 81.6014 	 
H 	 -4.47868 	 10.9907 	 80.9419 	 
H 	 -5.0309 	 9.44266 	 81.102 	 
C 	 -6.38266 	 11.0411 	 81.4606 	 
H 	 -6.54084 	 11.9396 	 82.0374 	 
H 	 -6.54589 	 11.2385 	 80.3762 	 
H 	 -7.04653 	 10.2684 	 81.8748 	 
S 	 1.6585 	 10.612 	 85.3808 	 
C 	 2.49989 	 12.1316 	 85.4594 	 
C 	 2.12522 	 12.9137 	 84.3846 	 
C 	 0.912656 	 12.5483 	 83.7161 	 
C 	 0.434909 	 11.3694 	 84.2318 	 
H 	 2.73776 	 13.7796 	 84.1346 	 
C 	 0.406319 	 13.3449 	 82.4846 	 
H 	 -0.227449 	 12.7185 	 81.8078 	 
H 	 1.31384 	 13.4711 	 81.8761 	 
C 	 -0.221153 	 14.7787 	 82.7546 	 
H 	 0.202785 	 15.112 	 83.7158 	 
H 	 -1.30506 	 14.8295 	 82.8834 	 
C 	 0.077215 	 15.7852 	 81.6332 	 
H 	 -0.326422 	 15.3441 	 80.7065 	 
H 	 1.18739 	 16.0541 	 81.5742 	 
H 	 -0.353711 	 16.7439 	 81.8593 	 
H 	 -3.14862 	 8.02596 	 83.3543 	 
H 	 3.40206 	 12.3741 	 86.0266 	 
*
