! wB97X-D3 SP def2-SVP
%pal
nprocs 16
end

* xyz 0 1
S 	 12.9465 	 -7.00049 	 74.0745 	 
C 	 12.6925 	 -5.37308 	 74.6596 	 
C 	 12.0688 	 -4.58277 	 73.712 	 
C 	 11.7692 	 -5.29823 	 72.4645 	 
C 	 12.2711 	 -6.55742 	 72.4771 	 
H 	 11.4334 	 -4.85848 	 71.4839 	 
C 	 11.5362 	 -3.17717 	 73.9778 	 
H 	 11.6364 	 -2.89468 	 75.0377 	 
H 	 10.4581 	 -3.26429 	 73.7828 	 
C 	 12.2004 	 -2.15518 	 73.031 	 
H 	 13.274 	 -2.20655 	 73.2311 	 
H 	 11.9854 	 -2.49386 	 72.0548 	 
C 	 11.7673 	 -0.714973 	 73.2848 	 
H 	 11.5856 	 -0.47635 	 74.3853 	 
H 	 12.5117 	 0.0576997 	 72.9096 	 
H 	 10.878 	 -0.614157 	 72.7022 	 
S 	 13.5203 	 -8.57433 	 70.9048 	 
C 	 12.5366 	 -9.27704 	 69.6851 	 
C 	 11.2994 	 -8.72007 	 69.5876 	 
C 	 11.0539 	 -7.74298 	 70.6419 	 
C 	 12.1866 	 -7.50611 	 71.3982 	 
H 	 10.623 	 -9.22594 	 68.9389 	 
C 	 9.65915 	 -7.30602 	 71.071 	 
H 	 8.96163 	 -7.56557 	 70.3254 	 
H 	 9.49342 	 -6.21391 	 71.1261 	 
C 	 9.11749 	 -8.03559 	 72.3504 	 
H 	 9.84168 	 -8.11034 	 73.1281 	 
H 	 8.87689 	 -9.03076 	 71.9337 	 
C 	 7.77376 	 -7.59847 	 72.8637 	 
H 	 7.56662 	 -8.28284 	 73.6966 	 
H 	 6.99143 	 -7.78456 	 72.162 	 
H 	 7.6545 	 -6.57891 	 73.249 	 
H 	 12.9462 	 -4.99184 	 75.6597 	 
H 	 12.8768 	 -10.067 	 69.0726 	 
*
