! wB97X-D3 SP def2-SVP
%pal
nprocs 16
end

* xyz 0 1
S 	 -1.72021 	 -13.2375 	 52.8925 	 
C 	 -2.712 	 -12.8884 	 51.4767 	 
C 	 -3.92653 	 -13.5643 	 51.5449 	 
C 	 -4.05501 	 -14.3171 	 52.7393 	 
C 	 -3.0181 	 -14.1154 	 53.6095 	 
H 	 -4.85169 	 -14.9036 	 53.1165 	 
C 	 -4.91953 	 -13.5809 	 50.4158 	 
H 	 -5.52305 	 -14.4451 	 50.7178 	 
H 	 -4.56054 	 -13.8968 	 49.4553 	 
C 	 -5.82017 	 -12.3834 	 50.3848 	 
H 	 -6.68478 	 -12.5772 	 49.7186 	 
H 	 -6.28281 	 -12.2737 	 51.3285 	 
C 	 -5.18998 	 -11.0611 	 49.991 	 
H 	 -5.03054 	 -10.9706 	 48.9092 	 
H 	 -5.83104 	 -10.163 	 50.1767 	 
H 	 -4.359 	 -10.822 	 50.5972 	 
S 	 -1.26831 	 -15.6761 	 54.8896 	 
C 	 -1.85008 	 -16.6932 	 56.1811 	 
C 	 -3.17168 	 -16.4706 	 56.4961 	 
C 	 -3.68438 	 -15.3109 	 55.7537 	 
C 	 -2.79893 	 -14.875 	 54.8111 	 
H 	 -3.58318 	 -17.016 	 57.3313 	 
C 	 -5.06757 	 -14.7739 	 55.8181 	 
H 	 -5.71206 	 -15.5694 	 55.4473 	 
H 	 -5.1393 	 -13.9277 	 55.1383 	 
C 	 -5.44014 	 -14.337 	 57.1818 	 
H 	 -4.79789 	 -13.6104 	 57.6369 	 
H 	 -5.4695 	 -15.2815 	 57.7674 	 
C 	 -6.86116 	 -13.6865 	 57.3419 	 
H 	 -7.15384 	 -13.2622 	 56.418 	 
H 	 -6.80689 	 -12.9702 	 58.116 	 
H 	 -7.72672 	 -14.3392 	 57.5253 	 
H 	 -2.44753 	 -12.2841 	 50.5907 	 
H 	 -1.3036 	 -17.5534 	 56.6134 	 
*
