! wB97X-D3 SP def2-SVP
%pal
nprocs 16
end

* xyz 0 1
S 	 -81.1976 	 43.7426 	 138.412 	 
C 	 -80.83 	 43.5689 	 140.086 	 
C 	 -79.5712 	 44.0258 	 140.514 	 
C 	 -78.9938 	 44.8106 	 139.444 	 
C 	 -79.6504 	 44.7201 	 138.2 	 
H 	 -78.1278 	 45.3937 	 139.563 	 
C 	 -78.9673 	 43.8669 	 141.904 	 
H 	 -79.4284 	 43.057 	 142.493 	 
H 	 -79.4074 	 44.6632 	 142.534 	 
C 	 -77.3715 	 43.7787 	 141.871 	 
H 	 -76.9524 	 44.7126 	 141.586 	 
H 	 -76.9974 	 43.7243 	 142.933 	 
C 	 -76.8694 	 42.4171 	 141.208 	 
H 	 -75.8412 	 42.1597 	 141.534 	 
H 	 -77.5667 	 41.6203 	 141.378 	 
H 	 -76.6871 	 42.3752 	 140.085 	 
S 	 -80.6566 	 46.3339 	 136.14 	 
C 	 -79.4684 	 46.7085 	 134.934 	 
C 	 -78.2818 	 46.0311 	 135.009 	 
C 	 -78.2506 	 45.2534 	 136.192 	 
C 	 -79.3554 	 45.3359 	 136.94 	 
H 	 -77.5739 	 46.0702 	 134.232 	 
C 	 -77.0843 	 44.3369 	 136.54 	 
H 	 -76.6081 	 44.6078 	 137.513 	 
H 	 -76.2992 	 44.5759 	 135.806 	 
C 	 -77.2481 	 42.8279 	 136.54 	 
H 	 -77.9067 	 42.5489 	 137.365 	 
H 	 -76.3221 	 42.3188 	 136.737 	 
C 	 -77.7967 	 42.2154 	 135.228 	 
H 	 -78.3477 	 41.3012 	 135.424 	 
H 	 -77.0418 	 42.1149 	 134.451 	 
H 	 -78.5955 	 42.8189 	 134.76 	 
H 	 -81.4324 	 43.037 	 140.751 	 
H 	 -79.6619 	 47.3417 	 134.024 	 
*
