! wB97X-D3 SP def2-SVP
%pal
nprocs 16
end

* xyz 0 1
S 	 37.4412 	 29.4256 	 92.477 	 
C 	 36.5033 	 30.5026 	 91.4292 	 
C 	 35.901 	 29.8038 	 90.4269 	 
C 	 36.1268 	 28.4183 	 90.5039 	 
C 	 36.9678 	 28.0357 	 91.5162 	 
H 	 35.5416 	 27.6192 	 90.0845 	 
C 	 34.7333 	 30.3672 	 89.4934 	 
H 	 34.8066 	 31.4625 	 89.5875 	 
H 	 33.8107 	 29.9677 	 89.8956 	 
C 	 34.8149 	 30.0583 	 87.978 	 
H 	 34.5773 	 28.9407 	 87.8932 	 
H 	 33.9774 	 30.4494 	 87.5039 	 
C 	 36.1919 	 30.3767 	 87.2816 	 
H 	 36.8994 	 29.6622 	 87.7817 	 
H 	 36.2867 	 30.1811 	 86.2319 	 
H 	 36.6439 	 31.3381 	 87.3544 	 
S 	 37.5033 	 26.4948 	 93.7528 	 
C 	 37.8204 	 24.794 	 93.5685 	 
C 	 37.7588 	 24.3885 	 92.2693 	 
C 	 37.5721 	 25.4839 	 91.3374 	 
C 	 37.3817 	 26.712 	 92.0101 	 
H 	 37.9576 	 23.3838 	 92.0891 	 
C 	 37.6559 	 25.3234 	 89.8758 	 
H 	 37.045 	 25.9273 	 89.2566 	 
H 	 37.4686 	 24.2482 	 89.7644 	 
C 	 39.0862 	 25.4814 	 89.3987 	 
H 	 39.7131 	 24.7791 	 89.8893 	 
H 	 39.3706 	 26.4328 	 89.7052 	 
C 	 39.1786 	 25.4107 	 87.9061 	 
H 	 40.2445 	 25.3975 	 87.6662 	 
H 	 38.7233 	 26.088 	 87.1712 	 
H 	 38.933 	 24.4061 	 87.5766 	 
H 	 36.3969 	 31.5531 	 91.6457 	 
H 	 38.1031 	 24.2031 	 94.4723 	 
*
