! wB97X-D3 SP def2-SVP
%pal
nprocs 16
end

* xyz 0 1
S 	 38.2344 	 33.683 	 54.1965 	 
C 	 36.7715 	 34.054 	 53.3177 	 
C 	 35.7131 	 33.3538 	 53.9108 	 
C 	 36.0976 	 32.5982 	 55.1168 	 
C 	 37.4362 	 32.7225 	 55.402 	 
H 	 35.4119 	 32.0808 	 55.8051 	 
C 	 34.2629 	 33.414 	 53.4255 	 
H 	 34.1263 	 34.2781 	 52.7324 	 
H 	 33.66 	 33.5745 	 54.3305 	 
C 	 33.6845 	 32.0846 	 52.9383 	 
H 	 34.0213 	 31.9718 	 51.9174 	 
H 	 34.0963 	 31.3117 	 53.6278 	 
C 	 32.1784 	 31.8865 	 52.9677 	 
H 	 31.7025 	 31.8354 	 53.9545 	 
H 	 31.6207 	 32.729 	 52.5826 	 
H 	 31.7817 	 31.0798 	 52.3843 	 
S 	 39.9325 	 32.35 	 56.4962 	 
C 	 40.1945 	 31.1508 	 57.7609 	 
C 	 39.0581 	 30.4132 	 57.9935 	 
C 	 37.916 	 30.9105 	 57.2327 	 
C 	 38.1819 	 31.9592 	 56.3807 	 
H 	 39.1277 	 29.5725 	 58.6749 	 
C 	 36.5462 	 30.199 	 57.2902 	 
H 	 36.6922 	 29.1415 	 57.6365 	 
H 	 36.1396 	 30.0881 	 56.225 	 
C 	 35.581 	 30.9472 	 58.2433 	 
H 	 35.6816 	 32.1303 	 58.1095 	 
H 	 35.9425 	 30.7158 	 59.2227 	 
C 	 34.1917 	 30.3515 	 58.2682 	 
H 	 33.7655 	 30.7606 	 59.1352 	 
H 	 34.3407 	 29.2998 	 58.4301 	 
H 	 33.5823 	 30.4232 	 57.4169 	 
H 	 36.7698 	 34.8886 	 52.5259 	 
H 	 41.1026 	 30.8193 	 58.1566 	 
*
