! wB97X-D3 SP def2-SVP
%pal
nprocs 16
end

* xyz 0 1
S 	 -32.1061 	 66.9932 	 103.288 	 
C 	 -30.492 	 66.2918 	 103.293 	 
C 	 -29.4767 	 67.219 	 103.422 	 
C 	 -29.9953 	 68.5194 	 103.387 	 
C 	 -31.3641 	 68.6093 	 103.222 	 
H 	 -29.4929 	 69.4625 	 103.562 	 
C 	 -27.9733 	 66.8998 	 103.583 	 
H 	 -27.8598 	 65.875 	 103.524 	 
H 	 -27.7911 	 67.074 	 104.622 	 
C 	 -26.9641 	 67.5417 	 102.688 	 
H 	 -27.0196 	 68.676 	 102.846 	 
H 	 -25.9423 	 67.2098 	 102.939 	 
C 	 -27.1598 	 67.2048 	 101.224 	 
H 	 -27.5322 	 66.1973 	 101.083 	 
H 	 -27.9653 	 67.7879 	 100.802 	 
H 	 -26.216 	 67.3989 	 100.697 	 
S 	 -33.5391 	 69.7753 	 104.458 	 
C 	 -33.9976 	 71.3674 	 104.019 	 
C 	 -33.0083 	 72.0508 	 103.401 	 
C 	 -32.017 	 71.1726 	 102.912 	 
C 	 -32.1654 	 69.863 	 103.418 	 
H 	 -33.0943 	 73.1414 	 103.192 	 
C 	 -30.9432 	 71.4894 	 101.865 	 
H 	 -30.2129 	 70.6858 	 101.713 	 
H 	 -30.3347 	 72.3705 	 102.123 	 
C 	 -31.4415 	 72.0063 	 100.517 	 
H 	 -30.5754 	 72.5498 	 100.011 	 
H 	 -32.1846 	 72.7753 	 100.695 	 
C 	 -31.9124 	 70.9108 	 99.5562 	 
H 	 -31.0724 	 70.2351 	 99.2752 	 
H 	 -32.3885 	 71.2843 	 98.6781 	 
H 	 -32.5918 	 70.2602 	 100.112 	 
H 	 -30.2516 	 65.2666 	 103.205 	 
H 	 -34.8022 	 71.8297 	 104.58 	 
*
