! wB97X-D3 SP def2-SVP
%pal
nprocs 16
end

* xyz 0 1
S 	 8.30181 	 -5.00531 	 90.1655 	 
C 	 8.80085 	 -3.58766 	 89.3038 	 
C 	 8.41474 	 -3.66077 	 87.9361 	 
C 	 7.70305 	 -4.89081 	 87.6159 	 
C 	 7.42464 	 -5.66899 	 88.7647 	 
H 	 7.2297 	 -4.97403 	 86.6333 	 
C 	 8.68279 	 -2.53703 	 86.8964 	 
H 	 8.95133 	 -3.0094 	 85.9696 	 
H 	 9.51435 	 -1.94329 	 87.2121 	 
C 	 7.56954 	 -1.5261 	 86.7707 	 
H 	 6.64267 	 -2.06749 	 86.949 	 
H 	 7.70552 	 -0.789362 	 87.5666 	 
C 	 7.49511 	 -0.731883 	 85.4292 	 
H 	 6.69588 	 0.0562783 	 85.6087 	 
H 	 8.44841 	 -0.177388 	 85.2166 	 
H 	 7.2525 	 -1.43039 	 84.6132 	 
S 	 6.9714 	 -8.36734 	 88.7198 	 
C 	 5.35248 	 -8.96067 	 89.1396 	 
C 	 4.48339 	 -7.94254 	 89.505 	 
C 	 5.06885 	 -6.59334 	 89.3477 	 
C 	 6.43745 	 -6.6485 	 88.8769 	 
H 	 3.46069 	 -8.12812 	 89.7366 	 
C 	 4.2669 	 -5.37619 	 89.6634 	 
H 	 5.06978 	 -4.61634 	 89.9213 	 
H 	 3.71281 	 -5.45426 	 90.591 	 
C 	 3.45901 	 -4.75533 	 88.5142 	 
H 	 3.03037 	 -5.44836 	 87.8309 	 
H 	 4.10434 	 -4.13452 	 87.8626 	 
C 	 2.37567 	 -3.76721 	 89.0564 	 
H 	 2.82531 	 -2.95442 	 89.63 	 
H 	 1.56771 	 -4.24192 	 89.5667 	 
H 	 2.03761 	 -3.20339 	 88.184 	 
H 	 9.20046 	 -2.62216 	 89.7536 	 
H 	 5.1041 	 -9.99484 	 89.3589 	 
*
