! wB97X-D3 SP def2-SVP
%pal
nprocs 16
end

* xyz 0 1
S 	 37.8609 	 12.5479 	 81.2756 	 
C 	 38.201 	 11.8486 	 79.6383 	 
C 	 39.4626 	 12.1335 	 79.1997 	 
C 	 40.0672 	 13.1314 	 80.0498 	 
C 	 39.298 	 13.5447 	 81.1642 	 
H 	 40.9914 	 13.5406 	 79.8014 	 
C 	 40.0475 	 11.5394 	 77.9565 	 
H 	 40.0648 	 10.4743 	 78.0731 	 
H 	 41.0821 	 11.9242 	 77.7548 	 
C 	 39.1861 	 11.784 	 76.6663 	 
H 	 38.2322 	 11.3563 	 76.9812 	 
H 	 39.0381 	 12.8511 	 76.4741 	 
C 	 39.8827 	 11.1361 	 75.3786 	 
H 	 40.921 	 11.4899 	 75.2362 	 
H 	 39.9794 	 10.0565 	 75.3199 	 
H 	 39.4151 	 11.5854 	 74.4977 	 
S 	 38.896 	 14.4281 	 83.8577 	 
C 	 40.0775 	 15.4615 	 84.5595 	 
C 	 40.8075 	 16.0769 	 83.5278 	 
C 	 40.4902 	 15.6174 	 82.2237 	 
C 	 39.6555 	 14.4984 	 82.2237 	 
H 	 41.3976 	 16.9338 	 83.7502 	 
C 	 41.1291 	 16.1773 	 80.8981 	 
H 	 40.557 	 15.8366 	 79.9933 	 
H 	 42.1314 	 15.6566 	 80.7382 	 
C 	 41.2401 	 17.7563 	 80.8686 	 
H 	 41.8172 	 18.0386 	 81.6671 	 
H 	 40.1877 	 18.1079 	 80.9197 	 
C 	 41.9193 	 18.3962 	 79.7103 	 
H 	 41.4566 	 18.2308 	 78.7561 	 
H 	 42.9036 	 17.9181 	 79.5665 	 
H 	 42.058 	 19.5084 	 79.7386 	 
H 	 37.5867 	 11.1065 	 79.1818 	 
H 	 39.9222 	 15.9369 	 85.4898 	 
*
