! wB97X-D3 SP def2-SVP
%pal
nprocs 16
end

* xyz 0 1
S 	 -4.60329 	 33.1034 	 53.0196 	 
C 	 -3.15836 	 33.0832 	 53.9831 	 
C 	 -1.98548 	 32.844 	 53.2531 	 
C 	 -2.38341 	 32.7137 	 51.9035 	 
C 	 -3.69704 	 32.9523 	 51.5517 	 
H 	 -1.71794 	 32.5631 	 51.1369 	 
C 	 -0.661256 	 32.4825 	 53.8853 	 
H 	 -0.706179 	 31.4524 	 54.3648 	 
H 	 -0.501453 	 33.1181 	 54.7167 	 
C 	 0.557833 	 32.6357 	 53.0145 	 
H 	 0.450101 	 31.9115 	 52.1692 	 
H 	 0.747214 	 33.6182 	 52.5877 	 
C 	 1.79021 	 32.1421 	 53.7555 	 
H 	 2.47053 	 31.5955 	 53.1029 	 
H 	 2.3543 	 32.915 	 54.1424 	 
H 	 1.58186 	 31.3959 	 54.4566 	 
S 	 -5.62743 	 31.7313 	 50.0218 	 
C 	 -5.79738 	 32.2451 	 48.3678 	 
C 	 -4.78356 	 33.107 	 47.9202 	 
C 	 -3.8866 	 33.4549 	 48.9891 	 
C 	 -4.21985 	 32.86 	 50.2288 	 
H 	 -4.70957 	 33.418 	 46.9033 	 
C 	 -2.76382 	 34.4077 	 48.8459 	 
H 	 -1.92628 	 34.1276 	 49.5439 	 
H 	 -3.00517 	 35.3694 	 49.2918 	 
C 	 -2.07555 	 34.5419 	 47.4705 	 
H 	 -2.81267 	 34.7146 	 46.6707 	 
H 	 -1.75907 	 33.5628 	 47.1453 	 
C 	 -0.907789 	 35.5211 	 47.5389 	 
H 	 -0.725681 	 35.7187 	 46.4956 	 
H 	 0.0922769 	 35.1299 	 47.9567 	 
H 	 -1.09075 	 36.5077 	 48.0048 	 
H 	 -3.22949 	 33.1143 	 55.0838 	 
H 	 -6.60977 	 31.852 	 47.7667 	 
*
