! wB97X-D3 SP def2-SVP
%pal
nprocs 16
end

* xyz 0 1
S 	 4.08783 	 -17.4308 	 84.8545 	 
C 	 3.91271 	 -18.4599 	 86.2559 	 
C 	 5.10586 	 -19.0371 	 86.6736 	 
C 	 6.201 	 -18.55 	 85.8668 	 
C 	 5.82673 	 -17.5888 	 84.9508 	 
H 	 7.24948 	 -18.7658 	 86.111 	 
C 	 5.27952 	 -19.9727 	 87.8815 	 
H 	 5.91121 	 -20.795 	 87.4695 	 
H 	 4.35033 	 -20.3481 	 88.2029 	 
C 	 5.86465 	 -19.3032 	 89.1275 	 
H 	 6.69617 	 -18.601 	 88.8645 	 
H 	 5.06112 	 -18.6964 	 89.6018 	 
C 	 6.32641 	 -20.3181 	 90.2766 	 
H 	 5.54353 	 -21.0305 	 90.5547 	 
H 	 7.24085 	 -20.865 	 90.1741 	 
H 	 6.49446 	 -19.5999 	 91.1206 	 
S 	 6.27192 	 -14.9812 	 84.5248 	 
C 	 7.62728 	 -14.3474 	 83.5873 	 
C 	 8.39676 	 -15.4459 	 83.1773 	 
C 	 7.78624 	 -16.7499 	 83.467 	 
C 	 6.68698 	 -16.6386 	 84.3123 	 
H 	 9.19023 	 -15.2743 	 82.5266 	 
C 	 8.41249 	 -18.1065 	 83.0242 	 
H 	 8.68462 	 -17.8785 	 81.9822 	 
H 	 7.71238 	 -19.0146 	 82.9954 	 
C 	 9.68843 	 -18.5811 	 83.7073 	 
H 	 9.55956 	 -18.6626 	 84.751 	 
H 	 10.4467 	 -17.7587 	 83.6398 	 
C 	 10.4359 	 -19.8048 	 83.0331 	 
H 	 9.88624 	 -20.7363 	 83.016 	 
H 	 11.3528 	 -19.9486 	 83.4223 	 
H 	 10.6928 	 -19.6356 	 82.0182 	 
H 	 2.93529 	 -18.7476 	 86.6696 	 
H 	 7.88025 	 -13.3381 	 83.3458 	 
*
