! wB97X-D3 SP def2-SVP
%pal
nprocs 16
end

* xyz 0 1
S 	 -2.53495 	 -26.1801 	 56.2377 	 
C 	 -3.06605 	 -26.0172 	 57.8994 	 
C 	 -2.40838 	 -25.0064 	 58.4873 	 
C 	 -1.48814 	 -24.2769 	 57.6373 	 
C 	 -1.57093 	 -24.7071 	 56.3768 	 
H 	 -0.739715 	 -23.4934 	 57.8662 	 
C 	 -2.48793 	 -24.4974 	 59.9771 	 
H 	 -1.39776 	 -24.4109 	 60.186 	 
H 	 -3.05973 	 -25.1749 	 60.5884 	 
C 	 -2.94499 	 -23.0113 	 60.2075 	 
H 	 -2.8574 	 -22.7114 	 61.2919 	 
H 	 -2.29681 	 -22.4105 	 59.6356 	 
C 	 -4.47528 	 -22.7073 	 59.8012 	 
H 	 -4.78168 	 -21.6367 	 60.0142 	 
H 	 -4.59175 	 -22.9633 	 58.7513 	 
H 	 -5.0643 	 -23.4574 	 60.3558 	 
S 	 0.748972 	 -24.6537 	 54.9601 	 
C 	 1.06905 	 -23.5392 	 53.7372 	 
C 	 0.163116 	 -22.5218 	 53.7687 	 
C 	 -0.875329 	 -22.7514 	 54.744 	 
C 	 -0.832074 	 -24.037 	 55.3338 	 
H 	 0.267786 	 -21.6629 	 53.0551 	 
C 	 -2.10288 	 -21.8406 	 54.8737 	 
H 	 -2.78217 	 -22.3372 	 55.5336 	 
H 	 -2.63838 	 -21.7718 	 53.9398 	 
C 	 -1.72978 	 -20.405 	 55.4369 	 
H 	 -2.66187 	 -19.9709 	 55.7309 	 
H 	 -1.33728 	 -19.7201 	 54.7924 	 
C 	 -0.904894 	 -20.4448 	 56.675 	 
H 	 -1.17791 	 -21.2166 	 57.3521 	 
H 	 -0.978077 	 -19.5123 	 57.2618 	 
H 	 0.18933 	 -20.59 	 56.5257 	 
H 	 -3.80841 	 -26.6975 	 58.3014 	 
H 	 1.97993 	 -23.6625 	 53.1414 	 
*
