! wB97X-D3 SP def2-SVP
%pal
nprocs 16
end

* xyz 0 1
S 	 -48.5335 	 54.7568 	 101.226 	 
C 	 -48.2012 	 53.1119 	 101.663 	 
C 	 -47.5069 	 52.5623 	 100.624 	 
C 	 -47.5269 	 53.3152 	 99.4498 	 
C 	 -48.0501 	 54.549 	 99.5868 	 
H 	 -47.1447 	 53.0924 	 98.4358 	 
C 	 -47.069 	 51.111 	 100.615 	 
H 	 -47.7638 	 50.539 	 99.903 	 
H 	 -47.1994 	 50.7966 	 101.663 	 
C 	 -45.6286 	 50.8565 	 100.14 	 
H 	 -45.4321 	 49.839 	 100.201 	 
H 	 -45.691 	 51.1038 	 99.0262 	 
C 	 -44.4328 	 51.5918 	 100.839 	 
H 	 -43.579 	 51.1842 	 100.365 	 
H 	 -44.4308 	 52.7269 	 100.725 	 
H 	 -44.4587 	 51.2598 	 101.85 	 
S 	 -49.545 	 56.607 	 98.498 	 
C 	 -48.9154 	 57.4942 	 97.0733 	 
C 	 -47.7508 	 56.9864 	 96.6288 	 
C 	 -47.1982 	 55.9684 	 97.5291 	 
C 	 -48.0925 	 55.5999 	 98.5687 	 
H 	 -47.3803 	 57.3986 	 95.7081 	 
C 	 -45.8115 	 55.3922 	 97.1044 	 
H 	 -45.8332 	 54.9395 	 96.0904 	 
H 	 -45.5433 	 54.6312 	 97.771 	 
C 	 -44.6202 	 56.4216 	 97.111 	 
H 	 -44.7912 	 57.2688 	 96.4744 	 
H 	 -43.787 	 55.9552 	 96.6606 	 
C 	 -44.2563 	 56.9627 	 98.577 	 
H 	 -45.0815 	 57.7064 	 98.9519 	 
H 	 -43.3701 	 57.5401 	 98.6146 	 
H 	 -44.0385 	 56.0807 	 99.1638 	 
H 	 -48.4101 	 52.6356 	 102.624 	 
H 	 -49.4193 	 58.275 	 96.4662 	 
*
