! wB97X-D3 SP def2-SVP
%pal
nprocs 16
end

* xyz 0 1
S 	 -40.2526 	 -0.724855 	 98.0708 	 
C 	 -39.4739 	 0.401423 	 99.1334 	 
C 	 -39.358 	 1.67712 	 98.5498 	 
C 	 -40.0425 	 1.69473 	 97.2777 	 
C 	 -40.6004 	 0.523954 	 96.875 	 
H 	 -40.2063 	 2.55128 	 96.6587 	 
C 	 -38.5947 	 2.86303 	 99.171 	 
H 	 -38.5141 	 2.84015 	 100.256 	 
H 	 -39.267 	 3.68178 	 99.1078 	 
C 	 -37.3194 	 3.32475 	 98.4641 	 
H 	 -36.6601 	 2.4968 	 98.4945 	 
H 	 -37.4393 	 3.60956 	 97.4266 	 
C 	 -36.5952 	 4.42766 	 99.1892 	 
H 	 -37.0415 	 5.44113 	 99.288 	 
H 	 -36.4072 	 4.0834 	 100.194 	 
H 	 -35.5856 	 4.53218 	 98.7351 	 
S 	 -42.7593 	 -0.849339 	 95.6791 	 
C 	 -42.7317 	 -1.06884 	 93.9626 	 
C 	 -41.7113 	 -0.317989 	 93.3564 	 
C 	 -40.9123 	 0.422524 	 94.2856 	 
C 	 -41.2509 	 0.169683 	 95.6133 	 
H 	 -41.6008 	 -0.405375 	 92.3056 	 
C 	 -39.6023 	 1.18918 	 93.8343 	 
H 	 -38.8771 	 1.18995 	 94.6021 	 
H 	 -40.0561 	 2.14391 	 93.8403 	 
C 	 -39.0162 	 0.794551 	 92.531 	 
H 	 -39.5465 	 1.23515 	 91.6755 	 
H 	 -39.0338 	 -0.232864 	 92.3584 	 
C 	 -37.5225 	 1.19626 	 92.2571 	 
H 	 -36.8398 	 0.76625 	 93.0192 	 
H 	 -37.2865 	 2.22097 	 92.472 	 
H 	 -37.2365 	 1.01914 	 91.2039 	 
H 	 -39.0964 	 0.20492 	 100.128 	 
H 	 -43.2757 	 -1.82037 	 93.4316 	 
*
