! wB97X-D3 SP def2-SVP
%pal
nprocs 16
end

* xyz 0 1
S 	 -112.08 	 41.6095 	 132.259 	 
C 	 -111.28 	 40.9894 	 133.677 	 
C 	 -110.245 	 41.8398 	 134.078 	 
C 	 -109.976 	 42.8453 	 133.119 	 
C 	 -110.948 	 42.8486 	 132.077 	 
H 	 -109.236 	 43.6735 	 133.149 	 
C 	 -109.32 	 41.7115 	 135.268 	 
H 	 -108.265 	 41.6037 	 134.968 	 
H 	 -109.65 	 40.7658 	 135.73 	 
C 	 -109.466 	 42.8139 	 136.283 	 
H 	 -108.724 	 42.9341 	 137.045 	 
H 	 -109.427 	 43.7741 	 135.772 	 
C 	 -110.818 	 42.6927 	 136.983 	 
H 	 -111.117 	 43.5826 	 137.515 	 
H 	 -111.616 	 42.3627 	 136.293 	 
H 	 -110.705 	 41.8844 	 137.641 	 
S 	 -109.587 	 43.749 	 129.873 	 
C 	 -110.302 	 45.0391 	 128.996 	 
C 	 -111.462 	 45.5184 	 129.481 	 
C 	 -111.86 	 44.7689 	 130.687 	 
C 	 -110.939 	 43.7948 	 131.026 	 
H 	 -111.954 	 46.3102 	 128.934 	 
C 	 -113.225 	 45.004 	 131.328 	 
H 	 -113.38 	 46.1207 	 131.421 	 
H 	 -113.226 	 44.5845 	 132.33 	 
C 	 -114.439 	 44.4905 	 130.508 	 
H 	 -114.299 	 43.4694 	 130.409 	 
H 	 -114.382 	 44.9831 	 129.525 	 
C 	 -115.829 	 44.7348 	 131.127 	 
H 	 -116.628 	 44.7149 	 130.343 	 
H 	 -116.003 	 45.6358 	 131.673 	 
H 	 -116.051 	 43.9766 	 131.955 	 
H 	 -111.516 	 40.1092 	 134.163 	 
H 	 -109.932 	 45.3912 	 128.078 	 
*
