! wB97X-D3 SP def2-SVP
%pal
nprocs 16
end

* xyz 0 1
S 	 -31.7057 	 66.6205 	 117.489 	 
C 	 -33.097 	 65.5034 	 117.257 	 
C 	 -33.2459 	 65.0454 	 115.951 	 
C 	 -32.1661 	 65.5028 	 115.145 	 
C 	 -31.3508 	 66.3782 	 115.77 	 
H 	 -31.9684 	 65.229 	 114.109 	 
C 	 -34.1033 	 63.8175 	 115.617 	 
H 	 -34.2302 	 63.3701 	 116.612 	 
H 	 -33.5268 	 63.0483 	 115.035 	 
C 	 -35.4877 	 64.0604 	 114.961 	 
H 	 -36.0109 	 63.1324 	 114.815 	 
H 	 -36.1119 	 64.664 	 115.664 	 
C 	 -35.5767 	 64.8451 	 113.686 	 
H 	 -34.9023 	 65.6337 	 113.584 	 
H 	 -35.3262 	 64.2227 	 112.792 	 
H 	 -36.6138 	 65.2918 	 113.631 	 
S 	 -28.6784 	 66.7556 	 115.767 	 
C 	 -27.8952 	 67.5944 	 114.418 	 
C 	 -28.85 	 67.9894 	 113.488 	 
C 	 -30.1668 	 67.635 	 113.876 	 
C 	 -30.2536 	 66.984 	 115.131 	 
H 	 -28.6703 	 68.6589 	 112.566 	 
C 	 -31.4009 	 67.8802 	 112.952 	 
H 	 -31.3595 	 68.9326 	 112.611 	 
H 	 -32.3322 	 67.7886 	 113.497 	 
C 	 -31.5219 	 67.0845 	 111.702 	 
H 	 -31.516 	 66.0208 	 112.047 	 
H 	 -30.6844 	 67.3545 	 111.114 	 
C 	 -32.7817 	 67.4293 	 110.974 	 
H 	 -33.1415 	 68.4047 	 111.005 	 
H 	 -33.5922 	 66.9076 	 111.475 	 
H 	 -32.7537 	 67.0892 	 109.894 	 
H 	 -33.7018 	 65.1342 	 118.065 	 
H 	 -26.8348 	 67.8235 	 114.26 	 
*
