! wB97X-D3 SP def2-SVP
%pal
nprocs 16
end

* xyz 0 1
S 	 -41.5905 	 26.5698 	 84.7048 	 
C 	 -41.161 	 24.8751 	 84.7526 	 
C 	 -41.8933 	 24.1593 	 83.8507 	 
C 	 -42.853 	 24.9779 	 83.18 	 
C 	 -42.9206 	 26.2886 	 83.6136 	 
H 	 -43.613 	 24.637 	 82.5344 	 
C 	 -41.7743 	 22.633 	 83.7137 	 
H 	 -41.9826 	 22.0337 	 84.5802 	 
H 	 -40.6976 	 22.5793 	 83.5142 	 
C 	 -42.5616 	 22.0047 	 82.5909 	 
H 	 -42.6295 	 20.9163 	 82.837 	 
H 	 -43.5761 	 22.3859 	 82.5479 	 
C 	 -41.9342 	 22.0161 	 81.1796 	 
H 	 -41.8709 	 23.0212 	 80.7769 	 
H 	 -40.9359 	 21.6451 	 81.0523 	 
H 	 -42.6791 	 21.5128 	 80.5675 	 
S 	 -44.8817 	 28.1422 	 83.9896 	 
C 	 -45.3814 	 29.2227 	 82.7588 	 
C 	 -45.0468 	 28.606 	 81.5971 	 
C 	 -43.9746 	 27.6511 	 81.683 	 
C 	 -43.7333 	 27.3119 	 83.0161 	 
H 	 -45.4652 	 28.8464 	 80.6316 	 
C 	 -43.2821 	 27.1043 	 80.3945 	 
H 	 -42.3305 	 26.6433 	 80.8534 	 
H 	 -42.8109 	 27.9025 	 79.7923 	 
C 	 -43.9883 	 26.0761 	 79.5313 	 
H 	 -44.2074 	 25.192 	 80.0984 	 
H 	 -43.3553 	 25.7025 	 78.7857 	 
C 	 -45.3405 	 26.5074 	 78.8568 	 
H 	 -45.9162 	 27.0297 	 79.4827 	 
H 	 -45.8763 	 25.5907 	 78.6465 	 
H 	 -45.1966 	 27.1251 	 77.926 	 
H 	 -40.4496 	 24.5407 	 85.4379 	 
H 	 -46.3025 	 29.8515 	 82.9064 	 
*
