! wB97X-D3 SP def2-SVP
%pal
nprocs 16
end

* xyz 0 1
S 	 -31.331 	 32.8111 	 38.7477 	 
C 	 -30.1552 	 34.0624 	 38.5872 	 
C 	 -29.409 	 34.1597 	 39.7384 	 
C 	 -29.7409 	 33.1887 	 40.6957 	 
C 	 -30.9091 	 32.4625 	 40.4332 	 
H 	 -29.2714 	 33.0966 	 41.7168 	 
C 	 -28.3354 	 35.1759 	 39.9605 	 
H 	 -28.3036 	 35.4752 	 41.0346 	 
H 	 -28.3821 	 36.0214 	 39.3356 	 
C 	 -26.9057 	 34.557 	 39.5601 	 
H 	 -26.8713 	 34.0404 	 38.5739 	 
H 	 -26.2681 	 35.4474 	 39.4354 	 
C 	 -26.2847 	 33.6646 	 40.6581 	 
H 	 -25.2589 	 33.4016 	 40.4061 	 
H 	 -26.1801 	 34.2414 	 41.507 	 
H 	 -26.7115 	 32.7308 	 40.8754 	 
S 	 -31.75 	 29.7804 	 40.6468 	 
C 	 -32.191 	 29.3078 	 42.2738 	 
C 	 -32.0418 	 30.3424 	 43.2088 	 
C 	 -31.5893 	 31.566 	 42.6532 	 
C 	 -31.5924 	 31.4844 	 41.2685 	 
H 	 -32.2042 	 30.1091 	 44.2708 	 
C 	 -31.3869 	 32.7632 	 43.5681 	 
H 	 -32.3808 	 33.3007 	 43.7457 	 
H 	 -30.8919 	 33.4878 	 43.0464 	 
C 	 -30.7647 	 32.5046 	 44.9529 	 
H 	 -31.4584 	 31.8134 	 45.4591 	 
H 	 -30.77 	 33.4998 	 45.5052 	 
C 	 -29.3596 	 32.0068 	 44.9343 	 
H 	 -28.5683 	 32.7351 	 44.7523 	 
H 	 -29.1768 	 31.1759 	 44.2634 	 
H 	 -29.1701 	 31.634 	 45.9173 	 
H 	 -30.0104 	 34.8425 	 37.8676 	 
H 	 -32.5718 	 28.4314 	 42.6977 	 
*
