! wB97X-D3 SP def2-SVP
%pal
nprocs 16
end

* xyz 0 1
S 	 -39.0315 	 19.8401 	 81.9824 	 
C 	 -39.9288 	 18.6634 	 81.1351 	 
C 	 -40.796 	 19.2968 	 80.2008 	 
C 	 -40.647 	 20.7422 	 80.1672 	 
C 	 -39.7111 	 21.1329 	 81.075 	 
H 	 -41.1936 	 21.3897 	 79.5517 	 
C 	 -41.9248 	 18.6343 	 79.5272 	 
H 	 -41.6614 	 17.6081 	 79.5544 	 
H 	 -41.7508 	 18.8815 	 78.4298 	 
C 	 -43.2958 	 18.8845 	 80.1057 	 
H 	 -44.002 	 18.1796 	 79.7418 	 
H 	 -43.3636 	 18.6963 	 81.1958 	 
C 	 -43.8688 	 20.2808 	 79.8372 	 
H 	 -43.7546 	 20.6935 	 78.8516 	 
H 	 -44.8881 	 20.3042 	 79.9911 	 
H 	 -43.3604 	 20.9717 	 80.5262 	 
S 	 -37.6265 	 22.9285 	 81.223 	 
C 	 -37.9184 	 24.6499 	 81.3581 	 
C 	 -39.2093 	 24.8566 	 81.681 	 
C 	 -40.0365 	 23.6887 	 81.4404 	 
C 	 -39.303 	 22.5349 	 81.2359 	 
H 	 -39.5149 	 25.8442 	 81.9395 	 
C 	 -41.5822 	 23.8139 	 81.5735 	 
H 	 -41.7915 	 24.4048 	 82.4567 	 
H 	 -41.9526 	 22.8671 	 81.8846 	 
C 	 -42.2373 	 24.267 	 80.2268 	 
H 	 -42.2987 	 23.4429 	 79.4657 	 
H 	 -41.5978 	 25.073 	 79.834 	 
C 	 -43.6027 	 24.8783 	 80.368 	 
H 	 -43.7459 	 25.146 	 79.3058 	 
H 	 -43.5418 	 25.7289 	 81.1175 	 
H 	 -44.2689 	 24.0812 	 80.6022 	 
H 	 -39.9644 	 17.5826 	 81.3883 	 
H 	 -37.1415 	 25.4035 	 81.4138 	 
*
