! wB97X-D3 SP def2-SVP
%pal
nprocs 16
end

* xyz 0 1
S 	 -1.38509 	 47.0257 	 45.4998 	 
C 	 -0.231525 	 48.0022 	 46.348 	 
C 	 -0.847188 	 49.0586 	 46.9277 	 
C 	 -2.27791 	 49.0843 	 46.6124 	 
C 	 -2.77849 	 48.0568 	 45.8339 	 
H 	 -2.956 	 49.9582 	 46.8378 	 
C 	 -0.206733 	 50.166 	 47.7712 	 
H 	 -0.44553 	 51.1358 	 47.3476 	 
H 	 0.869291 	 50.1182 	 47.5264 	 
C 	 -0.385068 	 49.9089 	 49.3314 	 
H 	 -0.106064 	 48.8759 	 49.6551 	 
H 	 0.237619 	 50.5777 	 49.9573 	 
C 	 -1.84689 	 50.0303 	 49.7068 	 
H 	 -2.1479 	 51.0185 	 49.3839 	 
H 	 -2.48044 	 49.3137 	 49.1547 	 
H 	 -2.1567 	 49.971 	 50.7512 	 
S 	 -4.33384 	 48.5169 	 43.6501 	 
C 	 -6.03168 	 47.959 	 43.6793 	 
C 	 -6.28149 	 47.1648 	 44.8086 	 
C 	 -5.1472 	 47.0908 	 45.7251 	 
C 	 -4.10423 	 47.8916 	 45.253 	 
H 	 -7.25853 	 46.6871 	 44.7343 	 
C 	 -5.30099 	 46.3667 	 47.0608 	 
H 	 -4.27941 	 46.3604 	 47.5292 	 
H 	 -5.40561 	 45.3265 	 46.7749 	 
C 	 -6.4554 	 46.6906 	 47.973 	 
H 	 -6.43724 	 45.8817 	 48.6515 	 
H 	 -7.27546 	 46.4719 	 47.3711 	 
C 	 -6.5545 	 48.0237 	 48.673 	 
H 	 -5.61326 	 48.2904 	 49.1491 	 
H 	 -7.37409 	 47.9859 	 49.375 	 
H 	 -6.8199 	 48.7582 	 47.876 	 
H 	 0.811751 	 47.9119 	 46.4517 	 
H 	 -6.76332 	 47.9256 	 42.8151 	 
*
