! wB97X-D3 SP def2-SVP
%pal
nprocs 16
end

* xyz 0 1
S 	 -9.14017 	 30.3168 	 55.6144 	 
C 	 -8.31877 	 28.8944 	 56.1441 	 
C 	 -6.97208 	 28.861 	 55.7203 	 
C 	 -6.71234 	 29.9992 	 54.8432 	 
C 	 -7.79993 	 30.8161 	 54.6792 	 
H 	 -5.79743 	 30.2727 	 54.4162 	 
C 	 -5.86258 	 27.8952 	 55.8196 	 
H 	 -5.8156 	 27.4378 	 54.8754 	 
H 	 -6.21688 	 27.1889 	 56.5708 	 
C 	 -4.5362 	 28.3295 	 56.5267 	 
H 	 -3.75221 	 27.5069 	 56.5168 	 
H 	 -4.02489 	 29.0462 	 55.8899 	 
C 	 -4.67942 	 28.827 	 58.0159 	 
H 	 -5.31744 	 29.7396 	 57.9792 	 
H 	 -5.15264 	 27.9955 	 58.6312 	 
H 	 -3.72709 	 29.0604 	 58.4892 	 
S 	 -7.91144 	 33.6932 	 54.3534 	 
C 	 -7.63699 	 34.4356 	 52.8287 	 
C 	 -7.42785 	 33.4097 	 51.8631 	 
C 	 -7.53431 	 32.0844 	 52.3971 	 
C 	 -7.79417 	 31.9943 	 53.7307 	 
H 	 -7.37105 	 33.7198 	 50.8622 	 
C 	 -7.32692 	 30.9201 	 51.4489 	 
H 	 -6.59912 	 30.1489 	 51.7691 	 
H 	 -6.88911 	 31.2541 	 50.4972 	 
C 	 -8.67517 	 30.1461 	 51.2401 	 
H 	 -9.6102 	 30.7028 	 51.1779 	 
H 	 -8.81067 	 29.4305 	 52.0196 	 
C 	 -8.68808 	 29.2427 	 50.0107 	 
H 	 -7.64282 	 28.8414 	 49.8793 	 
H 	 -8.9418 	 29.8843 	 49.1254 	 
H 	 -9.48812 	 28.4998 	 50.0792 	 
H 	 -8.68745 	 28.1548 	 56.8389 	 
H 	 -7.741 	 35.4372 	 52.6787 	 
*
