! wB97X-D3 SP def2-SVP
%pal
nprocs 16
end

* xyz 0 1
S 	 -35.2122 	 73.3522 	 155.456 	 
C 	 -33.8949 	 73.7376 	 154.335 	 
C 	 -34.0101 	 73.0569 	 153.098 	 
C 	 -35.0844 	 72.0908 	 153.15 	 
C 	 -35.8171 	 72.1385 	 154.359 	 
H 	 -35.334 	 71.3709 	 152.336 	 
C 	 -33.0003 	 73.1281 	 152.012 	 
H 	 -32.5919 	 72.1917 	 151.867 	 
H 	 -32.2468 	 73.7939 	 152.401 	 
C 	 -33.4259 	 73.667 	 150.653 	 
H 	 -34.3251 	 73.0771 	 150.376 	 
H 	 -33.8509 	 74.6699 	 150.777 	 
C 	 -32.2696 	 73.8305 	 149.61 	 
H 	 -31.6754 	 72.9063 	 149.462 	 
H 	 -32.5661 	 74.1151 	 148.614 	 
H 	 -31.4676 	 74.5691 	 149.854 	 
S 	 -38.4414 	 72.1969 	 154.829 	 
C 	 -39.2682 	 70.8434 	 155.62 	 
C 	 -38.4122 	 69.7544 	 155.795 	 
C 	 -37.111 	 70.0121 	 155.21 	 
C 	 -36.9461 	 71.3136 	 154.75 	 
H 	 -38.7579 	 68.8915 	 156.311 	 
C 	 -35.9208 	 69.0556 	 155.336 	 
H 	 -34.9901 	 69.5904 	 155.294 	 
H 	 -35.9526 	 68.4943 	 154.366 	 
C 	 -35.727 	 68.0188 	 156.407 	 
H 	 -34.9544 	 67.3302 	 156.049 	 
H 	 -36.633 	 67.4544 	 156.358 	 
C 	 -35.5183 	 68.6174 	 157.802 	 
H 	 -35.3893 	 67.766 	 158.39 	 
H 	 -36.3334 	 69.2795 	 158.158 	 
H 	 -34.647 	 69.206 	 157.772 	 
H 	 -33.2556 	 74.6422 	 154.416 	 
H 	 -40.3331 	 70.8187 	 155.894 	 
*
