! wB97X-D3 SP def2-SVP
%pal
nprocs 16
end

* xyz 0 1
S 	 -44.6272 	 51.4857 	 105.461 	 
C 	 -44.3277 	 50.8564 	 103.87 	 
C 	 -44.2561 	 51.9405 	 102.987 	 
C 	 -44.431 	 53.2405 	 103.602 	 
C 	 -44.7101 	 53.1324 	 104.992 	 
H 	 -44.3477 	 54.1801 	 103.109 	 
C 	 -43.8315 	 51.8565 	 101.527 	 
H 	 -43.9905 	 50.8769 	 101.125 	 
H 	 -42.7546 	 52.0041 	 101.452 	 
C 	 -44.5192 	 52.8258 	 100.551 	 
H 	 -44.2923 	 53.8843 	 100.806 	 
H 	 -44.1654 	 52.6057 	 99.5225 	 
C 	 -46.018 	 52.488 	 100.436 	 
H 	 -46.5353 	 53.4081 	 100.154 	 
H 	 -46.1991 	 51.7052 	 99.6577 	 
H 	 -46.4819 	 52.2046 	 101.323 	 
S 	 -43.6331 	 54.3672 	 107.144 	 
C 	 -44.4002 	 55.8325 	 107.802 	 
C 	 -45.4538 	 56.3042 	 106.987 	 
C 	 -45.5746 	 55.4451 	 105.864 	 
C 	 -44.8847 	 54.2463 	 105.963 	 
H 	 -45.8234 	 57.3133 	 107.208 	 
C 	 -46.7144 	 55.6637 	 104.807 	 
H 	 -46.4287 	 55.1656 	 103.874 	 
H 	 -46.7552 	 56.72 	 104.467 	 
C 	 -48.074 	 55.2796 	 105.314 	 
H 	 -48.1894 	 54.2224 	 105.484 	 
H 	 -48.72 	 55.3473 	 104.485 	 
C 	 -48.5328 	 56.1746 	 106.45 	 
H 	 -49.573 	 55.9808 	 106.636 	 
H 	 -48.4558 	 57.2223 	 106.225 	 
H 	 -48.1331 	 56.0792 	 107.461 	 
H 	 -44.2412 	 49.7824 	 103.543 	 
H 	 -44.1688 	 56.3958 	 108.678 	 
*
