! wB97X-D3 SP def2-SVP
%pal
nprocs 16
end

* xyz 0 1
S 	 7.40251 	 24.7638 	 68.5416 	 
C 	 6.82151 	 23.2374 	 67.9032 	 
C 	 5.61963 	 22.808 	 68.4211 	 
C 	 5.02757 	 23.7466 	 69.2363 	 
C 	 5.84291 	 24.8873 	 69.3823 	 
H 	 4.01612 	 23.7189 	 69.6669 	 
C 	 5.01095 	 21.3935 	 68.2229 	 
H 	 4.70397 	 21.024 	 69.2337 	 
H 	 5.76063 	 20.6382 	 67.9259 	 
C 	 3.8274 	 21.3128 	 67.208 	 
H 	 3.31531 	 20.3261 	 67.137 	 
H 	 2.94264 	 21.9233 	 67.5358 	 
C 	 4.24739 	 21.7642 	 65.7846 	 
H 	 3.56605 	 21.488 	 65.0455 	 
H 	 4.50512 	 22.8424 	 65.7234 	 
H 	 5.165 	 21.1715 	 65.6309 	 
S 	 6.31906 	 25.735 	 71.8583 	 
C 	 5.26298 	 26.8595 	 72.6096 	 
C 	 4.34536 	 27.3745 	 71.6978 	 
C 	 4.49222 	 26.8362 	 70.3486 	 
C 	 5.55559 	 25.9312 	 70.2651 	 
H 	 3.64734 	 28.1025 	 71.9768 	 
C 	 3.3673 	 27.1871 	 69.3491 	 
H 	 2.94595 	 28.182 	 69.4795 	 
H 	 2.53564 	 26.6022 	 69.663 	 
C 	 3.78879 	 26.8743 	 67.9517 	 
H 	 2.92558 	 27.1228 	 67.3047 	 
H 	 3.91309 	 25.7955 	 67.8159 	 
C 	 5.03375 	 27.6108 	 67.4175 	 
H 	 5.84299 	 27.3127 	 68.0276 	 
H 	 4.77803 	 28.6279 	 67.4966 	 
H 	 5.27863 	 27.3539 	 66.4529 	 
H 	 7.42667 	 22.5662 	 67.3947 	 
H 	 5.37144 	 27.1177 	 73.6888 	 
*
