! wB97X-D3 SP def2-SVP
%pal
nprocs 16
end

* xyz 0 1
S 	 -22.7714 	 -0.568477 	 78.1493 	 
C 	 -21.0766 	 -0.932851 	 77.8382 	 
C 	 -20.2278 	 -0.243529 	 78.7029 	 
C 	 -21.0234 	 0.509274 	 79.6653 	 
C 	 -22.3938 	 0.474456 	 79.4158 	 
H 	 -20.5621 	 1.07054 	 80.485 	 
C 	 -18.7023 	 -0.418454 	 78.7614 	 
H 	 -18.2909 	 0.563554 	 78.7824 	 
H 	 -18.4162 	 -0.843048 	 77.7757 	 
C 	 -18.1068 	 -1.20748 	 80.0223 	 
H 	 -19.0508 	 -1.3714 	 80.6571 	 
H 	 -17.8335 	 -2.29771 	 79.9311 	 
C 	 -17.2701 	 -0.413057 	 81.0407 	 
H 	 -16.1831 	 -0.257348 	 80.8702 	 
H 	 -17.6836 	 0.548063 	 81.011 	 
H 	 -17.4527 	 -0.764601 	 82.0333 	 
S 	 -24.6406 	 2.0069 	 79.2319 	 
C 	 -25.3555 	 2.62128 	 80.6571 	 
C 	 -24.5938 	 2.28628 	 81.7615 	 
C 	 -23.4611 	 1.44699 	 81.531 	 
C 	 -23.4703 	 1.09087 	 80.1653 	 
H 	 -24.7941 	 2.76439 	 82.7325 	 
C 	 -22.6401 	 0.82057 	 82.6611 	 
H 	 -22.1747 	 1.64621 	 83.1477 	 
H 	 -21.8314 	 0.231516 	 82.2059 	 
C 	 -23.4223 	 0.010557 	 83.664 	 
H 	 -23.9031 	 -0.948866 	 83.3106 	 
H 	 -24.1935 	 0.696837 	 84.0927 	 
C 	 -22.5082 	 -0.597394 	 84.7482 	 
H 	 -23.1634 	 -0.931255 	 85.555 	 
H 	 -21.848 	 0.240609 	 85.1433 	 
H 	 -21.8537 	 -1.44972 	 84.453 	 
H 	 -20.6794 	 -1.72109 	 77.0967 	 
H 	 -26.2564 	 3.14522 	 80.7358 	 
*
