! wB97X-D3 SP def2-SVP
%pal
nprocs 16
end

* xyz 0 1
S 	 -6.6911 	 56.2628 	 28.6398 	 
C 	 -5.97195 	 54.8748 	 27.7909 	 
C 	 -5.21393 	 54.1569 	 28.6753 	 
C 	 -5.127 	 54.8015 	 29.9455 	 
C 	 -5.82232 	 55.9293 	 30.1049 	 
H 	 -4.37996 	 54.4116 	 30.587 	 
C 	 -4.29384 	 52.9916 	 28.2711 	 
H 	 -3.24179 	 53.341 	 28.3739 	 
H 	 -4.53652 	 52.8656 	 27.2659 	 
C 	 -4.57213 	 51.7056 	 29.0483 	 
H 	 -4.60322 	 51.7819 	 30.1512 	 
H 	 -5.53535 	 51.248 	 28.749 	 
C 	 -3.36955 	 50.7833 	 28.9827 	 
H 	 -3.15716 	 50.7191 	 27.9166 	 
H 	 -2.52848 	 51.13 	 29.6458 	 
H 	 -3.63226 	 49.7329 	 29.3611 	 
S 	 -5.55815 	 58.7033 	 30.5219 	 
C 	 -4.92926 	 59.2682 	 32.0149 	 
C 	 -4.95306 	 58.2565 	 32.9731 	 
C 	 -5.34403 	 56.9711 	 32.4483 	 
C 	 -5.60279 	 56.9508 	 31.0891 	 
H 	 -4.68657 	 58.4547 	 33.9776 	 
C 	 -5.34309 	 55.7494 	 33.3537 	 
H 	 -5.28219 	 56.0585 	 34.4086 	 
H 	 -4.4655 	 55.0749 	 33.1768 	 
C 	 -6.65935 	 54.9299 	 33.4382 	 
H 	 -6.50862 	 54.0194 	 34.037 	 
H 	 -6.90503 	 54.523 	 32.4568 	 
C 	 -7.931 	 55.7545 	 33.8242 	 
H 	 -8.70751 	 55.0173 	 33.9754 	 
H 	 -8.32163 	 56.355 	 32.9811 	 
H 	 -7.79358 	 56.2845 	 34.7786 	 
H 	 -6.10774 	 54.5354 	 26.7993 	 
H 	 -4.68063 	 60.2318 	 32.2241 	 
*
