! wB97X-D3 SP def2-SVP
%pal
nprocs 16
end

* xyz 0 1
S 	 -13.4743 	 43.1461 	 34.2121 	 
C 	 -12.887 	 42.0309 	 35.4482 	 
C 	 -13.0125 	 40.6687 	 34.9594 	 
C 	 -13.5774 	 40.6577 	 33.6083 	 
C 	 -13.8747 	 41.8959 	 33.1065 	 
H 	 -13.8209 	 39.7659 	 32.9922 	 
C 	 -12.4501 	 39.5321 	 35.7006 	 
H 	 -12.4414 	 39.7931 	 36.7415 	 
H 	 -11.369 	 39.3594 	 35.4942 	 
C 	 -13.2229 	 38.1954 	 35.5866 	 
H 	 -13.4475 	 38.0504 	 34.575 	 
H 	 -12.5678 	 37.3291 	 35.9513 	 
C 	 -14.5108 	 38.1259 	 36.427 	 
H 	 -15.1026 	 37.3053 	 36.1261 	 
H 	 -14.2859 	 38.0961 	 37.4681 	 
H 	 -15.1858 	 38.9847 	 36.2079 	 
S 	 -15.3972 	 43.3891 	 31.4346 	 
C 	 -15.1404 	 43.3291 	 29.6895 	 
C 	 -14.0796 	 42.5464 	 29.354 	 
C 	 -13.3969 	 42.0226 	 30.5245 	 
C 	 -14.0599 	 42.2676 	 31.7221 	 
H 	 -13.9835 	 42.3091 	 28.2939 	 
C 	 -12.132 	 41.2594 	 30.4458 	 
H 	 -12.3697 	 40.3513 	 29.9044 	 
H 	 -11.7647 	 41.0405 	 31.4556 	 
C 	 -10.8574 	 41.928 	 29.8328 	 
H 	 -10.4875 	 42.7824 	 30.3693 	 
H 	 -11.289 	 42.4562 	 29.0374 	 
C 	 -9.74186 	 40.9699 	 29.4434 	 
H 	 -10.0124 	 40.404 	 28.5311 	 
H 	 -9.29553 	 40.3067 	 30.1232 	 
H 	 -8.92258 	 41.5937 	 29.1833 	 
H 	 -12.2595 	 42.324 	 36.307 	 
H 	 -15.7365 	 43.8166 	 28.9632 	 
*
