! wB97X-D3 SP def2-SVP
%pal
nprocs 16
end

* xyz 0 1
S 	 43.7445 	 11.0671 	 80.7745 	 
C 	 42.2782 	 10.1002 	 80.85 	 
C 	 42.1622 	 9.51924 	 82.0666 	 
C 	 43.2341 	 9.89679 	 82.997 	 
C 	 44.1011 	 10.8715 	 82.4565 	 
H 	 43.36 	 9.55941 	 83.9949 	 
C 	 41.0965 	 8.56643 	 82.434 	 
H 	 41.5477 	 7.5931 	 82.3998 	 
H 	 40.3544 	 8.66217 	 81.7197 	 
C 	 40.4853 	 8.79914 	 83.8691 	 
H 	 41.2673 	 8.8197 	 84.6466 	 
H 	 39.9638 	 9.82662 	 83.8885 	 
C 	 39.3454 	 7.84475 	 84.2333 	 
H 	 38.8226 	 7.59975 	 83.3159 	 
H 	 39.7222 	 6.86895 	 84.6345 	 
H 	 38.6457 	 8.20501 	 85.0183 	 
S 	 46.7932 	 11.2027 	 82.3615 	 
C 	 47.5713 	 12.0883 	 83.651 	 
C 	 46.6288 	 12.5084 	 84.5454 	 
C 	 45.2948 	 12.0782 	 84.269 	 
C 	 45.2023 	 11.508 	 83.0602 	 
H 	 46.869 	 13.0715 	 85.3897 	 
C 	 44.1462 	 12.5649 	 85.1389 	 
H 	 44.6096 	 12.7178 	 86.081 	 
H 	 43.4591 	 11.7777 	 85.2973 	 
C 	 43.5171 	 13.8852 	 84.7558 	 
H 	 44.3201 	 14.6952 	 84.7015 	 
H 	 42.9153 	 14.2118 	 85.6005 	 
C 	 42.6781 	 13.7792 	 83.4576 	 
H 	 42.0805 	 14.6974 	 83.1829 	 
H 	 41.8963 	 12.9918 	 83.5673 	 
H 	 43.354 	 13.6261 	 82.6144 	 
H 	 41.6093 	 9.99439 	 79.9722 	 
H 	 48.6111 	 12.238 	 83.6604 	 
*
