! wB97X-D3 SP def2-SVP
%pal
nprocs 16
end

* xyz 0 1
S 	 -54.4334 	 9.41837 	 88.6915 	 
C 	 -53.9832 	 10.8114 	 89.6473 	 
C 	 -53.322 	 11.8134 	 88.8895 	 
C 	 -53.3754 	 11.4386 	 87.5238 	 
C 	 -53.8257 	 10.177 	 87.2437 	 
H 	 -53.0255 	 12.0021 	 86.6936 	 
C 	 -52.898 	 13.1084 	 89.464 	 
H 	 -53.6425 	 13.5298 	 90.1378 	 
H 	 -52.7731 	 13.8516 	 88.6249 	 
C 	 -51.5236 	 13.0791 	 90.2101 	 
H 	 -51.297 	 13.9963 	 90.7053 	 
H 	 -51.5796 	 12.2514 	 90.9845 	 
C 	 -50.3221 	 12.6302 	 89.3559 	 
H 	 -49.9319 	 11.5951 	 89.5869 	 
H 	 -50.6441 	 12.8233 	 88.2767 	 
H 	 -49.4623 	 13.3133 	 89.4238 	 
S 	 -53.1096 	 8.00466 	 85.9397 	 
C 	 -53.3027 	 7.8106 	 84.2298 	 
C 	 -53.8656 	 8.91564 	 83.6778 	 
C 	 -54.2117 	 9.96622 	 84.6586 	 
C 	 -53.7362 	 9.55648 	 85.9133 	 
H 	 -54.0408 	 8.89372 	 82.6028 	 
C 	 -54.9489 	 11.2841 	 84.3251 	 
H 	 -55.0435 	 11.8634 	 85.2258 	 
H 	 -55.9926 	 11.1432 	 83.9191 	 
C 	 -54.2568 	 12.2332 	 83.3429 	 
H 	 -55.037 	 13.0108 	 83.2043 	 
H 	 -54.112 	 11.7927 	 82.4156 	 
C 	 -52.9405 	 12.9083 	 83.8209 	 
H 	 -52.4665 	 13.324 	 83.0002 	 
H 	 -52.2809 	 12.1529 	 84.2397 	 
H 	 -53.0286 	 13.7626 	 84.4374 	 
H 	 -54.3453 	 11.0492 	 90.5893 	 
H 	 -53.1009 	 6.92752 	 83.6174 	 
*
