! wB97X-D3 SP def2-SVP
%pal
nprocs 16
end

* xyz 0 1
S 	 -82.184 	 52.5887 	 133.767 	 
C 	 -82.9852 	 51.0531 	 134.377 	 
C 	 -82.8941 	 50.9852 	 135.725 	 
C 	 -82.4229 	 52.1815 	 136.278 	 
C 	 -81.9882 	 53.1634 	 135.387 	 
H 	 -82.3216 	 52.4242 	 137.36 	 
C 	 -83.4504 	 49.9127 	 136.618 	 
H 	 -82.6565 	 49.7869 	 137.391 	 
H 	 -83.6223 	 48.9744 	 136.047 	 
C 	 -84.6916 	 50.4068 	 137.416 	 
H 	 -84.3441 	 51.0996 	 138.157 	 
H 	 -85.3432 	 50.9363 	 136.836 	 
C 	 -85.477 	 49.2964 	 138.241 	 
H 	 -84.872 	 48.7498 	 139.033 	 
H 	 -86.2829 	 49.8757 	 138.683 	 
H 	 -85.9252 	 48.4959 	 137.623 	 
S 	 -82.2503 	 55.8892 	 135.069 	 
C 	 -81.1327 	 56.956 	 135.879 	 
C 	 -79.9829 	 56.201 	 136.199 	 
C 	 -80.1679 	 54.7925 	 136.23 	 
C 	 -81.3929 	 54.45 	 135.686 	 
H 	 -79.0281 	 56.7255 	 136.447 	 
C 	 -79.0436 	 53.8401 	 136.634 	 
H 	 -78.3796 	 53.8075 	 135.814 	 
H 	 -79.5278 	 52.8262 	 136.6 	 
C 	 -78.4317 	 54.0238 	 138.059 	 
H 	 -77.8714 	 55.0093 	 138.103 	 
H 	 -77.7001 	 53.3323 	 138.182 	 
C 	 -79.3206 	 54.0792 	 139.253 	 
H 	 -79.0146 	 54.801 	 140.016 	 
H 	 -79.2213 	 53.1404 	 139.781 	 
H 	 -80.3178 	 54.4432 	 139.045 	 
H 	 -83.3063 	 50.2105 	 133.671 	 
H 	 -81.1544 	 58.0052 	 135.938 	 
*
