! wB97X-D3 SP def2-SVP
%pal
nprocs 16
end

* xyz 0 1
S 	 23.3224 	 0.455418 	 86.1648 	 
C 	 23.4709 	 2.16014 	 86.0651 	 
C 	 22.9108 	 2.71952 	 84.9374 	 
C 	 22.0162 	 1.78689 	 84.2951 	 
C 	 22.1868 	 0.493094 	 84.7762 	 
H 	 21.4013 	 2.08301 	 83.4455 	 
C 	 23.1186 	 4.23024 	 84.6108 	 
H 	 23.9682 	 4.48974 	 85.2303 	 
H 	 22.3666 	 4.91421 	 85.0179 	 
C 	 23.5485 	 4.60002 	 83.2482 	 
H 	 24.4404 	 3.99277 	 83.0867 	 
H 	 22.8656 	 4.19393 	 82.4517 	 
C 	 23.8234 	 6.17635 	 83.1468 	 
H 	 24.7499 	 6.57068 	 83.5922 	 
H 	 23.8119 	 6.45279 	 82.1129 	 
H 	 22.9708 	 6.68108 	 83.6059 	 
S 	 20.6685 	 -1.66466 	 85.4023 	 
C 	 20.0964 	 -2.79795 	 84.1977 	 
C 	 20.2257 	 -2.23257 	 82.9394 	 
C 	 20.9221 	 -0.908176 	 82.9871 	 
C 	 21.4666 	 -0.668526 	 84.2167 	 
H 	 19.8266 	 -2.74847 	 82.0936 	 
C 	 21.3509 	 -0.20306 	 81.6901 	 
H 	 22.1399 	 0.556274 	 81.9743 	 
H 	 20.4672 	 0.272518 	 81.1472 	 
C 	 22.0416 	 -1.07542 	 80.6189 	 
H 	 21.3602 	 -1.86738 	 80.2541 	 
H 	 22.8837 	 -1.49291 	 81.0468 	 
C 	 22.6081 	 -0.201212 	 79.4038 	 
H 	 23.4899 	 0.388745 	 79.6994 	 
H 	 21.8767 	 0.425326 	 78.8027 	 
H 	 23.0318 	 -0.9072 	 78.6508 	 
H 	 24.236 	 2.7356 	 86.6165 	 
H 	 19.5819 	 -3.75268 	 84.3073 	 
*
