! wB97X-D3 SP def2-SVP
%pal
nprocs 16
end

* xyz 0 1
S 	 -43.1934 	 26.0726 	 77.7214 	 
C 	 -44.3461 	 26.9617 	 78.7407 	 
C 	 -45.3092 	 26.1079 	 79.2589 	 
C 	 -44.8064 	 24.7669 	 79.2283 	 
C 	 -43.686 	 24.5115 	 78.4325 	 
H 	 -45.3224 	 23.8849 	 79.5483 	 
C 	 -46.6489 	 26.4365 	 79.8675 	 
H 	 -47.298 	 25.5782 	 79.7188 	 
H 	 -46.9938 	 27.3833 	 79.4188 	 
C 	 -46.4482 	 26.7413 	 81.3502 	 
H 	 -46.0633 	 25.8586 	 81.8867 	 
H 	 -45.65 	 27.5166 	 81.4456 	 
C 	 -47.705 	 27.1478 	 82.0355 	 
H 	 -47.971 	 28.2342 	 81.8146 	 
H 	 -48.5487 	 26.5271 	 81.7415 	 
H 	 -47.6313 	 27.121 	 83.1672 	 
S 	 -42.4762 	 22.9302 	 76.4249 	 
C 	 -41.8673 	 21.3405 	 76.8918 	 
C 	 -42.1754 	 21.0074 	 78.1979 	 
C 	 -42.981 	 22.0087 	 78.8428 	 
C 	 -43.1104 	 23.2226 	 78.1285 	 
H 	 -42.0073 	 20.0209 	 78.6253 	 
C 	 -43.5969 	 21.6134 	 80.1797 	 
H 	 -43.4343 	 20.5903 	 80.4672 	 
H 	 -44.7113 	 21.7598 	 80.1064 	 
C 	 -43.0531 	 22.4702 	 81.3803 	 
H 	 -43.0497 	 23.4988 	 81.167 	 
H 	 -42.0654 	 22.197 	 81.525 	 
C 	 -43.9271 	 22.1306 	 82.6676 	 
H 	 -45.0005 	 22.3184 	 82.5008 	 
H 	 -43.6471 	 22.6838 	 83.5119 	 
H 	 -43.78 	 21.0965 	 82.867 	 
H 	 -44.6323 	 28.0464 	 78.6619 	 
H 	 -41.4078 	 20.7594 	 76.1311 	 
*
