! wB97X-D3 SP def2-SVP
%pal
nprocs 16
end

* xyz 0 1
S 	 -48.7766 	 50.3778 	 97.9521 	 
C 	 -47.5212 	 50.721 	 99.0772 	 
C 	 -47.3356 	 52.0583 	 99.308 	 
C 	 -48.2967 	 52.8402 	 98.5896 	 
C 	 -49.1155 	 52.0782 	 97.8097 	 
H 	 -48.3396 	 53.969 	 98.543 	 
C 	 -46.3895 	 52.7846 	 100.224 	 
H 	 -46.2482 	 53.8162 	 99.7659 	 
H 	 -45.4257 	 52.2371 	 100.181 	 
C 	 -46.8469 	 53.1015 	 101.638 	 
H 	 -45.9542 	 53.6234 	 102.088 	 
H 	 -47.7151 	 53.7101 	 101.491 	 
C 	 -47.2115 	 51.8687 	 102.449 	 
H 	 -48.039 	 51.3129 	 102.035 	 
H 	 -46.2916 	 51.2061 	 102.457 	 
H 	 -47.3522 	 52.2286 	 103.405 	 
S 	 -51.9061 	 52.2624 	 97.8876 	 
C 	 -52.732 	 53.2442 	 96.6864 	 
C 	 -51.8183 	 53.9178 	 95.9051 	 
C 	 -50.465 	 53.6557 	 96.2105 	 
C 	 -50.3042 	 52.6181 	 97.1249 	 
H 	 -52.1475 	 54.6155 	 95.0903 	 
C 	 -49.3459 	 54.3048 	 95.4193 	 
H 	 -49.6985 	 54.1881 	 94.3852 	 
H 	 -48.3867 	 53.8797 	 95.7542 	 
C 	 -49.2368 	 55.8251 	 95.5239 	 
H 	 -48.7609 	 56.1226 	 96.4595 	 
H 	 -50.2167 	 56.1904 	 95.5737 	 
C 	 -48.4272 	 56.3641 	 94.2944 	 
H 	 -47.4714 	 55.9099 	 94.2175 	 
H 	 -48.3687 	 57.4932 	 94.5113 	 
H 	 -48.9993 	 56.2263 	 93.4019 	 
H 	 -46.9282 	 50.0043 	 99.6688 	 
H 	 -53.8081 	 53.2805 	 96.4152 	 
*
