! wB97X-D3 SP def2-SVP
%pal
nprocs 16
end

* xyz 0 1
S 	 50.0451 	 21.9949 	 83.7297 	 
C 	 51.1116 	 23.2483 	 84.3308 	 
C 	 51.5842 	 22.8911 	 85.5502 	 
C 	 51.3034 	 21.5128 	 85.9939 	 
C 	 50.5012 	 20.871 	 85.0423 	 
H 	 51.666 	 21.0079 	 86.9097 	 
C 	 52.5926 	 23.7774 	 86.2722 	 
H 	 52.745 	 23.2766 	 87.2939 	 
H 	 52.1798 	 24.8097 	 86.3406 	 
C 	 53.9488 	 24.0373 	 85.4845 	 
H 	 53.8142 	 24.2908 	 84.4055 	 
H 	 54.4807 	 24.9412 	 85.862 	 
C 	 54.866 	 22.8461 	 85.6119 	 
H 	 55.676 	 22.7888 	 84.8878 	 
H 	 55.2646 	 22.6539 	 86.6143 	 
H 	 54.1561 	 22.039 	 85.4194 	 
S 	 48.514 	 19.0581 	 85.5456 	 
C 	 48.9414 	 17.3616 	 85.6826 	 
C 	 50.2501 	 17.1613 	 85.279 	 
C 	 50.9102 	 18.3698 	 84.881 	 
C 	 50.1322 	 19.4611 	 85.0438 	 
H 	 50.6795 	 16.1944 	 85.3598 	 
C 	 52.3632 	 18.4242 	 84.3897 	 
H 	 52.9136 	 17.6162 	 84.9494 	 
H 	 52.9254 	 19.2355 	 84.7018 	 
C 	 52.5361 	 18.1118 	 82.8923 	 
H 	 53.5353 	 18.3867 	 82.5584 	 
H 	 51.8107 	 18.7666 	 82.4011 	 
C 	 52.2864 	 16.6138 	 82.5118 	 
H 	 51.2442 	 16.394 	 82.8458 	 
H 	 52.9628 	 15.96 	 83.0754 	 
H 	 52.342 	 16.4544 	 81.4398 	 
H 	 51.2301 	 24.1526 	 83.7962 	 
H 	 48.3126 	 16.426 	 85.92 	 
*
