! wB97X-D3 SP def2-SVP
%pal
nprocs 16
end

* xyz 0 1
S 	 37.0112 	 28.1088 	 54.3316 	 
C 	 37.0478 	 29.8521 	 54.041 	 
C 	 36.2518 	 30.5039 	 54.9863 	 
C 	 35.5801 	 29.4777 	 55.8168 	 
C 	 35.9162 	 28.1933 	 55.6337 	 
H 	 34.9261 	 29.753 	 56.6289 	 
C 	 35.9404 	 31.9909 	 55.0223 	 
H 	 36.904 	 32.5215 	 54.9713 	 
H 	 35.6715 	 32.3566 	 55.988 	 
C 	 34.9541 	 32.616 	 54.0149 	 
H 	 34.0307 	 32.0438 	 53.967 	 
H 	 34.5989 	 33.603 	 54.3353 	 
C 	 35.4639 	 32.7105 	 52.5587 	 
H 	 35.8608 	 31.7646 	 52.2118 	 
H 	 34.644 	 32.9422 	 51.8818 	 
H 	 36.2264 	 33.4758 	 52.5092 	 
S 	 35.0741 	 25.5911 	 55.5036 	 
C 	 34.6786 	 24.7644 	 56.969 	 
C 	 34.8288 	 25.5002 	 58.0905 	 
C 	 35.2488 	 26.8372 	 57.8168 	 
C 	 35.3739 	 27.0473 	 56.4043 	 
H 	 34.5074 	 25.1652 	 59.0697 	 
C 	 35.4658 	 27.8463 	 58.9228 	 
H 	 36.1247 	 28.5558 	 58.4727 	 
H 	 36.0254 	 27.2665 	 59.7081 	 
C 	 34.1825 	 28.4533 	 59.5202 	 
H 	 33.4632 	 27.6261 	 59.6801 	 
H 	 33.6539 	 29.1696 	 58.8322 	 
C 	 34.5044 	 29.2058 	 60.8928 	 
H 	 33.5585 	 29.6459 	 61.3441 	 
H 	 35.2547 	 30.0547 	 60.8349 	 
H 	 34.8158 	 28.5707 	 61.6228 	 
H 	 37.4245 	 30.3171 	 53.1118 	 
H 	 34.3585 	 23.7826 	 56.8258 	 
*
