! wB97X-D3 SP def2-SVP
%pal
nprocs 16
end

* xyz 0 1
S 	 -15.5132 	 37.6873 	 55.965 	 
C 	 -15.2527 	 37.6267 	 54.2185 	 
C 	 -16.2462 	 38.3031 	 53.5109 	 
C 	 -17.1068 	 39.034 	 54.3771 	 
C 	 -16.8692 	 38.81 	 55.7202 	 
H 	 -17.8845 	 39.7398 	 54.1122 	 
C 	 -16.4302 	 38.3187 	 52.0039 	 
H 	 -17.4463 	 38.7476 	 51.9336 	 
H 	 -16.385 	 37.3011 	 51.6562 	 
C 	 -15.4575 	 39.1348 	 51.2375 	 
H 	 -15.5996 	 39.1982 	 50.1379 	 
H 	 -15.6309 	 40.1696 	 51.5815 	 
C 	 -13.9686 	 38.7199 	 51.4393 	 
H 	 -13.6486 	 39.2149 	 52.3332 	 
H 	 -13.9291 	 37.6755 	 51.5623 	 
H 	 -13.2759 	 38.895 	 50.5749 	 
S 	 -16.7235 	 39.9325 	 58.1434 	 
C 	 -18.1417 	 40.2926 	 59.1164 	 
C 	 -19.2617 	 39.696 	 58.6269 	 
C 	 -19.0118 	 39.1254 	 57.3174 	 
C 	 -17.6862 	 39.3003 	 56.8485 	 
H 	 -20.1558 	 39.6322 	 59.312 	 
C 	 -20.0589 	 38.3747 	 56.5331 	 
H 	 -19.46 	 37.7119 	 55.885 	 
H 	 -20.5797 	 39.0667 	 55.8938 	 
C 	 -20.9604 	 37.4563 	 57.4237 	 
H 	 -21.258 	 38.0477 	 58.3005 	 
H 	 -20.4658 	 36.5203 	 57.7192 	 
C 	 -22.2545 	 37.0372 	 56.7142 	 
H 	 -22.1068 	 36.5004 	 55.8013 	 
H 	 -22.8585 	 37.9284 	 56.5806 	 
H 	 -22.8218 	 36.3295 	 57.4101 	 
H 	 -14.4921 	 37.0105 	 53.7205 	 
H 	 -18.1162 	 41.018 	 59.9942 	 
*
