! wB97X-D3 SP def2-SVP
%pal
nprocs 16
end

* xyz 0 1
S 	 -39.3214 	 13.3854 	 79.1917 	 
C 	 -38.2139 	 13.4409 	 77.8929 	 
C 	 -38.8583 	 13.3514 	 76.64 	 
C 	 -40.2464 	 13.306 	 76.821 	 
C 	 -40.6581 	 13.3589 	 78.1227 	 
H 	 -41.008 	 13.4137 	 76.0332 	 
C 	 -38.2041 	 13.5748 	 75.3216 	 
H 	 -39.0141 	 13.6622 	 74.5737 	 
H 	 -37.7107 	 12.7323 	 74.9815 	 
C 	 -37.3815 	 14.8644 	 75.2243 	 
H 	 -36.5534 	 14.8999 	 75.9242 	 
H 	 -36.8828 	 14.9197 	 74.3163 	 
C 	 -38.0955 	 16.1592 	 75.4929 	 
H 	 -38.7846 	 16.3837 	 74.7345 	 
H 	 -38.5334 	 16.135 	 76.5049 	 
H 	 -37.3179 	 16.9522 	 75.4241 	 
S 	 -42.115 	 15.1141 	 79.7469 	 
C 	 -43.8034 	 14.9584 	 79.7751 	 
C 	 -44.2683 	 13.8198 	 79.0794 	 
C 	 -43.2585 	 13.2014 	 78.3074 	 
C 	 -42.0097 	 13.7684 	 78.593 	 
H 	 -45.3559 	 13.487 	 79.1368 	 
C 	 -43.5485 	 11.8497 	 77.6299 	 
H 	 -43.5527 	 11.113 	 78.3741 	 
H 	 -42.6831 	 11.8016 	 76.985 	 
C 	 -44.7754 	 11.6659 	 76.6655 	 
H 	 -45.7282 	 11.8865 	 77.1745 	 
H 	 -44.7204 	 10.6129 	 76.2812 	 
C 	 -44.8831 	 12.5856 	 75.4246 	 
H 	 -45.6978 	 12.1368 	 74.8318 	 
H 	 -43.9934 	 12.7809 	 74.7587 	 
H 	 -45.1389 	 13.5665 	 75.8074 	 
H 	 -37.165 	 13.5804 	 78.0288 	 
H 	 -44.4959 	 15.3804 	 80.5049 	 
*
