! wB97X-D3 SP def2-SVP
%pal
nprocs 16
end

* xyz 0 1
S 	 -32.687 	 74.3536 	 152.46 	 
C 	 -31.1035 	 74.1146 	 153.274 	 
C 	 -30.156 	 73.4893 	 152.498 	 
C 	 -30.6984 	 73.2607 	 151.183 	 
C 	 -32.0925 	 73.4587 	 151.07 	 
H 	 -30.206 	 72.8528 	 150.296 	 
C 	 -28.648 	 73.3731 	 152.79 	 
H 	 -28.4826 	 72.3914 	 153.236 	 
H 	 -28.3608 	 73.9302 	 153.661 	 
C 	 -27.5873 	 73.5694 	 151.637 	 
H 	 -27.8415 	 72.9082 	 150.894 	 
H 	 -27.7388 	 74.4739 	 151.089 	 
C 	 -26.1732 	 73.4079 	 152.055 	 
H 	 -25.3756 	 73.5747 	 151.248 	 
H 	 -25.8978 	 74.1222 	 152.834 	 
H 	 -25.9776 	 72.3543 	 152.403 	 
S 	 -33.5133 	 74.4744 	 148.916 	 
C 	 -34.1898 	 73.3644 	 147.711 	 
C 	 -34.0545 	 72.017 	 148.063 	 
C 	 -33.3066 	 71.9087 	 149.289 	 
C 	 -32.9624 	 73.1346 	 149.911 	 
H 	 -34.5229 	 71.3035 	 147.408 	 
C 	 -33.2356 	 70.576 	 149.999 	 
H 	 -32.1891 	 70.3741 	 150.49 	 
H 	 -33.4726 	 69.7868 	 149.285 	 
C 	 -34.3579 	 70.4986 	 151.073 	 
H 	 -35.3133 	 70.7344 	 150.55 	 
H 	 -34.1969 	 71.1592 	 151.927 	 
C 	 -34.4932 	 69.1037 	 151.646 	 
H 	 -33.5814 	 68.6041 	 151.482 	 
H 	 -35.2207 	 68.4716 	 151.126 	 
H 	 -34.6997 	 69.1345 	 152.703 	 
H 	 -30.7706 	 74.6295 	 154.149 	 
H 	 -34.7369 	 73.6411 	 146.804 	 
*
