! wB97X-D3 SP def2-SVP
%pal
nprocs 16
end

* xyz 0 1
S 	 -52.4906 	 28.5238 	 92.5629 	 
C 	 -51.6824 	 27.0205 	 92.9954 	 
C 	 -52.2446 	 25.8831 	 92.4287 	 
C 	 -53.2838 	 26.2606 	 91.5333 	 
C 	 -53.4008 	 27.6453 	 91.3487 	 
H 	 -53.9741 	 25.5362 	 91.0182 	 
C 	 -52.085 	 24.489 	 92.9574 	 
H 	 -51.1539 	 24.4515 	 93.5413 	 
H 	 -51.9668 	 23.8245 	 92.0804 	 
C 	 -53.2234 	 23.9107 	 93.8375 	 
H 	 -54.0432 	 24.0409 	 93.1732 	 
H 	 -53.1609 	 22.8448 	 93.949 	 
C 	 -53.3581 	 24.5174 	 95.2309 	 
H 	 -52.687 	 24.0959 	 95.9106 	 
H 	 -53.1989 	 25.5559 	 95.2177 	 
H 	 -54.2922 	 24.1676 	 95.6659 	 
S 	 -53.8557 	 29.4314 	 89.1228 	 
C 	 -55.4812 	 29.9765 	 88.7488 	 
C 	 -56.3484 	 29.5071 	 89.6425 	 
C 	 -55.7309 	 28.5712 	 90.6213 	 
C 	 -54.3428 	 28.3943 	 90.4728 	 
H 	 -57.4594 	 29.768 	 89.5495 	 
C 	 -56.6583 	 27.8822 	 91.6536 	 
H 	 -56.1827 	 27.0273 	 92.2006 	 
H 	 -57.4769 	 27.4774 	 91.0331 	 
C 	 -57.1798 	 28.8459 	 92.7867 	 
H 	 -56.9053 	 29.8853 	 92.4613 	 
H 	 -56.6063 	 28.6499 	 93.7228 	 
C 	 -58.6461 	 28.6645 	 93.1563 	 
H 	 -58.8307 	 27.6422 	 93.4395 	 
H 	 -59.3318 	 28.9713 	 92.3432 	 
H 	 -58.837 	 29.3828 	 93.981 	 
H 	 -51.1349 	 26.9936 	 93.9585 	 
H 	 -55.7203 	 30.7353 	 87.9758 	 
*
