! wB97X-D3 SP def2-SVP
%pal
nprocs 16
end

* xyz 0 1
S 	 -40.8458 	 36.6841 	 79.7813 	 
C 	 -41.1776 	 37.4478 	 78.2625 	 
C 	 -42.3345 	 37.0273 	 77.6466 	 
C 	 -43.1403 	 36.2187 	 78.5488 	 
C 	 -42.4944 	 36.0828 	 79.7524 	 
H 	 -43.9697 	 35.6796 	 78.3075 	 
C 	 -42.8022 	 37.5215 	 76.2941 	 
H 	 -43.8716 	 37.4353 	 76.3382 	 
H 	 -42.5505 	 36.8997 	 75.4358 	 
C 	 -42.3083 	 38.9863 	 76.0679 	 
H 	 -42.7749 	 39.5372 	 76.8636 	 
H 	 -41.2019 	 39.0417 	 76.2502 	 
C 	 -42.7571 	 39.6306 	 74.795 	 
H 	 -42.3363 	 40.5935 	 74.6747 	 
H 	 -42.4149 	 39.1286 	 73.88 	 
H 	 -43.8496 	 39.6601 	 74.8175 	 
S 	 -43.713 	 35.9932 	 82.2262 	 
C 	 -43.8259 	 34.4344 	 82.9442 	 
C 	 -43.2395 	 33.3657 	 82.281 	 
C 	 -42.7917 	 33.8582 	 81.0603 	 
C 	 -42.8939 	 35.2344 	 80.8833 	 
H 	 -43.1382 	 32.3933 	 82.6543 	 
C 	 -42.1667 	 32.9694 	 80.0819 	 
H 	 -41.3474 	 32.5287 	 80.6332 	 
H 	 -41.5945 	 33.4515 	 79.3535 	 
C 	 -43.1004 	 31.9774 	 79.4633 	 
H 	 -43.6925 	 32.3119 	 78.6116 	 
H 	 -43.8988 	 31.5901 	 80.1238 	 
C 	 -42.2553 	 30.746 	 79.049 	 
H 	 -41.5684 	 30.9876 	 78.2109 	 
H 	 -42.895 	 30.0447 	 78.6584 	 
H 	 -41.7275 	 30.2427 	 79.8781 	 
H 	 -40.3903 	 38.1485 	 77.9139 	 
H 	 -44.3778 	 34.2767 	 83.9198 	 
*
