! wB97X-D3 SP def2-SVP
%pal
nprocs 16
end

* xyz 0 1
S 	 -23.6514 	 -5.09007 	 97.213 	 
C 	 -24.079 	 -6.60819 	 98.063 	 
C 	 -24.5324 	 -6.44557 	 99.3065 	 
C 	 -24.6338 	 -5.02146 	 99.6021 	 
C 	 -24.2072 	 -4.16514 	 98.6187 	 
H 	 -24.9638 	 -4.52797 	 100.521 	 
C 	 -24.7134 	 -7.47908 	 100.306 	 
H 	 -24.5107 	 -6.98024 	 101.284 	 
H 	 -23.9199 	 -8.22498 	 100.13 	 
C 	 -25.9549 	 -8.3051 	 100.509 	 
H 	 -26.4607 	 -8.49453 	 99.5088 	 
H 	 -25.5976 	 -9.23628 	 100.985 	 
C 	 -26.9401 	 -7.55485 	 101.459 	 
H 	 -26.4851 	 -7.24932 	 102.41 	 
H 	 -27.3192 	 -6.73423 	 100.984 	 
H 	 -27.7685 	 -8.15854 	 101.647 	 
S 	 -22.8727 	 -2.13414 	 99.8707 	 
C 	 -23.2934 	 -0.459588 	 99.4103 	 
C 	 -24.3693 	 -0.3943 	 98.5361 	 
C 	 -24.8488 	 -1.72379 	 98.2388 	 
C 	 -24.1085 	 -2.74567 	 98.77 	 
H 	 -24.8374 	 0.576464 	 98.1714 	 
C 	 -26.0691 	 -1.89831 	 97.4041 	 
H 	 -26.0482 	 -2.77448 	 96.7612 	 
H 	 -26.0776 	 -1.0399 	 96.6728 	 
C 	 -27.4421 	 -1.87406 	 98.1747 	 
H 	 -27.4525 	 -1.12583 	 98.9519 	 
H 	 -27.5456 	 -2.75633 	 98.8538 	 
C 	 -28.6204 	 -1.868 	 97.2348 	 
H 	 -28.5822 	 -0.882818 	 96.7377 	 
H 	 -29.5671 	 -2.09299 	 97.7169 	 
H 	 -28.5678 	 -2.54153 	 96.3749 	 
H 	 -23.9244 	 -7.6283 	 97.7494 	 
H 	 -22.8724 	 0.386796 	 99.8865 	 
*
