! wB97X-D3 SP def2-SVP
%pal
nprocs 16
end

* xyz 0 1
S 	 -12.591 	 74.0238 	 53.7021 	 
C 	 -13.8054 	 75.2424 	 53.7468 	 
C 	 -15.0662 	 74.7133 	 53.5966 	 
C 	 -15.0532 	 73.2667 	 53.6511 	 
C 	 -13.8048 	 72.7384 	 53.6346 	 
H 	 -15.8639 	 72.5758 	 53.6023 	 
C 	 -16.3765 	 75.4432 	 53.4269 	 
H 	 -16.1737 	 76.0652 	 52.5521 	 
H 	 -16.5715 	 76.1412 	 54.2729 	 
C 	 -17.6636 	 74.7074 	 53.1839 	 
H 	 -17.6446 	 74.1631 	 52.2545 	 
H 	 -17.801 	 73.9313 	 54.008 	 
C 	 -18.8395 	 75.6289 	 53.0555 	 
H 	 -19.0833 	 76.3735 	 53.8608 	 
H 	 -18.6423 	 76.168 	 52.0496 	 
H 	 -19.7369 	 74.938 	 53.0506 	 
S 	 -11.8162 	 70.9729 	 54.0176 	 
C 	 -11.8954 	 69.2952 	 53.5843 	 
C 	 -13.0948 	 69.0503 	 52.888 	 
C 	 -13.927 	 70.2158 	 52.6528 	 
C 	 -13.3983 	 71.3142 	 53.352 	 
H 	 -13.2435 	 68.1005 	 52.3596 	 
C 	 -15.1334 	 70.1561 	 51.8138 	 
H 	 -14.9111 	 69.3555 	 51.0053 	 
H 	 -15.3588 	 71.138 	 51.3473 	 
C 	 -16.4114 	 69.6915 	 52.5726 	 
H 	 -16.6499 	 70.3617 	 53.4247 	 
H 	 -16.3232 	 68.6597 	 52.9744 	 
C 	 -17.6576 	 69.726 	 51.7204 	 
H 	 -17.5861 	 69.0023 	 50.9345 	 
H 	 -17.8584 	 70.7416 	 51.299 	 
H 	 -18.5731 	 69.4728 	 52.3399 	 
H 	 -13.6908 	 76.3258 	 53.8306 	 
H 	 -11.1623 	 68.5872 	 53.9232 	 
*
