! wB97X-D3 SP def2-SVP
%pal
nprocs 16
end

* xyz 0 1
S 	 -12.0088 	 -10.4387 	 88.1701 	 
C 	 -13.5466 	 -9.9484 	 87.4119 	 
C 	 -14.6152 	 -10.0273 	 88.2413 	 
C 	 -14.2104 	 -10.6245 	 89.4832 	 
C 	 -12.8692 	 -11.0867 	 89.6064 	 
H 	 -14.8792 	 -10.7438 	 90.3491 	 
C 	 -16.0951 	 -9.67256 	 87.9627 	 
H 	 -16.632 	 -10.5744 	 87.9614 	 
H 	 -16.1769 	 -9.3183 	 86.9274 	 
C 	 -16.6189 	 -8.52455 	 88.8796 	 
H 	 -16.4654 	 -8.76377 	 89.94 	 
H 	 -16.0877 	 -7.58705 	 88.7524 	 
C 	 -18.164 	 -8.51612 	 88.8301 	 
H 	 -18.5902 	 -9.4709 	 89.1292 	 
H 	 -18.4242 	 -7.87189 	 89.6496 	 
H 	 -18.5937 	 -8.02556 	 87.9543 	 
S 	 -10.5614 	 -10.9986 	 91.1814 	 
C 	 -10.5996 	 -11.6623 	 92.7751 	 
C 	 -11.7284 	 -12.3922 	 92.962 	 
C 	 -12.627 	 -12.3911 	 91.8467 	 
C 	 -12.1887 	 -11.5532 	 90.8189 	 
H 	 -12.0405 	 -12.8607 	 93.887 	 
C 	 -13.9141 	 -13.2237 	 91.9374 	 
H 	 -14.7484 	 -12.5979 	 91.6286 	 
H 	 -14.075 	 -13.3869 	 92.9963 	 
C 	 -13.9573 	 -14.4988 	 91.1629 	 
H 	 -14.7778 	 -15.0316 	 91.595 	 
H 	 -13.0323 	 -15.0249 	 91.2132 	 
C 	 -14.3912 	 -14.4829 	 89.6659 	 
H 	 -15.3945 	 -14.0322 	 89.6765 	 
H 	 -14.4835 	 -15.5847 	 89.2993 	 
H 	 -13.7413 	 -13.8977 	 88.9632 	 
H 	 -13.7156 	 -9.55738 	 86.4199 	 
H 	 -9.85975 	 -11.3901 	 93.5754 	 
*
