! wB97X-D3 SP def2-SVP
%pal
nprocs 16
end

* xyz 0 1
S 	 8.74077 	 -19.3323 	 79.133 	 
C 	 9.22242 	 -19.59 	 80.7913 	 
C 	 9.29652 	 -18.4159 	 81.468 	 
C 	 8.88491 	 -17.2757 	 80.6806 	 
C 	 8.6731 	 -17.5947 	 79.345 	 
H 	 8.66902 	 -16.3096 	 81.0053 	 
C 	 9.44737 	 -18.3705 	 82.958 	 
H 	 9.98059 	 -17.4554 	 83.151 	 
H 	 10.0736 	 -19.1526 	 83.4351 	 
C 	 8.0818 	 -18.3743 	 83.752 	 
H 	 7.55373 	 -17.4206 	 83.7881 	 
H 	 7.46126 	 -19.0525 	 83.0954 	 
C 	 8.10422 	 -18.9069 	 85.2128 	 
H 	 8.51904 	 -19.9486 	 85.266 	 
H 	 8.7021 	 -18.3347 	 85.8957 	 
H 	 7.16452 	 -18.9299 	 85.631 	 
S 	 6.68814 	 -17.3399 	 77.5115 	 
C 	 6.56372 	 -15.8762 	 76.582 	 
C 	 7.59485 	 -14.9766 	 76.8484 	 
C 	 8.51625 	 -15.4693 	 77.848 	 
C 	 8.21406 	 -16.7629 	 78.2919 	 
H 	 7.70414 	 -14.1041 	 76.2288 	 
C 	 9.80225 	 -14.5938 	 78.2144 	 
H 	 10.2401 	 -14.2673 	 77.2772 	 
H 	 10.5733 	 -15.0834 	 78.7517 	 
C 	 9.54148 	 -13.3212 	 78.9601 	 
H 	 8.69598 	 -13.4704 	 79.6042 	 
H 	 9.15225 	 -12.6037 	 78.2401 	 
C 	 10.7586 	 -12.7285 	 79.6799 	 
H 	 11.4947 	 -12.377 	 79.0008 	 
H 	 11.1815 	 -13.4642 	 80.3605 	 
H 	 10.4038 	 -11.798 	 80.1876 	 
H 	 9.17408 	 -20.4979 	 81.3455 	 
H 	 5.80772 	 -15.8188 	 75.7533 	 
*
