! wB97X-D3 SP def2-SVP
%pal
nprocs 16
end

* xyz 0 1
S 	 -24.0684 	 50.5725 	 65.6269 	 
C 	 -22.6015 	 50.6423 	 64.6061 	 
C 	 -21.5002 	 50.9473 	 65.4131 	 
C 	 -21.8029 	 50.6752 	 66.8095 	 
C 	 -23.1315 	 50.3762 	 67.0792 	 
H 	 -21.1106 	 50.7218 	 67.581 	 
C 	 -20.1906 	 51.4872 	 64.8293 	 
H 	 -19.7616 	 52.2796 	 65.4242 	 
H 	 -20.4433 	 51.97 	 63.8371 	 
C 	 -19.0868 	 50.4594 	 64.8113 	 
H 	 -18.1274 	 51.0485 	 64.7865 	 
H 	 -19.0504 	 49.8665 	 65.719 	 
C 	 -19.103 	 49.5358 	 63.5965 	 
H 	 -19.8669 	 48.835 	 63.7348 	 
H 	 -19.224 	 50.0879 	 62.6644 	 
H 	 -18.1111 	 49.0614 	 63.4882 	 
S 	 -25.0628 	 51.3102 	 68.6615 	 
C 	 -25.3962 	 50.5636 	 70.203 	 
C 	 -24.359 	 49.7337 	 70.6238 	 
C 	 -23.322 	 49.6594 	 69.6433 	 
C 	 -23.6992 	 50.2346 	 68.4243 	 
H 	 -24.3809 	 49.2179 	 71.5745 	 
C 	 -22.2292 	 48.6024 	 69.7633 	 
H 	 -21.7238 	 48.6805 	 68.7902 	 
H 	 -22.714 	 47.5574 	 69.896 	 
C 	 -21.3434 	 48.7974 	 70.9337 	 
H 	 -21.908 	 48.5875 	 71.7965 	 
H 	 -21.0946 	 49.8456 	 70.8996 	 
C 	 -20.0244 	 47.9582 	 70.8811 	 
H 	 -19.6119 	 47.9629 	 69.8278 	 
H 	 -20.3592 	 46.9726 	 71.1661 	 
H 	 -19.3491 	 48.4446 	 71.5467 	 
H 	 -22.6141 	 50.8791 	 63.5975 	 
H 	 -26.2347 	 50.8044 	 70.7989 	 
*
