! wB97X-D3 SP def2-SVP
%pal
nprocs 16
end

* xyz 0 1
S 	 -106.739 	 40.0141 	 128.092 	 
C 	 -106.434 	 39.9794 	 129.847 	 
C 	 -107.591 	 40.2314 	 130.571 	 
C 	 -108.717 	 40.3465 	 129.677 	 
C 	 -108.413 	 40.2756 	 128.34 	 
H 	 -109.713 	 40.4512 	 129.979 	 
C 	 -107.678 	 40.3039 	 132.086 	 
H 	 -107.706 	 41.3745 	 132.227 	 
H 	 -106.725 	 39.94 	 132.511 	 
C 	 -108.826 	 39.6211 	 132.861 	 
H 	 -108.757 	 39.8013 	 133.968 	 
H 	 -109.763 	 39.9486 	 132.502 	 
C 	 -108.852 	 38.0528 	 132.879 	 
H 	 -108.589 	 37.6537 	 131.874 	 
H 	 -108.063 	 37.7568 	 133.501 	 
H 	 -109.808 	 37.7367 	 133.213 	 
S 	 -108.839 	 41.4506 	 125.859 	 
C 	 -110.391 	 41.8606 	 125.372 	 
C 	 -111.312 	 41.1892 	 126.123 	 
C 	 -110.779 	 40.4478 	 127.198 	 
C 	 -109.359 	 40.5715 	 127.24 	 
H 	 -112.374 	 41.2812 	 125.896 	 
C 	 -111.633 	 39.69 	 128.182 	 
H 	 -111.799 	 40.3304 	 129.053 	 
H 	 -110.925 	 38.9037 	 128.55 	 
C 	 -112.933 	 39.0058 	 127.677 	 
H 	 -112.687 	 38.3529 	 126.837 	 
H 	 -113.68 	 39.7405 	 127.38 	 
C 	 -113.577 	 38.2317 	 128.867 	 
H 	 -113.731 	 38.9609 	 129.699 	 
H 	 -112.867 	 37.4584 	 129.238 	 
H 	 -114.467 	 37.6483 	 128.626 	 
H 	 -105.467 	 39.9876 	 130.393 	 
H 	 -110.589 	 42.3896 	 124.425 	 
*
