! wB97X-D3 SP def2-SVP
%pal
nprocs 16
end

* xyz 0 1
S 	 -55.7891 	 27.4454 	 94.2004 	 
C 	 -54.2595 	 28.2737 	 94.6003 	 
C 	 -53.2798 	 27.9541 	 93.6733 	 
C 	 -53.6707 	 26.7896 	 92.9048 	 
C 	 -55.0173 	 26.4489 	 92.997 	 
H 	 -53.0598 	 26.4002 	 92.11 	 
C 	 -51.9475 	 28.569 	 93.8203 	 
H 	 -51.2925 	 27.92 	 93.3995 	 
H 	 -51.6094 	 28.6196 	 94.8749 	 
C 	 -51.6978 	 29.8494 	 93.0679 	 
H 	 -51.9751 	 29.7428 	 91.9861 	 
H 	 -52.3725 	 30.5905 	 93.5163 	 
C 	 -50.3198 	 30.4957 	 93.1832 	 
H 	 -50.0634 	 30.4113 	 94.2566 	 
H 	 -49.5725 	 29.9179 	 92.7294 	 
H 	 -50.2803 	 31.5799 	 93.0702 	 
S 	 -55.5492 	 23.7978 	 92.7429 	 
C 	 -56.3792 	 23.1753 	 91.2904 	 
C 	 -56.9029 	 24.2035 	 90.5453 	 
C 	 -56.4132 	 25.5027 	 90.9744 	 
C 	 -55.718 	 25.4397 	 92.195 	 
H 	 -57.4782 	 24.0623 	 89.6624 	 
C 	 -56.7368 	 26.7072 	 90.193 	 
H 	 -56.4186 	 26.5991 	 89.134 	 
H 	 -56.1206 	 27.4673 	 90.6295 	 
C 	 -58.1885 	 27.1736 	 90.3265 	 
H 	 -58.3825 	 27.2843 	 91.4144 	 
H 	 -58.8513 	 26.4088 	 90.0184 	 
C 	 -58.3682 	 28.4935 	 89.4589 	 
H 	 -57.5891 	 29.2087 	 89.7169 	 
H 	 -59.3592 	 28.8153 	 89.6377 	 
H 	 -58.2098 	 28.2486 	 88.4147 	 
H 	 -54.1854 	 29.2448 	 95.0426 	 
H 	 -56.5521 	 22.1124 	 91.0735 	 
*
