! wB97X-D3 SP def2-SVP
%pal
nprocs 16
end

* xyz 0 1
S 	 -91.7092 	 49.8581 	 129.056 	 
C 	 -92.2658 	 48.7784 	 127.827 	 
C 	 -91.2937 	 47.8522 	 127.47 	 
C 	 -90.2188 	 47.8559 	 128.475 	 
C 	 -90.2817 	 48.9057 	 129.352 	 
H 	 -89.406 	 47.1586 	 128.534 	 
C 	 -91.3249 	 46.9315 	 126.238 	 
H 	 -90.5171 	 47.3027 	 125.566 	 
H 	 -92.243 	 47.1063 	 125.733 	 
C 	 -91.0686 	 45.4921 	 126.526 	 
H 	 -90.9568 	 44.9122 	 125.564 	 
H 	 -90.1092 	 45.3542 	 127.091 	 
C 	 -92.2176 	 44.875 	 127.404 	 
H 	 -93.0699 	 44.843 	 126.748 	 
H 	 -91.9667 	 43.7774 	 127.511 	 
H 	 -92.3907 	 45.3084 	 128.334 	 
S 	 -89.517 	 49.0283 	 132.023 	 
C 	 -88.0189 	 49.8133 	 132.381 	 
C 	 -87.1812 	 49.8235 	 131.275 	 
C 	 -87.8648 	 49.4328 	 130.075 	 
C 	 -89.1968 	 49.2286 	 130.287 	 
H 	 -86.1347 	 50.1236 	 131.371 	 
C 	 -87.1396 	 49.2693 	 128.748 	 
H 	 -87.3836 	 48.3427 	 128.323 	 
H 	 -86.0931 	 49.2685 	 129.085 	 
C 	 -87.4531 	 50.4701 	 127.752 	 
H 	 -87.0331 	 51.3365 	 128.131 	 
H 	 -88.5472 	 50.6006 	 127.766 	 
C 	 -86.8544 	 50.2694 	 126.323 	 
H 	 -86.7585 	 51.1726 	 125.703 	 
H 	 -87.2742 	 49.42 	 125.817 	 
H 	 -85.7701 	 49.9792 	 126.412 	 
H 	 -92.9998 	 49.0098 	 127.135 	 
H 	 -87.6878 	 50.0442 	 133.401 	 
*
