! wB97X-D3 SP def2-SVP
%pal
nprocs 16
end

* xyz 0 1
S 	 -47.2256 	 29.8974 	 92.0264 	 
C 	 -47.9678 	 28.33 	 92.2204 	 
C 	 -48.3028 	 27.7589 	 91.0077 	 
C 	 -48.2134 	 28.7345 	 89.9355 	 
C 	 -47.5922 	 29.9129 	 90.2529 	 
H 	 -48.4567 	 28.529 	 88.8845 	 
C 	 -48.8762 	 26.3295 	 90.7576 	 
H 	 -48.4683 	 25.6417 	 91.6059 	 
H 	 -48.3874 	 25.8765 	 89.904 	 
C 	 -50.3701 	 26.3315 	 90.4919 	 
H 	 -50.8895 	 26.7643 	 91.3909 	 
H 	 -50.7042 	 27.0059 	 89.7031 	 
C 	 -50.9126 	 25.0029 	 90.1056 	 
H 	 -51.2668 	 24.4408 	 90.9616 	 
H 	 -51.7584 	 24.9992 	 89.3976 	 
H 	 -50.2148 	 24.3492 	 89.6522 	 
S 	 -46.2675 	 32.3389 	 90.1194 	 
C 	 -46.5048 	 33.4064 	 88.6687 	 
C 	 -47.1482 	 32.68 	 87.6738 	 
C 	 -47.5859 	 31.3715 	 88.0683 	 
C 	 -47.2866 	 31.0877 	 89.4178 	 
H 	 -47.3363 	 33.1474 	 86.6943 	 
C 	 -48.3445 	 30.5461 	 86.9772 	 
H 	 -48.0112 	 29.5571 	 87.1732 	 
H 	 -47.8249 	 30.8192 	 86.0144 	 
C 	 -49.8631 	 30.7441 	 86.8623 	 
H 	 -50.1546 	 31.6916 	 86.5024 	 
H 	 -50.3943 	 30.7367 	 87.859 	 
C 	 -50.4128 	 29.5634 	 86.0634 	 
H 	 -50.1825 	 28.6185 	 86.4879 	 
H 	 -49.9916 	 29.4689 	 85.1474 	 
H 	 -51.4424 	 29.5287 	 85.9571 	 
H 	 -47.9863 	 27.8141 	 93.185 	 
H 	 -46.2897 	 34.4582 	 88.6152 	 
*
