! wB97X-D3 SP def2-SVP
%pal
nprocs 16
end

* xyz 0 1
S 	 -33.5758 	 62.7302 	 113.073 	 
C 	 -35.2217 	 63.1949 	 113.415 	 
C 	 -35.7436 	 62.2743 	 114.304 	 
C 	 -34.7924 	 61.3115 	 114.852 	 
C 	 -33.5398 	 61.4739 	 114.226 	 
H 	 -34.9844 	 60.6145 	 115.625 	 
C 	 -37.1821 	 62.0233 	 114.669 	 
H 	 -37.3916 	 61.0241 	 114.504 	 
H 	 -37.7255 	 62.5732 	 113.875 	 
C 	 -37.5544 	 62.3374 	 116.202 	 
H 	 -36.97 	 61.6901 	 116.862 	 
H 	 -37.2153 	 63.3703 	 116.593 	 
C 	 -39.0654 	 62.3071 	 116.43 	 
H 	 -39.5605 	 61.3451 	 116.27 	 
H 	 -39.2239 	 62.4748 	 117.52 	 
H 	 -39.6134 	 63.0062 	 115.785 	 
S 	 -31.6504 	 59.9594 	 112.903 	 
C 	 -30.6088 	 58.9651 	 113.815 	 
C 	 -30.8565 	 59.0421 	 115.165 	 
C 	 -31.8807 	 59.9633 	 115.451 	 
C 	 -32.4446 	 60.5775 	 114.379 	 
H 	 -30.3189 	 58.4176 	 115.866 	 
C 	 -32.4267 	 60.09 	 116.834 	 
H 	 -33.159 	 60.9429 	 116.922 	 
H 	 -31.5608 	 60.438 	 117.389 	 
C 	 -33.0666 	 58.8388 	 117.466 	 
H 	 -32.197 	 58.1688 	 117.556 	 
H 	 -33.6679 	 58.3925 	 116.67 	 
C 	 -33.6244 	 59.0585 	 118.906 	 
H 	 -34.2658 	 59.9025 	 118.829 	 
H 	 -32.8918 	 59.4814 	 119.571 	 
H 	 -34.0983 	 58.2094 	 119.366 	 
H 	 -35.6714 	 63.9746 	 112.863 	 
H 	 -29.8233 	 58.3985 	 113.386 	 
*
