! wB97X-D3 SP def2-SVP
%pal
nprocs 16
end

* xyz 0 1
S 	 15.737 	 -13.5269 	 76.7288 	 
C 	 14.9888 	 -11.951 	 76.754 	 
C 	 14.0649 	 -11.8052 	 77.7846 	 
C 	 13.7525 	 -12.9912 	 78.4226 	 
C 	 14.6151 	 -14.0367 	 78.0779 	 
H 	 12.933 	 -13.2426 	 79.0882 	 
C 	 13.4638 	 -10.4634 	 78.2159 	 
H 	 14.0983 	 -9.59044 	 77.8943 	 
H 	 13.2965 	 -10.4941 	 79.2729 	 
C 	 12.1919 	 -10.0193 	 77.521 	 
H 	 11.8614 	 -9.05872 	 77.8545 	 
H 	 12.3544 	 -10.052 	 76.4295 	 
C 	 11.0967 	 -11.0376 	 77.7373 	 
H 	 10.898 	 -11.2438 	 78.8303 	 
H 	 10.1705 	 -10.683 	 77.2174 	 
H 	 11.4482 	 -11.9193 	 77.196 	 
S 	 12.8203 	 -15.9698 	 78.5492 	 
C 	 13.3527 	 -17.4773 	 79.3436 	 
C 	 14.7341 	 -17.5501 	 79.3598 	 
C 	 15.3185 	 -16.3645 	 78.8353 	 
C 	 14.4472 	 -15.3719 	 78.5119 	 
H 	 15.2116 	 -18.5098 	 79.7284 	 
C 	 16.7842 	 -16.283 	 78.596 	 
H 	 17.1718 	 -15.8246 	 77.685 	 
H 	 17.1881 	 -17.3118 	 78.6382 	 
C 	 17.4828 	 -15.3643 	 79.6467 	 
H 	 17.6299 	 -15.9394 	 80.5341 	 
H 	 16.7986 	 -14.5485 	 79.9361 	 
C 	 18.8187 	 -14.7635 	 79.2287 	 
H 	 19.4582 	 -14.2863 	 80.0253 	 
H 	 18.5485 	 -14.0758 	 78.3869 	 
H 	 19.4745 	 -15.4884 	 78.7941 	 
H 	 15.2514 	 -11.1555 	 76.1277 	 
H 	 12.7534 	 -18.2946 	 79.7027 	 
*
