! wB97X-D3 SP def2-SVP
%pal
nprocs 16
end

* xyz 0 1
S 	 -101.654 	 48.2868 	 118.973 	 
C 	 -102.723 	 49.5737 	 119.496 	 
C 	 -103.81 	 49.1164 	 120.241 	 
C 	 -103.645 	 47.7199 	 120.537 	 
C 	 -102.514 	 47.1512 	 119.979 	 
H 	 -104.35 	 47.1118 	 121.099 	 
C 	 -104.789 	 50.0267 	 120.949 	 
H 	 -105.509 	 49.2824 	 121.247 	 
H 	 -105.36 	 50.7794 	 120.381 	 
C 	 -104.237 	 50.6773 	 122.217 	 
H 	 -104.987 	 50.7405 	 122.938 	 
H 	 -103.504 	 49.9536 	 122.642 	 
C 	 -103.569 	 52.0273 	 122.014 	 
H 	 -102.628 	 52.1435 	 121.44 	 
H 	 -104.231 	 52.7794 	 121.546 	 
H 	 -103.307 	 52.3911 	 123.013 	 
S 	 -103.387 	 44.6893 	 119.262 	 
C 	 -102.257 	 43.3221 	 119.34 	 
C 	 -101.326 	 43.5955 	 120.28 	 
C 	 -101.217 	 44.9887 	 120.651 	 
C 	 -102.182 	 45.7547 	 119.999 	 
H 	 -100.67 	 42.781 	 120.762 	 
C 	 -100.081 	 45.4999 	 121.456 	 
H 	 -100.043 	 44.9025 	 122.41 	 
H 	 -100.394 	 46.5396 	 121.793 	 
C 	 -98.6896 	 45.4698 	 120.784 	 
H 	 -98.7425 	 46.0841 	 119.884 	 
H 	 -98.4153 	 44.4934 	 120.367 	 
C 	 -97.4783 	 45.9198 	 121.476 	 
H 	 -97.1509 	 45.3613 	 122.41 	 
H 	 -97.5895 	 46.9677 	 121.731 	 
H 	 -96.6755 	 45.841 	 120.778 	 
H 	 -102.607 	 50.6321 	 119.361 	 
H 	 -102.358 	 42.3831 	 118.83 	 
*
