! wB97X-D3 SP def2-SVP
%pal
nprocs 16
end

* xyz 0 1
S 	 -5.58961 	 74.4754 	 47.796 	 
C 	 -5.5991 	 76.0873 	 48.5509 	 
C 	 -6.89073 	 76.4643 	 48.9231 	 
C 	 -7.93292 	 75.5256 	 48.4483 	 
C 	 -7.33531 	 74.4946 	 47.7402 	 
H 	 -9.03607 	 75.6513 	 48.5958 	 
C 	 -7.18119 	 77.7246 	 49.7569 	 
H 	 -6.60395 	 78.5063 	 49.2655 	 
H 	 -6.65346 	 77.5644 	 50.663 	 
C 	 -8.7132 	 78.1656 	 49.9509 	 
H 	 -9.16856 	 78.206 	 48.9927 	 
H 	 -9.30229 	 77.3982 	 50.5275 	 
C 	 -8.88387 	 79.5125 	 50.6233 	 
H 	 -9.9288 	 79.708 	 50.7221 	 
H 	 -8.51293 	 79.6267 	 51.6748 	 
H 	 -8.4616 	 80.4067 	 50.0935 	 
S 	 -7.64392 	 71.8274 	 48.1077 	 
C 	 -8.72667 	 70.959 	 47.1237 	 
C 	 -9.26534 	 71.7292 	 46.109 	 
C 	 -8.90309 	 73.1177 	 46.2588 	 
C 	 -7.98276 	 73.3225 	 47.2751 	 
H 	 -9.91827 	 71.2878 	 45.3799 	 
C 	 -9.54044 	 74.201 	 45.3849 	 
H 	 -8.83073 	 74.2739 	 44.5085 	 
H 	 -9.36551 	 75.1033 	 45.9496 	 
C 	 -10.9957 	 73.892 	 45.1857 	 
H 	 -11.4352 	 73.5844 	 46.1756 	 
H 	 -11.0011 	 72.9513 	 44.5408 	 
C 	 -11.8307 	 75.0688 	 44.5024 	 
H 	 -12.0476 	 75.8859 	 45.1694 	 
H 	 -12.801 	 74.6429 	 44.2595 	 
H 	 -11.3941 	 75.4826 	 43.5678 	 
H 	 -4.70319 	 76.5852 	 48.7746 	 
H 	 -8.86754 	 69.9044 	 47.2232 	 
*
