! wB97X-D3 SP def2-SVP
%pal
nprocs 16
end

* xyz 0 1
S 	 -58.3455 	 52.3067 	 134.276 	 
C 	 -58.376 	 50.9582 	 135.342 	 
C 	 -59.689 	 50.8296 	 135.92 	 
C 	 -60.5656 	 51.8477 	 135.458 	 
C 	 -59.9489 	 52.8418 	 134.723 	 
H 	 -61.6793 	 51.9101 	 135.679 	 
C 	 -60.2363 	 49.6363 	 136.751 	 
H 	 -59.5968 	 48.7376 	 136.516 	 
H 	 -61.2631 	 49.4724 	 136.339 	 
C 	 -60.2074 	 49.7742 	 138.324 	 
H 	 -60.6607 	 50.7237 	 138.492 	 
H 	 -60.8309 	 48.9851 	 138.787 	 
C 	 -58.8182 	 49.4869 	 138.86 	 
H 	 -58.1058 	 50.0976 	 138.372 	 
H 	 -58.7606 	 49.6035 	 139.968 	 
H 	 -58.4414 	 48.4324 	 138.631 	 
S 	 -60.5362 	 54.199 	 132.466 	 
C 	 -61.2166 	 55.7937 	 132.611 	 
C 	 -61.4038 	 56.2102 	 133.923 	 
C 	 -61.0746 	 55.1838 	 134.83 	 
C 	 -60.542 	 54.0207 	 134.177 	 
H 	 -61.6393 	 57.2464 	 134.112 	 
C 	 -61.3018 	 55.3516 	 136.352 	 
H 	 -61.9335 	 54.5051 	 136.676 	 
H 	 -61.7868 	 56.3291 	 136.544 	 
C 	 -60.0906 	 55.3458 	 137.301 	 
H 	 -59.5122 	 56.2454 	 137.115 	 
H 	 -59.3514 	 54.5272 	 137.064 	 
C 	 -60.4685 	 55.2234 	 138.854 	 
H 	 -61.1377 	 54.3178 	 139.081 	 
H 	 -61.0778 	 56.0291 	 139.246 	 
H 	 -59.5656 	 54.9496 	 139.407 	 
H 	 -57.6145 	 50.1408 	 135.355 	 
H 	 -61.6533 	 56.2424 	 131.755 	 
*
