! wB97X-D3 SP def2-SVP
%pal
nprocs 16
end

* xyz 0 1
S 	 8.96494 	 -18.3393 	 82.8451 	 
C 	 8.46797 	 -19.3282 	 84.1548 	 
C 	 7.78071 	 -18.6762 	 85.198 	 
C 	 7.63046 	 -17.3351 	 84.8659 	 
C 	 8.2006 	 -16.9814 	 83.6502 	 
H 	 7.06154 	 -16.6956 	 85.4734 	 
C 	 7.10898 	 -19.3449 	 86.347 	 
H 	 7.08728 	 -20.4486 	 86.1421 	 
H 	 6.11406 	 -18.9853 	 86.2242 	 
C 	 7.64917 	 -19.1159 	 87.7826 	 
H 	 8.67981 	 -19.3711 	 87.8107 	 
H 	 7.67447 	 -18.081 	 87.9742 	 
C 	 6.92972 	 -19.8755 	 88.8859 	 
H 	 7.15642 	 -20.9261 	 88.923 	 
H 	 7.28509 	 -19.4092 	 89.8031 	 
H 	 5.85041 	 -19.7447 	 88.9451 	 
S 	 6.75875 	 -14.7996 	 82.7598 	 
C 	 7.60823 	 -13.3072 	 82.566 	 
C 	 8.95048 	 -13.5542 	 82.5537 	 
C 	 9.36368 	 -14.856 	 82.98 	 
C 	 8.23663 	 -15.6497 	 83.1474 	 
H 	 9.6494 	 -12.6643 	 82.3698 	 
C 	 10.8023 	 -15.2141 	 83.3493 	 
H 	 10.98 	 -16.1972 	 83.7458 	 
H 	 11.1708 	 -14.4721 	 83.9886 	 
C 	 11.7421 	 -15.0178 	 82.1684 	 
H 	 11.7412 	 -13.9619 	 81.789 	 
H 	 11.3624 	 -15.6997 	 81.3167 	 
C 	 13.207 	 -15.5042 	 82.3078 	 
H 	 13.7069 	 -15.0242 	 83.1878 	 
H 	 13.82 	 -15.4804 	 81.4234 	 
H 	 13.0715 	 -16.6004 	 82.4789 	 
H 	 8.66365 	 -20.3933 	 84.2213 	 
H 	 7.19053 	 -12.3713 	 82.3295 	 
*
