! wB97X-D3 SP def2-SVP
%pal
nprocs 16
end

* xyz 0 1
S 	 -25.5853 	 57.242 	 110.869 	 
C 	 -24.5776 	 58.3104 	 109.865 	 
C 	 -25.2957 	 59.3316 	 109.317 	 
C 	 -26.7024 	 59.3216 	 109.817 	 
C 	 -27.0115 	 58.1453 	 110.479 	 
H 	 -27.4927 	 59.9708 	 109.444 	 
C 	 -24.7762 	 60.4562 	 108.559 	 
H 	 -24.0117 	 61.0555 	 109.191 	 
H 	 -25.5794 	 61.0775 	 108.394 	 
C 	 -23.9519 	 60.1562 	 107.292 	 
H 	 -24.5653 	 59.7518 	 106.448 	 
H 	 -23.7038 	 61.1746 	 106.922 	 
C 	 -22.6447 	 59.3982 	 107.477 	 
H 	 -22.1796 	 59.156 	 106.467 	 
H 	 -22.002 	 59.8957 	 108.104 	 
H 	 -22.8518 	 58.3766 	 107.835 	 
S 	 -28.8265 	 56.1424 	 110.112 	 
C 	 -30.3766 	 56.1759 	 110.967 	 
C 	 -30.5796 	 57.3719 	 111.631 	 
C 	 -29.4047 	 58.2442 	 111.565 	 
C 	 -28.3672 	 57.7216 	 110.805 	 
H 	 -31.4641 	 57.4684 	 112.189 	 
C 	 -29.3676 	 59.4707 	 112.452 	 
H 	 -28.4527 	 60.0241 	 112.144 	 
H 	 -29.1607 	 59.1939 	 113.545 	 
C 	 -30.6629 	 60.3396 	 112.389 	 
H 	 -31.4577 	 59.8838 	 112.949 	 
H 	 -31.1062 	 60.3736 	 111.307 	 
C 	 -30.3723 	 61.7714 	 112.82 	 
H 	 -29.8756 	 61.8798 	 113.81 	 
H 	 -31.346 	 62.2386 	 112.837 	 
H 	 -29.6896 	 62.313 	 112.112 	 
H 	 -23.5596 	 58.1223 	 109.694 	 
H 	 -31.1688 	 55.4414 	 110.904 	 
*
