! wB97X-D3 SP def2-SVP
%pal
nprocs 16
end

* xyz 0 1
S 	 -113.215 	 51.8379 	 129.944 	 
C 	 -113.26 	 53.097 	 131.11 	 
C 	 -112.743 	 52.713 	 132.338 	 
C 	 -112.468 	 51.3228 	 132.378 	 
C 	 -112.684 	 50.6804 	 131.166 	 
H 	 -112.023 	 50.7379 	 133.157 	 
C 	 -112.456 	 53.6171 	 133.548 	 
H 	 -112.333 	 54.6547 	 133.173 	 
H 	 -111.409 	 53.4498 	 133.954 	 
C 	 -113.416 	 53.5739 	 134.734 	 
H 	 -114.264 	 54.3171 	 134.556 	 
H 	 -113.94 	 52.6501 	 134.665 	 
C 	 -112.729 	 53.762 	 136.017 	 
H 	 -112.153 	 52.8008 	 136.312 	 
H 	 -112.07 	 54.5834 	 135.983 	 
H 	 -113.415 	 54.0377 	 136.917 	 
S 	 -110.855 	 48.7554 	 130.643 	 
C 	 -111.344 	 47.1105 	 130.998 	 
C 	 -112.657 	 46.9866 	 131.362 	 
C 	 -113.348 	 48.2372 	 131.457 	 
C 	 -112.502 	 49.2502 	 131.029 	 
H 	 -113.022 	 45.9766 	 131.595 	 
C 	 -114.725 	 48.4097 	 131.956 	 
H 	 -115.376 	 47.5324 	 131.675 	 
H 	 -115.146 	 49.1856 	 131.367 	 
C 	 -114.886 	 48.6068 	 133.523 	 
H 	 -114.268 	 49.4464 	 133.767 	 
H 	 -114.37 	 47.7367 	 134.098 	 
C 	 -116.357 	 48.6735 	 134.053 	 
H 	 -116.943 	 47.8333 	 133.704 	 
H 	 -116.831 	 49.4752 	 133.551 	 
H 	 -116.35 	 48.7295 	 135.125 	 
H 	 -113.645 	 54.0641 	 130.87 	 
H 	 -110.821 	 46.1935 	 130.951 	 
*
