! wB97X-D3 SP def2-SVP
%pal
nprocs 16
end

* xyz 0 1
S 	 0.536613 	 -0.376055 	 79.9069 	 
C 	 0.740227 	 -0.0645964 	 81.6169 	 
C 	 0.707769 	 -1.20075 	 82.4239 	 
C 	 0.840053 	 -2.35875 	 81.5484 	 
C 	 0.66854 	 -2.07398 	 80.2008 	 
H 	 1.05008 	 -3.31486 	 81.8198 	 
C 	 0.841978 	 -1.35881 	 83.947 	 
H 	 0.0351031 	 -2.01435 	 84.1688 	 
H 	 0.550713 	 -0.318054 	 84.3197 	 
C 	 2.09929 	 -1.96754 	 84.5034 	 
H 	 1.91763 	 -2.07502 	 85.5541 	 
H 	 2.20662 	 -2.95883 	 84.054 	 
C 	 3.28895 	 -1.05513 	 84.46 	 
H 	 4.21848 	 -1.56753 	 84.67 	 
H 	 3.37054 	 -0.596093 	 83.4735 	 
H 	 3.11425 	 -0.250103 	 85.1869 	 
S 	 -0.500145 	 -2.55578 	 77.6843 	 
C 	 -0.157935 	 -4.03094 	 76.8353 	 
C 	 0.524379 	 -4.93792 	 77.5992 	 
C 	 0.884671 	 -4.40486 	 78.9007 	 
C 	 0.438784 	 -3.13525 	 79.1171 	 
H 	 0.730561 	 -5.88531 	 77.1055 	 
C 	 1.55389 	 -5.34982 	 79.868 	 
H 	 2.31629 	 -4.65923 	 80.332 	 
H 	 2.11536 	 -6.06097 	 79.2586 	 
C 	 0.542403 	 -6.14718 	 80.7476 	 
H 	 -0.123455 	 -5.48918 	 81.2982 	 
H 	 1.08329 	 -6.61501 	 81.5709 	 
C 	 -0.292509 	 -7.1818 	 79.9769 	 
H 	 -0.789584 	 -7.79032 	 80.7398 	 
H 	 0.315573 	 -7.93216 	 79.5104 	 
H 	 -1.12292 	 -6.68976 	 79.4132 	 
H 	 0.747865 	 0.942541 	 82.0143 	 
H 	 -0.504764 	 -4.07298 	 75.8475 	 
*
