! wB97X-D3 SP def2-SVP
%pal
nprocs 16
end

* xyz 0 1
S 	 43.475 	 12.9106 	 78.202 	 
C 	 44.6234 	 12.508 	 79.4756 	 
C 	 45.8666 	 12.1657 	 78.9607 	 
C 	 45.83 	 12.217 	 77.5184 	 
C 	 44.6962 	 12.5969 	 76.9962 	 
H 	 46.6273 	 12.0613 	 76.8364 	 
C 	 47.0263 	 11.4704 	 79.736 	 
H 	 47.2384 	 12.1491 	 80.5558 	 
H 	 47.9945 	 11.3232 	 79.2464 	 
C 	 46.6922 	 10.0312 	 80.2398 	 
H 	 45.9778 	 9.51052 	 79.5768 	 
H 	 47.5759 	 9.37498 	 80.3351 	 
C 	 46.0394 	 10.1178 	 81.6757 	 
H 	 44.9517 	 10.3477 	 81.5316 	 
H 	 46.2238 	 9.147 	 82.1 	 
H 	 46.432 	 10.8452 	 82.4017 	 
S 	 43.0286 	 11.4573 	 75.1349 	 
C 	 43.2135 	 11.8781 	 73.3445 	 
C 	 44.3012 	 12.7544 	 73.145 	 
C 	 45.0056 	 12.9812 	 74.4075 	 
C 	 44.3671 	 12.5088 	 75.5537 	 
H 	 44.6263 	 13.1814 	 72.2483 	 
C 	 46.2327 	 13.9316 	 74.4253 	 
H 	 46.6448 	 14.0648 	 75.4954 	 
H 	 45.9332 	 14.9122 	 74.1173 	 
C 	 47.3234 	 13.5218 	 73.3873 	 
H 	 48.0486 	 14.3097 	 73.2554 	 
H 	 46.9157 	 13.4779 	 72.406 	 
C 	 48.2008 	 12.2756 	 73.7189 	 
H 	 49.1315 	 12.4884 	 74.3419 	 
H 	 48.5205 	 11.7287 	 72.7817 	 
H 	 47.6302 	 11.4924 	 74.2485 	 
H 	 44.4729 	 12.6732 	 80.5072 	 
H 	 42.5989 	 11.4855 	 72.5216 	 
*
