! wB97X-D3 SP def2-SVP
%pal
nprocs 16
end

* xyz 0 1
S 	 -73.3478 	 38.8796 	 122.422 	 
C 	 -74.8906 	 39.4402 	 122.329 	 
C 	 -75.7848 	 38.5761 	 121.753 	 
C 	 -75.1053 	 37.3442 	 121.395 	 
C 	 -73.74 	 37.3436 	 121.659 	 
H 	 -75.4816 	 36.4767 	 120.923 	 
C 	 -77.2645 	 38.8032 	 121.622 	 
H 	 -77.4272 	 39.7628 	 122.202 	 
H 	 -77.839 	 38.097 	 122.235 	 
C 	 -77.6151 	 38.9847 	 120.115 	 
H 	 -76.8185 	 39.7226 	 119.792 	 
H 	 -77.5246 	 38.052 	 119.545 	 
C 	 -79.0314 	 39.5759 	 119.847 	 
H 	 -79.081 	 40.6506 	 120.164 	 
H 	 -79.0752 	 39.6552 	 118.784 	 
H 	 -79.9162 	 39.063 	 120.176 	 
S 	 -72.3989 	 35.8697 	 119.853 	 
C 	 -71.2157 	 34.5996 	 120.356 	 
C 	 -71.1689 	 34.5503 	 121.725 	 
C 	 -72.0502 	 35.5014 	 122.362 	 
C 	 -72.845 	 36.2415 	 121.468 	 
H 	 -70.3775 	 34.0094 	 122.238 	 
C 	 -71.9429 	 35.6538 	 123.886 	 
H 	 -73.0537 	 35.7871 	 123.997 	 
H 	 -71.2347 	 36.4768 	 124.155 	 
C 	 -71.5329 	 34.3577 	 124.76 	 
H 	 -70.5023 	 33.9848 	 124.501 	 
H 	 -72.2245 	 33.5056 	 124.545 	 
C 	 -71.7366 	 34.6041 	 126.25 	 
H 	 -70.9062 	 35.1448 	 126.619 	 
H 	 -71.683 	 33.6916 	 126.903 	 
H 	 -72.6701 	 35.0371 	 126.482 	 
H 	 -75.1912 	 40.4412 	 122.544 	 
H 	 -70.5489 	 34.0522 	 119.786 	 
*
