! wB97X-D3 SP def2-SVP
%pal
nprocs 16
end

* xyz 0 1
S 	 0.987628 	 1.35574 	 81.3431 	 
C 	 0.113827 	 -0.0392786 	 81.9678 	 
C 	 -0.800197 	 0.321937 	 82.9452 	 
C 	 -0.724852 	 1.74218 	 83.2708 	 
C 	 0.209715 	 2.45792 	 82.5389 	 
H 	 -1.24703 	 2.26052 	 84.0158 	 
C 	 -1.80329 	 -0.645292 	 83.5928 	 
H 	 -2.19742 	 -1.33618 	 82.812 	 
H 	 -2.50363 	 0.0477531 	 84.0272 	 
C 	 -1.2238 	 -1.39954 	 84.7318 	 
H 	 -0.205789 	 -1.67975 	 84.544 	 
H 	 -1.14631 	 -0.803592 	 85.622 	 
C 	 -2.03877 	 -2.67983 	 85.1582 	 
H 	 -1.43987 	 -3.27213 	 85.9141 	 
H 	 -3.03825 	 -2.38813 	 85.5725 	 
H 	 -2.33661 	 -3.20355 	 84.2715 	 
S 	 0.921761 	 4.67526 	 80.9785 	 
C 	 0.949337 	 6.22952 	 81.7105 	 
C 	 0.703657 	 6.07644 	 83.0468 	 
C 	 0.523371 	 4.76054 	 83.521 	 
C 	 0.576818 	 3.84305 	 82.532 	 
H 	 0.632853 	 6.96661 	 83.631 	 
C 	 0.0406115 	 4.59543 	 84.9919 	 
H 	 -0.851977 	 4.10526 	 85.0343 	 
H 	 -0.10309 	 5.54511 	 85.5242 	 
C 	 0.984283 	 3.72766 	 85.8781 	 
H 	 0.837651 	 2.63709 	 85.6464 	 
H 	 0.546869 	 3.86426 	 86.8468 	 
C 	 2.46817 	 4.16977 	 86.009 	 
H 	 3.05026 	 3.65308 	 85.1822 	 
H 	 2.90011 	 3.82776 	 86.9869 	 
H 	 2.63172 	 5.20581 	 86.0149 	 
H 	 0.189468 	 -1.06426 	 81.5956 	 
H 	 0.857228 	 7.18898 	 81.2192 	 
*
