! wB97X-D3 SP def2-SVP
%pal
nprocs 16
end

* xyz 0 1
S 	 -87.5817 	 49.6983 	 132.745 	 
C 	 -89.3428 	 49.8753 	 132.712 	 
C 	 -89.9058 	 49.5587 	 131.461 	 
C 	 -88.8997 	 49.116 	 130.579 	 
C 	 -87.5986 	 49.2401 	 131.037 	 
H 	 -89.0557 	 48.7682 	 129.587 	 
C 	 -91.3681 	 49.6674 	 131.039 	 
H 	 -92.0794 	 49.5571 	 131.875 	 
H 	 -91.5837 	 48.7517 	 130.479 	 
C 	 -91.8062 	 50.9672 	 130.387 	 
H 	 -92.8172 	 51.203 	 130.706 	 
H 	 -91.2226 	 51.7595 	 130.928 	 
C 	 -91.6395 	 51.0787 	 128.878 	 
H 	 -92.4076 	 50.4127 	 128.448 	 
H 	 -91.8837 	 52.0404 	 128.57 	 
H 	 -90.6918 	 50.8442 	 128.464 	 
S 	 -85.3608 	 47.7325 	 130.814 	 
C 	 -84.4756 	 47.7808 	 129.367 	 
C 	 -84.8272 	 48.8368 	 128.524 	 
C 	 -86.0591 	 49.4687 	 128.974 	 
C 	 -86.4284 	 48.9988 	 130.237 	 
H 	 -84.2879 	 49.0746 	 127.64 	 
C 	 -86.6028 	 50.6641 	 128.173 	 
H 	 -87.6598 	 50.8799 	 128.591 	 
H 	 -86.6707 	 50.3316 	 127.24 	 
C 	 -85.7302 	 51.9457 	 128.172 	 
H 	 -86.3525 	 52.6297 	 127.596 	 
H 	 -84.7646 	 51.7383 	 127.669 	 
C 	 -85.3348 	 52.5538 	 129.537 	 
H 	 -84.6479 	 51.9365 	 130.093 	 
H 	 -86.2348 	 52.6928 	 130.226 	 
H 	 -84.835 	 53.5531 	 129.485 	 
H 	 -89.8722 	 50.1739 	 133.589 	 
H 	 -83.5244 	 47.1874 	 129.214 	 
*
