! wB97X-D3 SP def2-SVP
%pal
nprocs 16
end

* xyz 0 1
S 	 4.62325 	 22.0754 	 62.841 	 
C 	 6.37115 	 21.7686 	 62.9472 	 
C 	 7.06119 	 22.9348 	 63.2034 	 
C 	 6.22137 	 24.0636 	 62.9464 	 
C 	 4.8685 	 23.7598 	 62.7878 	 
H 	 6.47952 	 25.1109 	 62.9537 	 
C 	 8.57153 	 22.8995 	 63.5113 	 
H 	 9.20569 	 23.4348 	 62.75 	 
H 	 8.93724 	 21.9293 	 63.5104 	 
C 	 8.96196 	 23.5268 	 64.8776 	 
H 	 10.0387 	 23.5331 	 64.983 	 
H 	 8.63052 	 24.5688 	 64.8567 	 
C 	 8.30944 	 22.7462 	 66.0838 	 
H 	 8.3922 	 23.4488 	 66.9062 	 
H 	 7.27365 	 22.6284 	 65.917 	 
H 	 8.90384 	 21.8549 	 66.3365 	 
S 	 2.62308 	 24.7749 	 63.8542 	 
C 	 1.46176 	 25.721 	 62.9567 	 
C 	 2.0306 	 26.0825 	 61.7458 	 
C 	 3.24702 	 25.3486 	 61.4319 	 
C 	 3.72354 	 24.6602 	 62.5445 	 
H 	 1.42805 	 26.6774 	 61.0398 	 
C 	 3.87308 	 25.4837 	 60.0783 	 
H 	 4.74999 	 24.9061 	 60.0229 	 
H 	 4.15072 	 26.5391 	 59.9035 	 
C 	 3.02904 	 24.9773 	 58.9124 	 
H 	 1.98656 	 25.392 	 58.934 	 
H 	 2.99007 	 23.8882 	 59.0416 	 
C 	 3.67496 	 25.3203 	 57.5669 	 
H 	 3.05781 	 25.1049 	 56.7635 	 
H 	 4.51959 	 24.6052 	 57.4022 	 
H 	 4.02245 	 26.3299 	 57.4197 	 
H 	 6.80955 	 20.8206 	 63.0407 	 
H 	 0.635333 	 26.2249 	 63.3925 	 
*
