! wB97X-D3 SP def2-SVP
%pal
nprocs 16
end

* xyz 0 1
S 	 -36.0756 	 40.5989 	 98.285 	 
C 	 -34.4783 	 40.3711 	 98.9754 	 
C 	 -33.8931 	 39.345 	 98.3176 	 
C 	 -34.6997 	 38.7845 	 97.2798 	 
C 	 -35.967 	 39.2905 	 97.1353 	 
H 	 -34.2956 	 38.0008 	 96.6618 	 
C 	 -32.4252 	 38.9484 	 98.4419 	 
H 	 -31.9028 	 39.8354 	 98.1062 	 
H 	 -32.1293 	 38.1078 	 97.7385 	 
C 	 -32.0163 	 38.6246 	 99.8278 	 
H 	 -32.3209 	 39.5113 	 100.419 	 
H 	 -32.5716 	 37.7637 	 100.232 	 
C 	 -30.5926 	 38.0727 	 99.897 	 
H 	 -29.8277 	 38.8519 	 100.102 	 
H 	 -30.4539 	 37.4095 	 100.758 	 
H 	 -30.3395 	 37.5604 	 98.9337 	 
S 	 -38.3098 	 39.8592 	 95.6571 	 
C 	 -39.1855 	 38.5528 	 94.9533 	 
C 	 -38.4936 	 37.359 	 94.9897 	 
C 	 -37.2187 	 37.4861 	 95.6889 	 
C 	 -36.9924 	 38.797 	 96.1862 	 
H 	 -38.9424 	 36.377 	 94.6526 	 
C 	 -36.3587 	 36.2575 	 96.0235 	 
H 	 -36.1011 	 36.4205 	 97.0712 	 
H 	 -35.5335 	 36.4874 	 95.3867 	 
C 	 -36.9059 	 34.9129 	 95.6793 	 
H 	 -37.2308 	 35.0527 	 94.6302 	 
H 	 -37.7993 	 34.666 	 96.2706 	 
C 	 -35.8706 	 33.8202 	 95.9049 	 
H 	 -36.2174 	 32.8419 	 95.6166 	 
H 	 -35.5555 	 33.7522 	 96.9997 	 
H 	 -34.9321 	 33.9853 	 95.3402 	 
H 	 -34.0869 	 41.07 	 99.755 	 
H 	 -40.2928 	 38.599 	 94.7542 	 
*
