! wB97X-D3 SP def2-SVP
%pal
nprocs 16
end

* xyz 0 1
S 	 -35.571 	 41.0546 	 98.1426 	 
C 	 -34.0665 	 40.8255 	 97.3188 	 
C 	 -33.8771 	 39.4907 	 96.951 	 
C 	 -34.9585 	 38.6434 	 97.3366 	 
C 	 -35.9985 	 39.3483 	 97.9307 	 
H 	 -34.9117 	 37.6086 	 97.042 	 
C 	 -32.5759 	 38.8893 	 96.364 	 
H 	 -32.1889 	 38.215 	 97.0407 	 
H 	 -31.8255 	 39.7662 	 96.4397 	 
C 	 -32.6405 	 38.3304 	 94.9276 	 
H 	 -33.229 	 37.4717 	 94.8924 	 
H 	 -33.1446 	 39.1017 	 94.3469 	 
C 	 -31.2616 	 38.0627 	 94.325 	 
H 	 -30.4552 	 38.8695 	 94.3969 	 
H 	 -30.7382 	 37.2007 	 94.7011 	 
H 	 -31.385 	 37.8613 	 93.2406 	 
S 	 -38.6329 	 39.0327 	 97.3645 	 
C 	 -39.6245 	 37.7664 	 98.1734 	 
C 	 -38.7928 	 37.0767 	 99.0384 	 
C 	 -37.4944 	 37.6806 	 99.2117 	 
C 	 -37.2573 	 38.7301 	 98.306 	 
H 	 -39.2895 	 36.165 	 99.5173 	 
C 	 -36.3709 	 37.1339 	 100.111 	 
H 	 -35.528 	 37.0872 	 99.4368 	 
H 	 -36.6404 	 36.0408 	 100.321 	 
C 	 -36.1537 	 37.8451 	 101.49 	 
H 	 -35.8001 	 38.855 	 101.217 	 
H 	 -35.3284 	 37.2919 	 102.017 	 
C 	 -37.4555 	 38.0246 	 102.278 	 
H 	 -38.0664 	 38.7026 	 101.672 	 
H 	 -37.2916 	 38.4061 	 103.318 	 
H 	 -37.8928 	 36.9836 	 102.405 	 
H 	 -33.2198 	 41.5946 	 97.2728 	 
H 	 -40.6615 	 37.5321 	 97.9866 	 
*
