! wB97X-D3 SP def2-SVP
%pal
nprocs 16
end

* xyz 0 1
S 	 -93.1627 	 50.9673 	 124.417 	 
C 	 -94.8993 	 50.662 	 124.282 	 
C 	 -95.1488 	 49.8913 	 123.148 	 
C 	 -93.9954 	 49.6662 	 122.325 	 
C 	 -92.7834 	 50.137 	 122.887 	 
H 	 -94.0171 	 49.178 	 121.33 	 
C 	 -96.4671 	 49.3028 	 122.701 	 
H 	 -96.623 	 49.345 	 121.628 	 
H 	 -97.2755 	 49.8695 	 123.03 	 
C 	 -96.6196 	 47.8524 	 123.165 	 
H 	 -97.6036 	 47.5512 	 122.841 	 
H 	 -95.9216 	 47.1554 	 122.74 	 
C 	 -96.4255 	 47.6772 	 124.676 	 
H 	 -97.2269 	 48.1011 	 125.285 	 
H 	 -96.4749 	 46.6549 	 124.943 	 
H 	 -95.5096 	 47.9928 	 125.193 	 
S 	 -90.4379 	 51.5753 	 122.716 	 
C 	 -89.0644 	 50.9603 	 121.788 	 
C 	 -89.4649 	 49.9085 	 121.018 	 
C 	 -90.7354 	 49.3746 	 121.519 	 
C 	 -91.4742 	 50.2632 	 122.293 	 
H 	 -88.8186 	 49.3502 	 120.29 	 
C 	 -91.138 	 48.0199 	 120.996 	 
H 	 -91.8991 	 47.6433 	 121.627 	 
H 	 -90.2348 	 47.3048 	 121.138 	 
C 	 -91.3646 	 47.9614 	 119.486 	 
H 	 -90.4799 	 48.2855 	 118.977 	 
H 	 -92.0936 	 48.6204 	 119.076 	 
C 	 -91.7151 	 46.4988 	 119.174 	 
H 	 -92.4447 	 46.2787 	 119.88 	 
H 	 -90.963 	 45.7856 	 119.243 	 
H 	 -92.123 	 46.4616 	 118.211 	 
H 	 -95.5955 	 50.8827 	 125.03 	 
H 	 -88.1323 	 51.5382 	 121.674 	 
*
