! wB97X-D3 SP def2-SVP
%pal
nprocs 16
end

* xyz 0 1
S 	 -99.0105 	 42.0887 	 120.303 	 
C 	 -98.8199 	 43.3648 	 121.509 	 
C 	 -97.7075 	 44.2016 	 121.243 	 
C 	 -96.9034 	 43.534 	 120.243 	 
C 	 -97.4403 	 42.4264 	 119.629 	 
H 	 -95.9349 	 43.8285 	 119.967 	 
C 	 -97.3727 	 45.5763 	 121.864 	 
H 	 -96.5067 	 45.3016 	 122.471 	 
H 	 -98.188 	 45.822 	 122.634 	 
C 	 -97.0736 	 46.7398 	 120.898 	 
H 	 -97.9066 	 46.8953 	 120.236 	 
H 	 -97.0979 	 47.6632 	 121.427 	 
C 	 -95.6677 	 46.6979 	 120.323 	 
H 	 -95.35 	 47.6153 	 119.794 	 
H 	 -94.9138 	 46.436 	 120.988 	 
H 	 -95.6486 	 45.9273 	 119.61 	 
S 	 -95.8849 	 40.1339 	 119.377 	 
C 	 -95.268 	 39.6545 	 117.819 	 
C 	 -95.4976 	 40.5944 	 116.843 	 
C 	 -96.2542 	 41.6711 	 117.421 	 
C 	 -96.6337 	 41.5373 	 118.735 	 
H 	 -95.0735 	 40.4013 	 115.856 	 
C 	 -96.7546 	 42.8512 	 116.571 	 
H 	 -97.595 	 43.3822 	 117.087 	 
H 	 -97.394 	 42.57 	 115.726 	 
C 	 -95.7359 	 44.0091 	 116.193 	 
H 	 -95.0284 	 44.2507 	 116.965 	 
H 	 -96.311 	 44.9519 	 115.966 	 
C 	 -94.8986 	 43.6871 	 114.924 	 
H 	 -94.4684 	 42.6746 	 114.88 	 
H 	 -94.0486 	 44.3757 	 114.849 	 
H 	 -95.6792 	 43.7731 	 114.205 	 
H 	 -99.5404 	 43.8795 	 122.181 	 
H 	 -94.6548 	 38.7751 	 117.649 	 
*
