! wB97X-D3 SP def2-SVP
%pal
nprocs 16
end

* xyz 0 1
S 	 -35.7819 	 33.2526 	 44.4545 	 
C 	 -35.4783 	 33.0715 	 46.1973 	 
C 	 -34.3099 	 33.7302 	 46.5489 	 
C 	 -33.7921 	 34.5094 	 45.57 	 
C 	 -34.4518 	 34.3767 	 44.3439 	 
H 	 -32.9968 	 35.2833 	 45.6441 	 
C 	 -33.7418 	 33.65 	 47.9468 	 
H 	 -34.2502 	 32.8171 	 48.4302 	 
H 	 -34.0274 	 34.6255 	 48.4354 	 
C 	 -32.2236 	 33.3104 	 48.0506 	 
H 	 -31.606 	 34.1008 	 47.6317 	 
H 	 -31.9516 	 33.2718 	 49.0987 	 
C 	 -31.8989 	 31.8879 	 47.4667 	 
H 	 -32.5867 	 31.0683 	 47.8137 	 
H 	 -31.9582 	 31.8157 	 46.3586 	 
H 	 -30.8381 	 31.5769 	 47.7649 	 
S 	 -35.4744 	 36.2717 	 42.6618 	 
C 	 -34.4206 	 36.8772 	 41.3246 	 
C 	 -33.1585 	 36.3636 	 41.4029 	 
C 	 -32.9527 	 35.4448 	 42.4676 	 
C 	 -34.1408 	 35.2506 	 43.2313 	 
H 	 -32.3641 	 36.6209 	 40.7754 	 
C 	 -31.6454 	 34.8074 	 42.7704 	 
H 	 -31.6128 	 33.8477 	 42.2262 	 
H 	 -31.6871 	 34.4401 	 43.7314 	 
C 	 -30.402 	 35.6949 	 42.5534 	 
H 	 -30.2958 	 36.0197 	 41.5103 	 
H 	 -29.5109 	 35.0859 	 42.7185 	 
C 	 -30.3463 	 36.8868 	 43.5319 	 
H 	 -31.2144 	 37.4924 	 43.4936 	 
H 	 -29.4694 	 37.5596 	 43.4497 	 
H 	 -30.2525 	 36.471 	 44.571 	 
H 	 -36.0649 	 32.3723 	 46.9074 	 
H 	 -34.5933 	 37.7284 	 40.5913 	 
*
