! wB97X-D3 SP def2-SVP
%pal
nprocs 16
end

* xyz 0 1
S 	 -16.338 	 38.1408 	 38.2507 	 
C 	 -15.6667 	 39.6055 	 38.8415 	 
C 	 -14.3251 	 39.5924 	 38.8487 	 
C 	 -13.7982 	 38.3304 	 38.4593 	 
C 	 -14.7635 	 37.3857 	 38.2079 	 
H 	 -12.8144 	 38.0194 	 38.3923 	 
C 	 -13.4685 	 40.7164 	 39.3339 	 
H 	 -14.1046 	 41.3941 	 39.8745 	 
H 	 -12.9973 	 41.3291 	 38.4997 	 
C 	 -12.459 	 40.3411 	 40.3371 	 
H 	 -12.9181 	 39.7366 	 41.1849 	 
H 	 -11.7178 	 39.637 	 40.0166 	 
C 	 -11.7173 	 41.546 	 40.932 	 
H 	 -11.3406 	 42.1766 	 40.1346 	 
H 	 -12.3885 	 42.1655 	 41.5129 	 
H 	 -10.9105 	 41.0631 	 41.493 	 
S 	 -15.6253 	 34.7782 	 38.6421 	 
C 	 -14.9616 	 33.5179 	 37.7115 	 
C 	 -14.1044 	 34.0162 	 36.7912 	 
C 	 -13.8514 	 35.4328 	 36.8722 	 
C 	 -14.5962 	 36.006 	 37.9426 	 
H 	 -13.618 	 33.4199 	 36.1045 	 
C 	 -12.8837 	 36.169 	 36.0029 	 
H 	 -11.892 	 36.3802 	 36.5512 	 
H 	 -13.2541 	 37.1149 	 35.774 	 
C 	 -12.7252 	 35.5966 	 34.5676 	 
H 	 -13.7023 	 35.2476 	 34.2255 	 
H 	 -12.0796 	 34.7486 	 34.6909 	 
C 	 -12.0221 	 36.567 	 33.5623 	 
H 	 -10.9722 	 36.6849 	 33.8811 	 
H 	 -12.4693 	 37.5617 	 33.5269 	 
H 	 -11.9903 	 35.9758 	 32.7056 	 
H 	 -16.2538 	 40.3801 	 39.3033 	 
H 	 -15.3624 	 32.521 	 37.6936 	 
*
