! wB97X-D3 SP def2-SVP
%pal
nprocs 16
end

* xyz 0 1
S 	 -38.2844 	 51.6579 	 106.677 	 
C 	 -37.523 	 52.4958 	 107.968 	 
C 	 -37.8397 	 51.9559 	 109.202 	 
C 	 -38.5634 	 50.7292 	 109.046 	 
C 	 -38.8359 	 50.4212 	 107.724 	 
H 	 -38.7441 	 50.0061 	 109.839 	 
C 	 -37.3823 	 52.5877 	 110.586 	 
H 	 -36.5732 	 53.3189 	 110.39 	 
H 	 -36.8743 	 51.8399 	 111.121 	 
C 	 -38.4752 	 53.1052 	 111.559 	 
H 	 -39.2349 	 52.3022 	 111.7 	 
H 	 -38.1152 	 53.2731 	 112.593 	 
C 	 -39.221 	 54.2914 	 110.965 	 
H 	 -38.622 	 55.0834 	 110.482 	 
H 	 -39.8364 	 53.9775 	 110.111 	 
H 	 -39.9758 	 54.5709 	 111.699 	 
S 	 -38.8917 	 48.2847 	 105.931 	 
C 	 -39.9184 	 46.9707 	 106.357 	 
C 	 -41.034 	 47.4115 	 107.022 	 
C 	 -40.8141 	 48.6973 	 107.614 	 
C 	 -39.5855 	 49.2364 	 107.243 	 
H 	 -41.9588 	 46.7716 	 107.143 	 
C 	 -41.8362 	 49.457 	 108.465 	 
H 	 -41.7489 	 50.4819 	 108.173 	 
H 	 -41.5385 	 49.4572 	 109.5 	 
C 	 -43.3013 	 48.9167 	 108.458 	 
H 	 -43.2665 	 47.8753 	 108.81 	 
H 	 -43.826 	 48.9663 	 107.466 	 
C 	 -44.2134 	 49.7769 	 109.355 	 
H 	 -45.1332 	 49.2889 	 109.274 	 
H 	 -44.2897 	 50.7111 	 108.83 	 
H 	 -43.878 	 49.8772 	 110.362 	 
H 	 -36.944 	 53.4112 	 107.822 	 
H 	 -40.0295 	 46.1031 	 105.677 	 
*
