! wB97X-D3 SP def2-SVP
%pal
nprocs 16
end

* xyz 0 1
S 	 26.696 	 -10.0038 	 79.0077 	 
C 	 27.7015 	 -9.58837 	 77.6835 	 
C 	 28.8109 	 -8.90635 	 78.0282 	 
C 	 29.0282 	 -8.81528 	 79.4759 	 
C 	 27.885 	 -9.24952 	 80.1135 	 
H 	 29.8829 	 -8.33507 	 79.8806 	 
C 	 29.7679 	 -8.42191 	 76.903 	 
H 	 29.379 	 -8.64615 	 75.9099 	 
H 	 30.6629 	 -9.00084 	 76.9686 	 
C 	 30.1388 	 -6.88025 	 77.0922 	 
H 	 30.5175 	 -6.68675 	 78.1043 	 
H 	 30.999 	 -6.65988 	 76.4452 	 
C 	 28.9979 	 -5.91649 	 76.7534 	 
H 	 28.6401 	 -6.2459 	 75.7073 	 
H 	 28.1291 	 -6.18036 	 77.3258 	 
H 	 29.258 	 -4.84979 	 76.7851 	 
S 	 27.5623 	 -10.4409 	 82.6231 	 
C 	 27.2073 	 -9.54338 	 84.073 	 
C 	 27.2412 	 -8.18253 	 83.7418 	 
C 	 27.3456 	 -7.85452 	 82.321 	 
C 	 27.6319 	 -9.03194 	 81.5896 	 
H 	 27.0374 	 -7.48437 	 84.5746 	 
C 	 27.1476 	 -6.47099 	 81.81 	 
H 	 26.3284 	 -6.01806 	 82.4304 	 
H 	 26.6867 	 -6.51196 	 80.8416 	 
C 	 28.3989 	 -5.60561 	 81.4949 	 
H 	 28.0204 	 -4.62499 	 81.247 	 
H 	 28.8725 	 -5.94069 	 80.6331 	 
C 	 29.3229 	 -5.40099 	 82.7783 	 
H 	 28.7157 	 -4.98106 	 83.577 	 
H 	 30.1554 	 -4.67577 	 82.7126 	 
H 	 29.7017 	 -6.44127 	 83.0183 	 
H 	 27.3636 	 -9.7899 	 76.6075 	 
H 	 27.0726 	 -10.0651 	 85.0207 	 
*
