! wB97X-D3 SP def2-SVP
%pal
nprocs 16
end

* xyz 0 1
S 	 34.8286 	 24.1961 	 46.9135 	 
C 	 35.2064 	 25.2435 	 48.2763 	 
C 	 36.0234 	 24.5825 	 49.2129 	 
C 	 36.361 	 23.3073 	 48.736 	 
C 	 35.7768 	 22.8678 	 47.56 	 
H 	 36.9742 	 22.5627 	 49.2061 	 
C 	 36.442 	 25.1314 	 50.5112 	 
H 	 37.253 	 25.8636 	 50.4169 	 
H 	 36.7964 	 24.2596 	 51.1008 	 
C 	 35.2921 	 25.7514 	 51.3177 	 
H 	 34.9664 	 26.5861 	 50.7603 	 
H 	 34.4816 	 24.9749 	 51.3582 	 
C 	 35.7041 	 26.1451 	 52.7244 	 
H 	 36.1028 	 27.1864 	 52.7869 	 
H 	 34.7416 	 26.3939 	 53.1923 	 
H 	 36.1973 	 25.4097 	 53.4503 	 
S 	 37.1081 	 22.2708 	 45.2502 	 
C 	 37.4527 	 20.5372 	 44.9739 	 
C 	 36.9905 	 19.7144 	 45.9866 	 
C 	 36.2796 	 20.4468 	 47.0148 	 
C 	 36.1808 	 21.7816 	 46.731 	 
H 	 37.3555 	 18.6938 	 45.8884 	 
C 	 35.5066 	 19.8606 	 48.1284 	 
H 	 34.7507 	 19.1512 	 47.7346 	 
H 	 34.845 	 20.5965 	 48.63 	 
C 	 36.3092 	 19.1149 	 49.1954 	 
H 	 37.2436 	 19.6801 	 49.4312 	 
H 	 36.6281 	 18.0537 	 48.8451 	 
C 	 35.4746 	 18.9998 	 50.5173 	 
H 	 36.0193 	 18.6527 	 51.4098 	 
H 	 34.5359 	 18.3194 	 50.4135 	 
H 	 35.0888 	 19.9388 	 50.8131 	 
H 	 34.6314 	 26.1187 	 48.506 	 
H 	 37.8979 	 20.1709 	 44.074 	 
*
