! wB97X-D3 SP def2-SVP
%pal
nprocs 16
end

* xyz 0 1
S 	 45.3775 	 24.7617 	 81.5817 	 
C 	 45.8385 	 25.3941 	 80.0398 	 
C 	 45.745 	 24.4791 	 78.9895 	 
C 	 45.0863 	 23.3184 	 79.4043 	 
C 	 44.8704 	 23.2124 	 80.7619 	 
H 	 44.7885 	 22.5068 	 78.8119 	 
C 	 46.226 	 24.689 	 77.576 	 
H 	 45.8784 	 23.8965 	 76.876 	 
H 	 47.3335 	 24.6336 	 77.6317 	 
C 	 45.7642 	 26.0006 	 77.0002 	 
H 	 44.7241 	 26.1728 	 77.3384 	 
H 	 46.2563 	 26.884 	 77.328 	 
C 	 45.7285 	 25.9813 	 75.5572 	 
H 	 45.3039 	 26.8506 	 75.0544 	 
H 	 46.6711 	 25.7492 	 75.0038 	 
H 	 44.8695 	 25.3493 	 75.2082 	 
S 	 45.5899 	 20.9814 	 82.2152 	 
C 	 44.368 	 19.9887 	 83.0252 	 
C 	 43.1379 	 20.3779 	 82.6094 	 
C 	 43.0928 	 21.5895 	 81.8122 	 
C 	 44.3677 	 22.0163 	 81.462 	 
H 	 42.2319 	 19.8588 	 82.8531 	 
C 	 41.8095 	 22.2725 	 81.451 	 
H 	 42.0948 	 22.9437 	 80.6206 	 
H 	 41.4437 	 22.9108 	 82.2603 	 
C 	 40.7333 	 21.4011 	 80.9776 	 
H 	 40.6933 	 20.5842 	 81.6916 	 
H 	 40.9381 	 21.0252 	 79.9992 	 
C 	 39.3455 	 22.039 	 81.0406 	 
H 	 39.227 	 22.9397 	 80.4666 	 
H 	 39.163 	 22.3493 	 82.0802 	 
H 	 38.5373 	 21.3176 	 80.7623 	 
H 	 46.3064 	 26.35 	 79.8951 	 
H 	 44.4509 	 19.1209 	 83.6453 	 
*
