! wB97X-D3 SP def2-SVP
%pal
nprocs 16
end

* xyz 0 1
S 	 -42.697 	 15.4895 	 76.2521 	 
C 	 -41.0656 	 15.6324 	 76.9637 	 
C 	 -40.2847 	 14.5191 	 76.7625 	 
C 	 -41.069 	 13.4872 	 76.1871 	 
C 	 -42.3899 	 13.7951 	 75.8951 	 
H 	 -40.7241 	 12.4844 	 75.9555 	 
C 	 -38.746 	 14.5298 	 76.9791 	 
H 	 -38.444 	 15.543 	 77.2789 	 
H 	 -38.1857 	 14.2541 	 76.0527 	 
C 	 -38.3416 	 13.5177 	 78.0405 	 
H 	 -38.9308 	 13.6387 	 79.0094 	 
H 	 -38.6295 	 12.5744 	 77.5464 	 
C 	 -36.8014 	 13.3439 	 78.3168 	 
H 	 -36.3398 	 14.2625 	 78.7598 	 
H 	 -36.613 	 12.5028 	 79.008 	 
H 	 -36.4192 	 13.2364 	 77.2537 	 
S 	 -44.6841 	 13.8348 	 74.3973 	 
C 	 -45.4936 	 12.3538 	 74.0698 	 
C 	 -45.0473 	 11.2616 	 74.7444 	 
C 	 -43.9539 	 11.6711 	 75.5223 	 
C 	 -43.4998 	 12.9711 	 75.3539 	 
H 	 -45.4325 	 10.2682 	 74.6347 	 
C 	 -43.2551 	 10.6761 	 76.3139 	 
H 	 -44.1049 	 10.0894 	 76.7162 	 
H 	 -42.7504 	 11.2071 	 77.1447 	 
C 	 -42.3719 	 9.7465 	 75.5345 	 
H 	 -41.5231 	 10.4226 	 75.2598 	 
H 	 -42.7832 	 9.37461 	 74.6273 	 
C 	 -41.8381 	 8.59432 	 76.3525 	 
H 	 -42.5402 	 7.76296 	 76.4969 	 
H 	 -41.6475 	 8.87158 	 77.3943 	 
H 	 -40.8641 	 8.16709 	 75.985 	 
H 	 -40.5378 	 16.6677 	 77.1566 	 
H 	 -46.2431 	 12.2099 	 73.3637 	 
*
