! wB97X-D3 SP def2-SVP
%pal
nprocs 16
end

* xyz 0 1
S 	 -39.133 	 48.6356 	 107.152 	 
C 	 -37.4531 	 48.0929 	 107.135 	 
C 	 -36.9007 	 48.2425 	 105.856 	 
C 	 -37.7702 	 49.0326 	 105.013 	 
C 	 -38.9762 	 49.3269 	 105.548 	 
H 	 -37.562 	 49.4109 	 104.079 	 
C 	 -35.6992 	 47.5719 	 105.318 	 
H 	 -34.8893 	 47.6904 	 106.156 	 
H 	 -35.2394 	 47.959 	 104.418 	 
C 	 -36.0004 	 46.0734 	 104.952 	 
H 	 -35.1581 	 45.614 	 104.558 	 
H 	 -36.2011 	 45.4372 	 105.771 	 
C 	 -37.1706 	 45.8148 	 104.034 	 
H 	 -36.9121 	 46.1868 	 102.971 	 
H 	 -37.3523 	 44.7118 	 103.878 	 
H 	 -38.1534 	 46.1948 	 104.403 	 
S 	 -40.5339 	 51.4493 	 105.898 	 
C 	 -41.5551 	 52.0492 	 104.625 	 
C 	 -41.5782 	 51.1832 	 103.577 	 
C 	 -40.7082 	 50.0812 	 103.664 	 
C 	 -40.046 	 50.1228 	 104.912 	 
H 	 -42.2224 	 51.4097 	 102.751 	 
C 	 -40.5203 	 48.9233 	 102.69 	 
H 	 -39.7248 	 48.3287 	 102.987 	 
H 	 -40.1371 	 49.2606 	 101.724 	 
C 	 -41.7086 	 47.9375 	 102.563 	 
H 	 -41.9291 	 47.5693 	 103.537 	 
H 	 -41.4968 	 47.1668 	 101.922 	 
C 	 -42.954 	 48.5768 	 102.19 	 
H 	 -43.6198 	 47.8494 	 101.779 	 
H 	 -42.8032 	 49.3541 	 101.412 	 
H 	 -43.5762 	 49.0223 	 103.014 	 
H 	 -37.0406 	 47.4666 	 107.901 	 
H 	 -42.1382 	 52.9681 	 104.588 	 
*
