! wB97X-D3 SP def2-SVP
%pal
nprocs 16
end

* xyz 0 1
S 	 -6.36747 	 75.9346 	 53.3905 	 
C 	 -4.82468 	 75.2589 	 52.8863 	 
C 	 -4.97213 	 73.9563 	 52.3431 	 
C 	 -6.28717 	 73.4154 	 52.6716 	 
C 	 -7.11668 	 74.3561 	 53.273 	 
H 	 -6.84412 	 72.5151 	 52.3361 	 
C 	 -4.03868 	 73.3261 	 51.3781 	 
H 	 -4.19763 	 72.2383 	 51.3973 	 
H 	 -3.01175 	 73.4361 	 51.7198 	 
C 	 -4.21794 	 73.7805 	 49.9876 	 
H 	 -5.20358 	 73.5035 	 49.6674 	 
H 	 -4.18949 	 74.8796 	 49.8364 	 
C 	 -3.23689 	 73.1213 	 49.0146 	 
H 	 -3.50741 	 73.5206 	 48.0051 	 
H 	 -2.1908 	 73.2443 	 49.2308 	 
H 	 -3.45339 	 71.9873 	 49.0208 	 
S 	 -8.50149 	 74.762 	 55.5805 	 
C 	 -9.98553 	 73.8682 	 55.8565 	 
C 	 -10.381 	 73.1514 	 54.7424 	 
C 	 -9.46969 	 73.2873 	 53.6555 	 
C 	 -8.40625 	 74.1773 	 53.9183 	 
H 	 -11.0691 	 72.3219 	 54.7528 	 
C 	 -9.66886 	 72.562 	 52.3419 	 
H 	 -9.03258 	 72.885 	 51.4931 	 
H 	 -10.7276 	 72.5906 	 52.0511 	 
C 	 -9.4637 	 71.0647 	 52.4389 	 
H 	 -10.1597 	 70.5494 	 53.057 	 
H 	 -8.59092 	 70.7956 	 53.099 	 
C 	 -9.36819 	 70.3472 	 51.1034 	 
H 	 -8.5504 	 70.7719 	 50.5003 	 
H 	 -10.3209 	 70.387 	 50.5488 	 
H 	 -9.07518 	 69.3093 	 51.2786 	 
H 	 -4.08621 	 75.9458 	 52.6384 	 
H 	 -10.3905 	 73.6915 	 56.8812 	 
*
