! wB97X-D3 SP def2-SVP
%pal
nprocs 16
end

* xyz 0 1
S 	 -43.018 	 25.923 	 78.3882 	 
C 	 -44.3537 	 25.0067 	 79.0212 	 
C 	 -44.0207 	 23.6788 	 79.3603 	 
C 	 -42.6297 	 23.4593 	 79.0474 	 
C 	 -41.9299 	 24.5424 	 78.5587 	 
H 	 -42.1136 	 22.5045 	 79.2975 	 
C 	 -44.9188 	 22.6763 	 80.0139 	 
H 	 -45.5073 	 23.1831 	 80.9023 	 
H 	 -44.4435 	 21.8366 	 80.5644 	 
C 	 -45.9981 	 22.0498 	 79.0787 	 
H 	 -46.6004 	 21.4291 	 79.8055 	 
H 	 -46.655 	 22.8055 	 78.7623 	 
C 	 -45.6252 	 21.16 	 77.8895 	 
H 	 -45.2769 	 20.2401 	 78.2399 	 
H 	 -46.3815 	 20.9457 	 77.1502 	 
H 	 -44.7248 	 21.6571 	 77.5352 	 
S 	 -39.9725 	 23.0739 	 77.3959 	 
C 	 -38.4862 	 23.7706 	 77.084 	 
C 	 -38.3568 	 25.1474 	 77.423 	 
C 	 -39.5795 	 25.592 	 78.0478 	 
C 	 -40.5584 	 24.5524 	 78.1159 	 
H 	 -37.493 	 25.7363 	 77.114 	 
C 	 -39.7664 	 27.111 	 78.4628 	 
H 	 -39.0232 	 27.5375 	 79.0969 	 
H 	 -40.7374 	 27.2639 	 78.9749 	 
C 	 -39.8408 	 27.9384 	 77.1928 	 
H 	 -40.4981 	 27.4873 	 76.4126 	 
H 	 -38.863 	 28.008 	 76.8149 	 
C 	 -40.4007 	 29.3027 	 77.5375 	 
H 	 -41.3864 	 29.0835 	 77.8982 	 
H 	 -40.5031 	 29.9976 	 76.7262 	 
H 	 -39.9114 	 29.7591 	 78.4264 	 
H 	 -45.3881 	 25.4215 	 78.988 	 
H 	 -37.6825 	 23.1657 	 76.694 	 
*
