! wB97X-D3 SP def2-SVP
%pal
nprocs 16
end

* xyz 0 1
S 	 -54.0121 	 24.3832 	 96.0726 	 
C 	 -52.8821 	 23.4831 	 95.1766 	 
C 	 -53.1556 	 23.4153 	 93.8267 	 
C 	 -54.3804 	 24.0975 	 93.6317 	 
C 	 -54.886 	 24.843 	 94.6912 	 
H 	 -54.9896 	 24.2018 	 92.753 	 
C 	 -52.5232 	 22.549 	 92.8531 	 
H 	 -53.2862 	 21.9299 	 92.5584 	 
H 	 -51.7074 	 21.9467 	 93.26 	 
C 	 -51.8838 	 23.2838 	 91.7159 	 
H 	 -52.6803 	 23.7225 	 91.1348 	 
H 	 -51.3842 	 24.1521 	 92.1396 	 
C 	 -51.1643 	 22.4393 	 90.6474 	 
H 	 -51.0779 	 22.9969 	 89.6684 	 
H 	 -50.0796 	 22.2907 	 90.9674 	 
H 	 -51.5414 	 21.4521 	 90.4285 	 
S 	 -57.4202 	 25.0315 	 95.6748 	 
C 	 -58.4301 	 26.4252 	 95.3131 	 
C 	 -57.9831 	 27.1159 	 94.2664 	 
C 	 -56.6867 	 26.6692 	 93.8647 	 
C 	 -56.1476 	 25.639 	 94.6692 	 
H 	 -58.563 	 27.9398 	 93.8879 	 
C 	 -55.9423 	 27.1743 	 92.6443 	 
H 	 -56.5406 	 28.0036 	 92.3234 	 
H 	 -55.9526 	 26.3755 	 91.9123 	 
C 	 -54.6017 	 27.7458 	 93.0327 	 
H 	 -53.9543 	 27.1648 	 93.7028 	 
H 	 -54.7371 	 28.7062 	 93.5064 	 
C 	 -53.81 	 27.956 	 91.7722 	 
H 	 -53.4448 	 26.9569 	 91.478 	 
H 	 -52.9127 	 28.5238 	 91.7493 	 
H 	 -54.4617 	 28.3854 	 90.9801 	 
H 	 -52.1273 	 22.9177 	 95.5922 	 
H 	 -59.4359 	 26.4923 	 95.6879 	 
*
