! wB97X-D3 SP def2-SVP
%pal
nprocs 16
end

* xyz 0 1
S 	 45.2545 	 15.2079 	 76.0858 	 
C 	 44.7351 	 13.9345 	 77.2475 	 
C 	 45.5735 	 13.9161 	 78.3316 	 
C 	 46.5848 	 14.9618 	 78.2593 	 
C 	 46.5624 	 15.7238 	 77.1082 	 
H 	 47.4092 	 15.07 	 78.9371 	 
C 	 45.422 	 13.0148 	 79.5453 	 
H 	 46.2715 	 12.2929 	 79.6373 	 
H 	 44.4467 	 12.4118 	 79.3207 	 
C 	 45.0822 	 13.8727 	 80.8347 	 
H 	 45.8885 	 14.5863 	 80.9097 	 
H 	 44.2832 	 14.5402 	 80.658 	 
C 	 44.9361 	 13.108 	 82.1881 	 
H 	 45.8778 	 12.769 	 82.5105 	 
H 	 44.4766 	 13.6305 	 83.0062 	 
H 	 44.2466 	 12.2272 	 81.9694 	 
S 	 49.0252 	 16.3828 	 76.1126 	 
C 	 49.4673 	 18.0649 	 75.7295 	 
C 	 48.3735 	 18.9121 	 76.0482 	 
C 	 47.2696 	 18.2323 	 76.6689 	 
C 	 47.41 	 16.822 	 76.6462 	 
H 	 48.4012 	 20.0205 	 75.9727 	 
C 	 46.1347 	 19.065 	 77.2668 	 
H 	 45.1327 	 18.6706 	 76.9665 	 
H 	 46.1625 	 20.028 	 76.7749 	 
C 	 46.269 	 19.2928 	 78.7912 	 
H 	 45.8475 	 18.3666 	 79.2933 	 
H 	 45.6275 	 20.0317 	 79.2072 	 
C 	 47.6947 	 19.6001 	 79.2461 	 
H 	 48.2955 	 20.3159 	 78.6737 	 
H 	 48.2092 	 18.6485 	 79.3078 	 
H 	 47.5793 	 20.0089 	 80.2587 	 
H 	 43.8372 	 13.2453 	 77.1324 	 
H 	 50.3442 	 18.4294 	 75.2485 	 
*
