! wB97X-D3 SP def2-SVP
%pal
nprocs 16
end

* xyz 0 1
S 	 -54.9755 	 36.242 	 114.334 	 
C 	 -54.1507 	 35.3038 	 113.074 	 
C 	 -54.2019 	 35.9288 	 111.857 	 
C 	 -55.1435 	 37.0385 	 111.782 	 
C 	 -55.6135 	 37.3279 	 113.063 	 
H 	 -55.4267 	 37.6472 	 110.906 	 
C 	 -53.4706 	 35.5451 	 110.64 	 
H 	 -54.0467 	 35.4511 	 109.781 	 
H 	 -53.1191 	 34.493 	 110.897 	 
C 	 -52.2948 	 36.4756 	 110.347 	 
H 	 -51.8934 	 36.2914 	 109.391 	 
H 	 -52.5384 	 37.5595 	 110.459 	 
C 	 -51.2042 	 36.2504 	 111.346 	 
H 	 -50.5974 	 35.4374 	 111.081 	 
H 	 -50.7137 	 37.1268 	 111.491 	 
H 	 -51.6168 	 36.0583 	 112.33 	 
S 	 -58.1005 	 37.9287 	 114.24 	 
C 	 -58.5736 	 39.5756 	 114.295 	 
C 	 -57.5717 	 40.3959 	 113.817 	 
C 	 -56.3991 	 39.6828 	 113.407 	 
C 	 -56.5845 	 38.3585 	 113.415 	 
H 	 -57.8099 	 41.4724 	 113.815 	 
C 	 -55.1753 	 40.4179 	 113.168 	 
H 	 -55.28 	 41.1081 	 112.347 	 
H 	 -54.4 	 39.6881 	 112.973 	 
C 	 -54.8108 	 41.372 	 114.257 	 
H 	 -54.6943 	 40.7188 	 115.109 	 
H 	 -55.4808 	 42.1763 	 114.588 	 
C 	 -53.394 	 41.8489 	 114.107 	 
H 	 -52.8064 	 40.9388 	 113.933 	 
H 	 -53.1737 	 42.3042 	 115.062 	 
H 	 -53.1814 	 42.5745 	 113.349 	 
H 	 -53.3912 	 34.539 	 113.378 	 
H 	 -59.5725 	 39.7896 	 114.564 	 
*
