! wB97X-D3 SP def2-SVP
%pal
nprocs 16
end

* xyz 0 1
S 	 -35.2822 	 62.6148 	 110.821 	 
C 	 -36.6179 	 63.6621 	 111.241 	 
C 	 -36.22 	 64.6443 	 112.152 	 
C 	 -34.8042 	 64.6651 	 112.4 	 
C 	 -34.1991 	 63.6004 	 111.763 	 
H 	 -34.1442 	 65.3238 	 112.937 	 
C 	 -37.1788 	 65.656 	 112.774 	 
H 	 -37.2353 	 65.3109 	 113.802 	 
H 	 -38.222 	 65.546 	 112.392 	 
C 	 -36.7693 	 67.1772 	 112.776 	 
H 	 -37.4801 	 67.7107 	 113.413 	 
H 	 -35.7874 	 67.3011 	 113.181 	 
C 	 -36.716 	 67.839 	 111.392 	 
H 	 -36.3806 	 68.9027 	 111.442 	 
H 	 -36.1296 	 67.3222 	 110.632 	 
H 	 -37.7418 	 67.9856 	 110.963 	 
S 	 -32.188 	 62.9136 	 113.514 	 
C 	 -30.555 	 62.9283 	 112.884 	 
C 	 -30.5418 	 62.7072 	 111.537 	 
C 	 -31.8233 	 62.9623 	 110.903 	 
C 	 -32.7736 	 63.3048 	 111.862 	 
H 	 -29.5676 	 62.5345 	 111.063 	 
C 	 -31.9271 	 62.9931 	 109.398 	 
H 	 -32.9485 	 62.8249 	 109.026 	 
H 	 -31.3876 	 62.1043 	 109.002 	 
C 	 -31.364 	 64.2497 	 108.657 	 
H 	 -31.6786 	 64.3079 	 107.577 	 
H 	 -30.2744 	 64.3263 	 108.781 	 
C 	 -31.9248 	 65.5308 	 109.299 	 
H 	 -31.7803 	 65.5777 	 110.334 	 
H 	 -33.0098 	 65.5492 	 109.207 	 
H 	 -31.5338 	 66.4531 	 108.95 	 
H 	 -37.6143 	 63.694 	 110.752 	 
H 	 -29.6075 	 62.7022 	 113.44 	 
*
