! wB97X-D3 SP def2-SVP
%pal
nprocs 16
end

* xyz 0 1
S 	 -34.6129 	 61.7385 	 111.918 	 
C 	 -35.2894 	 63.2354 	 111.21 	 
C 	 -34.3798 	 64.2393 	 111.333 	 
C 	 -33.2362 	 63.8549 	 112.129 	 
C 	 -33.1829 	 62.5442 	 112.476 	 
H 	 -32.4473 	 64.4364 	 112.504 	 
C 	 -34.5027 	 65.7589 	 110.911 	 
H 	 -34.5758 	 66.312 	 111.867 	 
H 	 -35.4587 	 65.8116 	 110.403 	 
C 	 -33.3107 	 66.3444 	 110.071 	 
H 	 -33.3897 	 67.485 	 110.145 	 
H 	 -32.3113 	 66.0702 	 110.454 	 
C 	 -33.26 	 66.0014 	 108.514 	 
H 	 -32.2434 	 66.4443 	 108.131 	 
H 	 -33.2213 	 64.9128 	 108.358 	 
H 	 -34.0777 	 66.4328 	 107.866 	 
S 	 -32.5541 	 61.0831 	 114.724 	 
C 	 -30.9013 	 60.5568 	 114.987 	 
C 	 -30.1611 	 60.9878 	 113.921 	 
C 	 -30.7631 	 61.8752 	 112.965 	 
C 	 -32.1372 	 61.8976 	 113.238 	 
H 	 -29.1064 	 60.7497 	 113.99 	 
C 	 -30.0148 	 62.4745 	 111.831 	 
H 	 -30.7713 	 62.7413 	 111.066 	 
H 	 -29.2945 	 61.6942 	 111.465 	 
C 	 -29.2998 	 63.8428 	 112.106 	 
H 	 -28.4239 	 63.7004 	 112.802 	 
H 	 -30.0041 	 64.5527 	 112.569 	 
C 	 -28.819 	 64.4935 	 110.815 	 
H 	 -27.9237 	 63.981 	 110.438 	 
H 	 -28.5344 	 65.5312 	 110.852 	 
H 	 -29.4969 	 64.4515 	 109.991 	 
H 	 -36.1392 	 63.2717 	 110.573 	 
H 	 -30.5603 	 59.9521 	 115.849 	 
*
