! wB97X-D3 SP def2-SVP
%pal
nprocs 16
end

* xyz 0 1
S 	 36.2935 	 -3.13541 	 67.2286 	 
C 	 36.0807 	 -1.41031 	 67.247 	 
C 	 34.8672 	 -1.00136 	 67.7058 	 
C 	 33.9791 	 -2.09767 	 67.7703 	 
C 	 34.5892 	 -3.30713 	 67.6412 	 
H 	 32.9518 	 -2.05367 	 68.0271 	 
C 	 34.2668 	 0.482542 	 67.747 	 
H 	 33.1781 	 0.55766 	 67.8942 	 
H 	 34.4347 	 0.83782 	 66.7367 	 
C 	 34.9603 	 1.48947 	 68.7367 	 
H 	 35.9974 	 1.18272 	 68.7923 	 
H 	 35.0022 	 2.46716 	 68.3737 	 
C 	 34.4206 	 1.50092 	 70.205 	 
H 	 35.0798 	 2.03673 	 70.9412 	 
H 	 33.4089 	 1.8521 	 70.3602 	 
H 	 34.4158 	 0.432264 	 70.5067 	 
S 	 34.1609 	 -5.54699 	 66.0532 	 
C 	 32.9521 	 -6.66701 	 66.4748 	 
C 	 32.2729 	 -6.31366 	 67.6125 	 
C 	 32.85 	 -5.12831 	 68.2561 	 
C 	 33.8169 	 -4.54315 	 67.4417 	 
H 	 31.6032 	 -7.01363 	 67.9969 	 
C 	 32.4577 	 -4.58539 	 69.6166 	 
H 	 31.5875 	 -5.16491 	 70.0176 	 
H 	 32.2155 	 -3.50181 	 69.71 	 
C 	 33.4675 	 -4.78374 	 70.7241 	 
H 	 34.4472 	 -4.2984 	 70.5054 	 
H 	 33.7223 	 -5.85254 	 70.6791 	 
C 	 33.0212 	 -4.53341 	 72.1423 	 
H 	 33.8582 	 -4.76752 	 72.8615 	 
H 	 32.1161 	 -5.11818 	 72.552 	 
H 	 32.8262 	 -3.41758 	 72.2328 	 
H 	 36.9797 	 -0.71157 	 67.0679 	 
H 	 32.7902 	 -7.6363 	 65.9998 	 
*
