! wB97X-D3 SP def2-SVP
%pal
nprocs 16
end

* xyz 0 1
S 	 8.77027 	 -9.75714 	 63.3136 	 
C 	 8.34861 	 -8.93906 	 61.8371 	 
C 	 7.16027 	 -8.32801 	 61.9718 	 
C 	 6.55148 	 -8.58127 	 63.2564 	 
C 	 7.34304 	 -9.34813 	 64.0869 	 
H 	 5.54339 	 -8.39652 	 63.6275 	 
C 	 6.52921 	 -7.46367 	 60.94 	 
H 	 5.5059 	 -7.13586 	 61.2064 	 
H 	 6.40762 	 -8.04054 	 60.0116 	 
C 	 7.43336 	 -6.201 	 60.5478 	 
H 	 8.43947 	 -6.47351 	 60.1496 	 
H 	 6.94353 	 -5.65254 	 59.7469 	 
C 	 7.49331 	 -5.24118 	 61.745 	 
H 	 6.54699 	 -5.10267 	 62.2362 	 
H 	 8.30054 	 -5.49635 	 62.5188 	 
H 	 7.87412 	 -4.31426 	 61.2723 	 
S 	 8.12133 	 -8.82163 	 66.7005 	 
C 	 7.20435 	 -9.63362 	 67.9843 	 
C 	 6.04467 	 -10.175 	 67.5096 	 
C 	 6.00474 	 -10.3044 	 66.0814 	 
C 	 7.12655 	 -9.63445 	 65.5123 	 
H 	 5.34398 	 -10.5827 	 68.1993 	 
C 	 4.93203 	 -10.9709 	 65.2974 	 
H 	 4.53396 	 -10.24 	 64.6115 	 
H 	 4.09152 	 -11.1539 	 65.9136 	 
C 	 5.33798 	 -12.2994 	 64.7555 	 
H 	 5.75908 	 -13.0011 	 65.5016 	 
H 	 6.16423 	 -12.1423 	 64.0959 	 
C 	 4.21185 	 -12.9582 	 63.8831 	 
H 	 3.46171 	 -13.5379 	 64.4846 	 
H 	 4.68295 	 -13.7806 	 63.2638 	 
H 	 3.65593 	 -12.3551 	 63.1691 	 
H 	 9.01434 	 -8.7724 	 60.9974 	 
H 	 7.43433 	 -9.47175 	 69.0109 	 
*
