! wB97X-D3 SP def2-SVP
%pal
nprocs 16
end

* xyz 0 1
S 	 19.0821 	 -6.51351 	 80.8597 	 
C 	 18.5075 	 -6.18712 	 79.2297 	 
C 	 17.7754 	 -7.24361 	 78.6917 	 
C 	 18.0104 	 -8.40508 	 79.4446 	 
C 	 18.645 	 -8.19214 	 80.6618 	 
H 	 17.6086 	 -9.38382 	 79.1609 	 
C 	 17.232 	 -7.38689 	 77.3131 	 
H 	 17.4624 	 -8.30492 	 76.8228 	 
H 	 17.6072 	 -6.55965 	 76.6178 	 
C 	 15.6993 	 -7.29886 	 77.1688 	 
H 	 15.281 	 -8.22698 	 77.4873 	 
H 	 15.253 	 -6.53849 	 77.8269 	 
C 	 15.2638 	 -7.02447 	 75.7024 	 
H 	 14.1933 	 -7.27579 	 75.6085 	 
H 	 15.5365 	 -6.04934 	 75.2793 	 
H 	 15.5539 	 -7.75138 	 75.0079 	 
S 	 20.5679 	 -8.79606 	 82.5522 	 
C 	 20.3415 	 -10.2231 	 83.5246 	 
C 	 19.2219 	 -10.9407 	 83.1605 	 
C 	 18.3673 	 -10.3093 	 82.1762 	 
C 	 19.0231 	 -9.12335 	 81.6985 	 
H 	 18.8714 	 -11.7651 	 83.7707 	 
C 	 17.0367 	 -10.8696 	 81.7575 	 
H 	 17.2736 	 -11.8261 	 81.3701 	 
H 	 16.6771 	 -10.1258 	 81.0642 	 
C 	 15.9888 	 -11.1065 	 82.8724 	 
H 	 15.7618 	 -10.3082 	 83.5691 	 
H 	 16.3908 	 -11.7411 	 83.6485 	 
C 	 14.7706 	 -11.8399 	 82.3204 	 
H 	 15.0111 	 -12.7643 	 81.8435 	 
H 	 14.1486 	 -11.1985 	 81.6125 	 
H 	 14.0488 	 -12.0534 	 83.1234 	 
H 	 18.5275 	 -5.23473 	 78.7024 	 
H 	 21.0581 	 -10.4358 	 84.3051 	 
*
