! wB97X-D3 SP def2-SVP
%pal
nprocs 16
end

* xyz 0 1
S 	 -14.4053 	 34.3137 	 36.3986 	 
C 	 -14.5214 	 34.4012 	 38.1035 	 
C 	 -13.3699 	 33.88 	 38.6933 	 
C 	 -12.4054 	 33.448 	 37.7536 	 
C 	 -12.749 	 33.6243 	 36.4035 	 
H 	 -11.4802 	 32.9223 	 37.9717 	 
C 	 -13.2246 	 33.6983 	 40.1508 	 
H 	 -12.5443 	 32.8589 	 40.3333 	 
H 	 -14.1952 	 33.2811 	 40.6181 	 
C 	 -12.7518 	 34.9235 	 40.9121 	 
H 	 -13.3012 	 35.7548 	 40.6264 	 
H 	 -13.0873 	 34.7981 	 41.9511 	 
C 	 -11.2659 	 35.202 	 40.6837 	 
H 	 -10.8635 	 36.0132 	 41.3228 	 
H 	 -10.6899 	 34.3198 	 40.9437 	 
H 	 -11.0693 	 35.4589 	 39.667 	 
S 	 -12.7104 	 31.9493 	 34.2642 	 
C 	 -11.3102 	 31.9319 	 33.255 	 
C 	 -10.2652 	 32.6391 	 33.7931 	 
C 	 -10.6715 	 33.3896 	 34.9195 	 
C 	 -12.0193 	 33.242 	 35.2346 	 
H 	 -9.293 	 32.5594 	 33.3895 	 
C 	 -9.69544 	 34.3101 	 35.6392 	 
H 	 -10.2538 	 35.0101 	 36.2598 	 
H 	 -9.10053 	 34.9215 	 34.9056 	 
C 	 -8.72847 	 33.4326 	 36.4689 	 
H 	 -8.26383 	 32.6511 	 35.8366 	 
H 	 -9.35156 	 32.9275 	 37.2369 	 
C 	 -7.61233 	 34.3019 	 37.1163 	 
H 	 -7.99646 	 35.2592 	 37.2835 	 
H 	 -6.72682 	 34.3877 	 36.4374 	 
H 	 -7.27545 	 33.8441 	 38.0568 	 
H 	 -15.3369 	 34.7081 	 38.7074 	 
H 	 -11.0739 	 31.2699 	 32.4802 	 
*
