! wB97X-D3 SP def2-SVP
%pal
nprocs 16
end

* xyz 0 1
S 	 -12.9718 	 33.3511 	 37.3844 	 
C 	 -12.3579 	 34.7591 	 36.562 	 
C 	 -13.3062 	 35.2368 	 35.7122 	 
C 	 -14.4482 	 34.3933 	 35.5978 	 
C 	 -14.4657 	 33.3197 	 36.4167 	 
H 	 -15.3286 	 34.6396 	 34.9923 	 
C 	 -13.1873 	 36.5401 	 34.8437 	 
H 	 -13.9005 	 36.4829 	 34.0924 	 
H 	 -12.2154 	 36.558 	 34.328 	 
C 	 -13.2831 	 37.8619 	 35.5641 	 
H 	 -14.1271 	 37.8034 	 36.2829 	 
H 	 -12.3579 	 38.0504 	 36.12 	 
C 	 -13.6581 	 38.9903 	 34.5781 	 
H 	 -12.8223 	 39.1124 	 33.8314 	 
H 	 -14.5332 	 38.6987 	 33.9999 	 
H 	 -13.7139 	 39.9015 	 35.1544 	 
S 	 -15.9312 	 31.5573 	 37.9538 	 
C 	 -16.8897 	 30.3827 	 37.2154 	 
C 	 -16.8086 	 30.4345 	 35.8429 	 
C 	 -16.144 	 31.5994 	 35.3719 	 
C 	 -15.4121 	 32.1969 	 36.4065 	 
H 	 -17.3141 	 29.7311 	 35.2054 	 
C 	 -16.1838 	 32.0043 	 33.897 	 
H 	 -15.3259 	 31.5084 	 33.418 	 
H 	 -15.877 	 33.0447 	 33.7937 	 
C 	 -17.4905 	 31.8328 	 33.1921 	 
H 	 -17.6251 	 30.7573 	 33.2542 	 
H 	 -17.4031 	 32.1178 	 32.1358 	 
C 	 -18.6491 	 32.7068 	 33.7306 	 
H 	 -19.4839 	 32.4543 	 33.0505 	 
H 	 -18.5358 	 33.7655 	 33.6265 	 
H 	 -19.0207 	 32.3536 	 34.6764 	 
H 	 -11.392 	 35.2288 	 36.6299 	 
H 	 -17.2351 	 29.4899 	 37.7344 	 
*
