! wB97X-D3 SP def2-SVP
%pal
nprocs 16
end

* xyz 0 1
S 	 -62.3051 	 53.3942 	 128.292 	 
C 	 -64.0524 	 53.3505 	 128.565 	 
C 	 -64.6333 	 54.5764 	 128.4 	 
C 	 -63.6375 	 55.5598 	 128.09 	 
C 	 -62.3929 	 55.0717 	 127.843 	 
H 	 -63.8117 	 56.6221 	 128.094 	 
C 	 -66.0973 	 54.906 	 128.49 	 
H 	 -66.631 	 53.9973 	 128.84 	 
H 	 -66.3989 	 55.3572 	 127.546 	 
C 	 -66.4115 	 55.9469 	 129.545 	 
H 	 -66.137 	 55.6633 	 130.6 	 
H 	 -65.8939 	 56.8835 	 129.388 	 
C 	 -67.8823 	 56.3472 	 129.611 	 
H 	 -68.5339 	 55.4331 	 129.573 	 
H 	 -68.0544 	 56.7954 	 130.559 	 
H 	 -68.0875 	 57.0941 	 128.841 	 
S 	 -60.6494 	 57.1371 	 128.324 	 
C 	 -59.4877 	 57.5243 	 127.094 	 
C 	 -59.7157 	 56.8821 	 125.942 	 
C 	 -60.7745 	 55.9185 	 125.997 	 
C 	 -61.3475 	 55.8629 	 127.289 	 
H 	 -59.0178 	 57.0376 	 125.169 	 
C 	 -61.2295 	 55.1256 	 124.816 	 
H 	 -61.873 	 54.2502 	 125.147 	 
H 	 -60.3615 	 54.4962 	 124.519 	 
C 	 -61.85 	 55.8725 	 123.596 	 
H 	 -61.0866 	 56.551 	 123.249 	 
H 	 -62.8793 	 56.2741 	 123.821 	 
C 	 -62.1798 	 54.9187 	 122.446 	 
H 	 -62.2501 	 53.8793 	 122.67 	 
H 	 -61.3286 	 54.9218 	 121.828 	 
H 	 -63.041 	 55.1349 	 121.785 	 
H 	 -64.5909 	 52.402 	 128.835 	 
H 	 -58.7922 	 58.3707 	 127.088 	 
*
