! wB97X-D3 SP def2-SVP
%pal
nprocs 16
end

* xyz 0 1
S 	 -0.0979959 	 -14.0268 	 76.4255 	 
C 	 -1.2986 	 -13.7111 	 77.6014 	 
C 	 -0.78603 	 -13.6639 	 78.9001 	 
C 	 0.659867 	 -13.7117 	 78.8973 	 
C 	 1.16277 	 -14.0226 	 77.6664 	 
H 	 1.36072 	 -13.7456 	 79.726 	 
C 	 -1.62868 	 -13.4006 	 80.1525 	 
H 	 -2.53719 	 -12.9288 	 79.9296 	 
H 	 -1.01312 	 -12.6621 	 80.7189 	 
C 	 -2.0932 	 -14.6907 	 80.9373 	 
H 	 -2.64343 	 -15.3069 	 80.1799 	 
H 	 -1.1833 	 -15.3216 	 81.2078 	 
C 	 -2.72233 	 -14.4372 	 82.2829 	 
H 	 -2.08824 	 -13.765 	 82.8811 	 
H 	 -3.65277 	 -13.9517 	 82.0633 	 
H 	 -2.93242 	 -15.321 	 82.8462 	 
S 	 2.92165 	 -13.4071 	 75.7063 	 
C 	 4.58558 	 -13.9396 	 75.8352 	 
C 	 4.79114 	 -14.5834 	 77.0664 	 
C 	 3.62472 	 -14.6206 	 77.9137 	 
C 	 2.55202 	 -14.1013 	 77.2586 	 
H 	 5.78002 	 -15.0563 	 77.2168 	 
C 	 3.57649 	 -15.399 	 79.2937 	 
H 	 4.05174 	 -16.4018 	 79.2207 	 
H 	 2.57262 	 -15.5826 	 79.6165 	 
C 	 4.28031 	 -14.6169 	 80.3964 	 
H 	 3.91574 	 -13.6123 	 80.6238 	 
H 	 5.39615 	 -14.5609 	 80.284 	 
C 	 4.04438 	 -15.2029 	 81.801 	 
H 	 4.34304 	 -14.535 	 82.6476 	 
H 	 4.61884 	 -16.0168 	 81.9327 	 
H 	 3.05397 	 -15.6002 	 82.0693 	 
H 	 -2.32969 	 -13.673 	 77.3185 	 
H 	 5.22279 	 -13.8004 	 75.0299 	 
*
