! wB97X-D3 SP def2-SVP
%pal
nprocs 16
end

* xyz 0 1
S 	 -11.995 	 57.7787 	 59.192 	 
C 	 -11.208 	 56.2236 	 59.5236 	 
C 	 -11.807 	 55.5531 	 60.5594 	 
C 	 -12.9485 	 56.2128 	 61.0623 	 
C 	 -13.253 	 57.4251 	 60.4011 	 
H 	 -13.5923 	 55.7729 	 61.824 	 
C 	 -11.3098 	 54.2213 	 60.9931 	 
H 	 -11.1999 	 53.6405 	 60.0857 	 
H 	 -12.0643 	 53.6817 	 61.5767 	 
C 	 -9.98465 	 54.1254 	 61.8296 	 
H 	 -9.73941 	 53.0819 	 61.9926 	 
H 	 -9.19141 	 54.5171 	 61.2064 	 
C 	 -9.94327 	 54.7898 	 63.1759 	 
H 	 -10.488 	 55.716 	 63.037 	 
H 	 -10.4863 	 54.2812 	 63.8987 	 
H 	 -8.9429 	 54.9453 	 63.6422 	 
S 	 -14.0749 	 59.7773 	 61.6429 	 
C 	 -15.7738 	 60.184 	 61.7936 	 
C 	 -16.5107 	 59.0751 	 61.3028 	 
C 	 -15.7358 	 58.0371 	 60.7912 	 
C 	 -14.386 	 58.2331 	 60.7648 	 
H 	 -17.5573 	 59.1415 	 61.2562 	 
C 	 -16.392 	 56.8147 	 60.2617 	 
H 	 -16.9664 	 56.6005 	 61.1918 	 
H 	 -15.6373 	 55.9585 	 60.1426 	 
C 	 -17.2651 	 57.0608 	 58.9212 	 
H 	 -17.8197 	 58.0672 	 58.9204 	 
H 	 -17.9928 	 56.2938 	 58.9224 	 
C 	 -16.4565 	 56.8851 	 57.6379 	 
H 	 -16.4446 	 57.7486 	 56.9357 	 
H 	 -16.7925 	 55.9392 	 57.2176 	 
H 	 -15.392 	 56.6608 	 57.8905 	 
H 	 -10.4908 	 55.7508 	 58.8254 	 
H 	 -16.2344 	 60.9765 	 62.3264 	 
*
