! wB97X-D3 SP def2-SVP
%pal
nprocs 16
end

* xyz 0 1
S 	 14.48 	 23.4315 	 62.1927 	 
C 	 14.8614 	 21.7732 	 62.5983 	 
C 	 14.1028 	 21.2914 	 63.6993 	 
C 	 13.1821 	 22.2732 	 64.117 	 
C 	 13.2308 	 23.4417 	 63.4077 	 
H 	 12.4771 	 22.1423 	 64.9492 	 
C 	 14.1852 	 19.8541 	 64.1616 	 
H 	 14.5777 	 19.2463 	 63.3826 	 
H 	 13.1659 	 19.4735 	 64.2274 	 
C 	 14.9577 	 19.5948 	 65.4981 	 
H 	 15.2592 	 18.5794 	 65.6179 	 
H 	 15.8729 	 20.2174 	 65.4096 	 
C 	 14.1583 	 20.0773 	 66.6528 	 
H 	 13.2117 	 19.5736 	 66.5486 	 
H 	 14.5179 	 19.8206 	 67.5655 	 
H 	 14.1855 	 21.2095 	 66.7298 	 
S 	 13.3426 	 26.2195 	 63.4361 	 
C 	 11.8833 	 27.0774 	 63.827 	 
C 	 10.883 	 26.2653 	 64.1528 	 
C 	 11.229 	 24.8598 	 63.9861 	 
C 	 12.5488 	 24.6617 	 63.7164 	 
H 	 9.8776 	 26.7718 	 64.2344 	 
C 	 10.1633 	 23.7952 	 64.0967 	 
H 	 9.48389 	 24.1265 	 64.8194 	 
H 	 10.6018 	 22.8244 	 64.4616 	 
C 	 9.56929 	 23.4796 	 62.7253 	 
H 	 10.3877 	 23.275 	 62.0834 	 
H 	 9.04782 	 24.3439 	 62.3965 	 
C 	 8.65884 	 22.243 	 62.6969 	 
H 	 8.11601 	 22.2914 	 61.7285 	 
H 	 7.89675 	 22.2324 	 63.5313 	 
H 	 9.27551 	 21.3322 	 62.741 	 
H 	 15.5939 	 21.2058 	 61.989 	 
H 	 11.8604 	 28.1573 	 63.8468 	 
*
