! wB97X-D3 SP def2-SVP
%pal
nprocs 16
end

* xyz 0 1
S 	 -28.5265 	 64.623 	 102.789 	 
C 	 -26.9336 	 64.4942 	 102.137 	 
C 	 -25.9793 	 64.3496 	 103.136 	 
C 	 -26.5465 	 64.2199 	 104.453 	 
C 	 -27.8963 	 64.4322 	 104.441 	 
H 	 -26.0677 	 64.0319 	 105.444 	 
C 	 -24.4602 	 64.3323 	 102.915 	 
H 	 -24.1838 	 65.3648 	 103.283 	 
H 	 -24.1853 	 64.421 	 101.872 	 
C 	 -23.6682 	 63.2769 	 103.685 	 
H 	 -22.6281 	 63.5937 	 103.714 	 
H 	 -23.8727 	 63.1919 	 104.759 	 
C 	 -23.8518 	 61.8883 	 102.983 	 
H 	 -23.4518 	 61.857 	 101.941 	 
H 	 -23.3616 	 61.1808 	 103.608 	 
H 	 -24.9313 	 61.703 	 102.956 	 
S 	 -30.1371 	 65.5692 	 105.479 	 
C 	 -30.6362 	 65.1346 	 107.029 	 
C 	 -29.8979 	 64.121 	 107.605 	 
C 	 -28.7861 	 63.8227 	 106.818 	 
C 	 -28.7773 	 64.4472 	 105.605 	 
H 	 -30.1773 	 63.826 	 108.628 	 
C 	 -27.7753 	 62.9477 	 107.512 	 
H 	 -27.1009 	 62.5201 	 106.798 	 
H 	 -28.3183 	 62.0856 	 107.947 	 
C 	 -26.9651 	 63.4522 	 108.76 	 
H 	 -26.4226 	 62.7132 	 109.364 	 
H 	 -27.6476 	 64.0277 	 109.444 	 
C 	 -26.0536 	 64.655 	 108.415 	 
H 	 -26.4919 	 65.4562 	 107.884 	 
H 	 -25.2979 	 64.3826 	 107.799 	 
H 	 -25.727 	 64.9376 	 109.39 	 
H 	 -26.5687 	 64.9077 	 101.226 	 
H 	 -31.4816 	 65.5939 	 107.521 	 
*
