! wB97X-D3 SP def2-SVP
%pal
nprocs 16
end

* xyz 0 1
S 	 -43.3862 	 34.7684 	 83.0689 	 
C 	 -43.4028 	 34.9163 	 81.2976 	 
C 	 -42.8091 	 33.8019 	 80.6556 	 
C 	 -42.2635 	 32.9029 	 81.6168 	 
C 	 -42.6544 	 33.1737 	 82.9341 	 
H 	 -41.7566 	 32.0058 	 81.4613 	 
C 	 -42.59 	 33.6108 	 79.1508 	 
H 	 -41.5209 	 33.3746 	 79.0181 	 
H 	 -42.898 	 34.5651 	 78.6571 	 
C 	 -43.2555 	 32.3846 	 78.6192 	 
H 	 -42.7482 	 32.2023 	 77.6767 	 
H 	 -42.8874 	 31.5695 	 79.2383 	 
C 	 -44.7592 	 32.3667 	 78.6718 	 
H 	 -45.1274 	 33.1085 	 77.8942 	 
H 	 -45.2063 	 31.3999 	 78.5035 	 
H 	 -45.0346 	 32.8521 	 79.6364 	 
S 	 -41.633 	 33.3144 	 85.3742 	 
C 	 -41.1454 	 31.8849 	 86.2289 	 
C 	 -41.5413 	 30.7359 	 85.5875 	 
C 	 -41.9495 	 31.009 	 84.237 	 
C 	 -42.0921 	 32.3656 	 84.0232 	 
H 	 -41.6097 	 29.7549 	 86.0277 	 
C 	 -42.2902 	 29.8574 	 83.2805 	 
H 	 -41.2675 	 29.5936 	 82.9471 	 
H 	 -42.8171 	 30.3554 	 82.482 	 
C 	 -42.9934 	 28.6094 	 83.8138 	 
H 	 -43.6366 	 28.9197 	 84.6131 	 
H 	 -42.3146 	 27.9403 	 84.3262 	 
C 	 -43.8059 	 27.8481 	 82.7954 	 
H 	 -43.2694 	 27.3319 	 81.9577 	 
H 	 -44.6763 	 28.4284 	 82.3352 	 
H 	 -44.2625 	 27.0105 	 83.3229 	 
H 	 -43.8299 	 35.6713 	 80.6453 	 
H 	 -40.766 	 31.8474 	 87.2649 	 
*
