! wB97X-D3 SP def2-SVP
%pal
nprocs 16
end

* xyz 0 1
S 	 61.6554 	 -4.77815 	 91.8874 	 
C 	 60.3505 	 -4.29028 	 92.9448 	 
C 	 60.7962 	 -3.58102 	 94.043 	 
C 	 62.2129 	 -3.42359 	 94.0142 	 
C 	 62.8194 	 -3.82583 	 92.8986 	 
H 	 62.73 	 -2.80699 	 94.7976 	 
C 	 59.8419 	 -2.94513 	 94.9572 	 
H 	 59.096 	 -2.36301 	 94.4393 	 
H 	 60.4957 	 -2.18381 	 95.5118 	 
C 	 58.8907 	 -3.80959 	 95.744 	 
H 	 58.1062 	 -3.28833 	 96.2749 	 
H 	 58.4114 	 -4.62783 	 95.1748 	 
C 	 59.7333 	 -4.57777 	 96.851 	 
H 	 59.2199 	 -5.03721 	 97.6079 	 
H 	 60.1542 	 -5.35187 	 96.3537 	 
H 	 60.4328 	 -3.89519 	 97.3038 	 
S 	 65.2835 	 -5.15009 	 92.7882 	 
C 	 66.6687 	 -4.17846 	 92.3814 	 
C 	 66.31 	 -2.88528 	 92.1155 	 
C 	 64.9399 	 -2.60656 	 92.2252 	 
C 	 64.2257 	 -3.71498 	 92.6103 	 
H 	 67.0157 	 -2.10122 	 91.7992 	 
C 	 64.4239 	 -1.20619 	 92.0485 	 
H 	 65.1537 	 -0.619818 	 92.5321 	 
H 	 63.4772 	 -1.17687 	 92.5105 	 
C 	 64.4007 	 -0.644179 	 90.5649 	 
H 	 63.7852 	 -1.3014 	 89.9536 	 
H 	 65.3702 	 -0.839479 	 90.1352 	 
C 	 63.9617 	 0.818981 	 90.3507 	 
H 	 62.9155 	 1.01598 	 90.4925 	 
H 	 64.1087 	 1.15601 	 89.3279 	 
H 	 64.5702 	 1.55203 	 90.9069 	 
H 	 59.3407 	 -4.42969 	 92.6871 	 
H 	 67.6799 	 -4.6069 	 92.2827 	 
*
