! wB97X-D3 SP def2-SVP
%pal
nprocs 16
end

* xyz 0 1
S 	 -52.2843 	 40.4437 	 103.678 	 
C 	 -51.8058 	 42.063 	 103.201 	 
C 	 -51.7658 	 42.8955 	 104.332 	 
C 	 -52.0792 	 42.2327 	 105.523 	 
C 	 -52.331 	 40.8669 	 105.395 	 
H 	 -52.2714 	 42.6926 	 106.421 	 
C 	 -51.6763 	 44.4473 	 104.384 	 
H 	 -52.1523 	 44.7786 	 105.326 	 
H 	 -52.2661 	 44.9373 	 103.619 	 
C 	 -50.2329 	 44.9152 	 104.363 	 
H 	 -49.606 	 44.3618 	 105.111 	 
H 	 -49.812 	 44.6635 	 103.379 	 
C 	 -50.099 	 46.4756 	 104.406 	 
H 	 -49.1401 	 46.7869 	 104.112 	 
H 	 -50.8938 	 46.8912 	 103.832 	 
H 	 -50.1652 	 46.8629 	 105.429 	 
S 	 -53.8319 	 38.6534 	 106.034 	 
C 	 -53.9149 	 38.2446 	 107.747 	 
C 	 -52.9334 	 38.8169 	 108.501 	 
C 	 -52.2811 	 39.8205 	 107.731 	 
C 	 -52.7305 	 39.9525 	 106.442 	 
H 	 -52.8918 	 38.4813 	 109.522 	 
C 	 -51.122 	 40.6158 	 108.313 	 
H 	 -50.7742 	 41.1501 	 107.362 	 
H 	 -50.3 	 39.8961 	 108.449 	 
C 	 -51.5042 	 41.4403 	 109.614 	 
H 	 -50.6202 	 41.9281 	 110.023 	 
H 	 -51.8721 	 40.6793 	 110.286 	 
C 	 -52.5235 	 42.5323 	 109.403 	 
H 	 -53.5386 	 42.2089 	 109.055 	 
H 	 -52.191 	 43.2262 	 108.617 	 
H 	 -52.8241 	 43.1057 	 110.253 	 
H 	 -51.5905 	 42.4017 	 102.225 	 
H 	 -54.3812 	 37.3226 	 108.157 	 
*
