! wB97X-D3 SP def2-SVP
%pal
nprocs 16
end

* xyz 0 1
S 	 10.978 	 -8.83569 	 72.3856 	 
C 	 9.70994 	 -7.67885 	 72.3742 	 
C 	 9.48911 	 -7.14443 	 71.083 	 
C 	 10.4799 	 -7.62154 	 70.1437 	 
C 	 11.443 	 -8.45589 	 70.699 	 
H 	 10.6291 	 -7.39642 	 69.1059 	 
C 	 8.44062 	 -6.06994 	 70.7688 	 
H 	 7.65109 	 -6.15525 	 71.4318 	 
H 	 8.09643 	 -6.29035 	 69.739 	 
C 	 9.07322 	 -4.59023 	 70.875 	 
H 	 9.04367 	 -4.15457 	 71.8439 	 
H 	 10.0882 	 -4.46892 	 70.4293 	 
C 	 8.23728 	 -3.72549 	 69.9189 	 
H 	 8.48069 	 -2.6769 	 69.9391 	 
H 	 8.24193 	 -4.02889 	 68.9315 	 
H 	 7.25053 	 -3.81794 	 70.3465 	 
S 	 12.7765 	 -10.8266 	 70.2779 	 
C 	 13.9686 	 -10.9016 	 69.0996 	 
C 	 14.2935 	 -9.6308 	 68.6099 	 
C 	 13.4511 	 -8.60131 	 69.1309 	 
C 	 12.5877 	 -9.08898 	 70.1093 	 
H 	 15.0797 	 -9.48852 	 67.8425 	 
C 	 13.5824 	 -7.16989 	 68.6663 	 
H 	 12.6743 	 -6.8288 	 68.0984 	 
H 	 14.3726 	 -7.26872 	 67.9357 	 
C 	 14.0873 	 -6.19839 	 69.7748 	 
H 	 15.0311 	 -6.56563 	 70.3077 	 
H 	 13.3033 	 -6.20976 	 70.5321 	 
C 	 14.34 	 -4.73228 	 69.4153 	 
H 	 15.0894 	 -4.69847 	 68.5555 	 
H 	 14.7032 	 -4.21915 	 70.3037 	 
H 	 13.4855 	 -4.16726 	 69.0459 	 
H 	 9.17524 	 -7.43461 	 73.3066 	 
H 	 14.3856 	 -11.7881 	 68.6565 	 
*
