! wB97X-D3 SP def2-SVP
%pal
nprocs 16
end

* xyz 0 1
S 	 -72.1702 	 51.649 	 138.889 	 
C 	 -71.6362 	 53.1046 	 139.728 	 
C 	 -72.4942 	 54.1792 	 139.569 	 
C 	 -73.6457 	 53.7487 	 138.845 	 
C 	 -73.6496 	 52.4531 	 138.407 	 
H 	 -74.5057 	 54.3624 	 138.636 	 
C 	 -72.3766 	 55.5115 	 140.13 	 
H 	 -72.3597 	 56.3373 	 139.45 	 
H 	 -71.4875 	 55.6141 	 140.805 	 
C 	 -73.5689 	 55.8466 	 141.066 	 
H 	 -74.5316 	 55.87 	 140.532 	 
H 	 -73.6923 	 55.0649 	 141.805 	 
C 	 -73.4459 	 57.247 	 141.678 	 
H 	 -73.4346 	 58.0148 	 140.838 	 
H 	 -74.2832 	 57.3688 	 142.316 	 
H 	 -72.508 	 57.3866 	 142.241 	 
S 	 -73.9251 	 51.0249 	 136.027 	 
C 	 -75.5571 	 50.447 	 135.623 	 
C 	 -76.4548 	 50.9094 	 136.498 	 
C 	 -75.9059 	 51.7879 	 137.477 	 
C 	 -74.5389 	 51.8186 	 137.473 	 
H 	 -77.4897 	 50.6156 	 136.464 	 
C 	 -76.7961 	 52.2501 	 138.55 	 
H 	 -77.6929 	 52.2878 	 137.891 	 
H 	 -76.6336 	 53.2967 	 138.885 	 
C 	 -76.8441 	 51.2779 	 139.758 	 
H 	 -77.5052 	 51.7151 	 140.495 	 
H 	 -75.8724 	 51.2525 	 140.149 	 
C 	 -77.403 	 49.8849 	 139.266 	 
H 	 -76.636 	 49.3737 	 138.71 	 
H 	 -78.369 	 50.0159 	 138.689 	 
H 	 -77.6517 	 49.2298 	 140.095 	 
H 	 -70.5892 	 53.3182 	 140.003 	 
H 	 -75.8216 	 49.6601 	 134.983 	 
*
