! wB97X-D3 SP def2-SVP
%pal
nprocs 16
end

* xyz 0 1
S 	 -41.2505 	 19.0023 	 71.9916 	 
C 	 -40.0372 	 20.1682 	 71.5034 	 
C 	 -39.1342 	 19.4654 	 70.6762 	 
C 	 -39.4119 	 18.0478 	 70.5857 	 
C 	 -40.5053 	 17.6453 	 71.2173 	 
H 	 -38.8368 	 17.3485 	 70.0066 	 
C 	 -37.9882 	 20.1079 	 69.9225 	 
H 	 -37.1219 	 19.4364 	 70.0068 	 
H 	 -37.5534 	 20.9214 	 70.5046 	 
C 	 -38.3195 	 20.5475 	 68.4558 	 
H 	 -38.8717 	 21.4705 	 68.4564 	 
H 	 -37.355 	 20.773 	 67.9292 	 
C 	 -38.7731 	 19.4535 	 67.5413 	 
H 	 -38.1902 	 18.5655 	 67.6925 	 
H 	 -39.8503 	 19.225 	 67.7436 	 
H 	 -38.6927 	 19.5618 	 66.4657 	 
S 	 -42.8378 	 16.2044 	 70.6839 	 
C 	 -42.7066 	 14.4429 	 70.9546 	 
C 	 -41.495 	 14.0607 	 71.4806 	 
C 	 -40.5599 	 15.099 	 71.4798 	 
C 	 -41.1027 	 16.3194 	 71.1494 	 
H 	 -41.3256 	 12.9766 	 71.6779 	 
C 	 -39.2011 	 14.8414 	 72.0919 	 
H 	 -38.4642 	 15.3035 	 71.4899 	 
H 	 -38.9449 	 13.7461 	 71.9802 	 
C 	 -38.9306 	 15.3591 	 73.5221 	 
H 	 -39.1095 	 16.4469 	 73.5592 	 
H 	 -37.915 	 15.2169 	 73.7144 	 
C 	 -39.7968 	 14.6085 	 74.5982 	 
H 	 -39.5009 	 14.7215 	 75.6299 	 
H 	 -39.6258 	 13.5591 	 74.4492 	 
H 	 -40.8571 	 14.8574 	 74.5734 	 
H 	 -39.9104 	 21.2564 	 71.6899 	 
H 	 -43.5465 	 13.7575 	 70.7786 	 
*
