! wB97X-D3 SP def2-SVP
%pal
nprocs 16
end

* xyz 0 1
S 	 -102.196 	 56.1866 	 120.154 	 
C 	 -101.264 	 57.1084 	 119.042 	 
C 	 -101.445 	 58.4808 	 119.229 	 
C 	 -102.376 	 58.7504 	 120.286 	 
C 	 -102.944 	 57.6067 	 120.841 	 
H 	 -102.693 	 59.7449 	 120.73 	 
C 	 -100.914 	 59.6372 	 118.428 	 
H 	 -99.9503 	 59.5686 	 118.042 	 
H 	 -100.913 	 60.4817 	 119.084 	 
C 	 -101.875 	 59.9119 	 117.273 	 
H 	 -102.946 	 59.8436 	 117.507 	 
H 	 -101.816 	 60.9181 	 116.906 	 
C 	 -101.751 	 58.9915 	 116.141 	 
H 	 -102.109 	 57.9657 	 116.48 	 
H 	 -102.23 	 59.2125 	 115.264 	 
H 	 -100.701 	 58.7449 	 115.84 	 
S 	 -102.861 	 56.8777 	 123.536 	 
C 	 -104.205 	 57.2519 	 124.476 	 
C 	 -105.334 	 57.5274 	 123.748 	 
C 	 -105.132 	 57.639 	 122.33 	 
C 	 -103.763 	 57.3549 	 122.043 	 
H 	 -106.304 	 57.6417 	 124.287 	 
C 	 -106.095 	 58.0092 	 121.174 	 
H 	 -107.065 	 57.4955 	 121.224 	 
H 	 -105.61 	 57.779 	 120.166 	 
C 	 -106.363 	 59.4819 	 121.156 	 
H 	 -105.417 	 60.0523 	 121.092 	 
H 	 -106.655 	 59.8788 	 122.117 	 
C 	 -107.395 	 59.9931 	 120.18 	 
H 	 -108.266 	 59.3399 	 120.309 	 
H 	 -107 	 60.0014 	 119.209 	 
H 	 -107.641 	 60.9563 	 120.47 	 
H 	 -100.554 	 56.5531 	 118.385 	 
H 	 -104.252 	 57.288 	 125.534 	 
*
