! wB97X-D3 SP def2-SVP
%pal
nprocs 16
end

* xyz 0 1
S 	 -66.4637 	 56.4384 	 130.658 	 
C 	 -65.6352 	 57.0984 	 132.006 	 
C 	 -66.4501 	 57.0861 	 133.133 	 
C 	 -67.7356 	 56.591 	 132.878 	 
C 	 -67.9279 	 56.1542 	 131.594 	 
H 	 -68.4894 	 56.3084 	 133.564 	 
C 	 -66.0002 	 57.568 	 134.478 	 
H 	 -66.6155 	 58.4502 	 134.592 	 
H 	 -64.8589 	 57.7198 	 134.584 	 
C 	 -66.4395 	 56.5401 	 135.605 	 
H 	 -67.606 	 56.4522 	 135.526 	 
H 	 -66.1429 	 55.5315 	 135.263 	 
C 	 -65.9671 	 56.8382 	 137.006 	 
H 	 -66.1119 	 57.8621 	 137.203 	 
H 	 -66.4679 	 56.2968 	 137.788 	 
H 	 -64.8603 	 56.8107 	 137.194 	 
S 	 -69.5594 	 53.9844 	 131.672 	 
C 	 -71.0869 	 54.0884 	 130.888 	 
C 	 -71.3135 	 55.3666 	 130.398 	 
C 	 -70.1536 	 56.2068 	 130.505 	 
C 	 -69.0972 	 55.5322 	 131.059 	 
H 	 -72.2085 	 55.7195 	 129.885 	 
C 	 -70.1803 	 57.6115 	 130.016 	 
H 	 -70.7032 	 57.7314 	 129.073 	 
H 	 -69.1899 	 57.9436 	 129.879 	 
C 	 -70.708 	 58.6951 	 131 	 
H 	 -70.4597 	 59.709 	 130.647 	 
H 	 -70.2581 	 58.4875 	 131.874 	 
C 	 -72.178 	 58.4729 	 131.463 	 
H 	 -72.3123 	 57.4867 	 132.003 	 
H 	 -72.8981 	 58.5379 	 130.704 	 
H 	 -72.5741 	 59.1708 	 132.224 	 
H 	 -64.625 	 57.3973 	 132.084 	 
H 	 -71.8685 	 53.39 	 131 	 
*
