! wB97X-D3 SP def2-SVP
%pal
nprocs 16
end

* xyz 0 1
S 	 -67.986 	 37.7301 	 132.082 	 
C 	 -67.4754 	 39.2865 	 131.43 	 
C 	 -66.8026 	 39.9947 	 132.41 	 
C 	 -66.8063 	 39.3254 	 133.669 	 
C 	 -67.3311 	 38.1092 	 133.635 	 
H 	 -66.3697 	 39.6682 	 134.619 	 
C 	 -66.1575 	 41.3393 	 132.208 	 
H 	 -65.3693 	 41.2109 	 131.371 	 
H 	 -65.7268 	 41.7621 	 133.116 	 
C 	 -66.9973 	 42.5092 	 131.747 	 
H 	 -66.4439 	 43.4454 	 131.675 	 
H 	 -67.3819 	 42.2307 	 130.754 	 
C 	 -68.2301 	 42.8345 	 132.649 	 
H 	 -68.781 	 41.9226 	 132.927 	 
H 	 -67.9648 	 43.3837 	 133.545 	 
H 	 -69.0456 	 43.3715 	 132.084 	 
S 	 -68.9088 	 36.4785 	 135.2 	 
C 	 -68.1799 	 35.6182 	 136.49 	 
C 	 -66.8325 	 35.7438 	 136.547 	 
C 	 -66.3191 	 36.7368 	 135.601 	 
C 	 -67.3049 	 37.1403 	 134.74 	 
H 	 -66.2128 	 35.2906 	 137.279 	 
C 	 -64.8745 	 37.1463 	 135.66 	 
H 	 -64.572 	 36.8614 	 136.672 	 
H 	 -64.6928 	 38.2327 	 135.647 	 
C 	 -63.8878 	 36.6177 	 134.599 	 
H 	 -64.0448 	 35.4973 	 134.619 	 
H 	 -62.845 	 36.738 	 134.907 	 
C 	 -63.9149 	 37.2336 	 133.224 	 
H 	 -64.9615 	 37.2906 	 132.783 	 
H 	 -63.1583 	 36.7062 	 132.562 	 
H 	 -63.5665 	 38.307 	 133.353 	 
H 	 -67.5874 	 39.7089 	 130.455 	 
H 	 -68.7867 	 35.0791 	 137.243 	 
*
