! wB97X-D3 SP def2-SVP
%pal
nprocs 16
end

* xyz 0 1
S 	 53.392 	 -3.84959 	 89.0923 	 
C 	 53.9038 	 -2.24654 	 89.5691 	 
C 	 55.0166 	 -1.8501 	 88.813 	 
C 	 55.486 	 -2.86825 	 87.9044 	 
C 	 54.7823 	 -4.04792 	 88.0788 	 
H 	 56.2204 	 -2.74606 	 87.2053 	 
C 	 55.5636 	 -0.413728 	 88.8261 	 
H 	 54.7839 	 0.327731 	 88.8225 	 
H 	 56.1189 	 -0.305673 	 87.9372 	 
C 	 56.5595 	 -0.144138 	 90.0606 	 
H 	 56.9158 	 0.864897 	 89.9702 	 
H 	 55.9287 	 -0.15615 	 90.9834 	 
C 	 57.7148 	 -1.13007 	 90.2023 	 
H 	 57.4629 	 -1.89015 	 90.9294 	 
H 	 57.8812 	 -1.63498 	 89.248 	 
H 	 58.6703 	 -0.611071 	 90.4874 	 
S 	 53.9727 	 -6.64812 	 87.6977 	 
C 	 54.829 	 -7.64694 	 86.5698 	 
C 	 55.9814 	 -7.02434 	 86.1372 	 
C 	 56.0382 	 -5.62347 	 86.4512 	 
C 	 55.0289 	 -5.26861 	 87.3942 	 
H 	 56.5663 	 -7.61958 	 85.4307 	 
C 	 57.1895 	 -4.75831 	 85.9949 	 
H 	 56.8293 	 -3.9525 	 85.524 	 
H 	 57.689 	 -5.39617 	 85.2559 	 
C 	 58.3632 	 -4.40998 	 86.9648 	 
H 	 58.9081 	 -5.36074 	 87.3194 	 
H 	 57.9734 	 -4.11888 	 87.9674 	 
C 	 59.3101 	 -3.33431 	 86.4263 	 
H 	 58.7275 	 -2.46815 	 86.1149 	 
H 	 59.8316 	 -3.59498 	 85.573 	 
H 	 60.0302 	 -3.0013 	 87.1234 	 
H 	 53.4871 	 -1.55014 	 90.1895 	 
H 	 54.5241 	 -8.67451 	 86.4128 	 
*
