! wB97X-D3 SP def2-SVP
%pal
nprocs 16
end

* xyz 0 1
S 	 68.3692 	 22.1183 	 75.8777 	 
C 	 69.1346 	 21.4443 	 77.3024 	 
C 	 70.5228 	 21.475 	 77.1583 	 
C 	 70.9529 	 22.1072 	 75.9543 	 
C 	 69.9108 	 22.4947 	 75.1124 	 
H 	 72.0173 	 22.2858 	 75.7036 	 
C 	 71.4793 	 20.933 	 78.1832 	 
H 	 70.9628 	 20.52 	 79.0979 	 
H 	 72.0737 	 21.7954 	 78.4336 	 
C 	 72.4307 	 19.7425 	 77.7465 	 
H 	 71.887 	 18.8227 	 77.5771 	 
H 	 72.8244 	 19.9326 	 76.7205 	 
C 	 73.4519 	 19.4203 	 78.8556 	 
H 	 72.9925 	 19.2784 	 79.8491 	 
H 	 74.0932 	 18.5121 	 78.7387 	 
H 	 74.2664 	 20.1471 	 79.1596 	 
S 	 68.8071 	 22.3339 	 72.6397 	 
C 	 69.4967 	 23.3779 	 71.3478 	 
C 	 70.3242 	 24.2896 	 71.8642 	 
C 	 70.6753 	 24.0501 	 73.2249 	 
C 	 69.9404 	 23.0364 	 73.7412 	 
H 	 70.6932 	 25.0971 	 71.2807 	 
C 	 71.7219 	 24.9304 	 73.9178 	 
H 	 72.3151 	 25.3501 	 73.1801 	 
H 	 72.5049 	 24.3634 	 74.3381 	 
C 	 71.2432 	 25.8958 	 75.0231 	 
H 	 72.0885 	 26.167 	 75.6709 	 
H 	 70.6728 	 25.3453 	 75.6455 	 
C 	 70.4638 	 27.0631 	 74.4826 	 
H 	 70.1307 	 27.725 	 75.3248 	 
H 	 69.6126 	 26.7386 	 73.9455 	 
H 	 71.1002 	 27.6632 	 73.8882 	 
H 	 68.5342 	 20.9833 	 77.9984 	 
H 	 69.141 	 23.4592 	 70.363 	 
*
