! wB97X-D3 SP def2-SVP
%pal
nprocs 16
end

* xyz 0 1
S 	 -32.6526 	 69.5735 	 100.618 	 
C 	 -33.0602 	 67.8853 	 100.354 	 
C 	 -32.6037 	 67.0542 	 101.356 	 
C 	 -31.9564 	 67.8251 	 102.373 	 
C 	 -31.7605 	 69.1767 	 102.062 	 
H 	 -31.5519 	 67.5301 	 103.349 	 
C 	 -32.8491 	 65.5569 	 101.58 	 
H 	 -32.3144 	 65.1262 	 102.383 	 
H 	 -32.5465 	 64.9644 	 100.756 	 
C 	 -34.3627 	 65.1533 	 101.536 	 
H 	 -34.8412 	 65.5322 	 100.635 	 
H 	 -34.3403 	 64.0585 	 101.306 	 
C 	 -35.1924 	 65.4276 	 102.714 	 
H 	 -36.0579 	 64.7684 	 102.599 	 
H 	 -34.5842 	 65.3436 	 103.62 	 
H 	 -35.4349 	 66.37 	 102.856 	 
S 	 -32.1007 	 71.4652 	 103.519 	 
C 	 -30.9878 	 71.8773 	 104.75 	 
C 	 -29.7921 	 71.2176 	 104.55 	 
C 	 -29.8459 	 70.2465 	 103.53 	 
C 	 -31.1173 	 70.1889 	 102.929 	 
H 	 -28.8808 	 71.4765 	 105.111 	 
C 	 -28.6743 	 69.4126 	 103.101 	 
H 	 -28.9409 	 68.3523 	 102.991 	 
H 	 -27.9653 	 69.5654 	 103.858 	 
C 	 -27.9032 	 69.8617 	 101.918 	 
H 	 -26.9153 	 69.4656 	 101.843 	 
H 	 -27.694 	 70.9269 	 102.079 	 
C 	 -28.6096 	 69.4687 	 100.58 	 
H 	 -29.656 	 69.8735 	 100.485 	 
H 	 -28.672 	 68.3421 	 100.443 	 
H 	 -28.1177 	 69.9614 	 99.69 	 
H 	 -33.8465 	 67.5379 	 99.6864 	 
H 	 -31.2074 	 72.5159 	 105.485 	 
*
