! wB97X-D3 SP def2-SVP
%pal
nprocs 16
end

* xyz 0 1
S 	 3.14121 	 -3.03106 	 74.2679 	 
C 	 2.84504 	 -4.41474 	 75.2727 	 
C 	 2.51703 	 -4.14037 	 76.5781 	 
C 	 2.48092 	 -2.69591 	 76.7604 	 
C 	 2.77502 	 -1.93326 	 75.6453 	 
H 	 2.4446 	 -2.18058 	 77.6537 	 
C 	 2.29958 	 -5.10098 	 77.7706 	 
H 	 3.12198 	 -5.16867 	 78.489 	 
H 	 2.30225 	 -6.0714 	 77.4308 	 
C 	 0.900676 	 -4.95188 	 78.4311 	 
H 	 0.71945 	 -5.65463 	 79.2694 	 
H 	 0.87442 	 -4.01685 	 79.0258 	 
C 	 -0.319745 	 -5.13193 	 77.502 	 
H 	 -0.200944 	 -4.41394 	 76.6165 	 
H 	 -0.369632 	 -6.14627 	 77.1513 	 
H 	 -1.26391 	 -5.0106 	 77.9574 	 
S 	 4.54278 	 -0.120015 	 74.7769 	 
C 	 4.2926 	 1.62364 	 75.1803 	 
C 	 3.09973 	 1.79292 	 75.8537 	 
C 	 2.45099 	 0.592206 	 76.1828 	 
C 	 3.082 	 -0.532271 	 75.6068 	 
H 	 2.74866 	 2.77119 	 76.1864 	 
C 	 1.12842 	 0.62108 	 77.0235 	 
H 	 0.846992 	 1.63377 	 77.3685 	 
H 	 1.26425 	 -0.0435837 	 77.9446 	 
C 	 -0.150466 	 0.246393 	 76.1871 	 
H 	 -0.984344 	 0.317149 	 76.8433 	 
H 	 -0.232177 	 -0.823643 	 75.9283 	 
C 	 -0.232961 	 1.14428 	 74.9593 	 
H 	 0.556932 	 0.722857 	 74.2052 	 
H 	 -0.0570526 	 2.17565 	 75.191 	 
H 	 -1.1894 	 1.00592 	 74.4482 	 
H 	 2.86053 	 -5.39266 	 74.8215 	 
H 	 4.97024 	 2.4194 	 74.9162 	 
*
