! wB97X-D3 SP def2-SVP
%pal
nprocs 16
end

* xyz 0 1
S 	 8.96606 	 22.3924 	 56.1664 	 
C 	 8.54375 	 21.5662 	 54.7165 	 
C 	 7.58104 	 20.4943 	 54.8627 	 
C 	 7.22211 	 20.3936 	 56.2774 	 
C 	 7.84978 	 21.3145 	 57.1175 	 
H 	 6.57911 	 19.6695 	 56.759 	 
C 	 7.04937 	 19.5631 	 53.8498 	 
H 	 6.65569 	 20.268 	 53.0855 	 
H 	 6.17376 	 19.1082 	 54.1708 	 
C 	 7.96986 	 18.4837 	 53.3632 	 
H 	 7.65487 	 18.0549 	 52.3917 	 
H 	 8.96109 	 18.9107 	 53.0632 	 
C 	 8.18141 	 17.3906 	 54.4667 	 
H 	 9.04036 	 16.7949 	 54.1486 	 
H 	 8.37063 	 17.7892 	 55.4338 	 
H 	 7.21747 	 16.7972 	 54.5171 	 
S 	 9.27758 	 21.4528 	 59.5061 	 
C 	 8.46776 	 21.0116 	 60.9532 	 
C 	 7.09973 	 20.8859 	 60.7121 	 
C 	 6.71011 	 21.0877 	 59.3879 	 
C 	 7.77753 	 21.3439 	 58.5558 	 
H 	 6.37574 	 20.6775 	 61.4795 	 
C 	 5.29451 	 21.0337 	 59.0065 	 
H 	 5.21053 	 21.0043 	 57.916 	 
H 	 4.89688 	 21.9573 	 59.3548 	 
C 	 4.36235 	 19.9939 	 59.4975 	 
H 	 3.462 	 20.2696 	 58.9861 	 
H 	 4.15944 	 20.1601 	 60.5258 	 
C 	 4.69317 	 18.5141 	 59.1097 	 
H 	 5.09861 	 18.5125 	 58.0825 	 
H 	 3.75507 	 17.8762 	 59.0753 	 
H 	 5.38889 	 18.059 	 59.7982 	 
H 	 9.06531 	 21.8132 	 53.8435 	 
H 	 8.9345 	 20.96 	 61.8727 	 
*
