! wB97X-D3 SP def2-SVP
%pal
nprocs 16
end

* xyz 0 1
S 	 -108.079 	 55.6879 	 120.415 	 
C 	 -106.823 	 56.7861 	 120.975 	 
C 	 -105.579 	 56.4735 	 120.544 	 
C 	 -105.637 	 55.4251 	 119.578 	 
C 	 -106.94 	 55.0094 	 119.309 	 
H 	 -104.835 	 55.1877 	 118.937 	 
C 	 -104.315 	 57.1176 	 121.11 	 
H 	 -103.446 	 56.4973 	 120.937 	 
H 	 -104.47 	 57.2727 	 122.164 	 
C 	 -104.128 	 58.5187 	 120.527 	 
H 	 -103.212 	 58.9525 	 121.056 	 
H 	 -103.839 	 58.3086 	 119.487 	 
C 	 -105.228 	 59.5005 	 120.621 	 
H 	 -104.761 	 60.5212 	 120.674 	 
H 	 -105.859 	 59.4191 	 119.742 	 
H 	 -105.785 	 59.4261 	 121.555 	 
S 	 -107.922 	 52.6499 	 119.321 	 
C 	 -108.102 	 51.661 	 117.888 	 
C 	 -107.68 	 52.3944 	 116.792 	 
C 	 -107.252 	 53.7127 	 117.081 	 
C 	 -107.247 	 53.9301 	 118.387 	 
H 	 -107.901 	 51.9711 	 115.827 	 
C 	 -106.967 	 54.7892 	 116.048 	 
H 	 -105.882 	 54.9863 	 116.187 	 
H 	 -107.507 	 55.7446 	 116.294 	 
C 	 -107.417 	 54.4472 	 114.604 	 
H 	 -108.532 	 54.2915 	 114.619 	 
H 	 -106.946 	 53.5091 	 114.339 	 
C 	 -107.013 	 55.3955 	 113.493 	 
H 	 -105.994 	 55.536 	 113.288 	 
H 	 -107.307 	 56.3955 	 113.698 	 
H 	 -107.408 	 55.2346 	 112.517 	 
H 	 -107.018 	 57.4362 	 121.854 	 
H 	 -108.708 	 50.7152 	 117.771 	 
*
