! wB97X-D3 SP def2-SVP
%pal
nprocs 16
end

* xyz 0 1
S 	 -74.7985 	 46.8414 	 136.215 	 
C 	 -74.1142 	 45.4686 	 137.033 	 
C 	 -73.3252 	 45.8838 	 138.166 	 
C 	 -73.375 	 47.346 	 138.249 	 
C 	 -74.03 	 48.0004 	 137.267 	 
H 	 -73.021 	 47.9748 	 139.061 	 
C 	 -72.5848 	 44.9734 	 139.142 	 
H 	 -73.3522 	 44.5169 	 139.68 	 
H 	 -72.1223 	 45.644 	 139.802 	 
C 	 -71.6916 	 43.8614 	 138.625 	 
H 	 -72.3697 	 43.3513 	 137.979 	 
H 	 -70.801 	 44.2526 	 138.118 	 
C 	 -71.0517 	 42.9391 	 139.713 	 
H 	 -71.7441 	 42.5557 	 140.456 	 
H 	 -70.6562 	 41.9982 	 139.25 	 
H 	 -70.2819 	 43.4101 	 140.273 	 
S 	 -75.6997 	 50.1247 	 137.519 	 
C 	 -75.2195 	 51.6592 	 136.88 	 
C 	 -73.9919 	 51.6374 	 136.241 	 
C 	 -73.5276 	 50.2898 	 136.178 	 
C 	 -74.2455 	 49.4131 	 136.996 	 
H 	 -73.5274 	 52.5026 	 135.775 	 
C 	 -72.2303 	 49.9569 	 135.472 	 
H 	 -72.174 	 50.2036 	 134.426 	 
H 	 -72.1687 	 48.8808 	 135.397 	 
C 	 -70.9952 	 50.6881 	 136.092 	 
H 	 -70.9379 	 50.4571 	 137.121 	 
H 	 -71.1222 	 51.751 	 135.985 	 
C 	 -69.7579 	 50.1798 	 135.377 	 
H 	 -69.6907 	 49.1167 	 135.151 	 
H 	 -68.8658 	 50.4123 	 135.956 	 
H 	 -69.5486 	 50.7302 	 134.448 	 
H 	 -74.3439 	 44.4558 	 136.677 	 
H 	 -75.8184 	 52.5332 	 137.086 	 
*
