! wB97X-D3 SP def2-SVP
%pal
nprocs 16
end

* xyz 0 1
S 	 13.7139 	 -6.36747 	 89.391 	 
C 	 13.367 	 -7.48129 	 90.6682 	 
C 	 12.2687 	 -8.23835 	 90.3559 	 
C 	 11.7164 	 -7.95528 	 89.0383 	 
C 	 12.368 	 -6.95347 	 88.353 	 
H 	 10.9304 	 -8.45015 	 88.6247 	 
C 	 11.7327 	 -9.32721 	 91.2712 	 
H 	 12.5345 	 -9.68979 	 91.948 	 
H 	 11.3874 	 -10.2019 	 90.7763 	 
C 	 10.6166 	 -8.9189 	 92.187 	 
H 	 10.8239 	 -7.99269 	 92.6577 	 
H 	 9.7912 	 -8.87688 	 91.5378 	 
C 	 10.4641 	 -9.89197 	 93.4408 	 
H 	 10.3785 	 -10.8903 	 93.0595 	 
H 	 11.3131 	 -9.82291 	 94.0905 	 
H 	 9.61546 	 -9.65548 	 93.9623 	 
S 	 13.6039 	 -6.92865 	 85.873 	 
C 	 12.5616 	 -6.70487 	 84.4563 	 
C 	 11.2856 	 -6.30011 	 84.8043 	 
C 	 11.0034 	 -6.34165 	 86.201 	 
C 	 12.1762 	 -6.65013 	 86.9094 	 
H 	 10.6063 	 -6.19019 	 84.0253 	 
C 	 9.59496 	 -6.25222 	 86.7511 	 
H 	 9.28654 	 -5.21723 	 86.6456 	 
H 	 9.68218 	 -6.38498 	 87.8624 	 
C 	 8.56444 	 -7.10921 	 86.0279 	 
H 	 8.9092 	 -8.10259 	 86.1058 	 
H 	 8.48017 	 -6.76623 	 85.0219 	 
C 	 7.1705 	 -7.0426 	 86.6465 	 
H 	 7.1835 	 -7.76923 	 87.4944 	 
H 	 6.43713 	 -7.46538 	 85.9954 	 
H 	 6.87986 	 -6.05142 	 87.0036 	 
H 	 14.0094 	 -7.58696 	 91.5543 	 
H 	 12.9163 	 -6.84391 	 83.4298 	 
*
