! wB97X-D3 SP def2-SVP
%pal
nprocs 16
end

* xyz 0 1
S 	 2.80303 	 -16.8662 	 85.7946 	 
C 	 1.94499 	 -16.9028 	 84.2864 	 
C 	 2.73881 	 -16.611 	 83.195 	 
C 	 4.09456 	 -16.3585 	 83.5294 	 
C 	 4.28663 	 -16.5393 	 84.9042 	 
H 	 4.90312 	 -16.1157 	 82.8237 	 
C 	 2.13491 	 -16.5398 	 81.7973 	 
H 	 1.60803 	 -15.5942 	 81.5142 	 
H 	 1.46197 	 -17.4185 	 81.8147 	 
C 	 3.17614 	 -16.7183 	 80.6396 	 
H 	 3.97937 	 -15.9418 	 80.7148 	 
H 	 3.68982 	 -17.6767 	 80.7216 	 
C 	 2.49384 	 -16.6819 	 79.2223 	 
H 	 3.3229 	 -16.8585 	 78.5228 	 
H 	 1.86296 	 -17.4889 	 79.0791 	 
H 	 1.92581 	 -15.8247 	 78.9291 	 
S 	 5.699 	 -17.5805 	 87.0274 	 
C 	 7.13872 	 -16.8261 	 87.5736 	 
C 	 7.50684 	 -15.8745 	 86.684 	 
C 	 6.62198 	 -15.6345 	 85.6095 	 
C 	 5.50769 	 -16.4975 	 85.6219 	 
H 	 8.50263 	 -15.4549 	 86.9299 	 
C 	 6.91372 	 -14.4544 	 84.7179 	 
H 	 7.29151 	 -13.5913 	 85.3207 	 
H 	 5.96448 	 -14.1348 	 84.2364 	 
C 	 7.88976 	 -14.8755 	 83.6588 	 
H 	 7.37362 	 -15.3118 	 82.8258 	 
H 	 8.64293 	 -15.5716 	 84.033 	 
C 	 8.56908 	 -13.6771 	 83.0258 	 
H 	 7.92949 	 -13.0058 	 82.5116 	 
H 	 9.30374 	 -14.12 	 82.3704 	 
H 	 9.32068 	 -13.1405 	 83.6363 	 
H 	 0.866398 	 -16.9542 	 84.202 	 
H 	 7.73901 	 -17.0733 	 88.4656 	 
*
