! wB97X-D3 SP def2-SVP
%pal
nprocs 16
end

* xyz 0 1
S 	 -4.8096 	 46.7859 	 34.0569 	 
C 	 -4.83609 	 45.3971 	 35.1072 	 
C 	 -3.64328 	 44.7431 	 35.1719 	 
C 	 -2.74119 	 45.2472 	 34.2003 	 
C 	 -3.17401 	 46.3961 	 33.5637 	 
H 	 -1.78824 	 44.8439 	 34.0151 	 
C 	 -3.30183 	 43.6664 	 36.0817 	 
H 	 -2.66593 	 42.831 	 35.7208 	 
H 	 -4.2118 	 43.1198 	 36.2685 	 
C 	 -2.78329 	 44.1823 	 37.4226 	 
H 	 -2.47533 	 43.253 	 37.8913 	 
H 	 -1.87688 	 44.7973 	 37.2848 	 
C 	 -3.63363 	 45.0079 	 38.3841 	 
H 	 -3.76425 	 46.011 	 37.9862 	 
H 	 -4.67303 	 44.6354 	 38.4613 	 
H 	 -3.43681 	 45.0304 	 39.4184 	 
S 	 -3.39388 	 47.2457 	 31.0215 	 
C 	 -2.09991 	 48.0695 	 30.2689 	 
C 	 -1.01253 	 48.1801 	 31.0554 	 
C 	 -1.2119 	 47.5198 	 32.3255 	 
C 	 -2.51966 	 47.0362 	 32.4637 	 
H 	 -0.163263 	 48.7736 	 30.6684 	 
C 	 -0.0850184 	 47.5528 	 33.3727 	 
H 	 0.30489 	 46.6229 	 33.756 	 
H 	 -0.560282 	 47.8416 	 34.3027 	 
C 	 1.00036 	 48.6222 	 33.1516 	 
H 	 1.57507 	 48.4605 	 32.3007 	 
H 	 1.75923 	 48.2223 	 33.8539 	 
C 	 0.562799 	 50.0301 	 33.464 	 
H 	 -0.217359 	 49.998 	 34.2328 	 
H 	 0.148968 	 50.4892 	 32.5622 	 
H 	 1.40678 	 50.647 	 33.8909 	 
H 	 -5.68139 	 45.1008 	 35.6812 	 
H 	 -2.33811 	 48.606 	 29.3315 	 
*
