! wB97X-D3 SP def2-SVP
%pal
nprocs 16
end

* xyz 0 1
S 	 -44.5797 	 24.7977 	 83.3878 	 
C 	 -46.0491 	 24.76 	 82.6024 	 
C 	 -45.8462 	 24.5086 	 81.25 	 
C 	 -44.4835 	 24.4762 	 80.8689 	 
C 	 -43.6962 	 24.693 	 81.95 	 
H 	 -44.0496 	 24.2465 	 79.9083 	 
C 	 -46.9876 	 24.2213 	 80.2359 	 
H 	 -47.4303 	 25.2104 	 79.9178 	 
H 	 -47.8001 	 23.7292 	 80.8263 	 
C 	 -46.6207 	 23.3459 	 78.9897 	 
H 	 -47.5517 	 23.3012 	 78.3902 	 
H 	 -45.7755 	 23.7985 	 78.434 	 
C 	 -46.3965 	 21.909 	 79.37 	 
H 	 -45.4135 	 21.8333 	 79.8898 	 
H 	 -47.1154 	 21.4578 	 80.002 	 
H 	 -46.3549 	 21.3021 	 78.4096 	 
S 	 -41.6686 	 23.3811 	 80.9539 	 
C 	 -40.0447 	 23.629 	 81.4606 	 
C 	 -39.9221 	 24.826 	 82.1389 	 
C 	 -41.2167 	 25.3854 	 82.4713 	 
C 	 -42.2629 	 24.6473 	 81.9036 	 
H 	 -38.9441 	 25.1683 	 82.4336 	 
C 	 -41.3381 	 26.6665 	 83.2924 	 
H 	 -40.9866 	 26.394 	 84.3031 	 
H 	 -42.3488 	 26.987 	 83.4718 	 
C 	 -40.5144 	 27.8866 	 82.7276 	 
H 	 -39.4986 	 27.5188 	 82.4662 	 
H 	 -40.3072 	 28.7489 	 83.3597 	 
C 	 -41.064 	 28.4374 	 81.3937 	 
H 	 -40.6789 	 27.9175 	 80.4855 	 
H 	 -40.5601 	 29.4077 	 81.2428 	 
H 	 -42.1423 	 28.6345 	 81.4156 	 
H 	 -46.9599 	 24.6262 	 83.0346 	 
H 	 -39.2288 	 23.0577 	 81.1162 	 
*
