! wB97X-D3 SP def2-SVP
%pal
nprocs 16
end

* xyz 0 1
S 	 -45.2163 	 26.369 	 86.0814 	 
C 	 -45.6966 	 25.9484 	 84.5178 	 
C 	 -44.7726 	 25.3104 	 83.7353 	 
C 	 -43.5328 	 25.3653 	 84.3884 	 
C 	 -43.5443 	 25.9623 	 85.66 	 
H 	 -42.6306 	 25.0511 	 83.8963 	 
C 	 -45.0161 	 24.8052 	 82.3187 	 
H 	 -44.3082 	 25.3139 	 81.6636 	 
H 	 -45.9505 	 25.1331 	 82.0122 	 
C 	 -44.9921 	 23.2978 	 82.096 	 
H 	 -44.9525 	 23.2462 	 81.0049 	 
H 	 -43.9948 	 22.9181 	 82.472 	 
C 	 -46.1037 	 22.5262 	 82.735 	 
H 	 -47.002 	 22.928 	 82.2614 	 
H 	 -45.926 	 21.4864 	 82.5479 	 
H 	 -46.1046 	 22.7109 	 83.7866 	 
S 	 -42.4556 	 25.5702 	 88.1531 	 
C 	 -40.8672 	 26.0346 	 88.4081 	 
C 	 -40.245 	 26.5551 	 87.3498 	 
C 	 -41.0943 	 26.56 	 86.2009 	 
C 	 -42.3951 	 26.2133 	 86.5326 	 
H 	 -39.2063 	 26.9065 	 87.3904 	 
C 	 -40.6214 	 27.1953 	 84.9685 	 
H 	 -40.5984 	 28.2351 	 85.1713 	 
H 	 -41.3 	 27.0715 	 84.1435 	 
C 	 -39.2428 	 26.7356 	 84.4202 	 
H 	 -38.4539 	 26.9657 	 85.0616 	 
H 	 -38.9883 	 27.3122 	 83.5335 	 
C 	 -39.1705 	 25.3163 	 83.9192 	 
H 	 -39.7897 	 25.1137 	 83.0122 	 
H 	 -39.546 	 24.6491 	 84.8122 	 
H 	 -38.1486 	 25.0466 	 83.6007 	 
H 	 -46.74 	 26.1513 	 84.2117 	 
H 	 -40.3059 	 25.8519 	 89.3145 	 
*
