! wB97X-D3 SP def2-SVP
%pal
nprocs 16
end

* xyz 0 1
S 	 40.9816 	 10.6218 	 87.7502 	 
C 	 42.5135 	 11.5018 	 88.0213 	 
C 	 43.5693 	 10.6696 	 88.3155 	 
C 	 43.0314 	 9.32822 	 88.4592 	 
C 	 41.737 	 9.06507 	 88.1451 	 
H 	 43.6018 	 8.48298 	 88.8514 	 
C 	 45.0196 	 10.9816 	 88.6483 	 
H 	 45.1519 	 10.7065 	 89.7137 	 
H 	 45.0729 	 12.1138 	 88.6841 	 
C 	 46.1134 	 10.3689 	 87.7972 	 
H 	 46.0617 	 10.6247 	 86.7118 	 
H 	 46.953 	 10.9412 	 88.149 	 
C 	 46.2773 	 8.84992 	 87.8571 	 
H 	 45.4873 	 8.34127 	 87.2924 	 
H 	 47.2081 	 8.45231 	 87.4481 	 
H 	 46.1749 	 8.57756 	 88.9015 	 
S 	 39.1927 	 7.8847 	 88.239 	 
C 	 39.0355 	 6.18125 	 88.3435 	 
C 	 40.2305 	 5.5766 	 88.5658 	 
C 	 41.3905 	 6.50924 	 88.5714 	 
C 	 40.975 	 7.81961 	 88.3443 	 
H 	 40.2746 	 4.4937 	 88.7167 	 
C 	 42.7726 	 5.89215 	 88.6586 	 
H 	 42.7201 	 4.92534 	 89.1682 	 
H 	 43.3388 	 6.41275 	 89.3314 	 
C 	 43.5414 	 5.79428 	 87.3148 	 
H 	 43.3519 	 6.66984 	 86.6389 	 
H 	 43.0772 	 4.9758 	 86.6935 	 
C 	 44.9784 	 5.39449 	 87.4335 	 
H 	 45.4741 	 5.36165 	 86.4707 	 
H 	 44.899 	 4.43376 	 87.8063 	 
H 	 45.5342 	 5.90208 	 88.1981 	 
H 	 42.6688 	 12.5824 	 87.8883 	 
H 	 38.0947 	 5.64158 	 88.2905 	 
*
