! wB97X-D3 SP def2-SVP
%pal
nprocs 16
end

* xyz 0 1
S 	 35.479 	 5.12287 	 88.8336 	 
C 	 34.1675 	 5.17392 	 87.6681 	 
C 	 34.5353 	 5.68969 	 86.4357 	 
C 	 35.8989 	 6.02567 	 86.4696 	 
C 	 36.551 	 5.66342 	 87.6103 	 
H 	 36.5219 	 6.44294 	 85.7163 	 
C 	 33.5967 	 6.00337 	 85.2443 	 
H 	 32.887 	 5.15215 	 85.0652 	 
H 	 34.2375 	 5.87541 	 84.3504 	 
C 	 33.0687 	 7.42836 	 85.1373 	 
H 	 33.8124 	 8.18781 	 85.3844 	 
H 	 32.7979 	 7.56671 	 84.064 	 
C 	 31.898 	 7.62015 	 86.0925 	 
H 	 31.4923 	 8.61899 	 86.0604 	 
H 	 31.1016 	 6.85777 	 86.0164 	 
H 	 32.2692 	 7.4504 	 87.0905 	 
S 	 38.8558 	 4.18961 	 87.8832 	 
C 	 40.2009 	 4.95059 	 88.6694 	 
C 	 40.0276 	 6.31453 	 88.8802 	 
C 	 38.6618 	 6.71731 	 88.5539 	 
C 	 37.922 	 5.72151 	 87.9844 	 
H 	 40.8208 	 7.00334 	 89.0359 	 
C 	 38.2774 	 8.13765 	 89.0083 	 
H 	 38.6697 	 8.40672 	 90.024 	 
H 	 37.1725 	 8.08185 	 89.1744 	 
C 	 38.4004 	 9.31981 	 87.9431 	 
H 	 37.9997 	 9.04909 	 86.9385 	 
H 	 39.4436 	 9.53362 	 87.7831 	 
C 	 37.6665 	 10.6366 	 88.376 	 
H 	 37.5386 	 11.3054 	 87.5654 	 
H 	 38.1154 	 11.0928 	 89.269 	 
H 	 36.6803 	 10.2523 	 88.7012 	 
H 	 33.1351 	 4.95686 	 87.8675 	 
H 	 41.1972 	 4.46349 	 88.6366 	 
*
