! wB97X-D3 SP def2-SVP
%pal
nprocs 16
end

* xyz 0 1
S 	 12.2709 	 -3.97259 	 91.0687 	 
C 	 11.1868 	 -4.56431 	 92.3503 	 
C 	 10.9987 	 -5.87092 	 92.2409 	 
C 	 11.6047 	 -6.46307 	 91.0651 	 
C 	 12.2474 	 -5.58256 	 90.2606 	 
H 	 11.4684 	 -7.46337 	 90.7126 	 
C 	 9.91271 	 -6.70408 	 92.8694 	 
H 	 9.62468 	 -6.21241 	 93.8141 	 
H 	 10.4234 	 -7.60899 	 93.179 	 
C 	 8.6832 	 -7.03001 	 91.8931 	 
H 	 8.23653 	 -6.11016 	 91.7096 	 
H 	 8.91525 	 -7.57501 	 90.9793 	 
C 	 7.6027 	 -7.91845 	 92.634 	 
H 	 7.26599 	 -7.70913 	 93.6317 	 
H 	 6.64364 	 -7.8689 	 92.1422 	 
H 	 7.91126 	 -8.92658 	 92.7404 	 
S 	 14.8078 	 -5.37429 	 89.3143 	 
C 	 15.2244 	 -5.77763 	 87.6959 	 
C 	 14.1754 	 -6.42909 	 87.0454 	 
C 	 12.9525 	 -6.39751 	 87.8351 	 
C 	 13.089 	 -5.81026 	 89.0941 	 
H 	 14.2695 	 -6.89849 	 86.067 	 
C 	 11.5861 	 -6.98351 	 87.2747 	 
H 	 11.1673 	 -7.45105 	 88.1426 	 
H 	 11.8164 	 -7.73681 	 86.5297 	 
C 	 10.6524 	 -5.95836 	 86.666 	 
H 	 11.0006 	 -5.71337 	 85.6758 	 
H 	 10.8297 	 -4.99054 	 87.1354 	 
C 	 9.19801 	 -6.30075 	 86.6094 	 
H 	 8.79219 	 -5.83823 	 85.706 	 
H 	 8.61965 	 -5.89252 	 87.4804 	 
H 	 9.05147 	 -7.36403 	 86.6268 	 
H 	 10.5626 	 -4.06513 	 93.0431 	 
H 	 16.2082 	 -5.69114 	 87.1899 	 
*
