! wB97X-D3 SP def2-SVP
%pal
nprocs 16
end

* xyz 0 1
S 	 -34.4166 	 69.2469 	 109.531 	 
C 	 -34.5983 	 67.9588 	 108.322 	 
C 	 -33.5798 	 68.0463 	 107.353 	 
C 	 -32.7378 	 69.1803 	 107.57 	 
C 	 -33.0703 	 69.9908 	 108.629 	 
H 	 -31.8717 	 69.3179 	 106.898 	 
C 	 -33.4367 	 67.1103 	 106.229 	 
H 	 -34.2892 	 66.3694 	 106.311 	 
H 	 -32.5332 	 66.5212 	 106.309 	 
C 	 -33.5584 	 67.626 	 104.772 	 
H 	 -34.6263 	 67.8534 	 104.538 	 
H 	 -32.9095 	 68.5077 	 104.52 	 
C 	 -33.238 	 66.4334 	 103.861 	 
H 	 -33.7837 	 65.6155 	 104.276 	 
H 	 -33.5631 	 66.5 	 102.807 	 
H 	 -32.1615 	 66.1665 	 103.7 	 
S 	 -32.4223 	 71.1684 	 110.987 	 
C 	 -31.2082 	 72.369 	 111.099 	 
C 	 -30.9505 	 72.831 	 109.813 	 
C 	 -31.3689 	 71.9373 	 108.75 	 
C 	 -32.2392 	 70.9796 	 109.242 	 
H 	 -30.1466 	 73.6171 	 109.679 	 
C 	 -30.977 	 72.2284 	 107.288 	 
H 	 -31.0085 	 71.2756 	 106.71 	 
H 	 -29.9005 	 72.3819 	 107.345 	 
C 	 -31.7698 	 73.3514 	 106.651 	 
H 	 -31.3936 	 73.5681 	 105.644 	 
H 	 -31.6515 	 74.2814 	 107.228 	 
C 	 -33.2523 	 73.0098 	 106.616 	 
H 	 -33.7341 	 73.1337 	 107.578 	 
H 	 -33.3114 	 72.006 	 106.266 	 
H 	 -33.68 	 73.6884 	 105.927 	 
H 	 -35.2052 	 67.107 	 108.361 	 
H 	 -30.8387 	 72.8706 	 111.995 	 
*
