! wB97X-D3 SP def2-SVP
%pal
nprocs 16
end

* xyz 0 1
S 	 53.8343 	 21.5696 	 93.1565 	 
C 	 52.1104 	 21.7279 	 93.2672 	 
C 	 51.502 	 21.3142 	 92.0549 	 
C 	 52.4184 	 20.7223 	 91.1373 	 
C 	 53.7547 	 20.8165 	 91.5828 	 
H 	 52.1696 	 20.3117 	 90.2054 	 
C 	 49.9809 	 21.3193 	 91.8929 	 
H 	 49.8868 	 21.308 	 90.8057 	 
H 	 49.5024 	 22.314 	 92.1525 	 
C 	 49.335 	 20.0444 	 92.4747 	 
H 	 48.2993 	 20.2441 	 92.2981 	 
H 	 49.4162 	 19.0436 	 92.113 	 
C 	 49.5457 	 19.8547 	 93.999 	 
H 	 49.1404 	 20.7519 	 94.4991 	 
H 	 48.9361 	 19.0715 	 94.3349 	 
H 	 50.4992 	 19.5808 	 94.3996 	 
S 	 55.9131 	 21.4147 	 89.9226 	 
C 	 57.0192 	 20.2037 	 89.4812 	 
C 	 56.7002 	 19.0188 	 90.1228 	 
C 	 55.5415 	 19.043 	 90.9341 	 
C 	 54.9664 	 20.3142 	 90.9656 	 
H 	 57.2372 	 18.16 	 89.9163 	 
C 	 55.1345 	 17.7664 	 91.6436 	 
H 	 55.3608 	 16.8032 	 91.2476 	 
H 	 54.0566 	 17.7949 	 91.6923 	 
C 	 55.5695 	 17.7339 	 93.0892 	 
H 	 54.866 	 17.0814 	 93.6456 	 
H 	 55.395 	 18.7647 	 93.5678 	 
C 	 56.9896 	 17.3735 	 93.3749 	 
H 	 57.1514 	 16.2445 	 93.361 	 
H 	 57.3841 	 17.7122 	 94.3586 	 
H 	 57.5987 	 17.9084 	 92.6015 	 
H 	 51.5847 	 22.2556 	 94.0277 	 
H 	 57.9087 	 20.3387 	 88.8988 	 
*
