! wB97X-D3 SP def2-SVP
%pal
nprocs 16
end

* xyz 0 1
S 	 -8.17901 	 8.15526 	 84.9113 	 
C 	 -7.67545 	 7.11778 	 86.1853 	 
C 	 -8.72268 	 6.69463 	 87.014 	 
C 	 -9.94573 	 7.24945 	 86.5605 	 
C 	 -9.83837 	 8.03755 	 85.4368 	 
H 	 -10.9367 	 7.15924 	 87.0088 	 
C 	 -8.62629 	 5.97986 	 88.4052 	 
H 	 -7.51932 	 5.7921 	 88.4696 	 
H 	 -9.17721 	 5.02681 	 88.3911 	 
C 	 -9.14009 	 6.8377 	 89.5883 	 
H 	 -8.82982 	 7.90428 	 89.3674 	 
H 	 -10.2269 	 6.71122 	 89.7544 	 
C 	 -8.39064 	 6.22189 	 90.8116 	 
H 	 -7.35752 	 6.48339 	 90.6942 	 
H 	 -8.55967 	 6.63263 	 91.7575 	 
H 	 -8.66449 	 5.13504 	 90.9739 	 
S 	 -10.4799 	 10.5468 	 84.6533 	 
C 	 -12.2088 	 10.9465 	 84.4032 	 
C 	 -13.0146 	 9.82648 	 84.394 	 
C 	 -12.1996 	 8.65849 	 84.5752 	 
C 	 -10.8559 	 8.88385 	 84.8466 	 
H 	 -14.1277 	 9.8413 	 84.5395 	 
C 	 -12.9708 	 7.29768 	 84.7176 	 
H 	 -14.0224 	 7.41324 	 84.6541 	 
H 	 -12.7145 	 6.93591 	 85.6897 	 
C 	 -12.758 	 6.32335 	 83.5274 	 
H 	 -13.2328 	 6.67216 	 82.5881 	 
H 	 -13.3593 	 5.46488 	 83.7317 	 
C 	 -11.2827 	 5.96663 	 83.3614 	 
H 	 -10.6682 	 6.86151 	 83.1415 	 
H 	 -11.0809 	 5.21387 	 82.5787 	 
H 	 -10.7896 	 5.66043 	 84.3171 	 
H 	 -6.64023 	 6.82368 	 86.2613 	 
H 	 -12.6308 	 11.9184 	 84.5107 	 
*
