! wB97X-D3 SP def2-SVP
%pal
nprocs 16
end

* xyz 0 1
S 	 -42.155 	 23.9977 	 80.1553 	 
C 	 -41.4509 	 25.5602 	 80.2912 	 
C 	 -40.0588 	 25.5123 	 80.1764 	 
C 	 -39.635 	 24.3043 	 79.5918 	 
C 	 -40.6741 	 23.4014 	 79.3541 	 
H 	 -38.61 	 24.0237 	 79.4208 	 
C 	 -39.0739 	 26.5093 	 80.6409 	 
H 	 -39.4642 	 27.5512 	 80.5106 	 
H 	 -38.2329 	 26.4958 	 79.9534 	 
C 	 -38.5292 	 26.3985 	 82.0024 	 
H 	 -39.3308 	 26.1806 	 82.7312 	 
H 	 -37.8308 	 25.599 	 81.936 	 
C 	 -37.9058 	 27.6753 	 82.5754 	 
H 	 -37.6178 	 27.4306 	 83.6248 	 
H 	 -37.0235 	 27.9656 	 82.0613 	 
H 	 -38.5861 	 28.4671 	 82.644 	 
S 	 -41.7429 	 20.9517 	 79.5354 	 
C 	 -40.9085 	 19.5175 	 78.9548 	 
C 	 -39.8489 	 19.7868 	 78.1549 	 
C 	 -39.4819 	 21.2066 	 78.3247 	 
C 	 -40.454 	 21.9857 	 79.0323 	 
H 	 -39.4044 	 18.9678 	 77.6539 	 
C 	 -38.2878 	 21.7482 	 77.5776 	 
H 	 -37.5287 	 20.9804 	 77.8194 	 
H 	 -38.0332 	 22.6954 	 77.9464 	 
C 	 -38.4632 	 21.9247 	 76.0839 	 
H 	 -38.8369 	 20.9715 	 75.7332 	 
H 	 -37.5082 	 22.129 	 75.5555 	 
C 	 -39.3023 	 23.1091 	 75.6242 	 
H 	 -38.7807 	 24.07 	 75.7315 	 
H 	 -40.2576 	 23.2693 	 76.1514 	 
H 	 -39.5903 	 22.9994 	 74.5395 	 
H 	 -41.8536 	 26.5263 	 80.6683 	 
H 	 -41.3596 	 18.5781 	 78.9826 	 
*
