! wB97X-D3 SP def2-SVP
%pal
nprocs 16
end

* xyz 0 1
S 	 -47.2288 	 63.6862 	 145.414 	 
C 	 -45.6022 	 64.0792 	 144.907 	 
C 	 -45.458 	 65.4413 	 144.664 	 
C 	 -46.6099 	 66.1521 	 145.233 	 
C 	 -47.6016 	 65.3765 	 145.736 	 
H 	 -46.7253 	 67.2265 	 145.299 	 
C 	 -44.2129 	 66.1332 	 144.177 	 
H 	 -44.4421 	 66.9379 	 143.472 	 
H 	 -43.6574 	 65.3727 	 143.591 	 
C 	 -43.3555 	 66.7663 	 145.316 	 
H 	 -43.2695 	 65.9581 	 146.07 	 
H 	 -42.3955 	 67.0804 	 144.926 	 
C 	 -44.005 	 67.8597 	 146.157 	 
H 	 -44.9074 	 67.4394 	 146.645 	 
H 	 -43.2724 	 67.9638 	 147.028 	 
H 	 -44.1616 	 68.838 	 145.621 	 
S 	 -50.2903 	 64.9236 	 146.06 	 
C 	 -51.0872 	 65.5318 	 147.429 	 
C 	 -50.2974 	 66.3911 	 148.113 	 
C 	 -48.9803 	 66.4685 	 147.593 	 
C 	 -48.8228 	 65.7473 	 146.451 	 
H 	 -50.7003 	 66.7596 	 149.016 	 
C 	 -47.8756 	 67.0691 	 148.445 	 
H 	 -48.2806 	 67.6671 	 149.221 	 
H 	 -47.3458 	 67.8392 	 147.813 	 
C 	 -46.8477 	 66.004 	 148.991 	 
H 	 -46.4216 	 65.3342 	 148.239 	 
H 	 -47.3714 	 65.4685 	 149.736 	 
C 	 -45.6846 	 66.7317 	 149.73 	 
H 	 -45.0034 	 65.9238 	 149.928 	 
H 	 -46.1257 	 67.1382 	 150.712 	 
H 	 -45.0035 	 67.4635 	 149.199 	 
H 	 -44.857 	 63.3863 	 144.593 	 
H 	 -52.0759 	 65.2585 	 147.726 	 
*
