! wB97X-D3 SP def2-SVP
%pal
nprocs 16
end

* xyz 0 1
S 	 -36.0792 	 65.8745 	 145.373 	 
C 	 -34.7214 	 65.6822 	 144.285 	 
C 	 -33.5838 	 66.058 	 144.926 	 
C 	 -33.7592 	 66.3807 	 146.351 	 
C 	 -35.1455 	 66.4585 	 146.697 	 
H 	 -33.0043 	 66.5693 	 147.063 	 
C 	 -32.2665 	 66.1782 	 144.299 	 
H 	 -32.1322 	 65.6446 	 143.402 	 
H 	 -31.5317 	 65.6198 	 144.931 	 
C 	 -31.8198 	 67.6305 	 144.131 	 
H 	 -31.2704 	 67.9777 	 144.985 	 
H 	 -30.9381 	 67.7247 	 143.55 	 
C 	 -32.7394 	 68.7636 	 143.669 	 
H 	 -33.065 	 68.5852 	 142.667 	 
H 	 -33.5906 	 69.0012 	 144.26 	 
H 	 -32.2545 	 69.675 	 143.585 	 
S 	 -36.5983 	 65.5225 	 148.753 	 
C 	 -36.8061 	 66.4797 	 150.187 	 
C 	 -36.1215 	 67.6498 	 150.142 	 
C 	 -35.5469 	 67.9362 	 148.869 	 
C 	 -35.7129 	 66.8199 	 148.001 	 
H 	 -36.1499 	 68.3865 	 150.981 	 
C 	 -34.7968 	 69.2073 	 148.571 	 
H 	 -35.4951 	 69.9569 	 148.507 	 
H 	 -34.1675 	 69.084 	 147.674 	 
C 	 -33.8215 	 69.6479 	 149.682 	 
H 	 -32.9134 	 69.0341 	 149.525 	 
H 	 -34.1498 	 69.515 	 150.676 	 
C 	 -33.4111 	 71.1188 	 149.571 	 
H 	 -32.5498 	 71.2897 	 150.268 	 
H 	 -34.1969 	 71.8192 	 149.859 	 
H 	 -33.0571 	 71.3398 	 148.554 	 
H 	 -34.6326 	 65.6107 	 143.218 	 
H 	 -37.1535 	 66.2005 	 151.093 	 
*
