! wB97X-D3 SP def2-SVP
%pal
nprocs 16
end

* xyz 0 1
S 	 1.05159 	 -14.1568 	 77.1828 	 
C 	 2.61494 	 -13.7205 	 76.3759 	 
C 	 2.92704 	 -12.4051 	 76.6311 	 
C 	 1.88885 	 -11.675 	 77.3633 	 
C 	 0.845369 	 -12.482 	 77.8153 	 
H 	 1.87861 	 -10.593 	 77.5423 	 
C 	 4.26833 	 -11.7527 	 76.2592 	 
H 	 4.73248 	 -11.3499 	 77.0594 	 
H 	 4.05347 	 -11.013 	 75.5407 	 
C 	 5.2634 	 -12.601 	 75.5257 	 
H 	 5.52454 	 -13.4596 	 76.2211 	 
H 	 4.81416 	 -13.0769 	 74.7114 	 
C 	 6.52787 	 -11.8738 	 75.082 	 
H 	 6.34041 	 -11.4682 	 74.1257 	 
H 	 6.76109 	 -11.0243 	 75.7282 	 
H 	 7.4011 	 -12.5357 	 74.8359 	 
S 	 -2.0054 	 -12.563 	 77.7301 	 
C 	 -2.88241 	 -11.6183 	 78.9653 	 
C 	 -2.05297 	 -10.7416 	 79.5655 	 
C 	 -0.703008 	 -10.9662 	 79.1891 	 
C 	 -0.415446 	 -12.0353 	 78.3239 	 
H 	 -2.40857 	 -10.049 	 80.3148 	 
C 	 0.316487 	 -10.0255 	 79.7873 	 
H 	 -0.153839 	 -9.20021 	 80.2806 	 
H 	 0.865101 	 -9.49181 	 79.0499 	 
C 	 1.2636 	 -10.5946 	 80.8679 	 
H 	 1.63926 	 -11.5685 	 80.4953 	 
H 	 0.64766 	 -10.913 	 81.7216 	 
C 	 2.39968 	 -9.64987 	 81.3954 	 
H 	 2.06099 	 -8.66669 	 81.755 	 
H 	 3.13039 	 -9.37074 	 80.6006 	 
H 	 3.03488 	 -10.1538 	 82.1746 	 
H 	 3.3877 	 -14.416 	 75.9546 	 
H 	 -3.93669 	 -11.6685 	 79.0947 	 
*
