! wB97X-D3 SP def2-SVP
%pal
nprocs 16
end

* xyz 0 1
S 	 -46.3726 	 28.6674 	 85.4961 	 
C 	 -46.6464 	 30.4306 	 85.3241 	 
C 	 -45.7609 	 30.9674 	 84.4291 	 
C 	 -45.0054 	 29.9992 	 83.7264 	 
C 	 -45.2197 	 28.7051 	 84.2179 	 
H 	 -44.2011 	 30.3211 	 83.0193 	 
C 	 -45.7587 	 32.4969 	 84.1279 	 
H 	 -46.184 	 32.6054 	 83.1258 	 
H 	 -44.6753 	 32.8706 	 84.062 	 
C 	 -46.5487 	 33.4385 	 85.1187 	 
H 	 -47.6018 	 33.1886 	 85.0525 	 
H 	 -46.2597 	 33.193 	 86.1779 	 
C 	 -46.4498 	 34.9214 	 84.7554 	 
H 	 -46.3981 	 35.049 	 83.6964 	 
H 	 -47.2937 	 35.4989 	 85.1223 	 
H 	 -45.4915 	 35.3119 	 85.1964 	 
S 	 -44.8594 	 26.8399 	 82.2287 	 
C 	 -43.4466 	 25.8363 	 82.2864 	 
C 	 -42.9613 	 25.7331 	 83.5646 	 
C 	 -43.5041 	 26.7727 	 84.4253 	 
C 	 -44.4995 	 27.5139 	 83.7843 	 
H 	 -42.1249 	 24.9961 	 83.7402 	 
C 	 -42.9614 	 26.9888 	 85.8436 	 
H 	 -42.8186 	 25.9379 	 86.2051 	 
H 	 -43.8264 	 27.3782 	 86.4212 	 
C 	 -41.6616 	 27.8076 	 85.9688 	 
H 	 -41.4006 	 27.9092 	 87.046 	 
H 	 -41.8071 	 28.8227 	 85.5926 	 
C 	 -40.4558 	 27.1792 	 85.2109 	 
H 	 -39.5326 	 27.6559 	 85.2824 	 
H 	 -40.7162 	 26.9926 	 84.1225 	 
H 	 -40.3317 	 26.0731 	 85.5471 	 
H 	 -47.3565 	 31.0574 	 85.7884 	 
H 	 -42.9512 	 25.2889 	 81.4919 	 
*
