! wB97X-D3 SP def2-SVP
%pal
nprocs 16
end

* xyz 0 1
S 	 7.57048 	 -15.193 	 85.6887 	 
C 	 9.02391 	 -14.6617 	 84.8791 	 
C 	 9.9719 	 -14.1782 	 85.7455 	 
C 	 9.44121 	 -14.1852 	 87.0799 	 
C 	 8.15005 	 -14.6525 	 87.2362 	 
H 	 10.1022 	 -13.9572 	 87.8519 	 
C 	 11.349 	 -13.6593 	 85.372 	 
H 	 11.5377 	 -14.0225 	 84.3765 	 
H 	 11.9911 	 -14.1066 	 86.1062 	 
C 	 11.5022 	 -12.1285 	 85.5158 	 
H 	 10.6767 	 -11.6775 	 84.9611 	 
H 	 11.3997 	 -11.7154 	 86.5398 	 
C 	 12.8804 	 -11.7806 	 84.8678 	 
H 	 13.6374 	 -12.1894 	 85.5095 	 
H 	 13.0907 	 -12.1806 	 83.7996 	 
H 	 13.0026 	 -10.7654 	 84.6249 	 
S 	 6.37808 	 -16.3055 	 88.4941 	 
C 	 5.8372 	 -15.8452 	 90.0698 	 
C 	 6.42849 	 -14.6599 	 90.5413 	 
C 	 7.38894 	 -14.1489 	 89.6502 	 
C 	 7.4104 	 -14.9141 	 88.4443 	 
H 	 6.25392 	 -14.4015 	 91.5281 	 
C 	 8.1521 	 -12.8336 	 89.9253 	 
H 	 7.45569 	 -12.0604 	 90.3687 	 
H 	 8.41869 	 -12.424 	 88.9626 	 
C 	 9.47954 	 -12.958 	 90.8358 	 
H 	 10.2147 	 -13.5899 	 90.3696 	 
H 	 9.31835 	 -13.4687 	 91.782 	 
C 	 9.93623 	 -11.5579 	 91.1056 	 
H 	 9.77316 	 -10.9093 	 90.258 	 
H 	 11.0145 	 -11.7777 	 91.3275 	 
H 	 9.35775 	 -11.3067 	 92.0192 	 
H 	 9.14893 	 -14.6551 	 83.8401 	 
H 	 5.29319 	 -16.4829 	 90.7223 	 
*
