! wB97X-D3 SP def2-SVP
%pal
nprocs 16
end

* xyz 0 1
S 	 -45.8795 	 52.1754 	 105.213 	 
C 	 -45.1086 	 51.0889 	 104.016 	 
C 	 -44.0032 	 51.6368 	 103.448 	 
C 	 -43.7071 	 52.9727 	 103.889 	 
C 	 -44.6019 	 53.3479 	 104.841 	 
H 	 -42.9177 	 53.7107 	 103.503 	 
C 	 -43.0881 	 50.9089 	 102.508 	 
H 	 -43.465 	 49.9242 	 102.388 	 
H 	 -42.1186 	 50.7555 	 102.962 	 
C 	 -42.8708 	 51.5458 	 101.126 	 
H 	 -42.3248 	 52.5176 	 101.273 	 
H 	 -42.1867 	 50.8552 	 100.707 	 
C 	 -44.1115 	 51.8883 	 100.215 	 
H 	 -44.8657 	 52.519 	 100.749 	 
H 	 -43.7067 	 52.4278 	 99.3099 	 
H 	 -44.7219 	 51.0593 	 99.9898 	 
S 	 -44.5137 	 54.5631 	 107.286 	 
C 	 -44.4326 	 56.3407 	 107.43 	 
C 	 -44.4567 	 56.892 	 106.191 	 
C 	 -44.5393 	 55.943 	 105.107 	 
C 	 -44.5699 	 54.6149 	 105.532 	 
H 	 -44.5519 	 57.9502 	 106.166 	 
C 	 -44.6941 	 56.3775 	 103.628 	 
H 	 -43.9673 	 55.7579 	 103.015 	 
H 	 -44.352 	 57.4155 	 103.537 	 
C 	 -46.1418 	 56.3344 	 103.028 	 
H 	 -46.4605 	 55.2555 	 102.992 	 
H 	 -45.9909 	 56.5776 	 101.989 	 
C 	 -47.2247 	 57.2706 	 103.545 	 
H 	 -48.1561 	 57.1866 	 103.014 	 
H 	 -46.8737 	 58.2709 	 103.31 	 
H 	 -47.3493 	 57.2616 	 104.683 	 
H 	 -45.5443 	 50.0927 	 103.873 	 
H 	 -44.1439 	 56.8532 	 108.341 	 
*
