! wB97X-D3 SP def2-SVP
%pal
nprocs 16
end

* xyz 0 1
S 	 -5.67854 	 75.5817 	 47.4329 	 
C 	 -5.65805 	 76.9514 	 48.4952 	 
C 	 -6.85328 	 77.0818 	 49.2116 	 
C 	 -7.71912 	 75.9168 	 48.9706 	 
C 	 -7.17335 	 75.0042 	 48.1198 	 
H 	 -8.67745 	 75.7988 	 49.4339 	 
C 	 -7.01149 	 78.1622 	 50.2561 	 
H 	 -6.47167 	 79.1199 	 49.8914 	 
H 	 -6.6786 	 77.8812 	 51.2023 	 
C 	 -8.39536 	 78.5508 	 50.5523 	 
H 	 -8.93457 	 78.783 	 49.629 	 
H 	 -8.84596 	 77.593 	 50.9295 	 
C 	 -8.61658 	 79.7091 	 51.5199 	 
H 	 -7.80838 	 79.6381 	 52.2467 	 
H 	 -8.49465 	 80.7104 	 51.0506 	 
H 	 -9.54944 	 79.7034 	 52.0863 	 
S 	 -6.95557 	 72.303 	 48.2972 	 
C 	 -8.41122 	 71.4507 	 48.0032 	 
C 	 -9.43828 	 72.0922 	 47.3608 	 
C 	 -9.13627 	 73.4645 	 47.3131 	 
C 	 -7.81584 	 73.7469 	 47.781 	 
H 	 -10.3333 	 71.5302 	 47.1448 	 
C 	 -10.1385 	 74.5198 	 46.7411 	 
H 	 -10.6204 	 74.1144 	 45.8706 	 
H 	 -9.71536 	 75.4674 	 46.3372 	 
C 	 -11.2283 	 75.0097 	 47.6936 	 
H 	 -10.7288 	 75.4276 	 48.5503 	 
H 	 -11.8421 	 74.193 	 48.1655 	 
C 	 -12.265 	 75.9402 	 46.9853 	 
H 	 -11.8198 	 76.9452 	 46.9733 	 
H 	 -13.2475 	 76.0102 	 47.5117 	 
H 	 -12.2809 	 75.488 	 45.9567 	 
H 	 -4.83345 	 77.6707 	 48.6666 	 
H 	 -8.48126 	 70.4012 	 48.2136 	 
*
