! wB97X-D3 SP def2-SVP
%pal
nprocs 16
end

* xyz 0 1
S 	 8.46515 	 22.8849 	 37.0508 	 
C 	 7.20663 	 23.413 	 36.0162 	 
C 	 6.07719 	 22.6353 	 36.268 	 
C 	 6.29526 	 21.5025 	 37.119 	 
C 	 7.5583 	 21.4843 	 37.665 	 
H 	 5.51951 	 20.7191 	 37.3849 	 
C 	 4.74402 	 22.8676 	 35.6201 	 
H 	 4.51977 	 23.8828 	 35.2926 	 
H 	 3.97911 	 22.554 	 36.3454 	 
C 	 4.60284 	 22.0657 	 34.326 	 
H 	 5.2587 	 22.515 	 33.6144 	 
H 	 4.92091 	 21.0355 	 34.4973 	 
C 	 3.13653 	 22.1781 	 33.8943 	 
H 	 2.31222 	 22.0433 	 34.6193 	 
H 	 2.89072 	 23.1603 	 33.5538 	 
H 	 3.01548 	 21.4922 	 33.1199 	 
S 	 9.14833 	 21.2391 	 39.8236 	 
C 	 9.46011 	 19.7212 	 40.5918 	 
C 	 8.96057 	 18.6477 	 39.7989 	 
C 	 8.20761 	 19.0887 	 38.6663 	 
C 	 8.22649 	 20.4696 	 38.5533 	 
H 	 9.09014 	 17.5434 	 40.069 	 
C 	 7.2863 	 18.1645 	 37.8535 	 
H 	 7.94241 	 17.2814 	 37.6121 	 
H 	 7.06685 	 18.5514 	 36.823 	 
C 	 6.01738 	 17.7738 	 38.5548 	 
H 	 5.56467 	 18.7007 	 39.016 	 
H 	 6.11257 	 16.9758 	 39.3339 	 
C 	 5.00665 	 17.1456 	 37.5361 	 
H 	 5.37528 	 16.2565 	 37.0034 	 
H 	 4.60823 	 17.7666 	 36.7131 	 
H 	 4.05472 	 16.9669 	 38.0281 	 
H 	 7.16102 	 24.1627 	 35.2753 	 
H 	 10.0187 	 19.4644 	 41.4229 	 
*
