! wB97X-D3 SP def2-SVP
%pal
nprocs 16
end

* xyz 0 1
S 	 1.83777 	 -12.2963 	 76.0864 	 
C 	 3.2816 	 -11.4277 	 76.2519 	 
C 	 3.33415 	 -10.9864 	 77.5632 	 
C 	 2.12285 	 -11.2188 	 78.3683 	 
C 	 1.18439 	 -11.9162 	 77.6252 	 
H 	 1.92107 	 -10.8957 	 79.3894 	 
C 	 4.61516 	 -10.4149 	 78.1936 	 
H 	 5.31595 	 -11.232 	 78.3247 	 
H 	 4.26917 	 -10.0491 	 79.2029 	 
C 	 5.25058 	 -9.11193 	 77.6542 	 
H 	 5.67813 	 -9.2667 	 76.6769 	 
H 	 4.58184 	 -8.29211 	 77.6412 	 
C 	 6.36416 	 -8.56875 	 78.6059 	 
H 	 6.97912 	 -9.40145 	 78.9155 	 
H 	 6.89623 	 -7.73388 	 78.19 	 
H 	 5.93351 	 -8.1469 	 79.5519 	 
S 	 -1.34492 	 -12.0884 	 76.5573 	 
C 	 -2.73028 	 -12.5364 	 77.4226 	 
C 	 -2.37347 	 -12.7815 	 78.7529 	 
C 	 -0.960984 	 -12.7174 	 79.0094 	 
C 	 -0.255562 	 -12.2053 	 77.9049 	 
H 	 -3.08688 	 -13.0289 	 79.5016 	 
C 	 -0.364067 	 -12.9731 	 80.3693 	 
H 	 0.668641 	 -12.6763 	 80.4027 	 
H 	 -0.423445 	 -13.9817 	 80.5795 	 
C 	 -1.08299 	 -12.3538 	 81.5641 	 
H 	 -2.06685 	 -12.8038 	 81.6594 	 
H 	 -1.3282 	 -11.2837 	 81.4614 	 
C 	 -0.463818 	 -12.5757 	 82.9288 	 
H 	 -1.20136 	 -12.4623 	 83.7354 	 
H 	 0.302994 	 -11.8162 	 83.1031 	 
H 	 0.0383359 	 -13.5463 	 83.0368 	 
H 	 4.14477 	 -11.3795 	 75.6554 	 
H 	 -3.76349 	 -12.5811 	 77.033 	 
*
