! wB97X-D3 SP def2-SVP
%pal
nprocs 16
end

* xyz 0 1
S 	 -98.7336 	 40.723 	 126.298 	 
C 	 -98.9351 	 40.8497 	 128.09 	 
C 	 -97.7334 	 41.1323 	 128.655 	 
C 	 -96.6652 	 41.2017 	 127.753 	 
C 	 -97.0243 	 41.1073 	 126.434 	 
H 	 -95.6491 	 41.3566 	 128.039 	 
C 	 -97.5257 	 41.3308 	 130.177 	 
H 	 -98.5314 	 41.0673 	 130.634 	 
H 	 -97.2112 	 42.3643 	 130.418 	 
C 	 -96.5539 	 40.3865 	 130.839 	 
H 	 -95.5958 	 40.4715 	 130.319 	 
H 	 -96.4043 	 40.6776 	 131.909 	 
C 	 -97.0063 	 38.9435 	 130.75 	 
H 	 -96.5755 	 38.3742 	 131.593 	 
H 	 -98.0854 	 38.8292 	 130.832 	 
H 	 -96.8039 	 38.4553 	 129.796 	 
S 	 -95.2838 	 39.6695 	 125.045 	 
C 	 -94.3601 	 40.4445 	 123.788 	 
C 	 -94.7764 	 41.7505 	 123.605 	 
C 	 -95.8759 	 42.1489 	 124.41 	 
C 	 -96.2106 	 41.1443 	 125.299 	 
H 	 -94.2201 	 42.3995 	 122.895 	 
C 	 -96.4466 	 43.5131 	 124.382 	 
H 	 -95.7309 	 44.157 	 124.76 	 
H 	 -97.2432 	 43.4329 	 125.123 	 
C 	 -97.0748 	 44.0148 	 122.989 	 
H 	 -97.8155 	 43.3273 	 122.663 	 
H 	 -96.2857 	 44.0756 	 122.28 	 
C 	 -97.7744 	 45.4472 	 123.15 	 
H 	 -98.5941 	 45.3811 	 123.892 	 
H 	 -98.1251 	 45.9133 	 122.141 	 
H 	 -97.0869 	 46.1254 	 123.555 	 
H 	 -99.9122 	 40.7692 	 128.614 	 
H 	 -93.5962 	 39.9695 	 123.303 	 
*
