! wB97X-D3 SP def2-SVP
%pal
nprocs 16
end

* xyz 0 1
S 	 -21.3367 	 46.1602 	 56.5246 	 
C 	 -20.1888 	 46.6351 	 57.729 	 
C 	 -20.57 	 46.0462 	 58.8577 	 
C 	 -21.7916 	 45.3938 	 58.8525 	 
C 	 -22.3927 	 45.3069 	 57.6288 	 
H 	 -22.1723 	 44.9557 	 59.7905 	 
C 	 -19.7759 	 46.0726 	 60.1732 	 
H 	 -18.7531 	 46.0961 	 59.8398 	 
H 	 -19.8343 	 45.1214 	 60.6878 	 
C 	 -19.8724 	 47.2871 	 61.0525 	 
H 	 -18.9345 	 47.3002 	 61.6287 	 
H 	 -19.9617 	 48.1637 	 60.3598 	 
C 	 -20.9797 	 47.3958 	 62.1203 	 
H 	 -20.875 	 46.6963 	 62.9811 	 
H 	 -20.951 	 48.3439 	 62.641 	 
H 	 -21.9517 	 47.5083 	 61.7406 	 
S 	 -23.9908 	 43.1503 	 58.0705 	 
C 	 -25.3058 	 42.7863 	 57.0311 	 
C 	 -25.5487 	 43.8208 	 56.2219 	 
C 	 -24.5334 	 44.833 	 56.2609 	 
C 	 -23.5853 	 44.5455 	 57.2154 	 
H 	 -26.4716 	 43.8486 	 55.6769 	 
C 	 -24.5281 	 46.1231 	 55.455 	 
H 	 -23.8681 	 46.8784 	 55.8955 	 
H 	 -25.5176 	 46.5438 	 55.5909 	 
C 	 -24.1281 	 45.8583 	 54.0174 	 
H 	 -24.6738 	 44.9308 	 53.6493 	 
H 	 -23.0798 	 45.663 	 54.1231 	 
C 	 -24.3619 	 47.1174 	 53.1481 	 
H 	 -24.4631 	 46.9674 	 52.0506 	 
H 	 -23.6789 	 47.9399 	 53.4143 	 
H 	 -25.3161 	 47.5504 	 53.6017 	 
H 	 -19.3623 	 47.4197 	 57.6455 	 
H 	 -25.9168 	 41.837 	 57.0336 	 
*
