! wB97X-D3 SP def2-SVP
%pal
nprocs 16
end

* xyz 0 1
S 	 37.1251 	 18.3079 	 47.5987 	 
C 	 36.9379 	 19.7327 	 48.5856 	 
C 	 37.2363 	 19.4714 	 49.9194 	 
C 	 37.5942 	 18.112 	 50.13 	 
C 	 37.6886 	 17.3736 	 48.9354 	 
H 	 37.7562 	 17.6896 	 51.1055 	 
C 	 37.1585 	 20.4522 	 51.0972 	 
H 	 36.2613 	 20.2394 	 51.5718 	 
H 	 37.0658 	 21.4795 	 50.7193 	 
C 	 38.1972 	 20.3345 	 52.1994 	 
H 	 38.2886 	 19.3765 	 52.6116 	 
H 	 39.2217 	 20.519 	 51.9324 	 
C 	 37.7986 	 21.2632 	 53.3501 	 
H 	 36.8408 	 20.8074 	 53.8484 	 
H 	 38.5098 	 21.0812 	 54.1632 	 
H 	 37.6843 	 22.3281 	 53.1177 	 
S 	 37.1473 	 14.9161 	 47.7264 	 
C 	 37.8614 	 13.4941 	 48.5217 	 
C 	 38.8165 	 13.8512 	 49.4527 	 
C 	 38.9908 	 15.2482 	 49.5747 	 
C 	 37.978 	 15.936 	 48.8797 	 
H 	 39.358 	 12.9995 	 49.9183 	 
C 	 40.1348 	 15.8676 	 50.3008 	 
H 	 39.7331 	 16.2568 	 51.2879 	 
H 	 40.353 	 16.8224 	 49.8414 	 
C 	 41.3689 	 14.9706 	 50.5294 	 
H 	 41.1148 	 14.0729 	 51.0424 	 
H 	 42.0915 	 15.546 	 51.124 	 
C 	 42.1569 	 14.6819 	 49.2603 	 
H 	 42.1448 	 15.4993 	 48.5497 	 
H 	 41.4851 	 13.991 	 48.6784 	 
H 	 43.0239 	 14.1794 	 49.3701 	 
H 	 36.6515 	 20.7415 	 48.2531 	 
H 	 37.5747 	 12.512 	 48.2876 	 
*
