! wB97X-D3 SP def2-SVP
%pal
nprocs 16
end

* xyz 0 1
S 	 -106.608 	 39.5508 	 128.311 	 
C 	 -106.144 	 39.5673 	 130.001 	 
C 	 -107.164 	 39.8231 	 130.922 	 
C 	 -108.378 	 39.9664 	 130.241 	 
C 	 -108.245 	 39.8877 	 128.877 	 
H 	 -109.292 	 40.0697 	 130.742 	 
C 	 -106.982 	 40.0582 	 132.35 	 
H 	 -106.548 	 41.0895 	 132.552 	 
H 	 -106.213 	 39.2937 	 132.604 	 
C 	 -108.236 	 39.8685 	 133.164 	 
H 	 -108.082 	 40.079 	 134.197 	 
H 	 -109.033 	 40.5697 	 132.837 	 
C 	 -108.76 	 38.4527 	 133.153 	 
H 	 -108.833 	 37.947 	 132.214 	 
H 	 -108.253 	 37.7436 	 133.835 	 
H 	 -109.813 	 38.5178 	 133.397 	 
S 	 -109.135 	 41.1472 	 126.57 	 
C 	 -110.683 	 40.6154 	 125.855 	 
C 	 -111.254 	 39.6175 	 126.64 	 
C 	 -110.492 	 39.2087 	 127.774 	 
C 	 -109.34 	 39.9634 	 127.881 	 
H 	 -112.18 	 39.2908 	 126.286 	 
C 	 -110.918 	 38.095 	 128.592 	 
H 	 -110.395 	 38.1644 	 129.548 	 
H 	 -110.556 	 37.1377 	 128.242 	 
C 	 -112.424 	 38.1244 	 128.873 	 
H 	 -113.076 	 37.7062 	 128.058 	 
H 	 -112.809 	 39.1321 	 128.922 	 
C 	 -112.793 	 37.2831 	 130.125 	 
H 	 -112.235 	 37.4589 	 131.006 	 
H 	 -112.646 	 36.2141 	 129.939 	 
H 	 -113.82 	 37.3777 	 130.287 	 
H 	 -105.111 	 39.3479 	 130.246 	 
H 	 -111.177 	 41.0834 	 124.995 	 
*
