! wB97X-D3 SP def2-SVP
%pal
nprocs 16
end

* xyz 0 1
S 	 -102.806 	 48.8716 	 119.345 	 
C 	 -104.123 	 47.7933 	 118.724 	 
C 	 -103.98 	 47.6059 	 117.373 	 
C 	 -102.944 	 48.4354 	 116.828 	 
C 	 -102.255 	 49.2018 	 117.719 	 
H 	 -102.682 	 48.5561 	 115.777 	 
C 	 -104.658 	 46.5604 	 116.524 	 
H 	 -103.926 	 46.2011 	 115.777 	 
H 	 -105.426 	 47.0343 	 115.964 	 
C 	 -105.241 	 45.3189 	 117.191 	 
H 	 -104.515 	 44.8112 	 117.832 	 
H 	 -106.011 	 45.6283 	 117.899 	 
C 	 -106.005 	 44.5073 	 116.155 	 
H 	 -106.562 	 43.6621 	 116.647 	 
H 	 -106.919 	 45.1105 	 115.817 	 
H 	 -105.47 	 44.1582 	 115.307 	 
S 	 -99.6869 	 49.44 	 116.973 	 
C 	 -98.8478 	 50.9435 	 117.278 	 
C 	 -99.7645 	 51.928 	 117.549 	 
C 	 -101.145 	 51.4803 	 117.73 	 
C 	 -101.154 	 50.1244 	 117.452 	 
H 	 -99.4283 	 52.9246 	 117.834 	 
C 	 -102.282 	 52.3445 	 118.107 	 
H 	 -101.917 	 53.4043 	 118.125 	 
H 	 -102.582 	 52.0679 	 119.187 	 
C 	 -103.537 	 52.3125 	 117.23 	 
H 	 -104.231 	 52.9526 	 117.805 	 
H 	 -104.039 	 51.2797 	 117.096 	 
C 	 -103.27 	 52.8628 	 115.812 	 
H 	 -102.966 	 53.9686 	 115.885 	 
H 	 -104.141 	 52.6741 	 115.165 	 
H 	 -102.537 	 52.1898 	 115.326 	 
H 	 -104.746 	 47.1539 	 119.418 	 
H 	 -97.7951 	 51.0944 	 117.124 	 
*
