! wB97X-D3 SP def2-SVP
%pal
nprocs 16
end

* xyz 0 1
S 	 -4.03486 	 -14.4534 	 81.538 	 
C 	 -4.02854 	 -14.9137 	 83.1791 	 
C 	 -5.33003 	 -15.0582 	 83.6347 	 
C 	 -6.32845 	 -14.7589 	 82.6378 	 
C 	 -5.7484 	 -14.3486 	 81.4742 	 
H 	 -7.40102 	 -14.6411 	 82.8318 	 
C 	 -5.69461 	 -15.4232 	 85.0794 	 
H 	 -6.03463 	 -14.3816 	 85.3775 	 
H 	 -4.7166 	 -15.6014 	 85.525 	 
C 	 -6.88803 	 -16.4172 	 85.2892 	 
H 	 -7.74619 	 -15.8781 	 84.9964 	 
H 	 -6.82479 	 -17.4202 	 84.7709 	 
C 	 -7.03745 	 -16.6958 	 86.7694 	 
H 	 -6.11403 	 -17.1592 	 87.1516 	 
H 	 -7.18909 	 -15.7824 	 87.2726 	 
H 	 -7.9746 	 -17.2315 	 87.1256 	 
S 	 -5.57873 	 -12.737 	 79.1601 	 
C 	 -7.05385 	 -12.3959 	 78.345 	 
C 	 -8.14627 	 -13.1625 	 78.7807 	 
C 	 -7.78326 	 -13.9803 	 79.914 	 
C 	 -6.48418 	 -13.8536 	 80.3183 	 
H 	 -9.10849 	 -13.1899 	 78.2838 	 
C 	 -8.66535 	 -15.1103 	 80.2397 	 
H 	 -8.0876 	 -15.8598 	 80.7436 	 
H 	 -8.8975 	 -15.62 	 79.3169 	 
C 	 -10.0023 	 -14.8284 	 80.9553 	 
H 	 -10.658 	 -14.2052 	 80.3688 	 
H 	 -9.83659 	 -14.2643 	 81.8397 	 
C 	 -10.7081 	 -16.1303 	 81.2929 	 
H 	 -10.8229 	 -16.6701 	 80.3632 	 
H 	 -11.7263 	 -16.0941 	 81.6927 	 
H 	 -10.1632 	 -16.7353 	 82.0033 	 
H 	 -3.1552 	 -14.9429 	 83.8516 	 
H 	 -6.98523 	 -11.8006 	 77.4018 	 
*
