! wB97X-D3 SP def2-SVP
%pal
nprocs 16
end

* xyz 0 1
S 	 -99.0704 	 42.9793 	 120.053 	 
C 	 -98.814 	 44.149 	 121.279 	 
C 	 -97.515 	 44.6849 	 121.268 	 
C 	 -96.7613 	 43.9828 	 120.287 	 
C 	 -97.4068 	 42.9842 	 119.582 	 
H 	 -95.6989 	 44.1677 	 120.098 	 
C 	 -96.8705 	 45.6824 	 122.173 	 
H 	 -96.0116 	 45.163 	 122.659 	 
H 	 -97.4373 	 45.8491 	 123.092 	 
C 	 -96.5064 	 47.0988 	 121.617 	 
H 	 -97.2013 	 47.33 	 120.851 	 
H 	 -96.6149 	 47.7999 	 122.418 	 
C 	 -95.0132 	 47.267 	 121.017 	 
H 	 -94.9724 	 47.9834 	 120.201 	 
H 	 -94.3008 	 47.6751 	 121.76 	 
H 	 -94.7866 	 46.252 	 120.656 	 
S 	 -96.8902 	 40.5078 	 118.638 	 
C 	 -96.0546 	 40.2084 	 117.122 	 
C 	 -95.606 	 41.476 	 116.665 	 
C 	 -96.0584 	 42.6141 	 117.386 	 
C 	 -96.9048 	 42.2714 	 118.433 	 
H 	 -95.0114 	 41.6488 	 115.723 	 
C 	 -95.8414 	 44.0436 	 116.811 	 
H 	 -96.5214 	 44.767 	 117.294 	 
H 	 -96.0683 	 44.0485 	 115.825 	 
C 	 -94.4168 	 44.742 	 117.165 	 
H 	 -94.3922 	 44.76 	 118.227 	 
H 	 -94.4876 	 45.8194 	 116.837 	 
C 	 -93.2096 	 44.0203 	 116.621 	 
H 	 -93.233 	 44.1415 	 115.612 	 
H 	 -93.2311 	 42.9085 	 116.898 	 
H 	 -92.2415 	 44.4522 	 116.998 	 
H 	 -99.5981 	 44.5469 	 121.976 	 
H 	 -96.1007 	 39.2626 	 116.601 	 
*
