! wB97X-D3 SP def2-SVP
%pal
nprocs 16
end

* xyz 0 1
S 	 -94.4874 	 53.842 	 125.381 	 
C 	 -92.985 	 54.0097 	 126.164 	 
C 	 -92.3739 	 52.8065 	 126.378 	 
C 	 -93.1021 	 51.6919 	 125.767 	 
C 	 -94.2393 	 52.138 	 125.028 	 
H 	 -92.7792 	 50.7223 	 125.668 	 
C 	 -91.0431 	 52.5501 	 127.05 	 
H 	 -90.0956 	 52.73 	 126.592 	 
H 	 -91.0566 	 51.4594 	 127.201 	 
C 	 -90.975 	 53.222 	 128.465 	 
H 	 -90.982 	 54.2586 	 128.214 	 
H 	 -91.8399 	 52.9785 	 129.092 	 
C 	 -89.7781 	 52.8604 	 129.39 	 
H 	 -89.8707 	 53.42 	 130.44 	 
H 	 -89.7154 	 51.7476 	 129.48 	 
H 	 -88.8928 	 53.2702 	 128.969 	 
S 	 -94.6265 	 50.8146 	 122.607 	 
C 	 -96.1627 	 49.929 	 122.372 	 
C 	 -96.9787 	 50.0805 	 123.489 	 
C 	 -96.3712 	 50.7844 	 124.534 	 
C 	 -95.1388 	 51.2613 	 124.233 	 
H 	 -98.0113 	 49.7075 	 123.438 	 
C 	 -97.1425 	 51.2454 	 125.773 	 
H 	 -97.7119 	 52.0946 	 125.371 	 
H 	 -96.5324 	 51.8117 	 126.482 	 
C 	 -98.0523 	 50.2984 	 126.596 	 
H 	 -98.4045 	 50.964 	 127.392 	 
H 	 -97.5921 	 49.3865 	 126.977 	 
C 	 -99.3434 	 49.8346 	 125.84 	 
H 	 -99.6326 	 50.6991 	 125.281 	 
H 	 -100.162 	 49.6236 	 126.46 	 
H 	 -99.1688 	 48.9677 	 125.205 	 
H 	 -92.6726 	 54.9961 	 126.53 	 
H 	 -96.4044 	 49.388 	 121.417 	 
*
