! wB97X-D3 SP def2-SVP
%pal
nprocs 16
end

* xyz 0 1
S 	 -59.4087 	 47.1282 	 135.997 	 
C 	 -57.833 	 47.2638 	 136.648 	 
C 	 -56.8827 	 47.4928 	 135.701 	 
C 	 -57.4192 	 47.734 	 134.404 	 
C 	 -58.7786 	 47.5679 	 134.362 	 
H 	 -56.9234 	 48.038 	 133.516 	 
C 	 -55.4416 	 47.6621 	 136.102 	 
H 	 -55.4457 	 48.383 	 136.956 	 
H 	 -54.899 	 48.1772 	 135.328 	 
C 	 -54.8774 	 46.3281 	 136.55 	 
H 	 -55.4426 	 45.9644 	 137.447 	 
H 	 -54.9772 	 45.5226 	 135.797 	 
C 	 -53.3777 	 46.4223 	 136.893 	 
H 	 -52.8838 	 45.5562 	 137.264 	 
H 	 -52.7055 	 46.7182 	 136.057 	 
H 	 -53.223 	 47.2105 	 137.692 	 
S 	 -60.9288 	 48.7502 	 133.05 	 
C 	 -61.1871 	 48.3422 	 131.401 	 
C 	 -60.3286 	 47.3747 	 130.896 	 
C 	 -59.3451 	 47.0082 	 131.897 	 
C 	 -59.5771 	 47.6457 	 133.16 	 
H 	 -60.3186 	 47.0413 	 129.888 	 
C 	 -58.1706 	 46.0994 	 131.71 	 
H 	 -58.4233 	 45.2716 	 131.098 	 
H 	 -57.8712 	 45.7072 	 132.647 	 
C 	 -57.0585 	 46.7265 	 130.913 	 
H 	 -56.8767 	 47.7175 	 131.358 	 
H 	 -57.4649 	 46.8275 	 129.886 	 
C 	 -55.8059 	 45.7686 	 130.7 	 
H 	 -56.2033 	 44.74 	 130.654 	 
H 	 -55.1514 	 45.6991 	 131.576 	 
H 	 -55.214 	 45.9573 	 129.813 	 
H 	 -57.607 	 46.8892 	 137.594 	 
H 	 -61.7937 	 48.9743 	 130.727 	 
*
