! wB97X-D3 SP def2-SVP
%pal
nprocs 16
end

* xyz 0 1
S 	 -73.1838 	 50.7262 	 138.106 	 
C 	 -72.6529 	 49.8464 	 139.515 	 
C 	 -73.0322 	 48.4998 	 139.444 	 
C 	 -73.7637 	 48.214 	 138.224 	 
C 	 -73.8621 	 49.3077 	 137.385 	 
H 	 -74.2263 	 47.3434 	 137.965 	 
C 	 -72.8174 	 47.4786 	 140.594 	 
H 	 -73.7831 	 47.1587 	 140.978 	 
H 	 -72.2596 	 47.9738 	 141.384 	 
C 	 -72.1957 	 46.1157 	 140.061 	 
H 	 -72.8389 	 45.6952 	 139.327 	 
H 	 -71.1201 	 46.3119 	 139.716 	 
C 	 -72.1512 	 44.9832 	 141.118 	 
H 	 -71.6213 	 44.1106 	 140.832 	 
H 	 -71.713 	 45.3082 	 142.059 	 
H 	 -73.1646 	 44.6713 	 141.335 	 
S 	 -73.7457 	 48.0762 	 134.95 	 
C 	 -74.8971 	 48.5663 	 133.676 	 
C 	 -75.8057 	 49.5159 	 134.124 	 
C 	 -75.5348 	 49.9687 	 135.478 	 
C 	 -74.3972 	 49.328 	 136.003 	 
H 	 -76.5566 	 49.8224 	 133.455 	 
C 	 -76.4026 	 50.9183 	 136.229 	 
H 	 -76.6101 	 50.5773 	 137.236 	 
H 	 -77.329 	 50.9088 	 135.685 	 
C 	 -75.8521 	 52.3625 	 136.228 	 
H 	 -75.9694 	 52.7618 	 135.237 	 
H 	 -74.829 	 52.2981 	 136.578 	 
C 	 -76.718 	 53.2473 	 137.195 	 
H 	 -76.4813 	 54.2956 	 137.053 	 
H 	 -76.4578 	 53.0699 	 138.238 	 
H 	 -77.8484 	 53.138 	 137.074 	 
H 	 -72.0948 	 50.2898 	 140.29 	 
H 	 -75.0903 	 48.0366 	 132.759 	 
*
