! wB97X-D3 SP def2-SVP
%pal
nprocs 16
end

* xyz 0 1
S 	 -32.3865 	 66.7622 	 140.779 	 
C 	 -31.829 	 68.3769 	 140.745 	 
C 	 -32.2582 	 69.192 	 141.787 	 
C 	 -33.1292 	 68.4409 	 142.692 	 
C 	 -33.348 	 67.1649 	 142.2 	 
H 	 -33.4901 	 68.7766 	 143.601 	 
C 	 -31.9933 	 70.7189 	 142.006 	 
H 	 -30.9791 	 71.0115 	 141.934 	 
H 	 -32.347 	 70.9245 	 143.021 	 
C 	 -32.8361 	 71.7611 	 141.174 	 
H 	 -33.8517 	 71.6901 	 141.393 	 
H 	 -32.4985 	 72.7621 	 141.499 	 
C 	 -32.596 	 71.7345 	 139.654 	 
H 	 -31.5701 	 71.765 	 139.388 	 
H 	 -33.1198 	 70.8331 	 139.378 	 
H 	 -33.1754 	 72.4722 	 139.146 	 
S 	 -35.1302 	 65.1642 	 141.627 	 
C 	 -35.9114 	 64.2867 	 142.975 	 
C 	 -35.5434 	 64.7841 	 144.221 	 
C 	 -34.5022 	 65.7575 	 144.142 	 
C 	 -34.2381 	 66.1583 	 142.789 	 
H 	 -35.9947 	 64.3115 	 145.089 	 
C 	 -33.8528 	 66.2694 	 145.377 	 
H 	 -34.3672 	 65.6738 	 146.168 	 
H 	 -34.2402 	 67.2839 	 145.614 	 
C 	 -32.3254 	 65.8973 	 145.563 	 
H 	 -31.8334 	 66.6485 	 144.965 	 
H 	 -32.0948 	 64.8571 	 145.278 	 
C 	 -31.8444 	 66.0785 	 147.015 	 
H 	 -31.2407 	 66.9179 	 147.106 	 
H 	 -31.0887 	 65.3464 	 147.194 	 
H 	 -32.6591 	 66.1641 	 147.743 	 
H 	 -31.1687 	 68.7156 	 139.963 	 
H 	 -36.5512 	 63.382 	 142.868 	 
*
