! wB97X-D3 SP def2-SVP
%pal
nprocs 16
end

* xyz 0 1
S 	 2.73021 	 14.729 	 86.23 	 
C 	 1.61184 	 14.8354 	 84.9062 	 
C 	 0.269623 	 14.6307 	 85.2334 	 
C 	 0.192841 	 14.4779 	 86.6398 	 
C 	 1.36814 	 14.5739 	 87.3252 	 
H 	 -0.719783 	 14.3567 	 87.3109 	 
C 	 -0.869333 	 14.7082 	 84.223 	 
H 	 -1.45482 	 13.8154 	 84.4874 	 
H 	 -0.369082 	 14.5159 	 83.2688 	 
C 	 -1.73257 	 15.9491 	 84.0533 	 
H 	 -1.02793 	 16.7841 	 84.0131 	 
H 	 -2.15965 	 15.852 	 82.9997 	 
C 	 -2.76727 	 16.2533 	 85.2235 	 
H 	 -3.63653 	 15.5368 	 85.2917 	 
H 	 -2.26984 	 16.258 	 86.2356 	 
H 	 -3.19928 	 17.252 	 85.1204 	 
S 	 1.04349 	 16.0692 	 89.6431 	 
C 	 1.49021 	 15.4251 	 91.1679 	 
C 	 1.98779 	 14.1336 	 90.9796 	 
C 	 1.95848 	 13.665 	 89.623 	 
C 	 1.54197 	 14.6182 	 88.7556 	 
H 	 2.3792 	 13.6607 	 91.9002 	 
C 	 2.26971 	 12.1934 	 89.199 	 
H 	 3.34043 	 12.0686 	 89.3246 	 
H 	 2.15545 	 12.1225 	 88.1046 	 
C 	 1.34929 	 11.133 	 89.8744 	 
H 	 1.48015 	 11.2437 	 90.9392 	 
H 	 1.66068 	 10.1639 	 89.5351 	 
C 	 -0.111002 	 11.2741 	 89.5608 	 
H 	 -0.475492 	 12.1841 	 90.0651 	 
H 	 -0.648161 	 10.4235 	 89.8798 	 
H 	 -0.301343 	 11.3084 	 88.4842 	 
H 	 1.95131 	 15.1007 	 83.9379 	 
H 	 1.45905 	 15.8791 	 92.1926 	 
*
