! wB97X-D3 SP def2-SVP
%pal
nprocs 16
end

* xyz 0 1
S 	 -59.538 	 36.6048 	 89.9418 	 
C 	 -59.9035 	 34.798 	 89.9532 	 
C 	 -58.8215 	 34.1231 	 90.5121 	 
C 	 -57.8383 	 35.0447 	 91.02 	 
C 	 -57.9869 	 36.3677 	 90.6593 	 
H 	 -56.9046 	 34.7641 	 91.5367 	 
C 	 -58.6491 	 32.6119 	 90.6078 	 
H 	 -59.5732 	 32.1139 	 90.4539 	 
H 	 -58.4679 	 32.4169 	 91.6724 	 
C 	 -57.635 	 31.9296 	 89.6228 	 
H 	 -56.7047 	 31.8059 	 90.1837 	 
H 	 -57.9677 	 30.9045 	 89.2719 	 
C 	 -57.3092 	 32.744 	 88.329 	 
H 	 -56.8233 	 32.1249 	 87.6253 	 
H 	 -58.1872 	 33.1254 	 87.8682 	 
H 	 -56.7091 	 33.6846 	 88.5443 	 
S 	 -57.422 	 38.7406 	 91.9825 	 
C 	 -55.8091 	 39.4418 	 91.6103 	 
C 	 -55.0153 	 38.6759 	 90.852 	 
C 	 -55.7483 	 37.5148 	 90.4475 	 
C 	 -57.0494 	 37.4532 	 90.8698 	 
H 	 -54.0139 	 39.0429 	 90.6197 	 
C 	 -54.9803 	 36.5309 	 89.5928 	 
H 	 -54.063 	 37.0489 	 89.2624 	 
H 	 -55.6327 	 36.3288 	 88.7433 	 
C 	 -54.3957 	 35.2778 	 90.2306 	 
H 	 -53.61 	 34.8225 	 89.5593 	 
H 	 -55.1362 	 34.4972 	 90.3188 	 
C 	 -53.7532 	 35.5232 	 91.6574 	 
H 	 -54.4735 	 35.8432 	 92.3616 	 
H 	 -52.949 	 36.2689 	 91.5764 	 
H 	 -53.3199 	 34.581 	 92.0313 	 
H 	 -60.6552 	 34.2785 	 89.4866 	 
H 	 -55.445 	 40.2914 	 92.114 	 
*
