! wB97X-D3 SP def2-SVP
%pal
nprocs 16
end

* xyz 0 1
S 	 -32.6395 	 73.8014 	 166.957 	 
C 	 -32.193 	 73.7763 	 165.241 	 
C 	 -33.2378 	 73.1448 	 164.539 	 
C 	 -34.4416 	 73.126 	 165.236 	 
C 	 -34.3228 	 73.3732 	 166.574 	 
H 	 -35.4333 	 72.9329 	 164.837 	 
C 	 -33.2086 	 72.7417 	 163.07 	 
H 	 -32.5356 	 71.9228 	 162.925 	 
H 	 -32.6792 	 73.5276 	 162.575 	 
C 	 -34.516 	 72.3577 	 162.456 	 
H 	 -34.8429 	 71.5065 	 163.072 	 
H 	 -35.2354 	 73.1617 	 162.447 	 
C 	 -34.2929 	 71.9043 	 160.957 	 
H 	 -33.4267 	 72.3394 	 160.513 	 
H 	 -34.2022 	 70.8241 	 160.991 	 
H 	 -35.2109 	 72.0345 	 160.351 	 
S 	 -35.1183 	 74.7947 	 168.739 	 
C 	 -36.4195 	 74.3306 	 169.66 	 
C 	 -37.0209 	 73.1698 	 169.156 	 
C 	 -36.3616 	 72.5986 	 168.062 	 
C 	 -35.2962 	 73.405 	 167.664 	 
H 	 -37.8452 	 72.732 	 169.605 	 
C 	 -36.8229 	 71.2898 	 167.353 	 
H 	 -35.9486 	 70.6804 	 166.988 	 
H 	 -37.4174 	 71.5165 	 166.476 	 
C 	 -37.7213 	 70.2206 	 168.048 	 
H 	 -37.7793 	 69.3877 	 167.382 	 
H 	 -38.744 	 70.6005 	 168.244 	 
C 	 -37.1487 	 69.7899 	 169.378 	 
H 	 -37.9344 	 69.6046 	 170.055 	 
H 	 -36.5512 	 70.4748 	 169.923 	 
H 	 -36.6034 	 68.9285 	 169.148 	 
H 	 -31.1604 	 73.8755 	 164.912 	 
H 	 -36.7183 	 74.7454 	 170.596 	 
*
