! wB97X-D3 SP def2-SVP
%pal
nprocs 16
end

* xyz 0 1
S 	 -67.8429 	 35.0022 	 141.219 	 
C 	 -68.2778 	 33.343 	 140.698 	 
C 	 -67.6822 	 32.9591 	 139.55 	 
C 	 -67.028 	 34.0705 	 138.904 	 
C 	 -67.1568 	 35.2275 	 139.635 	 
H 	 -66.6264 	 34.1352 	 137.943 	 
C 	 -67.9295 	 31.6356 	 138.752 	 
H 	 -67.0307 	 31.2364 	 138.481 	 
H 	 -68.2441 	 31.9816 	 137.749 	 
C 	 -68.9265 	 30.6616 	 139.386 	 
H 	 -69.7592 	 31.1924 	 139.807 	 
H 	 -69.3388 	 30.0634 	 138.586 	 
C 	 -68.3416 	 29.7447 	 140.479 	 
H 	 -69.1177 	 29.1417 	 140.926 	 
H 	 -67.5137 	 29.0899 	 140.027 	 
H 	 -67.8051 	 30.3461 	 141.226 	 
S 	 -65.6931 	 37.5693 	 139.916 	 
C 	 -65.5247 	 38.5934 	 138.596 	 
C 	 -66.582 	 38.4081 	 137.705 	 
C 	 -67.2846 	 37.1958 	 137.99 	 
C 	 -66.833 	 36.5547 	 139.098 	 
H 	 -66.7112 	 39.0956 	 136.899 	 
C 	 -68.3376 	 36.7705 	 136.995 	 
H 	 -68.3672 	 35.6836 	 137.157 	 
H 	 -68.0619 	 37.0572 	 136.012 	 
C 	 -69.7149 	 37.459 	 137.213 	 
H 	 -70.3922 	 37.093 	 136.519 	 
H 	 -69.6972 	 38.5409 	 137.119 	 
C 	 -70.1032 	 37.2354 	 138.65 	 
H 	 -71.0627 	 37.4291 	 138.898 	 
H 	 -69.5018 	 37.8221 	 139.277 	 
H 	 -69.8485 	 36.2051 	 138.987 	 
H 	 -68.8134 	 32.5201 	 141.211 	 
H 	 -64.9313 	 39.4846 	 138.465 	 
*
