! wB97X-D3 SP def2-SVP
%pal
nprocs 16
end

* xyz 0 1
S 	 -111.047 	 54.4447 	 113.031 	 
C 	 -111.338 	 54.4458 	 111.275 	 
C 	 -110.344 	 53.6136 	 110.64 	 
C 	 -109.59 	 52.8944 	 111.615 	 
C 	 -109.912 	 53.0692 	 112.909 	 
H 	 -108.809 	 52.1988 	 111.389 	 
C 	 -110.034 	 53.5055 	 109.156 	 
H 	 -110.621 	 52.7405 	 108.647 	 
H 	 -109.007 	 53.2461 	 108.893 	 
C 	 -110.223 	 54.8006 	 108.355 	 
H 	 -110.143 	 54.424 	 107.369 	 
H 	 -111.275 	 55.1576 	 108.262 	 
C 	 -109.2 	 55.9856 	 108.646 	 
H 	 -109.692 	 56.4962 	 109.524 	 
H 	 -108.26 	 55.5285 	 108.97 	 
H 	 -109.198 	 56.6718 	 107.798 	 
S 	 -108.486 	 53.064 	 115.214 	 
C 	 -108.277 	 51.6349 	 116.127 	 
C 	 -108.857 	 50.5118 	 115.546 	 
C 	 -109.393 	 50.9053 	 114.28 	 
C 	 -109.397 	 52.2933 	 114.031 	 
H 	 -108.766 	 49.5033 	 115.897 	 
C 	 -110.104 	 49.8539 	 113.378 	 
H 	 -109.424 	 49.0573 	 113 	 
H 	 -110.593 	 50.3369 	 112.505 	 
C 	 -111.27 	 49.2961 	 114.165 	 
H 	 -110.815 	 48.7503 	 114.963 	 
H 	 -111.786 	 48.5801 	 113.549 	 
C 	 -112.235 	 50.4483 	 114.739 	 
H 	 -112.58 	 51.1904 	 113.958 	 
H 	 -111.644 	 51.027 	 115.445 	 
H 	 -113.068 	 50.0586 	 115.204 	 
H 	 -111.717 	 55.3055 	 110.8 	 
H 	 -107.683 	 51.5251 	 116.996 	 
*
