! wB97X-D3 SP def2-SVP
%pal
nprocs 16
end

* xyz 0 1
S 	 20.8364 	 31.6778 	 59.2631 	 
C 	 19.7518 	 30.6347 	 60.0158 	 
C 	 18.4696 	 31.1688 	 60.037 	 
C 	 18.4286 	 32.4993 	 59.4749 	 
C 	 19.6109 	 32.8199 	 58.9582 	 
H 	 17.6074 	 33.1199 	 59.3727 	 
C 	 17.1989 	 30.4535 	 60.5799 	 
H 	 17.1979 	 30.7446 	 61.5917 	 
H 	 17.3646 	 29.3462 	 60.7596 	 
C 	 15.9328 	 30.7808 	 59.8276 	 
H 	 15.47 	 31.7543 	 60.1746 	 
H 	 16.166 	 30.7277 	 58.7454 	 
C 	 14.7362 	 29.8001 	 60.0715 	 
H 	 14.9428 	 28.7966 	 59.7783 	 
H 	 14.4447 	 29.7453 	 61.1187 	 
H 	 13.9251 	 30.1621 	 59.4374 	 
S 	 19.8811 	 33.8227 	 56.4369 	 
C 	 20.4455 	 35.4372 	 56.2661 	 
C 	 20.6961 	 36.0733 	 57.4867 	 
C 	 20.3605 	 35.304 	 58.6389 	 
C 	 20.0044 	 33.9665 	 58.2011 	 
H 	 21.1653 	 37.0426 	 57.4934 	 
C 	 20.4423 	 35.8742 	 60.072 	 
H 	 21.0439 	 36.7399 	 60.0413 	 
H 	 21.0506 	 35.1903 	 60.5892 	 
C 	 19.1186 	 36.1105 	 60.7924 	 
H 	 19.2122 	 36.3662 	 61.8469 	 
H 	 18.7283 	 35.1546 	 60.7907 	 
C 	 18.2069 	 37.0986 	 60.0255 	 
H 	 18.6998 	 37.9767 	 60.0503 	 
H 	 17.255 	 37.1398 	 60.4144 	 
H 	 18.2775 	 36.7761 	 58.9483 	 
H 	 20.0532 	 29.716 	 60.4431 	 
H 	 20.3185 	 36.0414 	 55.2906 	 
*
