! wB97X-D3 SP def2-SVP
%pal
nprocs 16
end

* xyz 0 1
S 	 -85.4979 	 54.9828 	 136.298 	 
C 	 -86.0333 	 55.4949 	 137.814 	 
C 	 -85.0156 	 55.3458 	 138.773 	 
C 	 -83.7724 	 54.8458 	 138.247 	 
C 	 -83.9028 	 54.5274 	 136.917 	 
H 	 -82.8944 	 54.7218 	 138.824 	 
C 	 -85.0213 	 55.7243 	 140.262 	 
H 	 -85.333 	 56.7079 	 140.388 	 
H 	 -84.0719 	 55.7741 	 140.796 	 
C 	 -85.9925 	 54.8008 	 140.929 	 
H 	 -87.0329 	 54.8431 	 140.422 	 
H 	 -85.5517 	 53.8 	 140.804 	 
C 	 -86.1008 	 55.1864 	 142.384 	 
H 	 -85.1265 	 55.1469 	 142.839 	 
H 	 -86.4706 	 56.2102 	 142.57 	 
H 	 -86.6642 	 54.5046 	 142.97 	 
S 	 -82.771 	 54.9735 	 134.377 	 
C 	 -81.3896 	 54.0063 	 133.907 	 
C 	 -80.9737 	 53.2174 	 134.987 	 
C 	 -81.7413 	 53.36 	 136.147 	 
C 	 -82.8246 	 54.1716 	 135.923 	 
H 	 -80.0793 	 52.5774 	 134.857 	 
C 	 -81.5083 	 52.5009 	 137.321 	 
H 	 -82.1913 	 51.6329 	 137.173 	 
H 	 -81.8388 	 52.9877 	 138.252 	 
C 	 -80.1252 	 52.0778 	 137.632 	 
H 	 -79.7278 	 51.3233 	 136.946 	 
H 	 -80.2345 	 51.5127 	 138.484 	 
C 	 -78.9845 	 53.0549 	 137.706 	 
H 	 -78.0909 	 52.5298 	 138.043 	 
H 	 -79.2294 	 53.7713 	 138.431 	 
H 	 -78.8105 	 53.6609 	 136.796 	 
H 	 -87.0234 	 55.8758 	 137.952 	 
H 	 -80.9927 	 54.0459 	 132.92 	 
*
