! wB97X-D3 SP def2-SVP
%pal
nprocs 16
end

* xyz 0 1
S 	 -101.367 	 43.1694 	 121.316 	 
C 	 -103.029 	 43.8748 	 121.496 	 
C 	 -102.978 	 45.1852 	 120.986 	 
C 	 -101.706 	 45.5395 	 120.446 	 
C 	 -100.746 	 44.5281 	 120.427 	 
H 	 -101.612 	 46.4611 	 119.897 	 
C 	 -104.175 	 46.1691 	 121.105 	 
H 	 -105.185 	 45.58 	 121.148 	 
H 	 -104.123 	 46.615 	 120.095 	 
C 	 -104.142 	 47.2676 	 122.172 	 
H 	 -104.016 	 46.9166 	 123.145 	 
H 	 -103.282 	 47.9247 	 122.02 	 
C 	 -105.427 	 48.0791 	 122.192 	 
H 	 -106.212 	 47.3887 	 122.413 	 
H 	 -105.468 	 48.8561 	 122.974 	 
H 	 -105.577 	 48.5458 	 121.201 	 
S 	 -98.3575 	 45.8291 	 120.288 	 
C 	 -97.1141 	 45.3252 	 119.236 	 
C 	 -97.5188 	 44.1737 	 118.622 	 
C 	 -98.8498 	 43.6489 	 118.919 	 
C 	 -99.4469 	 44.5193 	 119.879 	 
H 	 -96.8618 	 43.7168 	 117.897 	 
C 	 -99.4225 	 42.3548 	 118.352 	 
H 	 -100.524 	 42.3542 	 118.37 	 
H 	 -99.1339 	 41.5406 	 119.129 	 
C 	 -98.9552 	 41.8915 	 116.938 	 
H 	 -99.008 	 40.7655 	 116.946 	 
H 	 -97.8925 	 42.031 	 116.841 	 
C 	 -99.7796 	 42.5838 	 115.712 	 
H 	 -99.8075 	 43.6158 	 115.809 	 
H 	 -100.849 	 42.2924 	 115.773 	 
H 	 -99.2757 	 42.2497 	 114.822 	 
H 	 -103.833 	 43.4684 	 122.082 	 
H 	 -96.2533 	 45.8126 	 118.942 	 
*
