! wB97X-D3 SP def2-SVP
%pal
nprocs 16
end

* xyz 0 1
S 	 -62.3732 	 52.5679 	 125.53 	 
C 	 -63.8815 	 51.7666 	 125.848 	 
C 	 -63.7467 	 50.799 	 126.779 	 
C 	 -62.403 	 50.7104 	 127.29 	 
C 	 -61.6193 	 51.725 	 126.798 	 
H 	 -62.0451 	 50.0507 	 128.014 	 
C 	 -64.7594 	 49.8203 	 127.214 	 
H 	 -65.6708 	 50.3257 	 126.88 	 
H 	 -64.8391 	 49.7662 	 128.365 	 
C 	 -64.6178 	 48.4294 	 126.577 	 
H 	 -64.3805 	 48.4821 	 125.507 	 
H 	 -63.7423 	 48.0442 	 126.985 	 
C 	 -65.8274 	 47.4842 	 126.705 	 
H 	 -66.7731 	 47.9183 	 126.291 	 
H 	 -65.55 	 46.4381 	 126.405 	 
H 	 -66.1013 	 47.3805 	 127.746 	 
S 	 -59.2884 	 52.0189 	 125.513 	 
C 	 -57.7356 	 52.2009 	 126.24 	 
C 	 -57.8416 	 51.7458 	 127.514 	 
C 	 -59.241 	 51.5693 	 127.959 	 
C 	 -60.1669 	 51.8023 	 126.952 	 
H 	 -57.0141 	 51.5769 	 128.235 	 
C 	 -59.6896 	 51.0715 	 129.314 	 
H 	 -58.8779 	 50.8186 	 130.074 	 
H 	 -60.4187 	 50.2609 	 129.147 	 
C 	 -60.4406 	 52.0961 	 130.153 	 
H 	 -60.7492 	 51.6571 	 131.116 	 
H 	 -61.3557 	 52.4608 	 129.666 	 
C 	 -59.6114 	 53.3391 	 130.564 	 
H 	 -59.2711 	 53.8967 	 129.728 	 
H 	 -58.7862 	 53.1069 	 131.129 	 
H 	 -60.1493 	 54.0212 	 131.181 	 
H 	 -64.7917 	 51.8426 	 125.285 	 
H 	 -56.7785 	 52.2975 	 125.726 	 
*
