! wB97X-D3 SP def2-SVP
%pal
nprocs 16
end

* xyz 0 1
S 	 -66.5701 	 60.7517 	 128.397 	 
C 	 -67.8031 	 61.9674 	 128.709 	 
C 	 -68.7161 	 62.1089 	 127.704 	 
C 	 -68.4061 	 61.143 	 126.683 	 
C 	 -67.2976 	 60.2755 	 126.876 	 
H 	 -69.0144 	 61.0036 	 125.878 	 
C 	 -69.8988 	 63.0333 	 127.777 	 
H 	 -70.2779 	 63.4643 	 126.844 	 
H 	 -69.6022 	 63.9385 	 128.307 	 
C 	 -71.1718 	 62.5617 	 128.557 	 
H 	 -71.8652 	 63.4069 	 128.434 	 
H 	 -71.5437 	 61.7408 	 127.921 	 
C 	 -71.0471 	 61.9621 	 129.899 	 
H 	 -72.037 	 61.8756 	 130.422 	 
H 	 -70.6057 	 60.936 	 129.833 	 
H 	 -70.3622 	 62.4845 	 130.602 	 
S 	 -67.0544 	 57.5908 	 127.234 	 
C 	 -66.3519 	 56.6774 	 125.939 	 
C 	 -66.4232 	 57.3605 	 124.737 	 
C 	 -66.6105 	 58.7398 	 124.907 	 
C 	 -66.973 	 59.0203 	 126.228 	 
H 	 -66.1541 	 56.8862 	 123.862 	 
C 	 -66.6019 	 59.7462 	 123.763 	 
H 	 -65.8453 	 59.4506 	 123.03 	 
H 	 -66.319 	 60.6962 	 124.223 	 
C 	 -67.9753 	 59.9359 	 123.074 	 
H 	 -68.7665 	 60.2111 	 123.762 	 
H 	 -68.1397 	 58.9748 	 122.636 	 
C 	 -67.9423 	 61.0481 	 122.028 	 
H 	 -67.6469 	 61.9992 	 122.482 	 
H 	 -68.8994 	 61.1538 	 121.536 	 
H 	 -67.2134 	 60.7124 	 121.246 	 
H 	 -67.8751 	 62.6394 	 129.605 	 
H 	 -66.2579 	 55.5775 	 125.961 	 
*
