! wB97X-D3 SP def2-SVP
%pal
nprocs 16
end

* xyz 0 1
S 	 -111.401 	 54.0861 	 109.18 	 
C 	 -109.775 	 53.9828 	 108.563 	 
C 	 -108.809 	 53.8989 	 109.537 	 
C 	 -109.414 	 53.8557 	 110.884 	 
C 	 -110.784 	 54.0367 	 110.816 	 
H 	 -108.933 	 53.8568 	 111.903 	 
C 	 -107.326 	 53.7589 	 109.296 	 
H 	 -107.322 	 53.1128 	 108.406 	 
H 	 -106.838 	 53.2466 	 110.112 	 
C 	 -106.472 	 55.0175 	 109.031 	 
H 	 -105.541 	 54.6941 	 108.728 	 
H 	 -106.696 	 55.5041 	 108.099 	 
C 	 -106.406 	 56.1043 	 110.174 	 
H 	 -105.993 	 55.6149 	 111.022 	 
H 	 -105.696 	 56.8851 	 109.941 	 
H 	 -107.409 	 56.4047 	 110.451 	 
S 	 -112.668 	 55.6976 	 111.915 	 
C 	 -113.257 	 55.4593 	 113.552 	 
C 	 -112.904 	 54.2125 	 113.975 	 
C 	 -112.078 	 53.4764 	 113.056 	 
C 	 -111.669 	 54.2543 	 111.982 	 
H 	 -113.146 	 53.8902 	 114.953 	 
C 	 -111.54 	 52.0992 	 113.391 	 
H 	 -110.941 	 52.1972 	 114.304 	 
H 	 -110.843 	 51.7526 	 112.637 	 
C 	 -112.533 	 51.1001 	 113.755 	 
H 	 -112.902 	 51.4484 	 114.762 	 
H 	 -112.032 	 50.0807 	 113.881 	 
C 	 -113.667 	 51.0974 	 112.682 	 
H 	 -113.281 	 50.7528 	 111.704 	 
H 	 -114.276 	 51.9569 	 112.441 	 
H 	 -114.516 	 50.3911 	 112.954 	 
H 	 -109.43 	 54.2888 	 107.584 	 
H 	 -113.858 	 56.1052 	 114.188 	 
*
