! wB97X-D3 SP def2-SVP
%pal
nprocs 16
end

* xyz 0 1
S 	 -31.5881 	 65.5382 	 117.314 	 
C 	 -33.3267 	 65.1732 	 117.34 	 
C 	 -33.8952 	 65.3947 	 116.107 	 
C 	 -32.8722 	 65.5313 	 115.124 	 
C 	 -31.598 	 65.7521 	 115.597 	 
H 	 -33.003 	 65.4789 	 113.997 	 
C 	 -35.3006 	 65.1688 	 115.777 	 
H 	 -35.7599 	 65.9319 	 115.277 	 
H 	 -35.9103 	 64.9667 	 116.698 	 
C 	 -35.5639 	 63.9851 	 114.842 	 
H 	 -36.4729 	 64.1131 	 114.26 	 
H 	 -34.9178 	 63.9001 	 114.001 	 
C 	 -35.5561 	 62.5256 	 115.509 	 
H 	 -34.8234 	 62.3558 	 116.254 	 
H 	 -36.5494 	 62.4197 	 115.981 	 
H 	 -35.5562 	 61.8359 	 114.678 	 
S 	 -28.878 	 65.2508 	 115.225 	 
C 	 -27.9952 	 66.1035 	 113.92 	 
C 	 -28.7407 	 67.0368 	 113.302 	 
C 	 -30.0739 	 67.0901 	 113.853 	 
C 	 -30.3611 	 66.1473 	 114.851 	 
H 	 -28.3014 	 67.603 	 112.53 	 
C 	 -31.0482 	 68.0526 	 113.134 	 
H 	 -30.6841 	 69.0759 	 113.376 	 
H 	 -31.8977 	 67.9956 	 113.752 	 
C 	 -31.3788 	 67.7877 	 111.642 	 
H 	 -31.5365 	 66.7141 	 111.598 	 
H 	 -30.5756 	 68.0185 	 110.998 	 
C 	 -32.6044 	 68.6108 	 111.252 	 
H 	 -32.4342 	 69.6716 	 111.221 	 
H 	 -33.3805 	 68.3873 	 111.964 	 
H 	 -33.1205 	 68.3611 	 110.322 	 
H 	 -33.8727 	 64.9441 	 118.171 	 
H 	 -27.0132 	 65.9069 	 113.622 	 
*
