! wB97X-D3 SP def2-SVP
%pal
nprocs 16
end

* xyz 0 1
S 	 -36.0735 	 74.59 	 153.29 	 
C 	 -34.9189 	 75.8913 	 153.119 	 
C 	 -33.6985 	 75.3756 	 152.648 	 
C 	 -33.7792 	 74.002 	 152.318 	 
C 	 -35.04 	 73.4239 	 152.558 	 
H 	 -32.9483 	 73.3159 	 151.997 	 
C 	 -32.4721 	 76.19 	 152.399 	 
H 	 -31.5528 	 75.643 	 152.817 	 
H 	 -32.5688 	 77.0872 	 152.881 	 
C 	 -32.14 	 76.4299 	 150.928 	 
H 	 -31.8252 	 75.4442 	 150.722 	 
H 	 -32.969 	 76.6906 	 150.307 	 
C 	 -30.9247 	 77.3933 	 150.805 	 
H 	 -30.4446 	 77.3812 	 149.819 	 
H 	 -31.0184 	 78.4881 	 151.043 	 
H 	 -30.179 	 77.0242 	 151.579 	 
S 	 -36.4713 	 71.9384 	 150.784 	 
C 	 -36.6275 	 70.2178 	 150.835 	 
C 	 -35.7618 	 69.7425 	 151.879 	 
C 	 -35.2478 	 70.7827 	 152.667 	 
C 	 -35.5126 	 72.0945 	 152.236 	 
H 	 -35.6183 	 68.6888 	 152.022 	 
C 	 -34.4341 	 70.4516 	 153.861 	 
H 	 -34.8075 	 69.5077 	 154.297 	 
H 	 -34.6344 	 71.2743 	 154.6 	 
C 	 -32.9148 	 70.3275 	 153.649 	 
H 	 -32.6058 	 71.1967 	 153.061 	 
H 	 -32.7513 	 69.4591 	 153.027 	 
C 	 -31.9779 	 70.4037 	 154.905 	 
H 	 -32.274 	 69.654 	 155.608 	 
H 	 -32.0555 	 71.3956 	 155.411 	 
H 	 -30.9365 	 70.2616 	 154.575 	 
H 	 -35.2117 	 76.8766 	 153.349 	 
H 	 -37.1207 	 69.6548 	 150.072 	 
*
