! wB97X-D3 SP def2-SVP
%pal
nprocs 16
end

* xyz 0 1
S 	 19.6724 	 1.75195 	 85.7672 	 
C 	 20.9142 	 1.44359 	 84.6669 	 
C 	 20.8775 	 2.33627 	 83.6072 	 
C 	 19.6663 	 3.12931 	 83.5184 	 
C 	 18.9076 	 2.92709 	 84.6688 	 
H 	 19.3353 	 3.81268 	 82.7782 	 
C 	 21.957 	 2.63995 	 82.6147 	 
H 	 21.4733 	 2.68846 	 81.6467 	 
H 	 22.6831 	 1.79213 	 82.5752 	 
C 	 22.7439 	 3.86864 	 82.9988 	 
H 	 22.0726 	 4.75151 	 83.0348 	 
H 	 23.0684 	 3.82528 	 83.9957 	 
C 	 23.93 	 4.2295 	 81.9908 	 
H 	 24.5274 	 3.31539 	 81.7246 	 
H 	 23.6041 	 4.57383 	 80.9358 	 
H 	 24.5671 	 5.01623 	 82.3943 	 
S 	 16.5205 	 2.28042 	 85.6718 	 
C 	 15.1329 	 3.33726 	 85.5084 	 
C 	 15.4788 	 4.44548 	 84.7384 	 
C 	 16.8889 	 4.50874 	 84.3988 	 
C 	 17.5626 	 3.3977 	 84.8984 	 
H 	 14.715 	 5.18408 	 84.7022 	 
C 	 17.4338 	 5.76553 	 83.7561 	 
H 	 17.0003 	 5.78988 	 82.8208 	 
H 	 18.481 	 5.55832 	 83.57 	 
C 	 17.0637 	 7.11175 	 84.3958 	 
H 	 17.5742 	 7.24941 	 85.3577 	 
H 	 15.9763 	 7.21521 	 84.4203 	 
C 	 17.6264 	 8.22956 	 83.5146 	 
H 	 17.28 	 8.0763 	 82.5677 	 
H 	 18.6629 	 8.19899 	 83.5458 	 
H 	 17.2238 	 9.16753 	 83.7791 	 
H 	 21.9076 	 1.05634 	 84.8966 	 
H 	 14.2181 	 3.144 	 85.9798 	 
*
