! wB97X-D3 SP def2-SVP
%pal
nprocs 16
end

* xyz 0 1
S 	 44.8015 	 21.8975 	 92.467 	 
C 	 45.0068 	 22.8096 	 93.9379 	 
C 	 44.5135 	 24.1392 	 93.8429 	 
C 	 43.9416 	 24.3899 	 92.5505 	 
C 	 43.8854 	 23.2473 	 91.7801 	 
H 	 43.6112 	 25.3525 	 92.179 	 
C 	 44.473 	 25.2436 	 94.8595 	 
H 	 44.2859 	 24.6715 	 95.8209 	 
H 	 43.5603 	 25.7842 	 94.701 	 
C 	 45.5315 	 26.337 	 94.8336 	 
H 	 46.4432 	 25.9541 	 95.3388 	 
H 	 45.7444 	 26.5971 	 93.7625 	 
C 	 45.024 	 27.5703 	 95.5859 	 
H 	 44.0611 	 27.8758 	 95.1859 	 
H 	 44.995 	 27.325 	 96.6503 	 
H 	 45.7196 	 28.4176 	 95.4738 	 
S 	 44.747 	 22.7256 	 89.3035 	 
C 	 43.6095 	 22.6323 	 88.0086 	 
C 	 42.4066 	 23.2127 	 88.4281 	 
C 	 42.4097 	 23.7101 	 89.765 	 
C 	 43.5862 	 23.3611 	 90.4001 	 
H 	 41.6396 	 23.1604 	 87.7059 	 
C 	 41.1363 	 24.2915 	 90.4822 	 
H 	 40.7853 	 25.1069 	 89.8385 	 
H 	 41.3136 	 24.792 	 91.4289 	 
C 	 39.926 	 23.3415 	 90.5706 	 
H 	 39.9557 	 22.4943 	 91.2655 	 
H 	 39.7172 	 23.0323 	 89.5494 	 
C 	 38.5619 	 23.8983 	 91.0068 	 
H 	 37.7719 	 23.1503 	 90.9268 	 
H 	 38.2531 	 24.5998 	 90.211 	 
H 	 38.5605 	 24.3009 	 91.9804 	 
H 	 45.4028 	 22.3386 	 94.8264 	 
H 	 43.7642 	 22.1693 	 87.0402 	 
*
