! wB97X-D3 SP def2-SVP
%pal
nprocs 16
end

* xyz 0 1
S 	 -54.4582 	 30.9906 	 100.135 	 
C 	 -54.7964 	 29.1796 	 100.173 	 
C 	 -53.6981 	 28.5239 	 99.7144 	 
C 	 -52.6466 	 29.3663 	 99.3056 	 
C 	 -52.8297 	 30.7008 	 99.6081 	 
H 	 -51.7047 	 28.9897 	 99.0156 	 
C 	 -53.6377 	 27.0215 	 99.7058 	 
H 	 -53.9251 	 26.6516 	 100.62 	 
H 	 -52.5969 	 26.6025 	 99.6279 	 
C 	 -54.6279 	 26.2864 	 98.6116 	 
H 	 -55.5777 	 26.7173 	 98.8516 	 
H 	 -54.4603 	 26.5885 	 97.6053 	 
C 	 -54.7391 	 24.7186 	 98.8237 	 
H 	 -53.8623 	 24.101 	 98.7996 	 
H 	 -55.3458 	 24.3963 	 99.6569 	 
H 	 -55.3446 	 24.3299 	 97.936 	 
S 	 -52.305 	 33.1972 	 100.485 	 
C 	 -50.8913 	 34.0758 	 100.065 	 
C 	 -50.122 	 33.3411 	 99.1906 	 
C 	 -50.6086 	 32.0185 	 98.9317 	 
C 	 -51.8179 	 31.7768 	 99.5652 	 
H 	 -49.2054 	 33.7834 	 98.7691 	 
C 	 -49.8293 	 31.0242 	 98.0622 	 
H 	 -49.2992 	 31.5035 	 97.3188 	 
H 	 -50.4308 	 30.3498 	 97.4302 	 
C 	 -48.8477 	 30.1619 	 98.843 	 
H 	 -49.4278 	 29.6224 	 99.6006 	 
H 	 -48.089 	 30.8375 	 99.1847 	 
C 	 -48.0863 	 29.0072 	 98.0508 	 
H 	 -47.2064 	 29.3181 	 97.5163 	 
H 	 -48.6876 	 28.4284 	 97.3333 	 
H 	 -47.7258 	 28.2295 	 98.7274 	 
H 	 -55.5162 	 28.6267 	 100.734 	 
H 	 -50.6211 	 35.1453 	 100.256 	 
*
