! wB97X-D3 SP def2-SVP
%pal
nprocs 16
end

* xyz 0 1
S 	 -5.47779 	 65.2967 	 53.1799 	 
C 	 -6.6593 	 64.2266 	 52.49 	 
C 	 -7.8879 	 64.2923 	 53.0869 	 
C 	 -7.78436 	 65.1047 	 54.1915 	 
C 	 -6.6347 	 65.845 	 54.33 	 
H 	 -8.5629 	 65.1428 	 55.0052 	 
C 	 -9.05932 	 63.4725 	 52.7004 	 
H 	 -8.90066 	 62.3569 	 52.63 	 
H 	 -9.21647 	 63.7396 	 51.68 	 
C 	 -10.2572 	 63.407 	 53.5941 	 
H 	 -9.89292 	 62.9974 	 54.5488 	 
H 	 -10.659 	 64.4036 	 53.8541 	 
C 	 -11.4073 	 62.5934 	 53.003 	 
H 	 -11.1576 	 61.5421 	 52.8361 	 
H 	 -12.3497 	 62.4956 	 53.563 	 
H 	 -11.7035 	 63.0669 	 52.0957 	 
S 	 -4.60833 	 67.2229 	 55.6972 	 
C 	 -4.99064 	 68.1233 	 57.1325 	 
C 	 -6.33047 	 68.3037 	 57.2031 	 
C 	 -7.06734 	 67.6485 	 56.136 	 
C 	 -6.32317 	 66.8184 	 55.3443 	 
H 	 -6.80628 	 68.9842 	 57.8872 	 
C 	 -8.54895 	 68.0181 	 55.8457 	 
H 	 -9.02568 	 67.4897 	 56.6913 	 
H 	 -8.79625 	 67.621 	 54.8959 	 
C 	 -8.81672 	 69.4817 	 55.89 	 
H 	 -8.02477 	 69.9518 	 55.3029 	 
H 	 -8.64029 	 69.8183 	 56.858 	 
C 	 -10.304 	 69.838 	 55.3973 	 
H 	 -10.4494 	 69.7673 	 54.4361 	 
H 	 -10.6545 	 70.7261 	 55.875 	 
H 	 -10.9603 	 69.0042 	 55.7843 	 
H 	 -6.41644 	 63.5549 	 51.7499 	 
H 	 -4.33732 	 68.6626 	 57.8449 	 
*
