! wB97X-D3 SP def2-SVP
%pal
nprocs 16
end

* xyz 0 1
S 	 34.974 	 0.958748 	 68.7434 	 
C 	 35.7039 	 2.51091 	 68.916 	 
C 	 34.9599 	 3.4333 	 69.5896 	 
C 	 33.8719 	 2.77713 	 70.2584 	 
C 	 33.7833 	 1.4478 	 69.945 	 
H 	 33.2137 	 3.18976 	 71.0003 	 
C 	 35.3074 	 4.83362 	 69.8773 	 
H 	 35.7436 	 5.12579 	 68.9576 	 
H 	 36.0963 	 4.91479 	 70.6351 	 
C 	 34.1532 	 5.80163 	 70.2012 	 
H 	 33.7086 	 5.4021 	 71.1174 	 
H 	 34.5912 	 6.80307 	 70.323 	 
C 	 32.9017 	 5.89105 	 69.2677 	 
H 	 32.2312 	 5.00982 	 69.3437 	 
H 	 32.233 	 6.68717 	 69.5984 	 
H 	 33.3585 	 5.99641 	 68.2926 	 
S 	 31.3486 	 0.0445996 	 69.4887 	 
C 	 30.665 	 -0.922137 	 70.7861 	 
C 	 31.3541 	 -0.727805 	 71.9665 	 
C 	 32.491 	 0.164038 	 71.8152 	 
C 	 32.7392 	 0.593649 	 70.5448 	 
H 	 31.054 	 -1.18216 	 72.8715 	 
C 	 33.3081 	 0.578122 	 73.0038 	 
H 	 34.3316 	 0.812583 	 72.7307 	 
H 	 33.4825 	 -0.356552 	 73.5528 	 
C 	 32.7648 	 1.73136 	 73.9 	 
H 	 31.77 	 1.36461 	 74.2561 	 
H 	 32.5766 	 2.64601 	 73.269 	 
C 	 33.7009 	 2.11502 	 75.073 	 
H 	 34.6324 	 2.5315 	 74.7005 	 
H 	 33.9514 	 1.13825 	 75.5119 	 
H 	 33.4902 	 2.7642 	 75.9237 	 
H 	 36.5406 	 2.7723 	 68.2908 	 
H 	 29.7856 	 -1.61703 	 70.8391 	 
*
