! wB97X-D3 SP def2-SVP
%pal
nprocs 16
end

* xyz 0 1
S 	 -56.5127 	 54.0755 	 137.635 	 
C 	 -55.0247 	 54.1485 	 136.757 	 
C 	 -54.9024 	 53.0771 	 135.925 	 
C 	 -56.052 	 52.3273 	 135.786 	 
C 	 -57.035 	 52.6374 	 136.701 	 
H 	 -56.1165 	 51.4694 	 135.099 	 
C 	 -53.7172 	 52.9441 	 135.003 	 
H 	 -53.2741 	 51.9349 	 135.223 	 
H 	 -52.9752 	 53.7365 	 135.28 	 
C 	 -53.9972 	 53.1663 	 133.497 	 
H 	 -54.9986 	 52.7919 	 133.295 	 
H 	 -53.9792 	 54.2511 	 133.309 	 
C 	 -52.9412 	 52.6452 	 132.519 	 
H 	 -52.6989 	 51.5887 	 132.704 	 
H 	 -53.3647 	 52.7736 	 131.556 	 
H 	 -52.0162 	 53.201 	 132.709 	 
S 	 -59.0938 	 51.3507 	 135.414 	 
C 	 -60.5888 	 51.1466 	 136.246 	 
C 	 -60.4603 	 51.3387 	 137.615 	 
C 	 -59.2089 	 51.8924 	 137.967 	 
C 	 -58.3886 	 52.0561 	 136.831 	 
H 	 -61.1723 	 51.1917 	 138.379 	 
C 	 -58.6665 	 52.1207 	 139.383 	 
H 	 -59.5508 	 52.0205 	 139.991 	 
H 	 -58.3464 	 53.1852 	 139.404 	 
C 	 -57.6823 	 51.0104 	 139.966 	 
H 	 -56.7078 	 51.0568 	 139.553 	 
H 	 -58.0328 	 50.0121 	 139.552 	 
C 	 -57.4705 	 51.0656 	 141.508 	 
H 	 -57.339 	 52.1075 	 141.756 	 
H 	 -56.6143 	 50.5624 	 141.878 	 
H 	 -58.4181 	 50.794 	 141.949 	 
H 	 -54.0656 	 54.6529 	 136.913 	 
H 	 -61.3924 	 50.589 	 135.815 	 
*
