! wB97X-D3 SP def2-SVP
%pal
nprocs 16
end

* xyz 0 1
S 	 -13.1756 	 32.5348 	 33.8297 	 
C 	 -12.2639 	 32.7478 	 32.3475 	 
C 	 -12.9212 	 33.6046 	 31.4699 	 
C 	 -14.1942 	 34.0382 	 31.999 	 
C 	 -14.4632 	 33.6389 	 33.3032 	 
H 	 -14.9831 	 34.6988 	 31.5232 	 
C 	 -12.4003 	 34.0624 	 30.1178 	 
H 	 -12.916 	 33.5144 	 29.2641 	 
H 	 -11.4416 	 33.5859 	 30.2766 	 
C 	 -12.2401 	 35.5433 	 29.8475 	 
H 	 -13.1027 	 35.8198 	 29.2402 	 
H 	 -12.1757 	 36.0214 	 30.8068 	 
C 	 -11.0398 	 35.8226 	 28.9561 	 
H 	 -11.1875 	 36.6293 	 28.2312 	 
H 	 -10.1565 	 36.0517 	 29.5092 	 
H 	 -10.8448 	 34.9945 	 28.2936 	 
S 	 -15.1901 	 34.6191 	 35.6892 	 
C 	 -16.7922 	 35.086 	 36.0085 	 
C 	 -17.6725 	 34.7584 	 34.975 	 
C 	 -16.9552 	 34.191 	 33.9159 	 
C 	 -15.6084 	 34.0976 	 34.116 	 
H 	 -18.7161 	 34.9895 	 35.1169 	 
C 	 -17.6252 	 33.8016 	 32.6364 	 
H 	 -18.548 	 33.2788 	 32.8235 	 
H 	 -16.9828 	 33.0602 	 32.1255 	 
C 	 -17.8797 	 35.0065 	 31.7687 	 
H 	 -16.9679 	 35.6089 	 31.6578 	 
H 	 -18.5656 	 35.6114 	 32.3355 	 
C 	 -18.5335 	 34.8199 	 30.4292 	 
H 	 -19.5895 	 34.5004 	 30.625 	 
H 	 -18.0954 	 33.9498 	 29.9136 	 
H 	 -18.3333 	 35.5672 	 29.7034 	 
H 	 -11.2595 	 32.2898 	 32.186 	 
H 	 -17.1691 	 35.7088 	 36.8099 	 
*
