! wB97X-D3 SP def2-SVP
%pal
nprocs 16
end

* xyz 0 1
S 	 59.2676 	 -5.12585 	 87.9187 	 
C 	 58.8059 	 -3.63094 	 88.673 	 
C 	 58.0473 	 -2.78038 	 87.8845 	 
C 	 57.7337 	 -3.37703 	 86.6142 	 
C 	 58.1597 	 -4.67585 	 86.5543 	 
H 	 57.0935 	 -2.84573 	 85.8882 	 
C 	 57.6923 	 -1.30552 	 88.1502 	 
H 	 57.446 	 -1.34118 	 89.1609 	 
H 	 56.7003 	 -0.956986 	 87.7173 	 
C 	 58.75 	 -0.153385 	 88.0161 	 
H 	 58.1809 	 0.753951 	 88.0127 	 
H 	 59.3901 	 -0.0159123 	 88.8828 	 
C 	 59.6846 	 -0.345478 	 86.767 	 
H 	 60.3189 	 -1.21274 	 86.8819 	 
H 	 59.176 	 -0.448387 	 85.8457 	 
H 	 60.286 	 0.523716 	 86.7064 	 
S 	 57.6746 	 -7.17222 	 85.5339 	 
C 	 57.8827 	 -7.44972 	 83.8874 	 
C 	 58.1616 	 -6.30847 	 83.2197 	 
C 	 58.2026 	 -5.1494 	 84.0351 	 
C 	 58.0777 	 -5.51557 	 85.3593 	 
H 	 58.2135 	 -6.23394 	 82.1525 	 
C 	 58.5946 	 -3.85755 	 83.4075 	 
H 	 58.08 	 -3.09228 	 83.9557 	 
H 	 58.2524 	 -3.85233 	 82.3897 	 
C 	 60.1264 	 -3.58712 	 83.52 	 
H 	 60.6552 	 -4.41757 	 83.0015 	 
H 	 60.3517 	 -3.64117 	 84.5637 	 
C 	 60.4675 	 -2.31208 	 82.9693 	 
H 	 59.9917 	 -1.45661 	 83.4147 	 
H 	 60.1324 	 -2.2877 	 81.8972 	 
H 	 61.575 	 -2.0747 	 82.9783 	 
H 	 59.2941 	 -3.19414 	 89.5612 	 
H 	 57.6696 	 -8.36865 	 83.3663 	 
*
