! wB97X-D3 SP def2-SVP
%pal
nprocs 16
end

* xyz 0 1
S 	 -91.6361 	 41.9611 	 118.682 	 
C 	 -91.6435 	 40.215 	 118.717 	 
C 	 -90.5864 	 39.669 	 118.08 	 
C 	 -89.809 	 40.663 	 117.434 	 
C 	 -90.2638 	 41.9661 	 117.538 	 
H 	 -88.9622 	 40.4062 	 116.768 	 
C 	 -90.2547 	 38.1873 	 118.009 	 
H 	 -90.1336 	 37.9546 	 116.917 	 
H 	 -91.133 	 37.5898 	 118.325 	 
C 	 -88.9732 	 37.7148 	 118.659 	 
H 	 -88.1521 	 38.1528 	 118.187 	 
H 	 -88.8966 	 38.1313 	 119.662 	 
C 	 -88.9099 	 36.1357 	 118.658 	 
H 	 -88.2451 	 35.7954 	 119.46 	 
H 	 -89.8608 	 35.6107 	 118.957 	 
H 	 -88.5048 	 35.705 	 117.709 	 
S 	 -91.1968 	 44.0604 	 116.107 	 
C 	 -90.0598 	 45.209 	 115.388 	 
C 	 -88.7687 	 44.7945 	 115.613 	 
C 	 -88.671 	 43.6227 	 116.436 	 
C 	 -89.9168 	 43.2047 	 116.913 	 
H 	 -87.9278 	 45.3158 	 115.208 	 
C 	 -87.2749 	 42.9779 	 116.64 	 
H 	 -86.8606 	 42.6502 	 115.735 	 
H 	 -87.46 	 42.0311 	 117.257 	 
C 	 -86.286 	 43.8971 	 117.459 	 
H 	 -86.6966 	 44.1235 	 118.388 	 
H 	 -86.0219 	 44.7993 	 116.929 	 
C 	 -84.9834 	 43.0957 	 117.717 	 
H 	 -84.2122 	 43.7225 	 118.217 	 
H 	 -84.4987 	 42.8241 	 116.799 	 
H 	 -85.1025 	 42.2467 	 118.334 	 
H 	 -92.3535 	 39.6196 	 119.234 	 
H 	 -90.3952 	 46.0401 	 114.791 	 
*
