! wB97X-D3 SP def2-SVP
%pal
nprocs 16
end

* xyz 0 1
S 	 -106.411 	 56.7166 	 121.689 	 
C 	 -105.355 	 58.0234 	 121.168 	 
C 	 -104.833 	 57.7675 	 119.887 	 
C 	 -105.274 	 56.5074 	 119.365 	 
C 	 -106.289 	 55.9291 	 120.036 	 
H 	 -104.999 	 56.0667 	 118.477 	 
C 	 -103.867 	 58.6493 	 119.117 	 
H 	 -103.305 	 58.1114 	 118.364 	 
H 	 -103.154 	 58.8886 	 119.807 	 
C 	 -104.592 	 59.835 	 118.433 	 
H 	 -103.927 	 60.2608 	 117.713 	 
H 	 -105.366 	 59.502 	 117.769 	 
C 	 -105.072 	 60.922 	 119.358 	 
H 	 -105.288 	 61.8696 	 118.783 	 
H 	 -105.938 	 60.7155 	 119.974 	 
H 	 -104.204 	 61.0813 	 120.007 	 
S 	 -107.093 	 53.3853 	 120.951 	 
C 	 -107.959 	 52.3414 	 119.915 	 
C 	 -108.072 	 52.8849 	 118.61 	 
C 	 -107.519 	 54.2386 	 118.506 	 
C 	 -106.989 	 54.6876 	 119.704 	 
H 	 -108.495 	 52.3215 	 117.817 	 
C 	 -107.545 	 54.7934 	 117.102 	 
H 	 -107.326 	 55.8221 	 117.15 	 
H 	 -108.567 	 54.811 	 116.668 	 
C 	 -106.565 	 54.1693 	 116.18 	 
H 	 -106.733 	 53.1157 	 116.111 	 
H 	 -105.561 	 54.3048 	 116.561 	 
C 	 -106.4 	 55.0036 	 114.903 	 
H 	 -105.79 	 54.5384 	 114.106 	 
H 	 -106.261 	 56.0852 	 115.031 	 
H 	 -107.416 	 54.9719 	 114.448 	 
H 	 -105.046 	 58.7952 	 121.828 	 
H 	 -108.244 	 51.3457 	 120.19 	 
*
