! wB97X-D3 SP def2-SVP
%pal
nprocs 16
end

* xyz 0 1
S 	 -72.9187 	 34.6332 	 114.941 	 
C 	 -73.6213 	 35.0688 	 116.53 	 
C 	 -72.6463 	 35.0855 	 117.494 	 
C 	 -71.3247 	 35.0061 	 116.894 	 
C 	 -71.3132 	 34.8474 	 115.554 	 
H 	 -70.3791 	 34.7229 	 117.318 	 
C 	 -72.8395 	 35.2093 	 118.944 	 
H 	 -73.8739 	 35.4788 	 119.064 	 
H 	 -72.3271 	 36.1566 	 119.274 	 
C 	 -72.3541 	 34.0438 	 119.832 	 
H 	 -72.9988 	 33.1243 	 119.704 	 
H 	 -71.3388 	 33.8043 	 119.373 	 
C 	 -72.1979 	 34.5411 	 121.302 	 
H 	 -71.3632 	 35.2124 	 121.373 	 
H 	 -73.047 	 35.1802 	 121.61 	 
H 	 -72.1589 	 33.702 	 122.013 	 
S 	 -70.1206 	 33.2213 	 113.811 	 
C 	 -68.5172 	 33.5868 	 113.198 	 
C 	 -67.9162 	 34.5808 	 113.861 	 
C 	 -68.7683 	 35.1877 	 114.853 	 
C 	 -70.0668 	 34.5651 	 114.84 	 
H 	 -67.0068 	 35.0381 	 113.431 	 
C 	 -68.4662 	 36.5117 	 115.412 	 
H 	 -67.3554 	 36.6897 	 115.266 	 
H 	 -68.5967 	 36.4961 	 116.507 	 
C 	 -69.0555 	 37.7219 	 114.768 	 
H 	 -70.1864 	 37.8137 	 114.87 	 
H 	 -68.786 	 37.6414 	 113.732 	 
C 	 -68.5322 	 39.0247 	 115.401 	 
H 	 -68.7897 	 39.887 	 114.744 	 
H 	 -67.5467 	 39.0809 	 115.388 	 
H 	 -68.8864 	 39.2288 	 116.375 	 
H 	 -74.6898 	 35.2017 	 116.786 	 
H 	 -68.1865 	 33.1484 	 112.27 	 
*
