! wB97X-D3 SP def2-SVP
%pal
nprocs 16
end

* xyz 0 1
S 	 -45.4332 	 52.9155 	 106.592 	 
C 	 -44.2172 	 53.0733 	 105.3 	 
C 	 -43.7516 	 54.4139 	 105.149 	 
C 	 -44.344 	 55.1943 	 106.155 	 
C 	 -45.2624 	 54.6059 	 107.007 	 
H 	 -44.1278 	 56.2816 	 106.174 	 
C 	 -42.756 	 54.8912 	 104.138 	 
H 	 -42.621 	 54.0241 	 103.524 	 
H 	 -41.8247 	 55.1699 	 104.664 	 
C 	 -43.1076 	 56.1606 	 103.187 	 
H 	 -43.411 	 56.9834 	 103.794 	 
H 	 -42.1801 	 56.3736 	 102.627 	 
C 	 -44.2631 	 55.9075 	 102.145 	 
H 	 -45.2886 	 55.6993 	 102.606 	 
H 	 -44.3589 	 56.8197 	 101.503 	 
H 	 -44.0465 	 55.1148 	 101.464 	 
S 	 -46.3954 	 54.3777 	 109.508 	 
C 	 -47.6041 	 55.4363 	 110.148 	 
C 	 -47.7219 	 56.4853 	 109.243 	 
C 	 -46.8431 	 56.4928 	 108.084 	 
C 	 -46.1888 	 55.253 	 108.003 	 
H 	 -48.4656 	 57.2795 	 109.511 	 
C 	 -46.7034 	 57.5822 	 107.045 	 
H 	 -45.7041 	 57.5938 	 106.702 	 
H 	 -46.809 	 58.6386 	 107.353 	 
C 	 -47.5977 	 57.3962 	 105.824 	 
H 	 -47.5909 	 56.376 	 105.434 	 
H 	 -47.2018 	 58.0254 	 105.06 	 
C 	 -49.0849 	 57.8677 	 106.052 	 
H 	 -49.6998 	 57.8238 	 105.21 	 
H 	 -49.0791 	 58.884 	 106.435 	 
H 	 -49.5213 	 57.1166 	 106.634 	 
H 	 -43.9591 	 52.2469 	 104.627 	 
H 	 -48.0676 	 55.3291 	 111.155 	 
*
