! wB97X-D3 SP def2-SVP
%pal
nprocs 16
end

* xyz 0 1
S 	 39.3414 	 24.6823 	 93.9635 	 
C 	 40.2634 	 26.2093 	 93.8127 	 
C 	 41.6331 	 25.8745 	 93.6036 	 
C 	 41.8493 	 24.423 	 93.5578 	 
C 	 40.7116 	 23.6383 	 93.7223 	 
H 	 42.7489 	 23.9303 	 93.3703 	 
C 	 42.7826 	 26.8654 	 93.4067 	 
H 	 42.3419 	 27.7988 	 93.4885 	 
H 	 43.1783 	 26.7347 	 92.3521 	 
C 	 43.9814 	 26.7846 	 94.3845 	 
H 	 44.4347 	 25.7693 	 94.4151 	 
H 	 44.6957 	 27.5557 	 94.0153 	 
C 	 43.5869 	 27.1513 	 95.7696 	 
H 	 44.5099 	 27.2662 	 96.3562 	 
H 	 42.9749 	 28.1666 	 95.7565 	 
H 	 43.0483 	 26.3178 	 96.2546 	 
S 	 40.1487 	 21.525 	 95.4267 	 
C 	 40.3152 	 19.8807 	 94.8096 	 
C 	 40.6843 	 19.859 	 93.5049 	 
C 	 41.0465 	 21.1759 	 92.9621 	 
C 	 40.6969 	 22.1842 	 93.8534 	 
H 	 40.6629 	 18.9489 	 92.988 	 
C 	 41.4871 	 21.366 	 91.5328 	 
H 	 42.1176 	 22.2534 	 91.3523 	 
H 	 40.5777 	 21.4119 	 90.9928 	 
C 	 42.2878 	 20.1809 	 90.9655 	 
H 	 41.663 	 19.3212 	 90.922 	 
H 	 43.1613 	 19.7693 	 91.451 	 
C 	 42.6031 	 20.4845 	 89.4951 	 
H 	 42.9445 	 19.5251 	 89.1196 	 
H 	 43.2684 	 21.3485 	 89.3375 	 
H 	 41.6604 	 20.7139 	 88.9859 	 
H 	 39.7669 	 27.1285 	 94.0029 	 
H 	 40.2247 	 19.047 	 95.3885 	 
*
