! wB97X-D3 SP def2-SVP
%pal
nprocs 16
end

* xyz 0 1
S 	 -79.0902 	 44.1994 	 140.914 	 
C 	 -79.4899 	 42.4696 	 141.091 	 
C 	 -79.6833 	 41.8851 	 139.796 	 
C 	 -79.4182 	 42.8202 	 138.766 	 
C 	 -79.0954 	 44.1052 	 139.187 	 
H 	 -79.437 	 42.5479 	 137.755 	 
C 	 -79.8864 	 40.4013 	 139.441 	 
H 	 -79.8803 	 40.1669 	 138.405 	 
H 	 -80.8909 	 40.1148 	 139.787 	 
C 	 -78.7971 	 39.4355 	 139.969 	 
H 	 -78.8174 	 39.4981 	 141.026 	 
H 	 -78.9701 	 38.4068 	 139.834 	 
C 	 -77.3614 	 39.759 	 139.505 	 
H 	 -77.3279 	 39.7018 	 138.401 	 
H 	 -76.9076 	 40.7374 	 139.69 	 
H 	 -76.6264 	 39.0594 	 139.893 	 
S 	 -79.8976 	 46.6738 	 138.506 	 
C 	 -79.0061 	 47.5054 	 137.259 	 
C 	 -78.0852 	 46.7273 	 136.658 	 
C 	 -77.9766 	 45.3761 	 137.247 	 
C 	 -78.7613 	 45.2817 	 138.385 	 
H 	 -77.4611 	 47.1031 	 135.898 	 
C 	 -77.0263 	 44.24 	 136.745 	 
H 	 -76.8791 	 43.2751 	 137.355 	 
H 	 -76.0879 	 44.8351 	 136.93 	 
C 	 -77.3411 	 43.9131 	 135.253 	 
H 	 -78.3751 	 43.6134 	 135.027 	 
H 	 -76.8707 	 43.0798 	 134.913 	 
C 	 -76.8399 	 44.9193 	 134.17 	 
H 	 -76.8209 	 44.4478 	 133.192 	 
H 	 -75.9539 	 45.4352 	 134.372 	 
H 	 -77.634 	 45.737 	 134.095 	 
H 	 -79.6046 	 41.9514 	 141.97 	 
H 	 -79.2453 	 48.4618 	 137.095 	 
*
