! wB97X-D3 SP def2-SVP
%pal
nprocs 16
end

* xyz 0 1
S 	 8.44668 	 -26.6185 	 83.516 	 
C 	 7.32956 	 -27.2463 	 84.681 	 
C 	 6.56618 	 -26.1919 	 85.2445 	 
C 	 6.75192 	 -24.9553 	 84.6038 	 
C 	 7.72918 	 -24.9817 	 83.6209 	 
H 	 6.19795 	 -24.087 	 84.7166 	 
C 	 5.54971 	 -26.2584 	 86.3736 	 
H 	 4.76624 	 -26.8739 	 85.8869 	 
H 	 5.04068 	 -25.3439 	 86.6827 	 
C 	 6.16254 	 -26.8661 	 87.5406 	 
H 	 6.81766 	 -27.7412 	 87.2962 	 
H 	 6.86029 	 -26.0749 	 87.9327 	 
C 	 5.1266 	 -27.1511 	 88.6282 	 
H 	 4.46278 	 -28.0704 	 88.4717 	 
H 	 5.70568 	 -27.2878 	 89.5324 	 
H 	 4.41841 	 -26.3091 	 88.7755 	 
S 	 9.58342 	 -24.2122 	 81.6633 	 
C 	 9.54053 	 -22.5394 	 81.1763 	 
C 	 8.46453 	 -21.8363 	 81.7067 	 
C 	 7.68823 	 -22.639 	 82.5448 	 
C 	 8.14675 	 -23.8648 	 82.7716 	 
H 	 8.28009 	 -20.849 	 81.3308 	 
C 	 6.33225 	 -22.1372 	 82.9775 	 
H 	 6.33108 	 -21.1037 	 82.6494 	 
H 	 6.3326 	 -22.0757 	 84.0546 	 
C 	 5.05293 	 -22.6718 	 82.4254 	 
H 	 4.26758 	 -22.1318 	 82.9584 	 
H 	 4.94979 	 -23.639 	 82.7689 	 
C 	 4.9014 	 -22.5897 	 80.8499 	 
H 	 5.66756 	 -23.1767 	 80.3157 	 
H 	 4.88818 	 -21.591 	 80.489 	 
H 	 3.97681 	 -23.1138 	 80.558 	 
H 	 7.3135 	 -28.2942 	 84.9356 	 
H 	 10.3726 	 -22.1296 	 80.6282 	 
*
