! wB97X-D3 SP def2-SVP
%pal
nprocs 16
end

* xyz 0 1
S 	 -29.1982 	 62.8592 	 108.373 	 
C 	 -28.5372 	 63.9034 	 107.004 	 
C 	 -29.537 	 64.0994 	 106.051 	 
C 	 -30.8614 	 63.5971 	 106.508 	 
C 	 -30.8533 	 62.9095 	 107.691 	 
H 	 -31.8235 	 63.6247 	 105.922 	 
C 	 -29.277 	 64.5854 	 104.655 	 
H 	 -28.5275 	 65.4043 	 104.68 	 
H 	 -30.2174 	 64.9925 	 104.221 	 
C 	 -28.7236 	 63.4889 	 103.781 	 
H 	 -27.7867 	 63.1795 	 104.375 	 
H 	 -29.3366 	 62.5811 	 103.893 	 
C 	 -28.2972 	 63.7863 	 102.334 	 
H 	 -29.1829 	 63.8838 	 101.709 	 
H 	 -27.7105 	 64.7168 	 102.339 	 
H 	 -27.6836 	 62.9362 	 101.934 	 
S 	 -32.2555 	 62.1923 	 109.817 	 
C 	 -33.5477 	 61.0129 	 109.78 	 
C 	 -33.5434 	 60.3287 	 108.585 	 
C 	 -32.7398 	 61.06 	 107.619 	 
C 	 -31.8984 	 62.0448 	 108.197 	 
H 	 -34.2069 	 59.4946 	 108.42 	 
C 	 -32.7125 	 60.6174 	 106.181 	 
H 	 -31.7751 	 60.9883 	 105.768 	 
H 	 -33.4848 	 61.2255 	 105.68 	 
C 	 -32.8676 	 59.0335 	 106.017 	 
H 	 -33.9122 	 58.8529 	 106.369 	 
H 	 -32.2136 	 58.437 	 106.699 	 
C 	 -32.7854 	 58.6232 	 104.544 	 
H 	 -33.1371 	 57.5912 	 104.384 	 
H 	 -31.7816 	 58.6742 	 104.175 	 
H 	 -33.4451 	 59.2609 	 103.978 	 
H 	 -27.4739 	 64.054 	 106.806 	 
H 	 -34.057 	 60.7988 	 110.71 	 
*
