! wB97X-D3 SP def2-SVP
%pal
nprocs 16
end

* xyz 0 1
S 	 -90.5979 	 42.6444 	 114.383 	 
C 	 -89.5389 	 43.7215 	 113.599 	 
C 	 -90.1956 	 44.7933 	 113.008 	 
C 	 -91.6021 	 44.6636 	 113.311 	 
C 	 -92.0302 	 43.5727 	 114.021 	 
H 	 -92.3911 	 45.2702 	 112.957 	 
C 	 -89.6066 	 45.7498 	 111.945 	 
H 	 -90.3204 	 46.5339 	 111.635 	 
H 	 -89.5926 	 44.9225 	 111.214 	 
C 	 -88.1488 	 46.2401 	 112.004 	 
H 	 -87.4094 	 45.4298 	 111.92 	 
H 	 -88.0317 	 46.9593 	 111.212 	 
C 	 -87.8892 	 46.9967 	 113.351 	 
H 	 -86.9767 	 47.6141 	 113.352 	 
H 	 -88.7295 	 47.6662 	 113.426 	 
H 	 -87.8466 	 46.2698 	 114.154 	 
S 	 -93.779 	 41.5236 	 113.637 	 
C 	 -95.4251 	 41.6415 	 114.361 	 
C 	 -95.7412 	 42.9823 	 114.704 	 
C 	 -94.5442 	 43.7832 	 114.667 	 
C 	 -93.4061 	 43.119 	 114.251 	 
H 	 -96.7829 	 43.3658 	 114.87 	 
C 	 -94.4975 	 45.2998 	 114.946 	 
H 	 -94.4325 	 45.728 	 113.965 	 
H 	 -93.5558 	 45.5563 	 115.432 	 
C 	 -95.6107 	 45.9339 	 115.772 	 
H 	 -95.5337 	 45.6549 	 116.812 	 
H 	 -96.566 	 45.4654 	 115.433 	 
C 	 -95.7786 	 47.474 	 115.65 	 
H 	 -94.9442 	 47.9614 	 116.12 	 
H 	 -96.7553 	 47.7421 	 116.12 	 
H 	 -95.7781 	 48.0535 	 114.655 	 
H 	 -88.5091 	 43.4527 	 113.48 	 
H 	 -96.1827 	 40.8542 	 114.269 	 
*
