! wB97X-D3 SP def2-SVP
%pal
nprocs 16
end

* xyz 0 1
S 	 -3.22592 	 -21.6468 	 56.9771 	 
C 	 -1.91193 	 -21.5956 	 55.8284 	 
C 	 -1.88446 	 -20.3738 	 55.154 	 
C 	 -2.82298 	 -19.4788 	 55.663 	 
C 	 -3.58791 	 -20.0201 	 56.7082 	 
H 	 -3.14809 	 -18.5613 	 55.3307 	 
C 	 -1.00479 	 -19.975 	 53.9697 	 
H 	 -0.096182 	 -20.4844 	 54.2242 	 
H 	 -0.859566 	 -18.8912 	 54.1409 	 
C 	 -1.50834 	 -20.3536 	 52.5352 	 
H 	 -0.588582 	 -20.3412 	 51.911 	 
H 	 -1.76171 	 -21.3734 	 52.4789 	 
C 	 -2.72979 	 -19.5592 	 51.9704 	 
H 	 -3.17421 	 -20.1229 	 51.1555 	 
H 	 -3.35059 	 -19.305 	 52.8651 	 
H 	 -2.29854 	 -18.5984 	 51.6302 	 
S 	 -6.33765 	 -20.4178 	 57.0779 	 
C 	 -7.34494 	 -19.0746 	 57.6314 	 
C 	 -6.51145 	 -17.9761 	 57.8896 	 
C 	 -5.08741 	 -18.2472 	 57.812 	 
C 	 -4.86306 	 -19.4738 	 57.2086 	 
H 	 -6.94964 	 -17.0928 	 58.292 	 
C 	 -4.06395 	 -17.2745 	 58.3115 	 
H 	 -3.16241 	 -17.7693 	 58.7129 	 
H 	 -4.57209 	 -16.7091 	 59.0759 	 
C 	 -3.69326 	 -16.1668 	 57.2953 	 
H 	 -4.5471 	 -15.5615 	 57.0815 	 
H 	 -3.58228 	 -16.5925 	 56.3422 	 
C 	 -2.65865 	 -15.2076 	 57.7308 	 
H 	 -2.79725 	 -14.7375 	 58.6871 	 
H 	 -2.45676 	 -14.4348 	 56.9043 	 
H 	 -1.63259 	 -15.6487 	 57.8511 	 
H 	 -1.55047 	 -22.4997 	 55.3649 	 
H 	 -8.44654 	 -19.161 	 57.7571 	 
*
