! wB97X-D3 SP def2-SVP
%pal
nprocs 16
end

* xyz 0 1
S 	 50.7818 	 18.6144 	 77.8554 	 
C 	 50.9611 	 19.1323 	 79.5126 	 
C 	 49.8315 	 18.9908 	 80.2078 	 
C 	 48.8617 	 18.327 	 79.4256 	 
C 	 49.1149 	 18.237 	 78.0566 	 
H 	 47.8988 	 17.9605 	 79.7406 	 
C 	 49.6847 	 19.0714 	 81.7433 	 
H 	 50.6592 	 19.314 	 82.1859 	 
H 	 49.4533 	 18.0361 	 82.0414 	 
C 	 48.6464 	 20.1029 	 82.1785 	 
H 	 49.0428 	 21.0845 	 81.874 	 
H 	 47.736 	 19.8825 	 81.6104 	 
C 	 48.3173 	 20.1356 	 83.7044 	 
H 	 47.646 	 19.2491 	 83.9239 	 
H 	 49.2708 	 20.1906 	 84.2525 	 
H 	 47.6956 	 21.0385 	 83.9389 	 
S 	 49.1101 	 16.6471 	 75.8053 	 
C 	 47.5845 	 15.9934 	 75.1751 	 
C 	 46.5082 	 16.6404 	 75.8106 	 
C 	 46.877 	 17.4981 	 76.8853 	 
C 	 48.2794 	 17.6183 	 77.0006 	 
H 	 45.509 	 16.5349 	 75.5169 	 
C 	 45.8728 	 18.2842 	 77.6533 	 
H 	 45.8435 	 17.9565 	 78.6769 	 
H 	 44.892 	 17.9181 	 77.3502 	 
C 	 46.0051 	 19.8439 	 77.5596 	 
H 	 46.0391 	 20.0909 	 76.5115 	 
H 	 46.8891 	 20.1485 	 78.0567 	 
C 	 44.9694 	 20.7383 	 78.2177 	 
H 	 43.9866 	 20.3699 	 77.9582 	 
H 	 45.1022 	 21.7909 	 78.0611 	 
H 	 44.945 	 20.6124 	 79.3036 	 
H 	 51.8537 	 19.5985 	 79.892 	 
H 	 47.5832 	 15.3502 	 74.2215 	 
*
