! wB97X-D3 SP def2-SVP
%pal
nprocs 16
end

* xyz 0 1
S 	 49.1739 	 11.3806 	 78.8784 	 
C 	 47.9618 	 10.3393 	 79.5411 	 
C 	 47.3341 	 11.0153 	 80.575 	 
C 	 47.9512 	 12.2457 	 80.897 	 
C 	 48.8152 	 12.6854 	 79.9737 	 
H 	 47.5765 	 12.8788 	 81.7231 	 
C 	 46.2566 	 10.4153 	 81.4368 	 
H 	 46.6887 	 10.109 	 82.4253 	 
H 	 46.0719 	 9.43077 	 81.0063 	 
C 	 44.9596 	 11.3041 	 81.5066 	 
H 	 45.1969 	 12.1868 	 82.0834 	 
H 	 44.7016 	 11.7157 	 80.5568 	 
C 	 43.872 	 10.4669 	 82.1414 	 
H 	 43.4482 	 9.65522 	 81.4004 	 
H 	 44.2575 	 9.81244 	 82.9226 	 
H 	 43.0249 	 11.0882 	 82.4713 	 
S 	 51.2308 	 13.9997 	 79.371 	 
C 	 51.216 	 15.7419 	 79.6504 	 
C 	 49.9493 	 16.343 	 79.7096 	 
C 	 48.9836 	 15.2964 	 79.9335 	 
C 	 49.5082 	 13.9755 	 79.8534 	 
H 	 49.8284 	 17.4691 	 79.685 	 
C 	 47.5397 	 15.6097 	 80.2604 	 
H 	 47.036 	 14.7097 	 80.0253 	 
H 	 47.1616 	 16.4838 	 79.7002 	 
C 	 47.4527 	 15.8953 	 81.7739 	 
H 	 47.7736 	 16.9126 	 82.0071 	 
H 	 48.2841 	 15.3578 	 82.2539 	 
C 	 46.1296 	 15.447 	 82.4614 	 
H 	 45.1843 	 15.6823 	 81.909 	 
H 	 46.0962 	 15.8869 	 83.4392 	 
H 	 46.2883 	 14.3677 	 82.6702 	 
H 	 47.6665 	 9.40024 	 79.1876 	 
H 	 52.1913 	 16.2359 	 79.5452 	 
*
