! wB97X-D3 SP def2-SVP
%pal
nprocs 16
end

* xyz 0 1
S 	 -41.8747 	 52.4268 	 107.313 	 
C 	 -40.4052 	 53.3509 	 107.325 	 
C 	 -39.3832 	 52.6361 	 107.951 	 
C 	 -39.8334 	 51.3547 	 108.376 	 
C 	 -41.0651 	 50.9888 	 107.877 	 
H 	 -39.2595 	 50.6862 	 108.93 	 
C 	 -37.9584 	 53.036 	 108.003 	 
H 	 -37.7885 	 53.8237 	 107.312 	 
H 	 -37.3353 	 52.2585 	 107.564 	 
C 	 -37.4846 	 53.4435 	 109.4 	 
H 	 -37.624 	 52.5959 	 110.088 	 
H 	 -36.3838 	 53.6267 	 109.404 	 
C 	 -38.1778 	 54.7747 	 109.853 	 
H 	 -37.9814 	 55.5162 	 109.034 	 
H 	 -39.2434 	 54.7341 	 109.995 	 
H 	 -37.728 	 55.1494 	 110.801 	 
S 	 -43.4679 	 49.6013 	 108.055 	 
C 	 -43.4388 	 47.8901 	 108.442 	 
C 	 -42.1784 	 47.368 	 108.547 	 
C 	 -41.1853 	 48.3565 	 108.158 	 
C 	 -41.7086 	 49.6955 	 108.003 	 
H 	 -41.9698 	 46.3321 	 108.71 	 
C 	 -39.7982 	 47.9584 	 107.7 	 
H 	 -39.837 	 46.874 	 107.611 	 
H 	 -39.1012 	 48.2396 	 108.471 	 
C 	 -39.376 	 48.3626 	 106.335 	 
H 	 -39.5802 	 49.3756 	 106.128 	 
H 	 -39.937 	 47.8258 	 105.595 	 
C 	 -37.8807 	 48.0353 	 106.108 	 
H 	 -37.7275 	 47.0232 	 105.866 	 
H 	 -37.3367 	 48.3206 	 106.988 	 
H 	 -37.5411 	 48.6292 	 105.204 	 
H 	 -40.2992 	 54.3645 	 107.028 	 
H 	 -44.3028 	 47.3555 	 108.855 	 
*
