! wB97X-D3 SP def2-SVP
%pal
nprocs 16
end

* xyz 0 1
S 	 70.5368 	 30.4016 	 70.1148 	 
C 	 70.0266 	 30.2201 	 68.4494 	 
C 	 69.8921 	 28.8254 	 68.1304 	 
C 	 70.0137 	 28.0376 	 69.3243 	 
C 	 70.3518 	 28.7533 	 70.4033 	 
H 	 70.0101 	 26.9515 	 69.4301 	 
C 	 69.6281 	 28.2803 	 66.738 	 
H 	 70.1982 	 27.391 	 66.5887 	 
H 	 69.9119 	 29.015 	 65.9627 	 
C 	 68.2182 	 27.8005 	 66.4149 	 
H 	 67.4867 	 28.5261 	 66.4026 	 
H 	 68.2106 	 27.4085 	 65.4552 	 
C 	 67.692 	 26.7694 	 67.4049 	 
H 	 68.4042 	 25.9603 	 67.5379 	 
H 	 67.4999 	 27.1827 	 68.4407 	 
H 	 66.7904 	 26.2743 	 67.0103 	 
S 	 72.364 	 28.4156 	 72.2803 	 
C 	 72.1486 	 27.3598 	 73.6787 	 
C 	 70.8403 	 27.0029 	 73.748 	 
C 	 70.0455 	 27.3745 	 72.6109 	 
C 	 70.7099 	 28.2315 	 71.719 	 
H 	 70.4435 	 26.4357 	 74.6215 	 
C 	 68.6099 	 26.906 	 72.4478 	 
H 	 68.1156 	 27.5212 	 71.6679 	 
H 	 68.0163 	 27.0583 	 73.3196 	 
C 	 68.2863 	 25.4787 	 72.0077 	 
H 	 67.1801 	 25.3605 	 71.9145 	 
H 	 68.3961 	 24.8633 	 72.9282 	 
C 	 69.0463 	 24.9239 	 70.7748 	 
H 	 69.0863 	 23.8675 	 70.7103 	 
H 	 70.1086 	 25.2807 	 70.8564 	 
H 	 68.5468 	 25.3749 	 69.8605 	 
H 	 69.9704 	 31.0828 	 67.7198 	 
H 	 72.8899 	 27.1775 	 74.4196 	 
*
