! wB97X-D3 SP def2-SVP
%pal
nprocs 16
end

* xyz 0 1
S 	 -44.7504 	 54.9827 	 102.949 	 
C 	 -46.2605 	 54.6435 	 103.799 	 
C 	 -47.2169 	 54.0414 	 102.954 	 
C 	 -46.6483 	 53.6545 	 101.702 	 
C 	 -45.2566 	 53.9735 	 101.532 	 
H 	 -47.1866 	 53.0851 	 100.894 	 
C 	 -48.5818 	 53.5892 	 103.41 	 
H 	 -48.6511 	 53.6184 	 104.467 	 
H 	 -48.594 	 52.5155 	 103.093 	 
C 	 -49.7651 	 54.4003 	 102.92 	 
H 	 -50.1991 	 55.0362 	 103.681 	 
H 	 -49.3742 	 55.0037 	 102.139 	 
C 	 -50.9656 	 53.5574 	 102.384 	 
H 	 -50.7695 	 52.7603 	 101.752 	 
H 	 -51.3969 	 53.0817 	 103.286 	 
H 	 -51.6481 	 54.1536 	 101.861 	 
S 	 -43.4959 	 55.0491 	 99.895 	 
C 	 -42.7105 	 54.0212 	 98.6739 	 
C 	 -43.2427 	 52.7379 	 98.5926 	 
C 	 -44.1763 	 52.5785 	 99.6257 	 
C 	 -44.3032 	 53.6797 	 100.466 	 
H 	 -42.7725 	 52.02 	 97.9753 	 
C 	 -44.9049 	 51.2711 	 99.7997 	 
H 	 -45.0989 	 50.8062 	 98.7834 	 
H 	 -45.876 	 51.4491 	 100.42 	 
C 	 -44.1535 	 50.1707 	 100.552 	 
H 	 -43.1351 	 50.1195 	 100.151 	 
H 	 -44.6368 	 49.1949 	 100.444 	 
C 	 -43.8453 	 50.5258 	 101.958 	 
H 	 -43.2199 	 51.3731 	 102.039 	 
H 	 -43.2587 	 49.7281 	 102.432 	 
H 	 -44.7471 	 50.5945 	 102.568 	 
H 	 -46.4485 	 54.732 	 104.782 	 
H 	 -42.0253 	 54.3795 	 97.8831 	 
*
