! wB97X-D3 SP def2-SVP
%pal
nprocs 16
end

* xyz 0 1
S 	 52.2914 	 13.0369 	 52.5499 	 
C 	 53.7998 	 14.0636 	 52.7051 	 
C 	 53.5393 	 15.2892 	 52.0902 	 
C 	 52.2124 	 15.4316 	 51.5457 	 
C 	 51.4008 	 14.3715 	 51.8654 	 
H 	 51.914 	 16.2234 	 50.8852 	 
C 	 54.6327 	 16.3471 	 51.977 	 
H 	 55.6106 	 15.9561 	 52.1616 	 
H 	 54.5157 	 17.0037 	 52.8474 	 
C 	 54.6993 	 17.1041 	 50.6485 	 
H 	 53.7548 	 17.5812 	 50.4394 	 
H 	 55.5052 	 17.8225 	 50.7537 	 
C 	 55.1318 	 16.1877 	 49.4431 	 
H 	 54.4171 	 15.3515 	 49.3592 	 
H 	 55.0639 	 16.8172 	 48.5205 	 
H 	 56.1737 	 15.7823 	 49.5766 	 
S 	 49.7545 	 13.7136 	 49.65 	 
C 	 48.0359 	 13.5958 	 49.9108 	 
C 	 47.6742 	 14.0297 	 51.201 	 
C 	 48.8283 	 14.3862 	 52.0007 	 
C 	 50.069 	 14.1253 	 51.398 	 
H 	 46.6344 	 14.1365 	 51.522 	 
C 	 48.761 	 15.0906 	 53.3333 	 
H 	 49.5861 	 14.655 	 53.9097 	 
H 	 47.8374 	 14.7689 	 53.7914 	 
C 	 48.9438 	 16.6182 	 53.129 	 
H 	 48.3632 	 16.75 	 52.1721 	 
H 	 50.0177 	 16.8593 	 52.9401 	 
C 	 48.3504 	 17.5155 	 54.1886 	 
H 	 48.9074 	 17.4111 	 55.1184 	 
H 	 47.3071 	 17.125 	 54.4195 	 
H 	 48.2493 	 18.5933 	 53.9263 	 
H 	 54.7957 	 13.6429 	 52.9224 	 
H 	 47.3196 	 13.3614 	 49.0808 	 
*
