! wB97X-D3 SP def2-SVP
%pal
nprocs 16
end

* xyz 0 1
S 	 16.138 	 -8.3279 	 82.9102 	 
C 	 15.8036 	 -9.4858 	 81.6034 	 
C 	 15.9589 	 -10.771 	 82.0279 	 
C 	 16.3967 	 -10.8276 	 83.4161 	 
C 	 16.4687 	 -9.59124 	 84.0337 	 
H 	 16.6268 	 -11.6879 	 84.0558 	 
C 	 15.8124 	 -11.9529 	 81.0231 	 
H 	 16.758 	 -12.0645 	 80.574 	 
H 	 15.1281 	 -11.64 	 80.1985 	 
C 	 15.2985 	 -13.2627 	 81.7077 	 
H 	 16.0753 	 -13.6599 	 82.4183 	 
H 	 14.5105 	 -12.9455 	 82.3567 	 
C 	 14.8285 	 -14.4191 	 80.7206 	 
H 	 14.7632 	 -15.2883 	 81.3766 	 
H 	 13.8623 	 -14.0809 	 80.3612 	 
H 	 15.568 	 -14.5794 	 79.8936 	 
S 	 15.4525 	 -9.49093 	 86.676 	 
C 	 16.5654 	 -9.12136 	 87.9185 	 
C 	 17.8752 	 -9.29633 	 87.5013 	 
C 	 18.0109 	 -9.26089 	 86.0758 	 
C 	 16.773 	 -9.33932 	 85.4197 	 
H 	 18.6798 	 -9.28795 	 88.2196 	 
C 	 19.3289 	 -9.19163 	 85.3502 	 
H 	 19.133 	 -8.87473 	 84.3891 	 
H 	 19.6931 	 -10.1703 	 85.3308 	 
C 	 20.4617 	 -8.49277 	 86.0519 	 
H 	 20.7038 	 -8.94084 	 87.0168 	 
H 	 20.0753 	 -7.4386 	 86.1997 	 
C 	 21.7604 	 -8.41956 	 85.1597 	 
H 	 22.4474 	 -7.72845 	 85.5481 	 
H 	 21.4759 	 -8.23289 	 84.1163 	 
H 	 22.2229 	 -9.35802 	 85.2264 	 
H 	 15.5843 	 -9.24861 	 80.5228 	 
H 	 16.3125 	 -9.04154 	 88.9835 	 
*
