! wB97X-D3 SP def2-SVP
%pal
nprocs 16
end

* xyz 0 1
S 	 -3.80005 	 -20.7377 	 56.278 	 
C 	 -2.95952 	 -20.952 	 54.7338 	 
C 	 -2.87386 	 -19.8444 	 53.967 	 
C 	 -3.58746 	 -18.7602 	 54.6254 	 
C 	 -4.18377 	 -19.1285 	 55.8117 	 
H 	 -3.71491 	 -17.7744 	 54.0976 	 
C 	 -2.03926 	 -19.6681 	 52.7943 	 
H 	 -1.09984 	 -19.2646 	 53.1421 	 
H 	 -2.52429 	 -19.0292 	 52.086 	 
C 	 -1.63126 	 -20.9906 	 51.9991 	 
H 	 -0.670599 	 -20.7004 	 51.5002 	 
H 	 -1.36797 	 -21.7206 	 52.6841 	 
C 	 -2.74891 	 -21.3758 	 51.0397 	 
H 	 -3.05214 	 -20.6994 	 50.2742 	 
H 	 -2.29649 	 -22.2673 	 50.5085 	 
H 	 -3.57057 	 -21.6947 	 51.716 	 
S 	 -6.57407 	 -17.7815 	 55.969 	 
C 	 -6.7877 	 -16.6897 	 57.3382 	 
C 	 -5.68744 	 -16.7629 	 58.244 	 
C 	 -4.72138 	 -17.6917 	 57.8666 	 
C 	 -4.98444 	 -18.223 	 56.655 	 
H 	 -5.60355 	 -16.137 	 59.0967 	 
C 	 -3.50805 	 -17.8397 	 58.7354 	 
H 	 -2.96641 	 -18.7723 	 58.5359 	 
H 	 -3.59793 	 -17.9915 	 59.8036 	 
C 	 -2.49144 	 -16.703 	 58.4922 	 
H 	 -1.77535 	 -16.5449 	 59.2705 	 
H 	 -3.01761 	 -15.7664 	 58.4835 	 
C 	 -1.74536 	 -16.8778 	 57.197 	 
H 	 -2.37496 	 -16.8301 	 56.3078 	 
H 	 -1.38417 	 -17.8741 	 57.1656 	 
H 	 -0.978887 	 -16.1212 	 57.2813 	 
H 	 -2.52522 	 -21.8976 	 54.518 	 
H 	 -7.69006 	 -16.1555 	 57.5848 	 
*
