! wB97X-D3 SP def2-SVP
%pal
nprocs 16
end

* xyz 0 1
S 	 1.96661 	 16.0791 	 86.4356 	 
C 	 2.5584 	 17.3755 	 85.3808 	 
C 	 3.17998 	 16.8217 	 84.2491 	 
C 	 3.17053 	 15.3361 	 84.2731 	 
C 	 2.48682 	 14.7741 	 85.3005 	 
H 	 3.58843 	 14.6872 	 83.5519 	 
C 	 3.81051 	 17.6042 	 83.105 	 
H 	 4.6074 	 18.249 	 83.508 	 
H 	 3.00707 	 18.1981 	 82.5575 	 
C 	 4.64738 	 16.6819 	 82.1328 	 
H 	 5.42107 	 16.2089 	 82.6136 	 
H 	 3.9532 	 15.8514 	 81.8704 	 
C 	 5.24313 	 17.4163 	 80.8645 	 
H 	 4.59447 	 17.4925 	 80.0005 	 
H 	 5.61253 	 18.3157 	 81.2495 	 
H 	 6.07827 	 16.8654 	 80.3999 	 
S 	 0.573973 	 12.7772 	 85.0312 	 
C 	 1.12614 	 11.1438 	 85.4949 	 
C 	 2.38415 	 11.1317 	 86.0046 	 
C 	 3.00419 	 12.3947 	 85.924 	 
C 	 2.15133 	 13.3844 	 85.5062 	 
H 	 2.89327 	 10.2905 	 86.3751 	 
C 	 4.42971 	 12.625 	 86.4309 	 
H 	 4.70112 	 11.7353 	 87.0189 	 
H 	 4.45631 	 13.4123 	 87.156 	 
C 	 5.47496 	 12.8379 	 85.3904 	 
H 	 6.49032 	 13.1179 	 85.8268 	 
H 	 5.11991 	 13.7172 	 84.8187 	 
C 	 5.59633 	 11.7834 	 84.2872 	 
H 	 6.1433 	 12.1162 	 83.4 	 
H 	 4.58667 	 11.6601 	 83.9588 	 
H 	 6.08332 	 10.9663 	 84.6904 	 
H 	 2.496 	 18.4761 	 85.7168 	 
H 	 0.550665 	 10.27 	 85.2072 	 
*
