! wB97X-D3 SP def2-SVP
%pal
nprocs 16
end

* xyz 0 1
S 	 -95.5577 	 55.6596 	 124.946 	 
C 	 -94.3521 	 54.5486 	 125.527 	 
C 	 -94.6131 	 53.2154 	 125.278 	 
C 	 -95.8992 	 53.1211 	 124.701 	 
C 	 -96.5204 	 54.294 	 124.405 	 
H 	 -96.4123 	 52.1847 	 124.62 	 
C 	 -93.7649 	 52.1328 	 125.789 	 
H 	 -94.1999 	 51.1556 	 125.493 	 
H 	 -93.7641 	 52.2006 	 126.831 	 
C 	 -92.3224 	 52.1291 	 125.33 	 
H 	 -91.7791 	 52.9273 	 125.851 	 
H 	 -91.7554 	 51.3191 	 125.836 	 
C 	 -92.0145 	 52.0087 	 123.826 	 
H 	 -92.7866 	 51.4426 	 123.267 	 
H 	 -91.9304 	 52.9657 	 123.307 	 
H 	 -90.9752 	 51.6223 	 123.729 	 
S 	 -99.1514 	 55.0643 	 124.941 	 
C 	 -100.406 	 54.8712 	 123.746 	 
C 	 -99.8227 	 54.332 	 122.617 	 
C 	 -98.4756 	 53.9456 	 122.713 	 
C 	 -97.8619 	 54.4301 	 123.861 	 
H 	 -100.515 	 54.0317 	 121.783 	 
C 	 -97.7234 	 53.1987 	 121.611 	 
H 	 -98.171 	 52.1897 	 121.587 	 
H 	 -96.6975 	 53.0861 	 121.902 	 
C 	 -97.6287 	 53.8581 	 120.231 	 
H 	 -96.9717 	 54.6548 	 120.238 	 
H 	 -98.6758 	 54.0604 	 119.994 	 
C 	 -97.0833 	 52.7962 	 119.178 	 
H 	 -97.5867 	 51.798 	 119.288 	 
H 	 -96.0289 	 52.5803 	 119.462 	 
H 	 -97.2626 	 53.0524 	 118.069 	 
H 	 -93.6951 	 54.8519 	 126.312 	 
H 	 -101.466 	 55.1732 	 123.865 	 
*
