! wB97X-D3 SP def2-SVP
%pal
nprocs 16
end

* xyz 0 1
S 	 46.3042 	 17.5146 	 82.8474 	 
C 	 45.6322 	 18.8581 	 81.9244 	 
C 	 46.3998 	 19.1554 	 80.8294 	 
C 	 47.5329 	 18.2907 	 80.7929 	 
C 	 47.6956 	 17.362 	 81.7822 	 
H 	 48.2361 	 18.2914 	 79.9998 	 
C 	 46.0681 	 20.3457 	 79.9735 	 
H 	 45.518 	 21.1342 	 80.5136 	 
H 	 45.3431 	 20.0291 	 79.2332 	 
C 	 47.2261 	 20.9291 	 79.1743 	 
H 	 47.541 	 20.1221 	 78.562 	 
H 	 46.925 	 21.6301 	 78.4212 	 
C 	 48.4509 	 21.476 	 79.9967 	 
H 	 48.0152 	 22.256 	 80.6872 	 
H 	 48.9427 	 20.7546 	 80.5776 	 
H 	 49.3063 	 21.9561 	 79.4083 	 
S 	 47.9574 	 14.7276 	 82.6651 	 
C 	 49.4068 	 13.8685 	 82.5266 	 
C 	 50.2899 	 14.5783 	 81.7831 	 
C 	 49.859 	 15.9505 	 81.4106 	 
C 	 48.5669 	 16.1952 	 81.8366 	 
H 	 51.2836 	 14.161 	 81.6436 	 
C 	 50.792 	 16.8721 	 80.6567 	 
H 	 50.2005 	 17.6363 	 80.1401 	 
H 	 51.2531 	 16.276 	 79.8227 	 
C 	 51.8879 	 17.7151 	 81.39 	 
H 	 52.7049 	 18.0355 	 80.7558 	 
H 	 52.4044 	 17.0278 	 82.0743 	 
C 	 51.4548 	 18.7279 	 82.3748 	 
H 	 50.4941 	 18.492 	 82.8691 	 
H 	 51.1929 	 19.6981 	 81.9667 	 
H 	 52.1822 	 18.9755 	 83.1467 	 
H 	 44.6973 	 19.3096 	 82.224 	 
H 	 49.5881 	 12.8313 	 82.8514 	 
*
