! wB97X-D3 SP def2-SVP
%pal
nprocs 16
end

* xyz 0 1
S 	 -58.3864 	 18.3033 	 84.9776 	 
C 	 -58.6932 	 17.4552 	 86.4864 	 
C 	 -57.4893 	 17.3139 	 87.2314 	 
C 	 -56.4226 	 18.0548 	 86.7063 	 
C 	 -56.717 	 18.6876 	 85.5042 	 
H 	 -55.4376 	 18.05 	 87.1825 	 
C 	 -57.3611 	 16.3944 	 88.3793 	 
H 	 -56.4707 	 15.8385 	 88.1388 	 
H 	 -58.3084 	 15.748 	 88.508 	 
C 	 -57.1541 	 17.0258 	 89.7899 	 
H 	 -56.7275 	 16.3158 	 90.5059 	 
H 	 -56.403 	 17.7513 	 89.6036 	 
C 	 -58.3313 	 17.7635 	 90.3631 	 
H 	 -59.3307 	 17.2936 	 90.3579 	 
H 	 -58.1183 	 18.3107 	 91.2788 	 
H 	 -58.4081 	 18.6655 	 89.6686 	 
S 	 -56.0722 	 19.3216 	 82.8217 	 
C 	 -54.6206 	 20.2551 	 82.4991 	 
C 	 -54.0072 	 20.6653 	 83.6826 	 
C 	 -54.773 	 20.2662 	 84.8409 	 
C 	 -55.8582 	 19.4366 	 84.5814 	 
H 	 -53.052 	 21.1728 	 83.5557 	 
C 	 -54.3375 	 20.6063 	 86.2388 	 
H 	 -53.6737 	 19.7865 	 86.795 	 
H 	 -55.1119 	 20.6078 	 86.9406 	 
C 	 -53.6299 	 21.9925 	 86.3401 	 
H 	 -52.6191 	 21.9168 	 85.8399 	 
H 	 -53.3967 	 22.2515 	 87.413 	 
C 	 -54.4524 	 23.1362 	 85.7939 	 
H 	 -54.0121 	 24.1423 	 85.9681 	 
H 	 -55.5015 	 23.2304 	 86.1279 	 
H 	 -54.4923 	 23.06 	 84.6636 	 
H 	 -59.7409 	 17.0241 	 86.7127 	 
H 	 -54.2012 	 20.4787 	 81.5041 	 
*
