! wB97X-D3 SP def2-SVP
%pal
nprocs 16
end

* xyz 0 1
S 	 -4.10243 	 48.746 	 48.0686 	 
C 	 -4.03314 	 50.4662 	 47.9435 	 
C 	 -5.2802 	 51.0151 	 47.8981 	 
C 	 -6.29305 	 50.0068 	 47.738 	 
C 	 -5.81504 	 48.7026 	 47.8473 	 
H 	 -7.36972 	 50.1039 	 47.6165 	 
C 	 -5.57299 	 52.4763 	 47.8319 	 
H 	 -6.37494 	 52.7551 	 47.1642 	 
H 	 -4.65521 	 52.9204 	 47.444 	 
C 	 -5.91889 	 53.107 	 49.1533 	 
H 	 -5.00109 	 53.1736 	 49.763 	 
H 	 -6.19534 	 54.1146 	 48.9551 	 
C 	 -7.1085 	 52.4877 	 49.9424 	 
H 	 -7.98558 	 52.3935 	 49.3283 	 
H 	 -6.70117 	 51.495 	 50.2724 	 
H 	 -7.24104 	 53.0922 	 50.8575 	 
S 	 -6.14685 	 46.2734 	 46.707 	 
C 	 -7.59108 	 45.4121 	 46.7878 	 
C 	 -8.43956 	 45.9827 	 47.7527 	 
C 	 -7.9229 	 47.2247 	 48.2639 	 
C 	 -6.65289 	 47.5211 	 47.7986 	 
H 	 -9.39057 	 45.5484 	 48.0514 	 
C 	 -8.82382 	 48.0472 	 49.1394 	 
H 	 -8.34508 	 49.0013 	 49.3271 	 
H 	 -8.86274 	 47.6902 	 50.099 	 
C 	 -10.2441 	 48.3479 	 48.5879 	 
H 	 -10.77 	 48.58 	 49.461 	 
H 	 -10.7976 	 47.4378 	 48.245 	 
C 	 -10.2163 	 49.4458 	 47.5098 	 
H 	 -11.2953 	 49.5948 	 47.1687 	 
H 	 -9.49875 	 49.3039 	 46.7114 	 
H 	 -9.85422 	 50.3476 	 48.0184 	 
H 	 -3.10658 	 51.052 	 48.0786 	 
H 	 -7.81846 	 44.5503 	 46.1775 	 
*
