! wB97X-D3 SP def2-SVP
%pal
nprocs 16
end

* xyz 0 1
S 	 -31.8833 	 62.9698 	 107.362 	 
C 	 -30.3773 	 63.7369 	 107.828 	 
C 	 -29.8958 	 64.6333 	 106.89 	 
C 	 -30.7584 	 64.7198 	 105.735 	 
C 	 -31.9531 	 64.0216 	 105.945 	 
H 	 -30.7391 	 65.2772 	 104.774 	 
C 	 -28.5669 	 65.3471 	 107.031 	 
H 	 -28.4879 	 65.9214 	 106.079 	 
H 	 -27.7602 	 64.6077 	 107.025 	 
C 	 -28.3567 	 66.1975 	 108.265 	 
H 	 -28.6931 	 65.6338 	 109.143 	 
H 	 -27.285 	 66.3953 	 108.407 	 
C 	 -29.1374 	 67.5148 	 108.185 	 
H 	 -30.1599 	 67.255 	 107.968 	 
H 	 -29.2112 	 68.031 	 109.187 	 
H 	 -28.6875 	 68.113 	 107.337 	 
S 	 -34.3426 	 65.2137 	 105.252 	 
C 	 -35.3257 	 64.3799 	 104.102 	 
C 	 -34.5902 	 63.3736 	 103.473 	 
C 	 -33.2601 	 63.2442 	 103.954 	 
C 	 -33.1255 	 63.9306 	 105.106 	 
H 	 -35.0312 	 62.9587 	 102.582 	 
C 	 -32.2666 	 62.2407 	 103.319 	 
H 	 -32.7424 	 61.3255 	 103.422 	 
H 	 -31.2565 	 62.3003 	 103.757 	 
C 	 -32.0863 	 62.5572 	 101.815 	 
H 	 -31.7032 	 63.6002 	 101.801 	 
H 	 -32.9787 	 62.6688 	 101.169 	 
C 	 -31.0931 	 61.5947 	 101.084 	 
H 	 -31.6196 	 60.6002 	 100.904 	 
H 	 -30.2336 	 61.3488 	 101.687 	 
H 	 -30.939 	 62.0283 	 100.047 	 
H 	 -29.964 	 63.5576 	 108.784 	 
H 	 -36.3522 	 64.549 	 103.891 	 
*
