! wB97X-D3 SP def2-SVP
%pal
nprocs 16
end

* xyz 0 1
S 	 -46.3265 	 68.0766 	 125.977 	 
C 	 -47.1869 	 67.5125 	 124.494 	 
C 	 -48.2648 	 66.7103 	 124.779 	 
C 	 -48.5255 	 66.7338 	 126.193 	 
C 	 -47.5961 	 67.4134 	 126.937 	 
H 	 -49.335 	 66.2555 	 126.569 	 
C 	 -49.0484 	 65.9822 	 123.65 	 
H 	 -48.5506 	 64.9581 	 123.633 	 
H 	 -48.7832 	 66.443 	 122.737 	 
C 	 -50.5697 	 65.8622 	 123.788 	 
H 	 -50.687 	 65.2121 	 124.691 	 
H 	 -50.9607 	 66.9162 	 124.016 	 
C 	 -51.2616 	 65.25 	 122.601 	 
H 	 -51.6741 	 66.025 	 121.943 	 
H 	 -50.6254 	 64.503 	 122.054 	 
H 	 -52.1152 	 64.5899 	 122.86 	 
S 	 -46.3292 	 66.6819 	 129.313 	 
C 	 -47.0806 	 67.0688 	 130.861 	 
C 	 -48.2393 	 67.8579 	 130.66 	 
C 	 -48.4582 	 68.1834 	 129.29 	 
C 	 -47.592 	 67.5095 	 128.406 	 
H 	 -48.9502 	 68.0277 	 131.449 	 
C 	 -49.7082 	 68.9137 	 128.943 	 
H 	 -49.4761 	 69.2791 	 127.985 	 
H 	 -49.7889 	 69.8071 	 129.614 	 
C 	 -51.0534 	 68.1682 	 128.93 	 
H 	 -51.2115 	 67.5233 	 129.757 	 
H 	 -51.1951 	 67.5871 	 128.028 	 
C 	 -52.1715 	 69.2319 	 128.976 	 
H 	 -53.1288 	 68.6777 	 129.044 	 
H 	 -52.1685 	 69.8128 	 128.046 	 
H 	 -52.0839 	 69.8839 	 129.83 	 
H 	 -46.8975 	 67.6224 	 123.468 	 
H 	 -46.7797 	 66.7463 	 131.849 	 
*
