! wB97X-D3 SP def2-SVP
%pal
nprocs 16
end

* xyz 0 1
S 	 57.1993 	 4.61555 	 80.8176 	 
C 	 56.5849 	 3.61638 	 79.4589 	 
C 	 55.2917 	 3.16243 	 79.7255 	 
C 	 54.8498 	 3.41989 	 81.0535 	 
C 	 55.7864 	 4.2014 	 81.748 	 
H 	 53.9201 	 3.08485 	 81.5838 	 
C 	 54.5402 	 2.37442 	 78.7028 	 
H 	 55.0536 	 2.52924 	 77.7854 	 
H 	 53.6023 	 2.88124 	 78.4867 	 
C 	 54.2914 	 0.871989 	 79.0437 	 
H 	 54.0111 	 0.281223 	 78.1032 	 
H 	 55.2571 	 0.485136 	 79.402 	 
C 	 53.2709 	 0.628809 	 80.1309 	 
H 	 52.9262 	 -0.439025 	 80.0938 	 
H 	 53.4999 	 0.900848 	 81.1491 	 
H 	 52.3633 	 1.23489 	 79.9338 	 
S 	 55.8402 	 6.28041 	 83.4419 	 
C 	 55.314 	 6.13648 	 85.1342 	 
C 	 55.1674 	 4.77761 	 85.4375 	 
C 	 55.281 	 3.91325 	 84.3438 	 
C 	 55.5798 	 4.59701 	 83.1263 	 
H 	 54.9811 	 4.57248 	 86.4657 	 
C 	 55.025 	 2.45734 	 84.491 	 
H 	 54.5954 	 2.08221 	 83.5903 	 
H 	 54.2385 	 2.26762 	 85.2717 	 
C 	 56.3525 	 1.68877 	 84.7067 	 
H 	 56.8059 	 2.00551 	 85.6946 	 
H 	 57.0888 	 1.98293 	 84.0284 	 
C 	 56.3909 	 0.132885 	 84.7379 	 
H 	 57.3983 	 -0.143305 	 84.5536 	 
H 	 55.7433 	 -0.286602 	 83.9672 	 
H 	 56.037 	 -0.197704 	 85.6584 	 
H 	 57.236 	 3.45355 	 78.6102 	 
H 	 55.2946 	 6.89223 	 85.8556 	 
*
