! wB97X-D3 SP def2-SVP
%pal
nprocs 16
end

* xyz 0 1
S 	 -13.2621 	 69.2854 	 54.8763 	 
C 	 -13.9601 	 67.8099 	 55.4204 	 
C 	 -13.2793 	 66.7624 	 54.8779 	 
C 	 -12.1096 	 67.1482 	 54.2112 	 
C 	 -11.9199 	 68.5246 	 54.073 	 
H 	 -11.5382 	 66.3605 	 53.7013 	 
C 	 -13.7923 	 65.3481 	 54.8897 	 
H 	 -13.6816 	 64.9529 	 53.8559 	 
H 	 -14.8487 	 65.2316 	 55.175 	 
C 	 -13.0295 	 64.4647 	 55.8474 	 
H 	 -11.9978 	 64.3466 	 55.4897 	 
H 	 -12.9949 	 64.7974 	 56.922 	 
C 	 -13.6397 	 63.0061 	 55.8286 	 
H 	 -14.7146 	 63.1025 	 56.1422 	 
H 	 -13.5771 	 62.5906 	 54.8484 	 
H 	 -13.1766 	 62.3041 	 56.5107 	 
S 	 -11.0583 	 70.9717 	 53.4743 	 
C 	 -9.49166 	 71.221 	 52.7415 	 
C 	 -8.96156 	 69.9417 	 52.4485 	 
C 	 -9.79293 	 68.8506 	 52.7233 	 
C 	 -10.8914 	 69.2344 	 53.4358 	 
H 	 -7.99609 	 69.9004 	 51.9343 	 
C 	 -9.41567 	 67.4391 	 52.2629 	 
H 	 -9.49233 	 66.7703 	 53.0886 	 
H 	 -8.34172 	 67.334 	 51.978 	 
C 	 -10.2064 	 66.858 	 51.0063 	 
H 	 -9.93815 	 67.6228 	 50.2099 	 
H 	 -11.327 	 66.9188 	 51.0897 	 
C 	 -9.77547 	 65.4509 	 50.628 	 
H 	 -10.0916 	 64.8034 	 51.4414 	 
H 	 -8.60863 	 65.4208 	 50.7371 	 
H 	 -10.2666 	 65.1249 	 49.7838 	 
H 	 -14.924 	 67.7001 	 55.8684 	 
H 	 -8.97768 	 72.1951 	 52.4081 	 
*
