! wB97X-D3 SP def2-SVP
%pal
nprocs 16
end

* xyz 0 1
S 	 19.3553 	 -9.34798 	 81.5907 	 
C 	 18.617 	 -9.53799 	 80.0243 	 
C 	 17.2587 	 -9.71554 	 80.1104 	 
C 	 16.7938 	 -9.53707 	 81.4267 	 
C 	 17.7809 	 -9.27365 	 82.3416 	 
H 	 15.8125 	 -9.70397 	 81.7353 	 
C 	 16.3199 	 -9.75914 	 78.8875 	 
H 	 15.9504 	 -8.77296 	 78.5364 	 
H 	 15.3305 	 -10.1969 	 79.2317 	 
C 	 16.6138 	 -10.669 	 77.7162 	 
H 	 17.4584 	 -10.1833 	 77.3014 	 
H 	 16.9085 	 -11.7035 	 78.0111 	 
C 	 15.3227 	 -10.6874 	 76.8103 	 
H 	 14.5108 	 -11.2505 	 77.2244 	 
H 	 14.9654 	 -9.68363 	 76.5928 	 
H 	 15.6055 	 -11.1713 	 75.8217 	 
S 	 15.915 	 -8.48534 	 84.2291 	 
C 	 16.5676 	 -7.83989 	 85.6502 	 
C 	 17.7975 	 -8.39115 	 85.8668 	 
C 	 18.4087 	 -9.07401 	 84.7822 	 
C 	 17.54 	 -9.19919 	 83.7555 	 
H 	 18.3294 	 -8.12817 	 86.7921 	 
C 	 19.7626 	 -9.7698 	 84.9335 	 
H 	 20.4194 	 -8.9658 	 84.5923 	 
H 	 19.923 	 -10.5766 	 84.1144 	 
C 	 20.0732 	 -10.2483 	 86.3761 	 
H 	 19.2741 	 -10.8537 	 86.7797 	 
H 	 20.1436 	 -9.40509 	 87.0021 	 
C 	 21.2862 	 -11.0354 	 86.644 	 
H 	 21.3696 	 -11.3411 	 87.6983 	 
H 	 22.0697 	 -10.3276 	 86.4126 	 
H 	 21.2902 	 -11.9415 	 85.9866 	 
H 	 19.1752 	 -9.38419 	 79.164 	 
H 	 16.1148 	 -7.11218 	 86.3113 	 
*
