! wB97X-D3 SP def2-SVP
%pal
nprocs 16
end

* xyz 0 1
S 	 -10.0515 	 65.8902 	 54.5254 	 
C 	 -9.79449 	 64.576 	 53.4212 	 
C 	 -10.1882 	 63.3647 	 53.9496 	 
C 	 -10.6793 	 63.5505 	 55.2923 	 
C 	 -10.4212 	 64.8125 	 55.8246 	 
H 	 -11.0563 	 62.6729 	 55.8483 	 
C 	 -10.1982 	 62.0426 	 53.172 	 
H 	 -9.47046 	 61.3498 	 53.6195 	 
H 	 -9.91918 	 62.3593 	 52.1385 	 
C 	 -11.6113 	 61.5022 	 53.0087 	 
H 	 -12.275 	 61.297 	 53.8624 	 
H 	 -12.1589 	 62.1751 	 52.3155 	 
C 	 -11.628 	 60.1672 	 52.2464 	 
H 	 -11.1033 	 59.3248 	 52.7301 	 
H 	 -12.661 	 59.9034 	 52.088 	 
H 	 -11.1233 	 60.4456 	 51.3278 	 
S 	 -10.4664 	 66.9358 	 57.4541 	 
C 	 -10.7754 	 66.7126 	 59.1771 	 
C 	 -10.8731 	 65.396 	 59.5654 	 
C 	 -11.0171 	 64.5453 	 58.4167 	 
C 	 -10.6441 	 65.2019 	 57.224 	 
H 	 -10.8703 	 65.2077 	 60.6327 	 
C 	 -11.1886 	 63.0656 	 58.6751 	 
H 	 -12.0461 	 62.7459 	 58.1847 	 
H 	 -11.3914 	 63.0185 	 59.7791 	 
C 	 -9.91798 	 62.2662 	 58.5035 	 
H 	 -9.1909 	 62.648 	 59.2224 	 
H 	 -9.46462 	 62.5211 	 57.5195 	 
C 	 -10.0215 	 60.7548 	 58.6804 	 
H 	 -10.4054 	 60.4882 	 59.6776 	 
H 	 -9.1712 	 60.2137 	 58.5476 	 
H 	 -10.8707 	 60.4085 	 58.0375 	 
H 	 -9.58617 	 64.5998 	 52.3829 	 
H 	 -10.7457 	 67.5233 	 59.8896 	 
*
