! wB97X-D3 SP def2-SVP
%pal
nprocs 16
end

* xyz 0 1
S 	 -102.872 	 58.1458 	 118.544 	 
C 	 -101.421 	 57.277 	 118.174 	 
C 	 -101.554 	 55.9697 	 117.815 	 
C 	 -102.901 	 55.5462 	 118.17 	 
C 	 -103.713 	 56.5749 	 118.578 	 
H 	 -103.242 	 54.554 	 118.075 	 
C 	 -100.384 	 55.145 	 117.436 	 
H 	 -99.5662 	 55.789 	 117.319 	 
H 	 -100.57 	 54.6278 	 116.505 	 
C 	 -99.7823 	 54.106 	 118.509 	 
H 	 -98.9538 	 53.806 	 117.932 	 
H 	 -99.5008 	 54.5423 	 119.47 	 
C 	 -100.605 	 52.783 	 118.648 	 
H 	 -101.597 	 53.1048 	 119.138 	 
H 	 -100.648 	 52.2151 	 117.695 	 
H 	 -100.035 	 52.0764 	 119.324 	 
S 	 -106.236 	 57.3529 	 117.963 	 
C 	 -107.563 	 56.7571 	 118.918 	 
C 	 -107.107 	 55.9258 	 119.938 	 
C 	 -105.706 	 55.7136 	 119.916 	 
C 	 -105.107 	 56.5396 	 118.953 	 
H 	 -107.862 	 55.4925 	 120.608 	 
C 	 -105.051 	 54.8634 	 121.029 	 
H 	 -105.38 	 55.2073 	 122.005 	 
H 	 -103.91 	 55.0437 	 120.942 	 
C 	 -105.194 	 53.3078 	 121.086 	 
H 	 -106.144 	 53.1787 	 121.559 	 
H 	 -104.442 	 52.9392 	 121.766 	 
C 	 -105.108 	 52.5879 	 119.716 	 
H 	 -105.884 	 52.7086 	 118.991 	 
H 	 -105.165 	 51.5977 	 119.897 	 
H 	 -104.179 	 52.7581 	 119.174 	 
H 	 -100.496 	 57.8273 	 118.018 	 
H 	 -108.67 	 57.0083 	 118.852 	 
*
