! wB97X-D3 SP def2-SVP
%pal
nprocs 16
end

* xyz 0 1
S 	 -31.5233 	 72.4587 	 154.148 	 
C 	 -29.8477 	 73.1189 	 154.056 	 
C 	 -29.2026 	 72.8591 	 152.903 	 
C 	 -30.0672 	 72.1765 	 151.968 	 
C 	 -31.3544 	 71.9806 	 152.462 	 
H 	 -29.8004 	 71.8383 	 151.002 	 
C 	 -27.6807 	 72.9912 	 152.705 	 
H 	 -27.1775 	 72.2749 	 153.351 	 
H 	 -27.6465 	 73.9414 	 153.125 	 
C 	 -27.2116 	 73.0059 	 151.236 	 
H 	 -27.1073 	 71.9347 	 150.859 	 
H 	 -28.0384 	 73.4763 	 150.665 	 
C 	 -25.8211 	 73.6521 	 151.018 	 
H 	 -25.5854 	 73.8926 	 149.944 	 
H 	 -25.5676 	 74.6132 	 151.578 	 
H 	 -24.978 	 73.0559 	 151.289 	 
S 	 -32.7313 	 71.7651 	 150.09 	 
C 	 -34.2645 	 70.7708 	 150.034 	 
C 	 -34.4931 	 70.1634 	 151.262 	 
C 	 -33.4614 	 70.4088 	 152.246 	 
C 	 -32.5008 	 71.3284 	 151.818 	 
H 	 -35.2304 	 69.408 	 151.424 	 
C 	 -33.3377 	 69.5792 	 153.523 	 
H 	 -32.3357 	 69.6407 	 154.05 	 
H 	 -33.4058 	 68.5358 	 153.265 	 
C 	 -34.4944 	 69.994 	 154.494 	 
H 	 -35.3755 	 69.935 	 153.94 	 
H 	 -34.3128 	 70.9766 	 154.965 	 
C 	 -34.6731 	 69.0903 	 155.7 	 
H 	 -35.6012 	 69.346 	 156.182 	 
H 	 -33.7701 	 69.2031 	 156.295 	 
H 	 -34.674 	 67.9477 	 155.493 	 
H 	 -29.3648 	 73.4847 	 154.906 	 
H 	 -34.7935 	 70.5016 	 149.124 	 
*
