! wB97X-D3 SP def2-SVP
%pal
nprocs 16
end

* xyz 0 1
S 	 -44.5081 	 36.4621 	 80.3762 	 
C 	 -43.9744 	 37.4876 	 79.1368 	 
C 	 -43.0602 	 36.8691 	 78.2586 	 
C 	 -42.9177 	 35.4662 	 78.5687 	 
C 	 -43.5301 	 35.1218 	 79.7327 	 
H 	 -42.4802 	 34.6722 	 77.9322 	 
C 	 -42.3703 	 37.545 	 77.1094 	 
H 	 -42.8169 	 38.5298 	 76.9517 	 
H 	 -42.5305 	 36.9484 	 76.2447 	 
C 	 -40.8842 	 37.6899 	 77.4143 	 
H 	 -40.7448 	 38.4691 	 78.1872 	 
H 	 -40.4747 	 36.7169 	 77.7728 	 
C 	 -40.1758 	 38.206 	 76.2296 	 
H 	 -40.547 	 39.1748 	 76.0206 	 
H 	 -39.049 	 38.2884 	 76.3946 	 
H 	 -40.2117 	 37.5903 	 75.2707 	 
S 	 -45.2265 	 33.1979 	 80.8908 	 
C 	 -44.5615 	 31.7879 	 81.5919 	 
C 	 -43.2517 	 31.5844 	 81.3353 	 
C 	 -42.6506 	 32.7342 	 80.6856 	 
C 	 -43.5767 	 33.7924 	 80.4146 	 
H 	 -42.677 	 30.7534 	 81.7319 	 
C 	 -41.1854 	 32.8621 	 80.4809 	 
H 	 -40.772 	 32.3146 	 81.2669 	 
H 	 -40.8237 	 33.8995 	 80.664 	 
C 	 -40.7023 	 32.4285 	 79.0532 	 
H 	 -40.8629 	 33.2316 	 78.3483 	 
H 	 -41.2685 	 31.5593 	 78.747 	 
C 	 -39.17 	 32.2736 	 79.05 	 
H 	 -38.8226 	 33.1173 	 79.5977 	 
H 	 -38.7905 	 32.1907 	 77.966 	 
H 	 -38.9161 	 31.3876 	 79.6209 	 
H 	 -44.3265 	 38.5475 	 78.872 	 
H 	 -45.1487 	 30.9775 	 82.0093 	 
*
