! wB97X-D3 SP def2-SVP
%pal
nprocs 16
end

* xyz 0 1
S 	 48.2056 	 11.9848 	 84.5218 	 
C 	 46.8451 	 12.8329 	 83.6948 	 
C 	 47.2617 	 13.9366 	 82.9745 	 
C 	 48.6074 	 14.1717 	 83.2332 	 
C 	 49.3285 	 13.22 	 83.9599 	 
H 	 49.1556 	 14.8978 	 82.7515 	 
C 	 46.3859 	 15.0057 	 82.2271 	 
H 	 45.4348 	 14.5007 	 81.9557 	 
H 	 46.8883 	 15.2536 	 81.28 	 
C 	 46.0829 	 16.3326 	 82.9462 	 
H 	 47.0649 	 16.8797 	 82.8987 	 
H 	 45.4051 	 16.9879 	 82.3664 	 
C 	 45.6083 	 16.1098 	 84.4343 	 
H 	 45.3984 	 17.0366 	 84.8997 	 
H 	 44.7271 	 15.5047 	 84.5802 	 
H 	 46.3462 	 15.5602 	 84.9387 	 
S 	 51.4982 	 13.1633 	 85.7058 	 
C 	 53.0254 	 12.852 	 84.9841 	 
C 	 52.9296 	 12.5065 	 83.6936 	 
C 	 51.6844 	 12.7087 	 83.1148 	 
C 	 50.7623 	 13.1042 	 84.1367 	 
H 	 53.7294 	 12.0302 	 83.1996 	 
C 	 51.2875 	 12.2108 	 81.772 	 
H 	 50.298 	 12.416 	 81.5979 	 
H 	 51.4519 	 11.1337 	 81.8169 	 
C 	 52.042 	 12.854 	 80.5946 	 
H 	 51.5821 	 12.4822 	 79.6635 	 
H 	 53.1135 	 12.7108 	 80.763 	 
C 	 51.9138 	 14.3548 	 80.5755 	 
H 	 52.2744 	 14.7452 	 81.581 	 
H 	 50.9057 	 14.8199 	 80.5268 	 
H 	 52.4817 	 14.806 	 79.7778 	 
H 	 45.8114 	 12.5056 	 83.7685 	 
H 	 53.8327 	 12.7923 	 85.6757 	 
*
