! wB97X-D3 SP def2-SVP
%pal
nprocs 16
end

* xyz 0 1
S 	 47.7608 	 5.65385 	 86.6811 	 
C 	 47.9209 	 4.95755 	 85.038 	 
C 	 47.3057 	 3.70545 	 85.0107 	 
C 	 46.7079 	 3.36362 	 86.2486 	 
C 	 46.8799 	 4.25758 	 87.2969 	 
H 	 46.0523 	 2.47457 	 86.3598 	 
C 	 46.9917 	 2.93249 	 83.7368 	 
H 	 47.5614 	 3.32709 	 82.8984 	 
H 	 45.9 	 3.01588 	 83.6359 	 
C 	 47.3099 	 1.49159 	 83.9013 	 
H 	 46.6289 	 1.09384 	 84.6555 	 
H 	 47.0188 	 0.981855 	 82.9575 	 
C 	 48.6967 	 1.09778 	 84.2831 	 
H 	 48.7586 	 -0.00799551 	 84.307 	 
H 	 49.392 	 1.46506 	 83.5052 	 
H 	 49.1651 	 1.42996 	 85.2245 	 
S 	 45.6975 	 5.59088 	 89.3187 	 
C 	 45.4255 	 4.62365 	 90.7532 	 
C 	 46.0847 	 3.40863 	 90.7395 	 
C 	 46.576 	 3.03094 	 89.4548 	 
C 	 46.3662 	 4.10925 	 88.6125 	 
H 	 46.0628 	 2.84602 	 91.7022 	 
C 	 47.1868 	 1.72693 	 89.1357 	 
H 	 46.4673 	 1.31336 	 88.3875 	 
H 	 47.1681 	 1.17078 	 90.05 	 
C 	 48.698 	 1.66166 	 88.5934 	 
H 	 48.8197 	 2.33173 	 87.7694 	 
H 	 48.8876 	 0.700148 	 88.2148 	 
C 	 49.7433 	 2.27441 	 89.5965 	 
H 	 50.5317 	 2.66959 	 88.9441 	 
H 	 50.1131 	 1.61087 	 90.4097 	 
H 	 49.3964 	 3.16916 	 90.1075 	 
H 	 48.3195 	 5.40232 	 84.1039 	 
H 	 44.965 	 5.09344 	 91.6427 	 
*
