! wB97X-D3 SP def2-SVP
%pal
nprocs 16
end

* xyz 0 1
S 	 -15.4374 	 56.77 	 62.2499 	 
C 	 -15.4486 	 54.9839 	 62.1859 	 
C 	 -16.4611 	 54.4948 	 63.0585 	 
C 	 -16.866 	 55.5136 	 63.9152 	 
C 	 -16.2889 	 56.7345 	 63.7511 	 
H 	 -17.5336 	 55.4023 	 64.7719 	 
C 	 -16.9222 	 53.0159 	 63.1902 	 
H 	 -17.4184 	 52.8956 	 64.1445 	 
H 	 -16.0719 	 52.3638 	 63.1715 	 
C 	 -17.7715 	 52.6234 	 61.9602 	 
H 	 -17.215 	 52.3854 	 61.05 	 
H 	 -18.3052 	 51.6654 	 62.2196 	 
C 	 -18.857 	 53.6704 	 61.6087 	 
H 	 -19.3656 	 53.2913 	 60.7662 	 
H 	 -19.6329 	 53.9782 	 62.3041 	 
H 	 -18.438 	 54.5978 	 61.2572 	 
S 	 -16.501 	 59.4542 	 63.7342 	 
C 	 -16.7589 	 60.2874 	 65.2134 	 
C 	 -16.8632 	 59.4714 	 66.2803 	 
C 	 -16.7483 	 58.0885 	 65.8937 	 
C 	 -16.4877 	 57.9047 	 64.5397 	 
H 	 -17.0959 	 59.8569 	 67.2406 	 
C 	 -16.9287 	 56.9951 	 66.982 	 
H 	 -16.2523 	 57.1602 	 67.8675 	 
H 	 -16.4358 	 56.0841 	 66.7373 	 
C 	 -18.3933 	 56.7038 	 67.5555 	 
H 	 -19.0191 	 57.3409 	 66.9903 	 
H 	 -18.407 	 57.1553 	 68.5365 	 
C 	 -18.8139 	 55.1832 	 67.6673 	 
H 	 -17.9755 	 54.6608 	 68.0137 	 
H 	 -19.1076 	 54.8127 	 66.7052 	 
H 	 -19.6223 	 54.9205 	 68.379 	 
H 	 -14.9786 	 54.3557 	 61.4649 	 
H 	 -16.9024 	 61.3715 	 65.1688 	 
*
