! wB97X-D3 SP def2-SVP
%pal
nprocs 16
end

* xyz 0 1
S 	 5.90759 	 -5.15036 	 73.2906 	 
C 	 4.26143 	 -5.51166 	 72.698 	 
C 	 3.51795 	 -4.4015 	 72.8467 	 
C 	 4.24804 	 -3.24922 	 73.1972 	 
C 	 5.51271 	 -3.48824 	 73.5541 	 
H 	 3.85792 	 -2.27315 	 73.2567 	 
C 	 2.04061 	 -4.32032 	 72.6752 	 
H 	 1.74198 	 -5.01304 	 71.8755 	 
H 	 1.74027 	 -3.33538 	 72.3923 	 
C 	 1.21377 	 -4.62562 	 73.9667 	 
H 	 1.23134 	 -3.82947 	 74.678 	 
H 	 0.221384 	 -4.7526 	 73.6476 	 
C 	 1.776 	 -5.84748 	 74.6587 	 
H 	 1.81307 	 -6.69812 	 73.9898 	 
H 	 2.73064 	 -5.8487 	 75.2306 	 
H 	 1.06284 	 -6.25489 	 75.3403 	 
S 	 8.25079 	 -3.12513 	 73.8812 	 
C 	 8.84546 	 -1.64733 	 74.5649 	 
C 	 7.76518 	 -0.782325 	 74.8629 	 
C 	 6.44506 	 -1.31214 	 74.601 	 
C 	 6.48408 	 -2.55118 	 74.0077 	 
H 	 7.97655 	 0.238017 	 75.0939 	 
C 	 5.14888 	 -0.543187 	 74.8107 	 
H 	 5.38557 	 0.0349343 	 75.6475 	 
H 	 4.37885 	 -1.14092 	 75.3101 	 
C 	 4.61976 	 0.277839 	 73.6065 	 
H 	 3.68111 	 0.780089 	 73.7897 	 
H 	 4.59522 	 -0.360754 	 72.6802 	 
C 	 5.6104 	 1.40755 	 73.3258 	 
H 	 6.61021 	 0.946734 	 73.2276 	 
H 	 5.67509 	 2.026 	 74.2352 	 
H 	 5.33984 	 1.91915 	 72.4518 	 
H 	 3.79692 	 -6.47499 	 72.5202 	 
H 	 9.86038 	 -1.39868 	 74.7326 	 
*
