! wB97X-D3 SP def2-SVP
%pal
nprocs 16
end

* xyz 0 1
S 	 -59.8734 	 59.1807 	 124.663 	 
C 	 -60.6553 	 59.8855 	 126.134 	 
C 	 -61.5032 	 58.9919 	 126.662 	 
C 	 -61.4555 	 57.7052 	 126.012 	 
C 	 -60.7282 	 57.5923 	 124.851 	 
H 	 -62.1807 	 56.9653 	 126.256 	 
C 	 -62.4058 	 59.1639 	 127.876 	 
H 	 -62.1244 	 60.1363 	 128.303 	 
H 	 -62.3192 	 58.3065 	 128.588 	 
C 	 -63.8988 	 59.4128 	 127.434 	 
H 	 -63.958 	 60.2789 	 126.863 	 
H 	 -64.1541 	 58.6461 	 126.709 	 
C 	 -64.8767 	 59.4559 	 128.635 	 
H 	 -65.8787 	 59.7226 	 128.194 	 
H 	 -64.922 	 58.4891 	 129.268 	 
H 	 -64.7255 	 60.2857 	 129.296 	 
S 	 -60.0514 	 56.9332 	 122.224 	 
C 	 -60.3312 	 55.3086 	 121.613 	 
C 	 -60.6599 	 54.4215 	 122.642 	 
C 	 -60.79 	 55.1106 	 123.906 	 
C 	 -60.5553 	 56.4947 	 123.872 	 
H 	 -60.8273 	 53.3708 	 122.507 	 
C 	 -61.2379 	 54.2667 	 125.09 	 
H 	 -61.6388 	 53.1818 	 124.843 	 
H 	 -62.2317 	 54.7965 	 125.342 	 
C 	 -60.347 	 54.316 	 126.336 	 
H 	 -60.0595 	 55.3375 	 126.638 	 
H 	 -59.4324 	 53.776 	 126.068 	 
C 	 -60.9552 	 53.7208 	 127.613 	 
H 	 -60.3045 	 53.77 	 128.489 	 
H 	 -61.1742 	 52.6095 	 127.373 	 
H 	 -61.8615 	 54.1707 	 127.809 	 
H 	 -60.6549 	 60.925 	 126.349 	 
H 	 -60.1264 	 54.9648 	 120.576 	 
*
