! wB97X-D3 SP def2-SVP
%pal
nprocs 16
end

* xyz 0 1
S 	 -106.741 	 40.213 	 130.632 	 
C 	 -106.188 	 40.6344 	 132.259 	 
C 	 -106.997 	 41.4832 	 132.937 	 
C 	 -108.101 	 41.8276 	 132.111 	 
C 	 -108.216 	 41.1113 	 130.935 	 
H 	 -108.824 	 42.6274 	 132.272 	 
C 	 -106.61 	 42.2187 	 134.284 	 
H 	 -107.104 	 43.2062 	 134.215 	 
H 	 -105.53 	 42.4005 	 134.497 	 
C 	 -107.26 	 41.5012 	 135.504 	 
H 	 -107.277 	 42.1619 	 136.349 	 
H 	 -108.287 	 41.3546 	 135.294 	 
C 	 -106.583 	 40.1762 	 135.859 	 
H 	 -107.145 	 39.641 	 136.619 	 
H 	 -106.612 	 39.4294 	 135.079 	 
H 	 -105.554 	 40.2793 	 136.095 	 
S 	 -108.604 	 42.2449 	 128.434 	 
C 	 -110.298 	 42.5425 	 127.841 	 
C 	 -111.185 	 41.8875 	 128.688 	 
C 	 -110.584 	 41.3244 	 129.864 	 
C 	 -109.222 	 41.4475 	 129.887 	 
H 	 -112.211 	 41.7537 	 128.437 	 
C 	 -111.459 	 40.5138 	 130.91 	 
H 	 -111.037 	 39.4871 	 131.053 	 
H 	 -112.32 	 40.3054 	 130.219 	 
C 	 -111.736 	 41.4028 	 132.162 	 
H 	 -112.018 	 42.418 	 131.888 	 
H 	 -110.78 	 41.4918 	 132.59 	 
C 	 -112.619 	 40.8797 	 133.207 	 
H 	 -112.752 	 41.4918 	 134.031 	 
H 	 -112.3 	 39.929 	 133.589 	 
H 	 -113.586 	 40.5707 	 132.795 	 
H 	 -105.201 	 40.4437 	 132.685 	 
H 	 -110.602 	 42.7825 	 126.862 	 
*
