! wB97X-D3 SP def2-SVP
%pal
nprocs 16
end

* xyz 0 1
S 	 -11.4995 	 31.2604 	 36.8345 	 
C 	 -10.66 	 31.0716 	 35.3087 	 
C 	 -11.455 	 31.5083 	 34.213 	 
C 	 -12.7539 	 31.8719 	 34.6764 	 
C 	 -13.0008 	 31.6737 	 35.9831 	 
H 	 -13.5132 	 32.2009 	 33.9943 	 
C 	 -10.929 	 31.713 	 32.822 	 
H 	 -10.0908 	 31.0799 	 32.6925 	 
H 	 -10.6047 	 32.8011 	 32.6553 	 
C 	 -11.9792 	 31.4496 	 31.7225 	 
H 	 -12.3034 	 30.4237 	 31.5832 	 
H 	 -12.864 	 31.9628 	 31.995 	 
C 	 -11.6202 	 31.9261 	 30.3642 	 
H 	 -12.3941 	 31.6036 	 29.6546 	 
H 	 -11.491 	 32.983 	 30.191 	 
H 	 -10.7021 	 31.4203 	 30.0506 	 
S 	 -14.6386 	 33.0791 	 37.6316 	 
C 	 -16.2552 	 32.4846 	 38.0221 	 
C 	 -16.4428 	 31.29 	 37.4001 	 
C 	 -15.3123 	 30.8585 	 36.5936 	 
C 	 -14.2424 	 31.7197 	 36.6704 	 
H 	 -17.3068 	 30.6834 	 37.511 	 
C 	 -15.3361 	 29.629 	 35.7067 	 
H 	 -15.9901 	 28.8356 	 36.1077 	 
H 	 -14.3602 	 29.1521 	 35.7489 	 
C 	 -15.9078 	 29.7989 	 34.2721 	 
H 	 -15.5799 	 28.9879 	 33.5874 	 
H 	 -15.4672 	 30.6377 	 33.8494 	 
C 	 -17.4394 	 30.0388 	 34.0827 	 
H 	 -17.9078 	 29.115 	 34.5105 	 
H 	 -17.7529 	 30.1062 	 33.0743 	 
H 	 -17.6735 	 30.8876 	 34.7491 	 
H 	 -9.63384 	 30.8008 	 35.0523 	 
H 	 -16.9008 	 32.7903 	 38.8609 	 
*
