! wB97X-D3 SP def2-SVP
%pal
nprocs 16
end

* xyz 0 1
S 	 -21.9754 	 -1.34666 	 78.3731 	 
C 	 -20.5459 	 -2.28474 	 78.3472 	 
C 	 -20.3469 	 -2.73765 	 77.0702 	 
C 	 -21.4399 	 -2.48913 	 76.1901 	 
C 	 -22.5202 	 -1.93778 	 76.8357 	 
H 	 -21.5079 	 -2.87232 	 75.1058 	 
C 	 -19.1588 	 -3.48479 	 76.6642 	 
H 	 -18.8555 	 -4.01482 	 77.5254 	 
H 	 -18.4301 	 -2.73261 	 76.5186 	 
C 	 -19.2097 	 -4.44184 	 75.5168 	 
H 	 -19.1733 	 -3.88203 	 74.6051 	 
H 	 -18.2067 	 -4.91828 	 75.3652 	 
C 	 -20.2158 	 -5.54515 	 75.4836 	 
H 	 -21.1961 	 -5.06906 	 75.5676 	 
H 	 -20.2311 	 -6.01486 	 74.499 	 
H 	 -20.1425 	 -6.20269 	 76.3252 	 
S 	 -23.9814 	 0.227269 	 76.163 	 
C 	 -25.4019 	 0.0613375 	 75.1737 	 
C 	 -25.6322 	 -1.26772 	 74.8266 	 
C 	 -24.705 	 -2.16536 	 75.4677 	 
C 	 -23.8105 	 -1.53679 	 76.3008 	 
H 	 -26.5055 	 -1.43737 	 74.1912 	 
C 	 -24.7889 	 -3.66531 	 75.1275 	 
H 	 -23.7913 	 -3.80789 	 74.7152 	 
H 	 -25.4413 	 -3.83046 	 74.2205 	 
C 	 -25.1666 	 -4.52777 	 76.3292 	 
H 	 -26.0297 	 -4.13996 	 76.86 	 
H 	 -24.4078 	 -4.4791 	 77.0841 	 
C 	 -25.5528 	 -5.9571 	 75.9884 	 
H 	 -24.7506 	 -6.41461 	 75.5296 	 
H 	 -26.4352 	 -5.94669 	 75.3093 	 
H 	 -25.6541 	 -6.53963 	 76.9429 	 
H 	 -19.8229 	 -2.36761 	 79.1588 	 
H 	 -26.0175 	 0.939725 	 74.9143 	 
*
