! wB97X-D3 SP def2-SVP
%pal
nprocs 16
end

* xyz 0 1
S 	 56.2128 	 5.29656 	 78.1379 	 
C 	 54.52 	 4.86197 	 78.0823 	 
C 	 54.2176 	 4.09608 	 79.222 	 
C 	 55.3962 	 3.88333 	 80.0348 	 
C 	 56.5277 	 4.36679 	 79.5664 	 
H 	 55.513 	 3.285 	 80.9395 	 
C 	 52.8423 	 3.56895 	 79.5759 	 
H 	 52.1575 	 4.39127 	 79.8213 	 
H 	 53.0946 	 2.95459 	 80.4347 	 
C 	 52.1059 	 2.64563 	 78.5818 	 
H 	 51.0193 	 2.62089 	 78.743 	 
H 	 52.2991 	 2.95025 	 77.5733 	 
C 	 52.6379 	 1.19103 	 78.7027 	 
H 	 52.0579 	 0.555266 	 78.0144 	 
H 	 53.6626 	 0.978966 	 78.2563 	 
H 	 52.4722 	 0.906093 	 79.7083 	 
S 	 58.8639 	 5.37461 	 80.6339 	 
C 	 60.0899 	 4.24458 	 81.1388 	 
C 	 59.7789 	 2.96138 	 80.86 	 
C 	 58.4661 	 2.86433 	 80.2797 	 
C 	 57.8546 	 4.07294 	 80.0916 	 
H 	 60.4186 	 2.1722 	 81.0799 	 
C 	 57.967 	 1.48728 	 79.6261 	 
H 	 58.3747 	 1.35127 	 78.586 	 
H 	 56.8487 	 1.55654 	 79.5421 	 
C 	 58.3762 	 0.217835 	 80.2866 	 
H 	 57.8101 	 0.0929141 	 81.2119 	 
H 	 59.4273 	 0.223862 	 80.5598 	 
C 	 58.1138 	 -0.9817 	 79.3404 	 
H 	 58.4502 	 -1.93586 	 79.7974 	 
H 	 58.6553 	 -0.821305 	 78.4035 	 
H 	 57.0684 	 -1.19742 	 79.184 	 
H 	 53.7255 	 5.08336 	 77.4521 	 
H 	 61.1424 	 4.51656 	 81.2634 	 
*
