! wB97X-D3 SP def2-SVP
%pal
nprocs 16
end

* xyz 0 1
S 	 -31.4593 	 55.914 	 107.33 	 
C 	 -30.565 	 56.4651 	 105.916 	 
C 	 -30.538 	 57.8743 	 105.829 	 
C 	 -31.1943 	 58.4788 	 106.984 	 
C 	 -31.7941 	 57.5566 	 107.846 	 
H 	 -31.2231 	 59.5156 	 107.251 	 
C 	 -29.9867 	 58.7253 	 104.689 	 
H 	 -30.8151 	 59.2568 	 104.23 	 
H 	 -29.5653 	 58.0311 	 104.02 	 
C 	 -28.8492 	 59.6848 	 105.162 	 
H 	 -29.2693 	 60.381 	 105.827 	 
H 	 -28.037 	 59.0786 	 105.592 	 
C 	 -28.2235 	 60.4376 	 104 	 
H 	 -28.962 	 61.1334 	 103.538 	 
H 	 -27.2672 	 61.0127 	 104.193 	 
H 	 -27.877 	 59.7384 	 103.237 	 
S 	 -32.5871 	 56.9422 	 110.368 	 
C 	 -33.8334 	 57.9023 	 111.115 	 
C 	 -34.3901 	 58.7705 	 110.227 	 
C 	 -33.7269 	 58.7963 	 108.973 	 
C 	 -32.6656 	 57.9138 	 108.964 	 
H 	 -35.2195 	 59.4466 	 110.556 	 
C 	 -34.2839 	 59.6444 	 107.782 	 
H 	 -35.352 	 59.5742 	 107.699 	 
H 	 -33.9853 	 59.1598 	 106.895 	 
C 	 -33.8213 	 61.0828 	 107.771 	 
H 	 -32.7436 	 61.1137 	 107.953 	 
H 	 -34.1348 	 61.5759 	 108.657 	 
C 	 -34.1918 	 61.8165 	 106.479 	 
H 	 -33.9234 	 61.2149 	 105.521 	 
H 	 -33.7837 	 62.8325 	 106.45 	 
H 	 -35.2503 	 61.9444 	 106.478 	 
H 	 -30.3632 	 55.728 	 105.141 	 
H 	 -34.2538 	 57.7858 	 112.099 	 
*
