! wB97X-D3 SP def2-SVP
%pal
nprocs 16
end

* xyz 0 1
S 	 -4.59912 	 -12.8942 	 68.4888 	 
C 	 -6.21534 	 -12.36 	 68.3596 	 
C 	 -6.32724 	 -11.1896 	 67.581 	 
C 	 -5.09856 	 -10.8754 	 66.9472 	 
C 	 -4.04368 	 -11.7272 	 67.3142 	 
H 	 -4.91845 	 -9.97273 	 66.2856 	 
C 	 -7.6815 	 -10.4272 	 67.3643 	 
H 	 -8.53088 	 -11.107 	 67.5932 	 
H 	 -7.67817 	 -10.1832 	 66.2965 	 
C 	 -7.81171 	 -9.21604 	 68.2907 	 
H 	 -6.90761 	 -8.59783 	 68.2164 	 
H 	 -8.59208 	 -8.58466 	 67.9109 	 
C 	 -7.96033 	 -9.4515 	 69.8577 	 
H 	 -7.96909 	 -8.50036 	 70.3879 	 
H 	 -8.91685 	 -9.89447 	 70.0213 	 
H 	 -7.23029 	 -10.154 	 70.2873 	 
S 	 -1.91428 	 -10.0833 	 66.9391 	 
C 	 -0.509239 	 -10.6002 	 66.141 	 
C 	 -0.564757 	 -11.9621 	 65.9291 	 
C 	 -1.72217 	 -12.6213 	 66.4707 	 
C 	 -2.66126 	 -11.677 	 66.8177 	 
H 	 0.320639 	 -12.388 	 65.4899 	 
C 	 -2.04026 	 -14.1357 	 66.3494 	 
H 	 -2.42831 	 -14.4425 	 67.3067 	 
H 	 -1.15014 	 -14.7002 	 66.1467 	 
C 	 -3.23856 	 -14.527 	 65.3852 	 
H 	 -3.1189 	 -14.1299 	 64.3658 	 
H 	 -4.13776 	 -14.0196 	 65.6978 	 
C 	 -3.51251 	 -15.9933 	 65.4138 	 
H 	 -2.59073 	 -16.5324 	 65.0633 	 
H 	 -4.40078 	 -16.2084 	 64.799 	 
H 	 -3.71465 	 -16.3809 	 66.3554 	 
H 	 -6.97777 	 -12.7525 	 68.955 	 
H 	 0.444816 	 -10.0292 	 66.1399 	 
*
