! wB97X-D3 SP def2-SVP
%pal
nprocs 16
end

* xyz 0 1
S 	 -3.14508 	 -16.3955 	 89.5808 	 
C 	 -4.68103 	 -16.3619 	 90.4657 	 
C 	 -5.75392 	 -16.065 	 89.5998 	 
C 	 -5.2488 	 -15.6956 	 88.3196 	 
C 	 -3.89421 	 -15.8089 	 88.1701 	 
H 	 -5.85 	 -15.3639 	 87.5068 	 
C 	 -7.20269 	 -15.9059 	 89.9628 	 
H 	 -7.66912 	 -15.0986 	 89.2892 	 
H 	 -7.22963 	 -15.6841 	 91.0801 	 
C 	 -8.05998 	 -17.0351 	 89.668 	 
H 	 -8.1311 	 -17.1257 	 88.5582 	 
H 	 -7.53746 	 -18.0001 	 89.9221 	 
C 	 -9.41654 	 -17.0241 	 90.3656 	 
H 	 -9.9694 	 -16.1569 	 89.9984 	 
H 	 -9.94014 	 -17.9869 	 90.009 	 
H 	 -9.37884 	 -16.935 	 91.4295 	 
S 	 -2.1885 	 -14.2696 	 86.7596 	 
C 	 -1.71552 	 -14.7259 	 85.1114 	 
C 	 -2.44436 	 -15.8371 	 84.6729 	 
C 	 -3.23301 	 -16.4138 	 85.7678 	 
C 	 -3.16875 	 -15.6471 	 86.9394 	 
H 	 -2.26053 	 -16.2414 	 83.657 	 
C 	 -4.04271 	 -17.6481 	 85.6386 	 
H 	 -3.86125 	 -18.1519 	 86.5601 	 
H 	 -3.59219 	 -18.2778 	 84.8814 	 
C 	 -5.48078 	 -17.5396 	 85.4258 	 
H 	 -5.96575 	 -17.3221 	 86.3647 	 
H 	 -5.86549 	 -18.5245 	 85.064 	 
C 	 -5.87356 	 -16.5787 	 84.3154 	 
H 	 -6.88932 	 -16.5932 	 83.9859 	 
H 	 -5.21486 	 -16.8461 	 83.4438 	 
H 	 -5.57409 	 -15.567 	 84.5943 	 
H 	 -4.78149 	 -16.5415 	 91.4864 	 
H 	 -0.958077 	 -14.242 	 84.5546 	 
*
