! wB97X-D3 SP def2-SVP
%pal
nprocs 16
end

* xyz 0 1
S 	 47.3068 	 5.09758 	 88.6514 	 
C 	 47.1592 	 6.61548 	 87.904 	 
C 	 46.1716 	 6.56689 	 86.8984 	 
C 	 45.5964 	 5.23198 	 86.7804 	 
C 	 46.3069 	 4.29839 	 87.4886 	 
H 	 44.7407 	 5.09704 	 86.1389 	 
C 	 45.6357 	 7.71423 	 86.0851 	 
H 	 45.0093 	 8.24426 	 86.8139 	 
H 	 45.1242 	 7.33302 	 85.264 	 
C 	 46.6951 	 8.72921 	 85.5169 	 
H 	 47.3714 	 9.09971 	 86.3229 	 
H 	 47.4292 	 8.2173 	 84.8244 	 
C 	 46.0531 	 9.98516 	 84.9455 	 
H 	 45.3827 	 10.4785 	 85.6498 	 
H 	 46.8704 	 10.7485 	 84.7816 	 
H 	 45.6576 	 9.85567 	 83.9564 	 
S 	 44.4832 	 2.46029 	 88.2449 	 
C 	 44.85 	 0.798784 	 88.5768 	 
C 	 46.1871 	 0.555224 	 88.272 	 
C 	 46.8499 	 1.72317 	 87.7148 	 
C 	 46.0506 	 2.85714 	 87.6665 	 
H 	 46.6057 	 -0.405325 	 88.5052 	 
C 	 48.2625 	 1.55384 	 87.201 	 
H 	 48.4532 	 2.28362 	 86.4929 	 
H 	 48.3353 	 0.595437 	 86.7039 	 
C 	 49.3445 	 1.49655 	 88.2815 	 
H 	 49.2287 	 0.696798 	 88.9759 	 
H 	 49.256 	 2.40198 	 88.856 	 
C 	 50.7759 	 1.55872 	 87.8044 	 
H 	 50.816 	 1.0552 	 86.8772 	 
H 	 51.4435 	 1.10797 	 88.5475 	 
H 	 51.0625 	 2.5452 	 87.6277 	 
H 	 47.6814 	 7.54719 	 88.1885 	 
H 	 44.3377 	 0.0493177 	 89.0941 	 
*
