! wB97X-D3 SP def2-SVP
%pal
nprocs 16
end

* xyz 0 1
S 	 39.2565 	 26.4093 	 93.3611 	 
C 	 40.3857 	 27.7719 	 93.5228 	 
C 	 41.3128 	 27.5163 	 94.5001 	 
C 	 41.0278 	 26.2686 	 95.1178 	 
C 	 39.8889 	 25.5803 	 94.6863 	 
H 	 41.6258 	 25.8662 	 95.8731 	 
C 	 42.543 	 28.3722 	 94.9073 	 
H 	 42.8579 	 28.1831 	 95.8714 	 
H 	 42.3397 	 29.4048 	 94.8472 	 
C 	 43.6988 	 28.1512 	 93.9387 	 
H 	 43.2487 	 28.3209 	 92.9928 	 
H 	 44.5516 	 28.8198 	 94.0888 	 
C 	 44.314 	 26.7403 	 93.9884 	 
H 	 44.8581 	 26.477 	 94.9195 	 
H 	 43.4999 	 26.0412 	 93.7832 	 
H 	 45.0218 	 26.5834 	 93.1643 	 
S 	 37.7418 	 24.1946 	 95.8062 	 
C 	 38.0226 	 22.5546 	 96.2302 	 
C 	 39.2564 	 22.0842 	 95.9494 	 
C 	 40.0846 	 23.1045 	 95.3953 	 
C 	 39.3987 	 24.3033 	 95.1843 	 
H 	 39.5724 	 21.0238 	 96.2046 	 
C 	 41.4586 	 22.8153 	 95.0256 	 
H 	 41.6237 	 21.7687 	 95.3317 	 
H 	 42.1743 	 23.3519 	 95.624 	 
C 	 41.6609 	 22.8357 	 93.4677 	 
H 	 42.6031 	 22.421 	 93.1702 	 
H 	 41.5863 	 23.8146 	 93.0184 	 
C 	 40.6226 	 21.9118 	 92.7946 	 
H 	 39.6485 	 22.3959 	 92.8027 	 
H 	 40.442 	 20.9809 	 93.3783 	 
H 	 41.048 	 21.6404 	 91.8138 	 
H 	 40.4777 	 28.7092 	 93.047 	 
H 	 37.1172 	 21.9836 	 96.6284 	 
*
