! wB97X-D3 SP def2-SVP
%pal
nprocs 16
end

* xyz 0 1
S 	 -5.73405 	 44.872 	 39.5845 	 
C 	 -4.71772 	 43.7894 	 38.7752 	 
C 	 -5.09298 	 42.5207 	 39.0377 	 
C 	 -6.35293 	 42.4704 	 39.7601 	 
C 	 -6.77475 	 43.7053 	 40.216 	 
H 	 -6.83527 	 41.5804 	 40.1979 	 
C 	 -4.46045 	 41.2458 	 38.6439 	 
H 	 -4.38557 	 41.3183 	 37.5914 	 
H 	 -5.21871 	 40.4088 	 38.8644 	 
C 	 -3.13468 	 41.0644 	 39.3774 	 
H 	 -2.77416 	 41.9786 	 39.6909 	 
H 	 -3.31349 	 40.6055 	 40.3397 	 
C 	 -2.17683 	 40.1518 	 38.6562 	 
H 	 -2.25678 	 40.3213 	 37.5822 	 
H 	 -1.06569 	 40.1727 	 38.9042 	 
H 	 -2.54116 	 39.173 	 38.8745 	 
S 	 -9.50632 	 44.5134 	 40.1525 	 
C 	 -10.2914 	 44.6156 	 41.6938 	 
C 	 -9.45088 	 44.247 	 42.7368 	 
C 	 -8.18488 	 43.736 	 42.3343 	 
C 	 -8.0158 	 43.9251 	 40.9321 	 
H 	 -9.97341 	 44.2357 	 43.7365 	 
C 	 -7.14602 	 43.2738 	 43.371 	 
H 	 -6.20477 	 43.7566 	 43.0532 	 
H 	 -6.91992 	 42.1704 	 43.2046 	 
C 	 -7.50856 	 43.5161 	 44.8193 	 
H 	 -8.52008 	 43.1242 	 45.0447 	 
H 	 -7.42734 	 44.6222 	 44.8622 	 
C 	 -6.66028 	 43.0131 	 45.9971 	 
H 	 -5.67538 	 43.454 	 45.9949 	 
H 	 -6.49531 	 41.9355 	 45.8892 	 
H 	 -7.10142 	 43.2224 	 46.9552 	 
H 	 -3.74781 	 43.9531 	 38.3579 	 
H 	 -11.0959 	 45.2143 	 41.9072 	 
*
