! wB97X-D3 SP def2-SVP
%pal
nprocs 16
end

* xyz 0 1
S 	 11.2832 	 22.7746 	 52.8048 	 
C 	 12.1733 	 22.5534 	 54.3062 	 
C 	 13.1446 	 23.545 	 54.4379 	 
C 	 13.2796 	 24.3935 	 53.3276 	 
C 	 12.2118 	 24.1975 	 52.4716 	 
H 	 14.0552 	 25.1706 	 53.1415 	 
C 	 14.1169 	 23.5587 	 55.6001 	 
H 	 13.7679 	 22.7603 	 56.2043 	 
H 	 13.9166 	 24.5967 	 55.9516 	 
C 	 15.6394 	 23.3895 	 55.4382 	 
H 	 15.8077 	 22.5145 	 54.8237 	 
H 	 15.9885 	 24.2428 	 54.8325 	 
C 	 16.3646 	 23.3084 	 56.7569 	 
H 	 17.3934 	 23.13 	 56.4639 	 
H 	 16.3117 	 24.2956 	 57.2597 	 
H 	 16.0652 	 22.505 	 57.391 	 
S 	 12.3172 	 24.2858 	 49.7099 	 
C 	 11.595 	 25.6465 	 48.9279 	 
C 	 11.1893 	 26.6085 	 49.8317 	 
C 	 11.3492 	 26.2287 	 51.1898 	 
C 	 11.9801 	 25.011 	 51.2956 	 
H 	 10.6895 	 27.4452 	 49.4288 	 
C 	 10.9161 	 27.0619 	 52.4247 	 
H 	 11.7841 	 27.1781 	 53.0954 	 
H 	 10.2236 	 26.3238 	 52.9082 	 
C 	 10.3757 	 28.4383 	 52.182 	 
H 	 9.60144 	 28.3619 	 51.3714 	 
H 	 11.1469 	 29.0482 	 51.7075 	 
C 	 9.88188 	 29.1024 	 53.4735 	 
H 	 9.07898 	 28.5504 	 54.0394 	 
H 	 9.3768 	 30.0386 	 53.2411 	 
H 	 10.6639 	 29.3381 	 54.2355 	 
H 	 11.9757 	 21.8215 	 55.0615 	 
H 	 11.5449 	 25.7279 	 47.8094 	 
*
