! wB97X-D3 SP def2-SVP
%pal
nprocs 16
end

* xyz 0 1
S 	 -62.8372 	 58.8648 	 124.143 	 
C 	 -62.4105 	 59.0258 	 122.437 	 
C 	 -63.3631 	 58.5864 	 121.626 	 
C 	 -64.6005 	 58.3851 	 122.356 	 
C 	 -64.4702 	 58.7013 	 123.704 	 
H 	 -65.5844 	 58.245 	 121.924 	 
C 	 -63.3095 	 58.4034 	 120.133 	 
H 	 -64.1444 	 57.6933 	 119.827 	 
H 	 -62.351 	 57.9233 	 119.955 	 
C 	 -63.4432 	 59.7164 	 119.281 	 
H 	 -64.3538 	 60.1166 	 119.602 	 
H 	 -62.7134 	 60.4478 	 119.663 	 
C 	 -63.2651 	 59.7092 	 117.753 	 
H 	 -64.2275 	 59.3584 	 117.322 	 
H 	 -63.1347 	 60.6009 	 117.229 	 
H 	 -62.5661 	 58.9917 	 117.326 	 
S 	 -66.8773 	 59.6648 	 124.555 	 
C 	 -67.7083 	 58.9712 	 125.883 	 
C 	 -66.8865 	 58.025 	 126.52 	 
C 	 -65.6684 	 57.7304 	 125.826 	 
C 	 -65.5736 	 58.5161 	 124.665 	 
H 	 -67.181 	 57.5802 	 127.417 	 
C 	 -64.6932 	 56.6448 	 126.385 	 
H 	 -63.8255 	 57.2045 	 126.756 	 
H 	 -64.2615 	 56.241 	 125.485 	 
C 	 -65.2304 	 55.512 	 127.356 	 
H 	 -66.1592 	 55.0234 	 126.969 	 
H 	 -65.3957 	 55.921 	 128.286 	 
C 	 -64.1239 	 54.4749 	 127.532 	 
H 	 -63.1308 	 54.8474 	 127.839 	 
H 	 -64.078 	 54.0002 	 126.528 	 
H 	 -64.4191 	 53.7336 	 128.256 	 
H 	 -61.3498 	 59.25 	 122.162 	 
H 	 -68.7282 	 59.2223 	 126.294 	 
*
