! wB97X-D3 SP def2-SVP
%pal
nprocs 16
end

* xyz 0 1
S 	 -58.3161 	 38.0588 	 118.77 	 
C 	 -58.868 	 38.5868 	 120.273 	 
C 	 -59.9925 	 39.3695 	 120.176 	 
C 	 -60.5308 	 39.4143 	 118.918 	 
C 	 -59.8349 	 38.5808 	 118.063 	 
H 	 -61.3816 	 40.0262 	 118.611 	 
C 	 -60.6037 	 40.2332 	 121.356 	 
H 	 -60.2182 	 41.2132 	 121.053 	 
H 	 -60.1205 	 40.0005 	 122.29 	 
C 	 -62.1689 	 40.2908 	 121.433 	 
H 	 -62.4791 	 41.1134 	 122.088 	 
H 	 -62.7335 	 40.453 	 120.499 	 
C 	 -62.693 	 38.9533 	 122.003 	 
H 	 -62.4027 	 38.9153 	 122.968 	 
H 	 -63.7401 	 38.947 	 122.059 	 
H 	 -62.3974 	 38.0745 	 121.334 	 
S 	 -59.4488 	 36.9118 	 115.876 	 
C 	 -60.7267 	 36.6232 	 114.771 	 
C 	 -61.7117 	 37.5816 	 114.941 	 
C 	 -61.437 	 38.5552 	 115.993 	 
C 	 -60.2893 	 38.1915 	 116.728 	 
H 	 -62.5015 	 37.5938 	 114.254 	 
C 	 -62.5538 	 39.4929 	 116.355 	 
H 	 -62.8548 	 39.4064 	 117.426 	 
H 	 -63.4405 	 38.954 	 115.984 	 
C 	 -62.5844 	 40.8569 	 115.737 	 
H 	 -63.5512 	 41.2956 	 116.001 	 
H 	 -62.6102 	 40.8785 	 114.613 	 
C 	 -61.5056 	 41.8109 	 116.29 	 
H 	 -61.5153 	 42.0836 	 117.375 	 
H 	 -61.5504 	 42.7671 	 115.689 	 
H 	 -60.4455 	 41.5027 	 116.108 	 
H 	 -58.2722 	 38.4733 	 121.179 	 
H 	 -60.7788 	 35.8279 	 114.003 	 
*
