! wB97X-D3 SP def2-SVP
%pal
nprocs 16
end

* xyz 0 1
S 	 10.9207 	 -12.4288 	 71.6049 	 
C 	 9.32891 	 -11.6299 	 71.3949 	 
C 	 9.09356 	 -11.2421 	 70.0587 	 
C 	 10.2551 	 -11.5157 	 69.2712 	 
C 	 11.2952 	 -12.1077 	 69.9139 	 
H 	 10.3573 	 -11.3549 	 68.1898 	 
C 	 7.83084 	 -10.5589 	 69.6146 	 
H 	 6.98289 	 -10.8916 	 70.2041 	 
H 	 7.59194 	 -11.0309 	 68.595 	 
C 	 7.82757 	 -9.06948 	 69.4229 	 
H 	 7.90098 	 -8.52787 	 70.4093 	 
H 	 8.75645 	 -8.74217 	 68.8951 	 
C 	 6.65824 	 -8.40649 	 68.6381 	 
H 	 5.75988 	 -8.94405 	 68.9699 	 
H 	 6.61775 	 -7.37233 	 68.9341 	 
H 	 6.79385 	 -8.67015 	 67.6364 	 
S 	 13.194 	 -14.0929 	 69.9866 	 
C 	 14.5603 	 -14.0003 	 68.8841 	 
C 	 14.4057 	 -12.9528 	 67.9446 	 
C 	 13.2855 	 -12.0997 	 68.2454 	 
C 	 12.5188 	 -12.6361 	 69.3137 	 
H 	 15.0802 	 -13.061 	 67.0799 	 
C 	 12.8945 	 -10.973 	 67.3092 	 
H 	 12.6298 	 -10.0972 	 67.8554 	 
H 	 12.0306 	 -11.3397 	 66.6617 	 
C 	 14.0108 	 -10.4071 	 66.3072 	 
H 	 14.3125 	 -11.153 	 65.6367 	 
H 	 14.9202 	 -10.1298 	 66.8647 	 
C 	 13.473 	 -9.28017 	 65.4882 	 
H 	 14.3004 	 -8.89775 	 64.8802 	 
H 	 13.1428 	 -8.43548 	 66.1254 	 
H 	 12.6007 	 -9.58356 	 64.8772 	 
H 	 8.67929 	 -11.2741 	 72.1663 	 
H 	 15.3667 	 -14.7351 	 68.7837 	 
*
