! wB97X-D3 SP def2-SVP
%pal
nprocs 16
end

* xyz 0 1
S 	 -75.0634 	 50.6835 	 137.251 	 
C 	 -73.7645 	 51.8279 	 137.547 	 
C 	 -74.2111 	 53.1093 	 137.515 	 
C 	 -75.6345 	 53.2174 	 137.308 	 
C 	 -76.2529 	 51.9609 	 137.225 	 
H 	 -76.2972 	 54.0954 	 137.087 	 
C 	 -73.2776 	 54.3136 	 137.651 	 
H 	 -73.9091 	 55.1611 	 137.365 	 
H 	 -72.4775 	 54.3408 	 136.946 	 
C 	 -72.6128 	 54.5012 	 139.039 	 
H 	 -73.4202 	 54.701 	 139.752 	 
H 	 -72.1021 	 53.5739 	 139.39 	 
C 	 -71.5547 	 55.5833 	 138.957 	 
H 	 -70.677 	 55.2054 	 138.389 	 
H 	 -71.9395 	 56.5153 	 138.64 	 
H 	 -71.1936 	 55.8938 	 139.988 	 
S 	 -78.0953 	 50.6063 	 135.742 	 
C 	 -79.7966 	 50.7913 	 136.081 	 
C 	 -79.9997 	 51.6859 	 137.179 	 
C 	 -78.794 	 52.1913 	 137.707 	 
C 	 -77.651 	 51.7698 	 137.014 	 
H 	 -80.9852 	 51.7895 	 137.587 	 
C 	 -78.6143 	 52.9107 	 139.021 	 
H 	 -79.6476 	 53.1225 	 139.346 	 
H 	 -78.1067 	 53.8651 	 138.924 	 
C 	 -77.9769 	 52.1447 	 140.239 	 
H 	 -77.749 	 52.9147 	 141.006 	 
H 	 -77.0255 	 51.5797 	 140.041 	 
C 	 -78.9823 	 51.2636 	 140.997 	 
H 	 -79.3582 	 50.4028 	 140.419 	 
H 	 -79.8006 	 51.8991 	 141.454 	 
H 	 -78.5256 	 50.7262 	 141.851 	 
H 	 -72.7311 	 51.5946 	 137.701 	 
H 	 -80.5905 	 50.3148 	 135.524 	 
*
