! wB97X-D3 SP def2-SVP
%pal
nprocs 16
end

* xyz 0 1
S 	 1.17134 	 3.9671 	 82.0019 	 
C 	 2.53202 	 4.78143 	 81.2867 	 
C 	 2.1098 	 5.85204 	 80.4814 	 
C 	 0.688632 	 6.03702 	 80.5319 	 
C 	 0.0835354 	 5.19576 	 81.4746 	 
H 	 -0.00560418 	 6.84311 	 80.1901 	 
C 	 3.00451 	 6.60756 	 79.5803 	 
H 	 3.92459 	 7.06118 	 80.0978 	 
H 	 2.40479 	 7.44391 	 79.1236 	 
C 	 3.56819 	 5.69407 	 78.4212 	 
H 	 4.20082 	 4.87911 	 78.7902 	 
H 	 2.81454 	 5.14948 	 77.941 	 
C 	 4.29111 	 6.59517 	 77.4232 	 
H 	 4.70008 	 5.93273 	 76.6273 	 
H 	 3.70631 	 7.52246 	 77.1518 	 
H 	 5.22065 	 6.9045 	 77.9686 	 
S 	 -1.96962 	 3.41326 	 81.5019 	 
C 	 -3.5899 	 3.93442 	 81.9205 	 
C 	 -3.64161 	 5.30924 	 82.1067 	 
C 	 -2.35267 	 5.95031 	 82.0167 	 
C 	 -1.31869 	 5.04691 	 81.6963 	 
H 	 -4.5319 	 5.76924 	 82.3746 	 
C 	 -2.26613 	 7.40889 	 82.2765 	 
H 	 -1.22333 	 7.64776 	 82.4497 	 
H 	 -2.8325 	 7.60927 	 83.1901 	 
C 	 -2.88958 	 8.22671 	 81.106 	 
H 	 -3.96228 	 7.98122 	 80.8801 	 
H 	 -2.43808 	 8.01511 	 80.1565 	 
C 	 -2.77544 	 9.71363 	 81.2349 	 
H 	 -3.44925 	 10.0369 	 82.0436 	 
H 	 -3.03859 	 10.1514 	 80.2528 	 
H 	 -1.76842 	 10.111 	 81.5054 	 
H 	 3.54014 	 4.56859 	 81.5649 	 
H 	 -4.45954 	 3.2335 	 81.8438 	 
*
