! wB97X-D3 SP def2-SVP
%pal
nprocs 16
end

* xyz 0 1
S 	 -3.04156 	 -22.2814 	 58.4195 	 
C 	 -1.70456 	 -21.4348 	 59.0698 	 
C 	 -0.862915 	 -22.3029 	 59.7546 	 
C 	 -1.42804 	 -23.62 	 59.8935 	 
C 	 -2.45293 	 -23.7487 	 58.9572 	 
H 	 -1.10765 	 -24.4996 	 60.487 	 
C 	 0.342815 	 -21.8729 	 60.6719 	 
H 	 0.178737 	 -22.2938 	 61.654 	 
H 	 0.365792 	 -20.8186 	 60.8866 	 
C 	 1.75476 	 -22.4485 	 60.2922 	 
H 	 2.4373 	 -22.0936 	 61.0599 	 
H 	 1.66306 	 -23.4918 	 60.469 	 
C 	 2.25242 	 -22.1053 	 58.8206 	 
H 	 3.29776 	 -22.3721 	 58.9161 	 
H 	 1.8273 	 -22.8313 	 58.085 	 
H 	 2.09397 	 -21.0014 	 58.6145 	 
S 	 -4.66857 	 -25.2386 	 59.7212 	 
C 	 -4.92381 	 -26.8168 	 58.9838 	 
C 	 -4.00489 	 -27.1005 	 57.9822 	 
C 	 -3.02833 	 -26.0864 	 57.78 	 
C 	 -3.16153 	 -25.0173 	 58.6977 	 
H 	 -4.17323 	 -27.9642 	 57.3105 	 
C 	 -2.07884 	 -26.1002 	 56.6608 	 
H 	 -2.1111 	 -27.0448 	 56.1616 	 
H 	 -1.04994 	 -26.1631 	 57.0074 	 
C 	 -2.17098 	 -24.9172 	 55.5702 	 
H 	 -1.76986 	 -23.9694 	 55.8529 	 
H 	 -3.21314 	 -24.6189 	 55.3385 	 
C 	 -1.4241 	 -25.3108 	 54.3019 	 
H 	 -1.7425 	 -26.1988 	 53.7862 	 
H 	 -0.331195 	 -25.4789 	 54.5386 	 
H 	 -1.51755 	 -24.5331 	 53.5325 	 
H 	 -1.52561 	 -20.3898 	 58.9125 	 
H 	 -5.6051 	 -27.5883 	 59.3107 	 
*
