! wB97X-D3 SP def2-SVP
%pal
nprocs 16
end

* xyz 0 1
S 	 -2.17302 	 75.4403 	 52.5704 	 
C 	 -2.48619 	 77.0491 	 53.168 	 
C 	 -3.13684 	 77.8317 	 52.2602 	 
C 	 -3.32092 	 77.1442 	 51.0374 	 
C 	 -2.92452 	 75.8247 	 51.041 	 
H 	 -3.83381 	 77.5311 	 50.1515 	 
C 	 -3.62285 	 79.2098 	 52.4874 	 
H 	 -3.06004 	 79.5619 	 53.295 	 
H 	 -4.68507 	 79.0987 	 52.8519 	 
C 	 -3.57855 	 80.1348 	 51.2998 	 
H 	 -2.53529 	 80.1924 	 50.997 	 
H 	 -4.10471 	 79.8501 	 50.3841 	 
C 	 -3.96034 	 81.5616 	 51.6164 	 
H 	 -4.90253 	 81.5729 	 52.0939 	 
H 	 -3.17767 	 81.9667 	 52.2616 	 
H 	 -4.08809 	 82.2128 	 50.7984 	 
S 	 -1.21333 	 74.7973 	 49.1498 	 
C 	 -1.91095 	 73.8628 	 47.8353 	 
C 	 -3.30288 	 73.6958 	 48.0078 	 
C 	 -3.86875 	 74.4041 	 49.0773 	 
C 	 -2.8822 	 75.0091 	 49.8317 	 
H 	 -3.69957 	 73.0045 	 47.3167 	 
C 	 -5.33577 	 74.2592 	 49.4304 	 
H 	 -5.42144 	 73.906 	 50.4442 	 
H 	 -5.65892 	 73.3485 	 48.9628 	 
C 	 -6.27119 	 75.4581 	 49.1494 	 
H 	 -6.35781 	 75.6926 	 48.0933 	 
H 	 -5.87474 	 76.3782 	 49.6094 	 
C 	 -7.64649 	 75.2267 	 49.7196 	 
H 	 -7.68978 	 74.8219 	 50.7355 	 
H 	 -8.1949 	 74.4648 	 49.0995 	 
H 	 -8.2582 	 76.1579 	 49.6356 	 
H 	 -2.40399 	 77.2879 	 54.1992 	 
H 	 -1.39404 	 73.2094 	 47.107 	 
*
