! wB97X-D3 SP def2-SVP
%pal
nprocs 16
end

* xyz 0 1
S 	 -16.4266 	 43.6146 	 31.633 	 
C 	 -14.9318 	 43.7586 	 32.5024 	 
C 	 -13.9411 	 42.8496 	 32.1771 	 
C 	 -14.5626 	 41.8352 	 31.3313 	 
C 	 -15.8585 	 42.1215 	 30.8338 	 
H 	 -14.0218 	 40.8766 	 30.9379 	 
C 	 -12.5774 	 42.8493 	 32.7623 	 
H 	 -12.5837 	 43.2425 	 33.8319 	 
H 	 -12.0908 	 43.5627 	 32.1798 	 
C 	 -11.7759 	 41.4999 	 32.5906 	 
H 	 -11.6959 	 41.0311 	 31.6417 	 
H 	 -10.7791 	 41.7946 	 32.8246 	 
C 	 -12.178 	 40.4648 	 33.6612 	 
H 	 -13.2597 	 40.3487 	 33.5304 	 
H 	 -11.6518 	 39.5185 	 33.5105 	 
H 	 -11.8434 	 40.8325 	 34.6433 	 
S 	 -18.3501 	 40.8675 	 30.2755 	 
C 	 -18.4785 	 39.9736 	 28.7512 	 
C 	 -17.3096 	 39.9945 	 28.046 	 
C 	 -16.2486 	 40.6917 	 28.7328 	 
C 	 -16.677 	 41.3116 	 29.9184 	 
H 	 -17.1883 	 39.5374 	 27.0853 	 
C 	 -14.9623 	 40.9556 	 28.1108 	 
H 	 -14.8376 	 40.217 	 27.3553 	 
H 	 -14.1302 	 40.7211 	 28.8128 	 
C 	 -14.7491 	 42.3778 	 27.6284 	 
H 	 -14.4198 	 42.9459 	 28.5043 	 
H 	 -15.5817 	 42.8127 	 27.1287 	 
C 	 -13.4943 	 42.438 	 26.753 	 
H 	 -13.257 	 43.474 	 26.4988 	 
H 	 -13.4388 	 41.7691 	 25.8649 	 
H 	 -12.5995 	 42.0745 	 27.3006 	 
H 	 -14.6362 	 44.6294 	 33.0223 	 
H 	 -19.3227 	 39.4774 	 28.3923 	 
*
