! wB97X-D3 SP def2-SVP
%pal
nprocs 16
end

* xyz 0 1
S 	 60.3239 	 22.4152 	 80.909 	 
C 	 58.9454 	 23.4084 	 81.2352 	 
C 	 57.9835 	 22.5964 	 81.8317 	 
C 	 58.4528 	 21.3066 	 81.9768 	 
C 	 59.6566 	 21.006 	 81.4103 	 
H 	 57.8489 	 20.5122 	 82.5169 	 
C 	 56.5641 	 23.1107 	 82.2296 	 
H 	 56.5792 	 24.265 	 82.3788 	 
H 	 56.3597 	 22.5621 	 83.1623 	 
C 	 55.5239 	 22.6474 	 81.0817 	 
H 	 55.5522 	 23.3307 	 80.2407 	 
H 	 55.8263 	 21.6201 	 80.6681 	 
C 	 54.0265 	 22.3657 	 81.5642 	 
H 	 53.3606 	 22.0609 	 80.7189 	 
H 	 54.0178 	 21.5092 	 82.2171 	 
H 	 53.5598 	 23.1963 	 82.0823 	 
S 	 62.1187 	 19.8751 	 81.7801 	 
C 	 62.2989 	 18.1105 	 81.5686 	 
C 	 61.0479 	 17.5672 	 81.3033 	 
C 	 59.9778 	 18.4678 	 81.2152 	 
C 	 60.4144 	 19.7896 	 81.344 	 
H 	 60.9854 	 16.5134 	 81.1411 	 
C 	 58.5653 	 18.1068 	 80.7992 	 
H 	 58.5688 	 18.0875 	 79.7237 	 
H 	 57.9015 	 18.9299 	 80.9607 	 
C 	 58.0005 	 16.7406 	 81.3587 	 
H 	 58.6373 	 16.5556 	 82.1979 	 
H 	 58.1139 	 15.9065 	 80.6927 	 
C 	 56.5524 	 16.8871 	 81.6136 	 
H 	 56.1434 	 16.0805 	 82.2242 	 
H 	 56.0263 	 16.9698 	 80.6262 	 
H 	 56.3516 	 17.8013 	 82.1641 	 
H 	 58.7927 	 24.4399 	 80.9971 	 
H 	 63.207 	 17.7215 	 81.8356 	 
*
