! wB97X-D3 SP def2-SVP
%pal
nprocs 16
end

* xyz 0 1
S 	 -10.4803 	 -4.68688 	 86.4893 	 
C 	 -10.1382 	 -5.10335 	 88.0659 	 
C 	 -11.2267 	 -5.62817 	 88.7031 	 
C 	 -12.3018 	 -6.00039 	 87.8176 	 
C 	 -11.9505 	 -5.69337 	 86.5064 	 
H 	 -13.263 	 -6.47839 	 88.0373 	 
C 	 -11.2631 	 -5.97327 	 90.2099 	 
H 	 -12.2059 	 -5.71034 	 90.7321 	 
H 	 -10.4608 	 -5.3929 	 90.6666 	 
C 	 -11.0218 	 -7.53167 	 90.4792 	 
H 	 -11.8595 	 -8.09382 	 90.1682 	 
H 	 -10.2309 	 -7.82522 	 89.8447 	 
C 	 -10.9081 	 -7.84372 	 91.9838 	 
H 	 -11.6936 	 -7.40107 	 92.6704 	 
H 	 -10.7897 	 -8.93176 	 92.0898 	 
H 	 -9.99646 	 -7.40162 	 92.3562 	 
S 	 -13.2629 	 -4.72308 	 84.3558 	 
C 	 -13.8727 	 -5.88686 	 83.1341 	 
C 	 -13.7752 	 -7.12288 	 83.6371 	 
C 	 -13.1313 	 -7.30842 	 84.8957 	 
C 	 -12.637 	 -6.06335 	 85.2934 	 
H 	 -14.1765 	 -7.96481 	 83.0808 	 
C 	 -13.2002 	 -8.56249 	 85.7481 	 
H 	 -14.1568 	 -8.84298 	 85.9225 	 
H 	 -12.816 	 -8.27017 	 86.6599 	 
C 	 -12.4006 	 -9.79376 	 85.2635 	 
H 	 -11.2814 	 -9.58784 	 85.2612 	 
H 	 -12.663 	 -10.0134 	 84.2089 	 
C 	 -12.6822 	 -11.0643 	 85.9939 	 
H 	 -12.45 	 -12.0157 	 85.4659 	 
H 	 -13.6972 	 -11.0783 	 86.2486 	 
H 	 -12.1951 	 -11.0863 	 86.9798 	 
H 	 -9.20577 	 -4.83673 	 88.5932 	 
H 	 -14.3203 	 -5.54599 	 82.2063 	 
*
