! wB97X-D3 SP def2-SVP
%pal
nprocs 16
end

* xyz 0 1
S 	 1.55309 	 -4.65507 	 79.6889 	 
C 	 2.947 	 -3.99748 	 80.5072 	 
C 	 3.15921 	 -4.47904 	 81.772 	 
C 	 2.24678 	 -5.53726 	 81.9935 	 
C 	 1.49143 	 -5.96946 	 80.8887 	 
H 	 2.22036 	 -6.13664 	 82.8809 	 
C 	 4.16409 	 -4.04604 	 82.8205 	 
H 	 5.1152 	 -3.78786 	 82.4009 	 
H 	 4.31752 	 -4.87619 	 83.4774 	 
C 	 3.75229 	 -2.7968 	 83.703 	 
H 	 4.5676 	 -2.51264 	 84.3633 	 
H 	 3.55763 	 -1.9949 	 82.9793 	 
C 	 2.52508 	 -3.20762 	 84.5946 	 
H 	 2.71625 	 -4.10466 	 85.275 	 
H 	 2.10655 	 -2.38118 	 85.2425 	 
H 	 1.73468 	 -3.54493 	 83.9108 	 
S 	 -1.17214 	 -6.6034 	 80.5081 	 
C 	 -1.623 	 -8.35311 	 80.3279 	 
C 	 -0.497308 	 -9.11043 	 80.4897 	 
C 	 0.672783 	 -8.40555 	 80.8515 	 
C 	 0.479941 	 -7.03375 	 80.815 	 
H 	 -0.606534 	 -10.2159 	 80.3929 	 
C 	 2.0252 	 -9.03673 	 81.0618 	 
H 	 1.79559 	 -10.0748 	 81.3008 	 
H 	 2.42319 	 -8.5983 	 82.0304 	 
C 	 3.01828 	 -8.79617 	 79.8513 	 
H 	 3.30909 	 -7.77455 	 79.8133 	 
H 	 2.57288 	 -8.89127 	 78.8435 	 
C 	 4.20735 	 -9.74652 	 79.953 	 
H 	 4.83646 	 -9.47942 	 80.8437 	 
H 	 4.81716 	 -9.61933 	 79.0612 	 
H 	 3.89858 	 -10.8029 	 79.9934 	 
H 	 3.4535 	 -3.04232 	 80.1669 	 
H 	 -2.637 	 -8.66315 	 80.0591 	 
*
