! wB97X-D3 SP def2-SVP
%pal
nprocs 16
end

* xyz 0 1
S 	 34.7143 	 30.6819 	 54.0754 	 
C 	 34.4509 	 32.3707 	 53.6015 	 
C 	 34.4769 	 33.1951 	 54.6785 	 
C 	 34.6556 	 32.5133 	 55.9442 	 
C 	 34.82 	 31.1301 	 55.7523 	 
H 	 34.499 	 33.0994 	 56.8781 	 
C 	 34.0729 	 34.6675 	 54.67 	 
H 	 33.297 	 34.9443 	 55.3746 	 
H 	 33.6304 	 34.8029 	 53.711 	 
C 	 35.2934 	 35.6522 	 54.7367 	 
H 	 35.8624 	 35.5612 	 55.6292 	 
H 	 35.963 	 35.4274 	 53.8957 	 
C 	 34.8337 	 37.0274 	 54.5645 	 
H 	 34.6233 	 37.1414 	 53.4816 	 
H 	 33.944 	 37.3478 	 55.1726 	 
H 	 35.6093 	 37.783 	 54.78 	 
S 	 33.6233 	 30.0431 	 57.9168 	 
C 	 34.3225 	 28.7354 	 58.7343 	 
C 	 35.5729 	 28.4065 	 58.1922 	 
C 	 35.8794 	 29.2127 	 57.0526 	 
C 	 34.8644 	 30.1258 	 56.7584 	 
H 	 36.2223 	 27.7328 	 58.7462 	 
C 	 37.3264 	 29.3323 	 56.521 	 
H 	 37.2838 	 29.2021 	 55.4289 	 
H 	 37.8713 	 28.4221 	 56.8307 	 
C 	 38.0817 	 30.5739 	 56.9526 	 
H 	 38.2488 	 30.4814 	 58.0689 	 
H 	 37.4518 	 31.4405 	 56.7675 	 
C 	 39.4972 	 30.7076 	 56.2228 	 
H 	 40.0598 	 31.5346 	 56.5712 	 
H 	 39.3385 	 30.9385 	 55.2438 	 
H 	 40.1668 	 29.8696 	 56.2522 	 
H 	 34.4297 	 32.5672 	 52.5448 	 
H 	 34.102 	 28.2864 	 59.6169 	 
*
