! wB97X-D3 SP def2-SVP
%pal
nprocs 16
end

* xyz 0 1
S 	 53.7658 	 2.29188 	 82.0791 	 
C 	 52.1992 	 1.66285 	 82.5351 	 
C 	 52.0074 	 0.386156 	 81.9964 	 
C 	 52.9979 	 0.089494 	 81.0193 	 
C 	 54.0186 	 0.980663 	 81.0378 	 
H 	 53.146 	 -0.835037 	 80.4851 	 
C 	 50.9083 	 -0.531312 	 82.4845 	 
H 	 50.3776 	 -0.898239 	 81.6128 	 
H 	 50.1076 	 0.140057 	 82.8599 	 
C 	 51.2763 	 -1.67435 	 83.4492 	 
H 	 52.1493 	 -2.17231 	 83.1385 	 
H 	 51.735 	 -1.13933 	 84.2931 	 
C 	 50.1546 	 -2.62864 	 83.7351 	 
H 	 49.7415 	 -3.08068 	 82.8626 	 
H 	 50.4601 	 -3.50646 	 84.3576 	 
H 	 49.3043 	 -2.14518 	 84.2604 	 
S 	 56.6901 	 0.748305 	 81.5148 	 
C 	 57.799 	 0.461921 	 80.2149 	 
C 	 57.1068 	 0.153015 	 79.0723 	 
C 	 55.663 	 0.345957 	 79.1626 	 
C 	 55.292 	 0.785815 	 80.406 	 
H 	 57.669 	 -0.177136 	 78.1921 	 
C 	 54.7681 	 0.0821099 	 77.9344 	 
H 	 54.4607 	 -0.947585 	 77.7769 	 
H 	 55.3719 	 0.272806 	 77.0256 	 
C 	 53.4898 	 1.0215 	 77.6927 	 
H 	 53.789 	 2.06137 	 77.72 	 
H 	 52.8096 	 0.840565 	 78.5361 	 
C 	 52.6814 	 0.66493 	 76.4149 	 
H 	 52.3906 	 -0.381766 	 76.4139 	 
H 	 53.2026 	 0.982273 	 75.5429 	 
H 	 51.8006 	 1.20051 	 76.5442 	 
H 	 51.5314 	 2.09872 	 83.266 	 
H 	 58.8717 	 0.46613 	 80.2006 	 
*
