! wB97X-D3 SP def2-SVP
%pal
nprocs 16
end

* xyz 0 1
S 	 9.01971 	 -7.33056 	 92.8806 	 
C 	 9.65576 	 -7.94178 	 94.3787 	 
C 	 10.9796 	 -7.61052 	 94.5273 	 
C 	 11.4285 	 -6.66348 	 93.5812 	 
C 	 10.4027 	 -6.25963 	 92.7036 	 
H 	 12.3708 	 -6.16739 	 93.4807 	 
C 	 11.8887 	 -8.05407 	 95.6802 	 
H 	 12.9736 	 -8.00986 	 95.395 	 
H 	 11.7528 	 -9.11686 	 95.8662 	 
C 	 11.7129 	 -7.36391 	 97.0325 	 
H 	 12.4961 	 -7.65743 	 97.7669 	 
H 	 11.9332 	 -6.29366 	 96.8894 	 
C 	 10.3886 	 -7.42666 	 97.687 	 
H 	 10.2028 	 -8.48804 	 97.8244 	 
H 	 10.4713 	 -7.03145 	 98.6809 	 
H 	 9.56819 	 -6.91591 	 97.1927 	 
S 	 9.28532 	 -5.50904 	 90.2532 	 
C 	 9.87576 	 -4.11679 	 89.4605 	 
C 	 10.8667 	 -3.45026 	 90.2186 	 
C 	 11.1002 	 -4.07813 	 91.4974 	 
C 	 10.399 	 -5.23963 	 91.5976 	 
H 	 11.2876 	 -2.54502 	 89.8699 	 
C 	 12.0215 	 -3.5533 	 92.614 	 
H 	 12.4991 	 -2.57689 	 92.2782 	 
H 	 12.7344 	 -4.31397 	 92.7159 	 
C 	 11.3697 	 -3.28444 	 93.9775 	 
H 	 10.8725 	 -4.20078 	 94.3316 	 
H 	 10.4996 	 -2.5565 	 93.8731 	 
C 	 12.4013 	 -2.71094 	 94.9954 	 
H 	 13.1138 	 -3.47833 	 95.2338 	 
H 	 11.9534 	 -2.26276 	 95.8838 	 
H 	 13.1493 	 -2.0208 	 94.5552 	 
H 	 9.21784 	 -8.78643 	 94.9091 	 
H 	 9.61472 	 -3.84692 	 88.4719 	 
*
