! wB97X-D3 SP def2-SVP
%pal
nprocs 16
end

* xyz 0 1
S 	 49.8401 	 27.9684 	 44.7922 	 
C 	 51.4126 	 28.6498 	 44.3836 	 
C 	 52.3082 	 27.5948 	 44.1067 	 
C 	 51.7401 	 26.2715 	 44.1172 	 
C 	 50.3939 	 26.294 	 44.4117 	 
H 	 52.215 	 25.3383 	 43.9387 	 
C 	 53.7498 	 27.8014 	 43.7222 	 
H 	 53.7023 	 28.8169 	 43.4132 	 
H 	 54.0185 	 27.2204 	 42.8191 	 
C 	 54.8306 	 27.5821 	 44.7673 	 
H 	 54.7247 	 28.3204 	 45.5616 	 
H 	 54.8168 	 26.5322 	 45.0628 	 
C 	 56.2518 	 27.8996 	 44.1057 	 
H 	 56.406 	 28.9802 	 43.746 	 
H 	 57.0109 	 27.8918 	 44.9049 	 
H 	 56.581 	 27.2391 	 43.2896 	 
S 	 48.2568 	 25.251 	 45.819 	 
C 	 47.5005 	 23.8783 	 45.1711 	 
C 	 47.8094 	 23.6811 	 43.8303 	 
C 	 49.019 	 24.3885 	 43.4428 	 
C 	 49.4076 	 25.2256 	 44.4656 	 
H 	 47.2548 	 23.0457 	 43.1736 	 
C 	 49.6516 	 24.2477 	 42.0857 	 
H 	 49.8944 	 25.2554 	 41.7814 	 
H 	 48.7703 	 23.8432 	 41.5278 	 
C 	 50.7992 	 23.242 	 42.1203 	 
H 	 50.2589 	 22.3569 	 42.5021 	 
H 	 51.5427 	 23.4547 	 42.8854 	 
C 	 51.33 	 23.0695 	 40.6871 	 
H 	 51.9635 	 23.9993 	 40.4111 	 
H 	 50.4345 	 22.8694 	 39.9925 	 
H 	 52.0637 	 22.2836 	 40.6254 	 
H 	 51.6361 	 29.6955 	 44.4466 	 
H 	 46.5973 	 23.4289 	 45.6057 	 
*
