! wB97X-D3 SP def2-SVP
%pal
nprocs 16
end

* xyz 0 1
S 	 39.0837 	 7.73516 	 90.2498 	 
C 	 39.9421 	 6.66534 	 89.1984 	 
C 	 39.1225 	 6.26461 	 88.1365 	 
C 	 37.9266 	 7.06984 	 88.0704 	 
C 	 37.8885 	 8.05605 	 89.0018 	 
H 	 37.1012 	 6.97777 	 87.3556 	 
C 	 39.4144 	 5.133 	 87.1544 	 
H 	 38.6255 	 4.98661 	 86.4783 	 
H 	 39.4818 	 4.20258 	 87.7234 	 
C 	 40.7517 	 5.16903 	 86.4371 	 
H 	 41.526 	 5.05235 	 87.1134 	 
H 	 40.9434 	 4.3566 	 85.7324 	 
C 	 40.8135 	 6.47071 	 85.5379 	 
H 	 40.6889 	 7.33777 	 86.1471 	 
H 	 41.742 	 6.49629 	 84.9196 	 
H 	 39.9618 	 6.52184 	 84.841 	 
S 	 36.2014 	 9.07704 	 90.908 	 
C 	 35.1885 	 10.4573 	 90.5135 	 
C 	 35.1909 	 10.6735 	 89.1257 	 
C 	 36.1435 	 9.89687 	 88.4509 	 
C 	 36.851 	 9.04671 	 89.2643 	 
H 	 34.5794 	 11.4645 	 88.7326 	 
C 	 36.4573 	 10.1333 	 87.0151 	 
H 	 35.5904 	 10.4793 	 86.5386 	 
H 	 36.6965 	 9.17241 	 86.5203 	 
C 	 37.452 	 11.2909 	 86.7658 	 
H 	 37.1297 	 12.1261 	 87.408 	 
H 	 37.4132 	 11.5951 	 85.7859 	 
C 	 38.9251 	 10.9633 	 87.1882 	 
H 	 39.6325 	 11.778 	 86.9678 	 
H 	 39.2141 	 10.0391 	 86.6287 	 
H 	 38.8483 	 10.692 	 88.2268 	 
H 	 40.8706 	 6.13628 	 89.4271 	 
H 	 34.5042 	 10.9583 	 91.2244 	 
*
