! wB97X-D3 SP def2-SVP
%pal
nprocs 16
end

* xyz 0 1
S 	 -5.57451 	 -9.50012 	 85.8243 	 
C 	 -6.50704 	 -10.6693 	 84.861 	 
C 	 -7.7451 	 -10.1769 	 84.4335 	 
C 	 -7.91047 	 -8.81772 	 84.955 	 
C 	 -6.9232 	 -8.34117 	 85.7737 	 
H 	 -8.71305 	 -8.0802 	 84.7133 	 
C 	 -8.72004 	 -10.962 	 83.686 	 
H 	 -9.08611 	 -11.8428 	 84.2923 	 
H 	 -8.19894 	 -11.5855 	 82.9618 	 
C 	 -10.0118 	 -10.3333 	 83.1872 	 
H 	 -10.5073 	 -9.87481 	 84.0769 	 
H 	 -9.58395 	 -9.56459 	 82.5438 	 
C 	 -10.8351 	 -11.3795 	 82.4554 	 
H 	 -10.2037 	 -12.0017 	 81.8822 	 
H 	 -11.338 	 -12.0188 	 83.1575 	 
H 	 -11.7019 	 -10.9392 	 81.9058 	 
S 	 -8.35489 	 -6.25526 	 86.8782 	 
C 	 -7.6141 	 -4.88656 	 87.6269 	 
C 	 -6.23131 	 -4.89246 	 87.4129 	 
C 	 -5.81303 	 -6.1008 	 86.7262 	 
C 	 -6.83195 	 -7.05896 	 86.4392 	 
H 	 -5.67528 	 -4.02233 	 87.6368 	 
C 	 -4.41453 	 -6.25817 	 86.288 	 
H 	 -3.95703 	 -5.25325 	 86.1717 	 
H 	 -4.32814 	 -6.8652 	 85.4099 	 
C 	 -3.54554 	 -6.8865 	 87.3392 	 
H 	 -3.87754 	 -7.88878 	 87.6301 	 
H 	 -3.60608 	 -6.31008 	 88.2433 	 
C 	 -2.12103 	 -6.80125 	 86.8849 	 
H 	 -1.8084 	 -5.85869 	 86.3519 	 
H 	 -1.87628 	 -7.53201 	 86.0981 	 
H 	 -1.48109 	 -7.02969 	 87.7793 	 
H 	 -6.14242 	 -11.5897 	 84.449 	 
H 	 -8.24385 	 -4.20105 	 88.1984 	 
*
