! wB97X-D3 SP def2-SVP
%pal
nprocs 16
end

* xyz 0 1
S 	 -48.7133 	 16.3166 	 78.4344 	 
C 	 -47.2641 	 16.5679 	 79.3855 	 
C 	 -46.1302 	 16.3516 	 78.6414 	 
C 	 -46.3897 	 15.974 	 77.285 	 
C 	 -47.76 	 15.9314 	 76.989 	 
H 	 -45.6452 	 15.6967 	 76.5672 	 
C 	 -44.7217 	 16.2958 	 79.1815 	 
H 	 -44.1561 	 15.6609 	 78.5328 	 
H 	 -44.6981 	 15.808 	 80.1393 	 
C 	 -44.0985 	 17.7005 	 79.2975 	 
H 	 -44.1183 	 18.1719 	 78.3376 	 
H 	 -44.6706 	 18.3987 	 80.042 	 
C 	 -42.6309 	 17.702 	 79.6473 	 
H 	 -42.3932 	 18.6927 	 80.0856 	 
H 	 -42.4532 	 16.9191 	 80.3351 	 
H 	 -41.9507 	 17.4986 	 78.7848 	 
S 	 -49.688 	 14.3914 	 75.8587 	 
C 	 -49.8667 	 14.5536 	 74.1211 	 
C 	 -49.0438 	 15.3978 	 73.5364 	 
C 	 -48.1256 	 15.9481 	 74.4194 	 
C 	 -48.3656 	 15.5699 	 75.7107 	 
H 	 -48.9762 	 15.4169 	 72.4594 	 
C 	 -47.07 	 16.8354 	 73.7943 	 
H 	 -47.3497 	 17.0665 	 72.7558 	 
H 	 -46.1584 	 16.2249 	 73.6778 	 
C 	 -46.8117 	 18.1619 	 74.5272 	 
H 	 -46.8492 	 17.7964 	 75.5201 	 
H 	 -47.6278 	 18.8478 	 74.3436 	 
C 	 -45.4751 	 18.8666 	 74.1863 	 
H 	 -45.3067 	 19.5409 	 74.9899 	 
H 	 -45.5074 	 19.4114 	 73.2195 	 
H 	 -44.6109 	 18.2226 	 74.2611 	 
H 	 -47.1502 	 16.6311 	 80.4516 	 
H 	 -50.5538 	 14.0241 	 73.5917 	 
*
