! wB97X-D3 SP def2-SVP
%pal
nprocs 16
end

* xyz 0 1
S 	 -13.5464 	 38.9001 	 38.0422 	 
C 	 -12.7778 	 40.3341 	 37.3641 	 
C 	 -11.5259 	 39.9554 	 36.968 	 
C 	 -11.2023 	 38.5985 	 37.3433 	 
C 	 -12.1908 	 37.917 	 37.8529 	 
H 	 -10.1762 	 38.1625 	 37.1562 	 
C 	 -10.5186 	 40.8457 	 36.2964 	 
H 	 -9.45457 	 40.5005 	 36.4022 	 
H 	 -10.4525 	 41.7243 	 36.8747 	 
C 	 -10.7429 	 41.3552 	 34.8602 	 
H 	 -11.8131 	 41.7136 	 34.8278 	 
H 	 -10.0751 	 42.1727 	 34.6734 	 
C 	 -10.6677 	 40.2713 	 33.7886 	 
H 	 -9.75547 	 39.7367 	 33.6414 	 
H 	 -11.3032 	 39.4589 	 34.1206 	 
H 	 -11.0403 	 40.6383 	 32.8304 	 
S 	 -11.9801 	 36 	 39.8871 	 
C 	 -12.0209 	 34.3186 	 39.4461 	 
C 	 -12.4063 	 34.1624 	 38.1464 	 
C 	 -12.5577 	 35.3877 	 37.4261 	 
C 	 -12.2411 	 36.494 	 38.2008 	 
H 	 -12.5903 	 33.1403 	 37.749 	 
C 	 -12.7843 	 35.3246 	 35.9256 	 
H 	 -13.3405 	 36.1646 	 35.4816 	 
H 	 -13.3686 	 34.4581 	 35.6672 	 
C 	 -11.4306 	 35.0888 	 35.2579 	 
H 	 -10.7664 	 34.6026 	 35.931 	 
H 	 -11.001 	 36.0684 	 35.2142 	 
C 	 -11.5465 	 34.5473 	 33.8123 	 
H 	 -12.1373 	 35.2498 	 33.1344 	 
H 	 -12.1123 	 33.6485 	 33.8874 	 
H 	 -10.6721 	 34.4481 	 33.1511 	 
H 	 -13.152 	 41.35 	 37.1891 	 
H 	 -11.9876 	 33.3914 	 40.0539 	 
*
