! wB97X-D3 SP def2-SVP
%pal
nprocs 16
end

* xyz 0 1
S 	 2.96041 	 -12.4692 	 78.4165 	 
C 	 3.4473 	 -12.7839 	 80.0309 	 
C 	 2.71083 	 -11.9595 	 80.8667 	 
C 	 1.7924 	 -11.1256 	 80.1593 	 
C 	 1.81168 	 -11.2176 	 78.7831 	 
H 	 1.20198 	 -10.3081 	 80.5683 	 
C 	 2.85598 	 -11.8027 	 82.3058 	 
H 	 2.05059 	 -11.0921 	 82.6366 	 
H 	 3.80007 	 -11.2566 	 82.4071 	 
C 	 3.08369 	 -12.9449 	 83.272 	 
H 	 2.55863 	 -13.8467 	 83.0284 	 
H 	 4.14696 	 -13.2797 	 83.0994 	 
C 	 2.81637 	 -12.5598 	 84.6833 	 
H 	 1.80907 	 -12.231 	 84.7682 	 
H 	 2.95744 	 -13.4196 	 85.3141 	 
H 	 3.42252 	 -11.6777 	 85.0958 	 
S 	 2.05826 	 -9.07869 	 77.0724 	 
C 	 0.645423 	 -8.36185 	 76.4106 	 
C 	 -0.458967 	 -8.9694 	 76.8517 	 
C 	 -0.259263 	 -10.0771 	 77.7283 	 
C 	 1.11639 	 -10.338 	 77.8142 	 
H 	 -1.36628 	 -8.65868 	 76.4165 	 
C 	 -1.49539 	 -10.7997 	 78.3437 	 
H 	 -2.31507 	 -10.0658 	 78.4847 	 
H 	 -1.30768 	 -11.2254 	 79.3128 	 
C 	 -2.11657 	 -11.8848 	 77.4018 	 
H 	 -1.4376 	 -12.7343 	 77.3688 	 
H 	 -2.29963 	 -11.3927 	 76.4263 	 
C 	 -3.58095 	 -12.2348 	 77.7625 	 
H 	 -3.55175 	 -12.7751 	 78.6956 	 
H 	 -4.05327 	 -12.9027 	 76.9876 	 
H 	 -4.266 	 -11.3473 	 77.7418 	 
H 	 4.30313 	 -13.404 	 80.234 	 
H 	 0.587284 	 -7.52338 	 75.7256 	 
*
