! wB97X-D3 SP def2-SVP
%pal
nprocs 16
end

* xyz 0 1
S 	 -30.0406 	 28.8517 	 43.1526 	 
C 	 -31.5999 	 28.4159 	 43.6839 	 
C 	 -32.2301 	 29.5465 	 44.2595 	 
C 	 -31.3791 	 30.6967 	 44.3139 	 
C 	 -30.1037 	 30.4167 	 43.7463 	 
H 	 -31.5431 	 31.6389 	 44.6314 	 
C 	 -33.6644 	 29.6408 	 44.7511 	 
H 	 -34.0619 	 28.6892 	 44.4691 	 
H 	 -34.1162 	 30.3899 	 44.1974 	 
C 	 -34.0461 	 29.9762 	 46.2188 	 
H 	 -33.9883 	 31.0608 	 46.5028 	 
H 	 -35.1031 	 29.7811 	 46.2854 	 
C 	 -33.3702 	 29.1802 	 47.3239 	 
H 	 -33.4972 	 28.2131 	 47.1279 	 
H 	 -32.3134 	 29.413 	 47.3019 	 
H 	 -33.7564 	 29.3966 	 48.3511 	 
S 	 -27.4531 	 30.8116 	 44.4567 	 
C 	 -26.6674 	 32.2323 	 43.8507 	 
C 	 -27.5131 	 33.0493 	 43.1524 	 
C 	 -28.794 	 32.4945 	 42.9707 	 
C 	 -28.9308 	 31.2666 	 43.5964 	 
H 	 -27.2255 	 34.056 	 42.7444 	 
C 	 -29.8371 	 33.1655 	 42.0778 	 
H 	 -30.3037 	 32.4571 	 41.4171 	 
H 	 -29.3159 	 33.9084 	 41.3425 	 
C 	 -30.8877 	 33.9964 	 42.777 	 
H 	 -30.1788 	 34.6736 	 43.3349 	 
H 	 -31.4361 	 33.4432 	 43.4892 	 
C 	 -31.7813 	 34.7206 	 41.7236 	 
H 	 -31.221 	 35.5135 	 41.1627 	 
H 	 -32.4537 	 35.4278 	 42.2168 	 
H 	 -32.3209 	 34.0795 	 41.0298 	 
H 	 -32.1065 	 27.5153 	 43.4599 	 
H 	 -25.653 	 32.4836 	 43.9287 	 
*
