! wB97X-D3 SP def2-SVP
%pal
nprocs 16
end

* xyz 0 1
S 	 3.55098 	 16.6609 	 88.4673 	 
C 	 3.44802 	 17.8247 	 87.1308 	 
C 	 4.38335 	 17.4991 	 86.0882 	 
C 	 5.26656 	 16.4534 	 86.4449 	 
C 	 4.93026 	 15.8643 	 87.6418 	 
H 	 6.01822 	 16.1843 	 85.8185 	 
C 	 4.36721 	 18.1312 	 84.6995 	 
H 	 5.29599 	 18.7197 	 84.6346 	 
H 	 3.41425 	 18.6856 	 84.4884 	 
C 	 4.41475 	 17.1695 	 83.5232 	 
H 	 5.41969 	 16.781 	 83.5004 	 
H 	 3.63909 	 16.3657 	 83.6556 	 
C 	 4.08974 	 17.9635 	 82.1919 	 
H 	 3.14542 	 18.3989 	 82.0989 	 
H 	 4.88625 	 18.5653 	 81.9923 	 
H 	 4.11449 	 17.2715 	 81.4275 	 
S 	 4.97917 	 13.4539 	 88.9885 	 
C 	 6.45908 	 12.639 	 89.3774 	 
C 	 7.58937 	 13.4156 	 89.023 	 
C 	 7.19347 	 14.6834 	 88.5088 	 
C 	 5.78389 	 14.8427 	 88.3489 	 
H 	 8.53618 	 13.0334 	 89.3579 	 
C 	 8.25184 	 15.7117 	 88.1959 	 
H 	 7.89731 	 16.3254 	 87.3419 	 
H 	 9.10058 	 15.1031 	 87.8213 	 
C 	 8.77603 	 16.6386 	 89.3418 	 
H 	 9.5537 	 17.2737 	 88.8745 	 
H 	 9.45761 	 16.1024 	 90.0776 	 
C 	 7.80358 	 17.4899 	 90.1824 	 
H 	 7.32078 	 18.2082 	 89.6399 	 
H 	 8.25414 	 18.023 	 91.014 	 
H 	 7.11525 	 16.8147 	 90.6495 	 
H 	 2.72321 	 18.577 	 86.9668 	 
H 	 6.57729 	 11.6969 	 89.95 	 
*
