! wB97X-D3 SP def2-SVP
%pal
nprocs 16
end

* xyz 0 1
S 	 -64.8421 	 52.2675 	 123.045 	 
C 	 -65.9606 	 51.1936 	 123.825 	 
C 	 -66.0625 	 49.9561 	 123.203 	 
C 	 -65.2676 	 49.9134 	 122.022 	 
C 	 -64.6797 	 51.1238 	 121.754 	 
H 	 -65.2241 	 49.0105 	 121.451 	 
C 	 -67.0468 	 48.8802 	 123.653 	 
H 	 -67.6868 	 48.4457 	 122.866 	 
H 	 -67.7513 	 49.2293 	 124.405 	 
C 	 -66.2824 	 47.7896 	 124.327 	 
H 	 -65.9985 	 47.2412 	 123.434 	 
H 	 -65.4549 	 48.1808 	 124.951 	 
C 	 -67.1266 	 46.8447 	 125.174 	 
H 	 -67.5109 	 47.4424 	 126.057 	 
H 	 -67.9708 	 46.3912 	 124.585 	 
H 	 -66.4407 	 46.0705 	 125.587 	 
S 	 -62.0613 	 51.7566 	 120.935 	 
C 	 -61.715 	 51.9241 	 119.295 	 
C 	 -62.8965 	 51.8928 	 118.538 	 
C 	 -64.0142 	 51.4783 	 119.284 	 
C 	 -63.7575 	 51.3767 	 120.637 	 
H 	 -62.8505 	 51.9914 	 117.444 	 
C 	 -65.3567 	 51.2399 	 118.587 	 
H 	 -65.3738 	 51.8997 	 117.719 	 
H 	 -66.1897 	 51.6656 	 119.13 	 
C 	 -65.5847 	 49.8098 	 118.201 	 
H 	 -65.1717 	 49.1857 	 118.989 	 
H 	 -65.0492 	 49.5768 	 117.305 	 
C 	 -67.0167 	 49.2749 	 118.023 	 
H 	 -67.126 	 48.2074 	 118.062 	 
H 	 -67.504 	 49.631 	 117.065 	 
H 	 -67.6879 	 49.712 	 118.858 	 
H 	 -66.4991 	 51.4328 	 124.764 	 
H 	 -60.7775 	 52.4454 	 118.954 	 
*
