! wB97X-D3 SP def2-SVP
%pal
nprocs 16
end

* xyz 0 1
S 	 16.2784 	 -7.731 	 81.705 	 
C 	 15.1269 	 -6.47079 	 81.6734 	 
C 	 14.8229 	 -6.0477 	 80.4168 	 
C 	 15.4375 	 -6.84363 	 79.4033 	 
C 	 16.1562 	 -7.90998 	 79.9625 	 
H 	 15.1971 	 -6.70881 	 78.3005 	 
C 	 13.8836 	 -4.97528 	 80.0699 	 
H 	 13.7905 	 -4.45846 	 80.9832 	 
H 	 12.832 	 -5.36752 	 79.9372 	 
C 	 14.3459 	 -3.90154 	 78.989 	 
H 	 15.3651 	 -3.72315 	 79.1576 	 
H 	 14.4186 	 -4.32321 	 77.9381 	 
C 	 13.4584 	 -2.68143 	 78.9115 	 
H 	 12.5695 	 -2.98538 	 78.3477 	 
H 	 13.2613 	 -2.1534 	 79.8352 	 
H 	 14.0305 	 -1.98751 	 78.3043 	 
S 	 16.2269 	 -10.6382 	 80.0917 	 
C 	 16.8498 	 -11.5478 	 78.6931 	 
C 	 17.4924 	 -10.6758 	 77.8142 	 
C 	 17.4511 	 -9.31122 	 78.1667 	 
C 	 16.6613 	 -9.13438 	 79.3218 	 
H 	 17.8874 	 -11.0587 	 76.9066 	 
C 	 18.0206 	 -8.10727 	 77.3292 	 
H 	 17.3303 	 -7.25699 	 77.4274 	 
H 	 17.83 	 -8.62309 	 76.3734 	 
C 	 19.4786 	 -7.63661 	 77.4922 	 
H 	 20.1011 	 -8.56456 	 77.3236 	 
H 	 19.5609 	 -7.34453 	 78.5479 	 
C 	 19.8707 	 -6.59968 	 76.496 	 
H 	 19.4076 	 -5.71141 	 76.851 	 
H 	 19.6341 	 -6.81206 	 75.4292 	 
H 	 20.9659 	 -6.48758 	 76.5885 	 
H 	 14.8371 	 -5.8525 	 82.5338 	 
H 	 16.8249 	 -12.6263 	 78.5089 	 
*
