! wB97X-D3 SP def2-SVP
%pal
nprocs 16
end

* xyz 0 1
S 	 -69.8983 	 36.9675 	 143.009 	 
C 	 -70.7569 	 35.873 	 142.001 	 
C 	 -70.184 	 35.7922 	 140.722 	 
C 	 -68.8704 	 36.3442 	 140.743 	 
C 	 -68.4321 	 36.8682 	 141.991 	 
H 	 -68.169 	 36.4217 	 139.893 	 
C 	 -70.7078 	 35.0095 	 139.502 	 
H 	 -71.3973 	 34.1068 	 139.615 	 
H 	 -69.7512 	 34.5529 	 139.164 	 
C 	 -71.217 	 35.8359 	 138.253 	 
H 	 -72.0144 	 36.4985 	 138.475 	 
H 	 -70.4302 	 36.5615 	 138.008 	 
C 	 -71.6364 	 34.9175 	 137.132 	 
H 	 -71.9738 	 35.5376 	 136.345 	 
H 	 -70.8112 	 34.2857 	 136.778 	 
H 	 -72.4059 	 34.1989 	 137.535 	 
S 	 -65.6749 	 36.9942 	 142.155 	 
C 	 -64.8763 	 38.4381 	 142.587 	 
C 	 -65.7375 	 39.4914 	 142.522 	 
C 	 -67.1019 	 39.1434 	 142.421 	 
C 	 -67.2602 	 37.7671 	 142.246 	 
H 	 -65.2833 	 40.4485 	 142.681 	 
C 	 -68.1923 	 40.2202 	 142.498 	 
H 	 -69.1753 	 39.8361 	 142.121 	 
H 	 -68.0242 	 40.9867 	 141.741 	 
C 	 -68.3385 	 40.9236 	 143.832 	 
H 	 -69.1968 	 41.5833 	 143.643 	 
H 	 -67.5239 	 41.6298 	 144.013 	 
C 	 -68.5911 	 40.0935 	 145.099 	 
H 	 -67.7388 	 39.4127 	 145.242 	 
H 	 -69.4125 	 39.3622 	 145.013 	 
H 	 -68.6924 	 40.5822 	 146.085 	 
H 	 -71.6542 	 35.3738 	 142.21 	 
H 	 -63.801 	 38.6345 	 142.659 	 
*
