! wB97X-D3 SP def2-SVP
%pal
nprocs 16
end

* xyz 0 1
S 	 -67.4811 	 37.7777 	 132.077 	 
C 	 -68.3144 	 39.2482 	 131.542 	 
C 	 -68.3704 	 40.228 	 132.565 	 
C 	 -67.8439 	 39.7071 	 133.81 	 
C 	 -67.463 	 38.3419 	 133.765 	 
H 	 -67.8645 	 40.2207 	 134.722 	 
C 	 -68.6691 	 41.7012 	 132.436 	 
H 	 -68.3009 	 42.005 	 131.459 	 
H 	 -68.167 	 42.2573 	 133.21 	 
C 	 -70.1501 	 41.9975 	 132.672 	 
H 	 -70.3842 	 42.9678 	 132.266 	 
H 	 -70.6377 	 41.2226 	 132.109 	 
C 	 -70.6566 	 41.7629 	 134.047 	 
H 	 -70.1784 	 40.8513 	 134.452 	 
H 	 -70.5407 	 42.5829 	 134.761 	 
H 	 -71.7541 	 41.5717 	 134.002 	 
S 	 -68.4064 	 35.9652 	 134.815 	 
C 	 -67.8599 	 35.3768 	 136.423 	 
C 	 -66.9339 	 36.2894 	 136.902 	 
C 	 -66.6791 	 37.4764 	 136.104 	 
C 	 -67.4136 	 37.4534 	 134.946 	 
H 	 -66.4896 	 35.9766 	 137.807 	 
C 	 -65.8888 	 38.7029 	 136.652 	 
H 	 -66.0336 	 38.6496 	 137.768 	 
H 	 -66.2466 	 39.6755 	 136.378 	 
C 	 -64.4142 	 38.7189 	 136.312 	 
H 	 -64.0859 	 37.845 	 136.868 	 
H 	 -63.8833 	 39.5215 	 136.783 	 
C 	 -64.0775 	 38.8508 	 134.821 	 
H 	 -64.4478 	 38.0358 	 134.203 	 
H 	 -63.0107 	 38.978 	 134.577 	 
H 	 -64.6162 	 39.7704 	 134.388 	 
H 	 -68.5439 	 39.5058 	 130.517 	 
H 	 -68.2276 	 34.519 	 136.961 	 
*
