! wB97X-D3 SP def2-SVP
%pal
nprocs 16
end

* xyz 0 1
S 	 -41.8952 	 -2.83804 	 97.5554 	 
C 	 -41.2248 	 -4.29275 	 96.9824 	 
C 	 -41.6614 	 -4.66823 	 95.7547 	 
C 	 -42.8023 	 -3.90319 	 95.4314 	 
C 	 -42.9585 	 -2.78853 	 96.2092 	 
H 	 -43.3783 	 -3.92067 	 94.5574 	 
C 	 -41.1617 	 -5.79203 	 94.9307 	 
H 	 -40.325 	 -6.1438 	 95.5847 	 
H 	 -40.6492 	 -5.33107 	 94.0366 	 
C 	 -42.1964 	 -6.89129 	 94.7187 	 
H 	 -41.6858 	 -7.85634 	 94.8231 	 
H 	 -42.7357 	 -6.83423 	 95.6572 	 
C 	 -42.9888 	 -6.7587 	 93.4157 	 
H 	 -43.6403 	 -7.5326 	 93.2125 	 
H 	 -43.54 	 -5.83908 	 93.3024 	 
H 	 -42.2453 	 -6.69725 	 92.6041 	 
S 	 -43.0572 	 -0.0483973 	 96.1428 	 
C 	 -44.5486 	 0.797406 	 95.6888 	 
C 	 -45.5736 	 -0.0741755 	 95.3796 	 
C 	 -45.1236 	 -1.45582 	 95.3903 	 
C 	 -43.811 	 -1.67789 	 95.841 	 
H 	 -46.5572 	 0.332052 	 95.0821 	 
C 	 -46.1461 	 -2.59022 	 95.4103 	 
H 	 -46.4965 	 -2.62291 	 96.3812 	 
H 	 -45.5633 	 -3.4546 	 95.3013 	 
C 	 -47.0997 	 -2.44795 	 94.1965 	 
H 	 -46.4196 	 -2.3528 	 93.3359 	 
H 	 -47.7354 	 -1.53023 	 94.2656 	 
C 	 -47.969 	 -3.69253 	 94.117 	 
H 	 -47.3825 	 -4.63386 	 94.2659 	 
H 	 -48.5306 	 -3.84326 	 93.1258 	 
H 	 -48.677 	 -3.61189 	 94.8582 	 
H 	 -40.3171 	 -4.81083 	 97.3827 	 
H 	 -44.687 	 1.82058 	 95.8595 	 
*
