! wB97X-D3 SP def2-SVP
%pal
nprocs 16
end

* xyz 0 1
S 	 -68.8618 	 36.6939 	 115.492 	 
C 	 -70.4322 	 36.8333 	 116.348 	 
C 	 -71.3 	 37.4932 	 115.522 	 
C 	 -70.7633 	 37.7582 	 114.234 	 
C 	 -69.4519 	 37.4177 	 114.036 	 
H 	 -71.2512 	 38.443 	 113.455 	 
C 	 -72.7548 	 37.8258 	 115.852 	 
H 	 -73.0152 	 37.1692 	 116.602 	 
H 	 -73.3722 	 37.7389 	 114.954 	 
C 	 -73.0757 	 39.267 	 116.366 	 
H 	 -72.6595 	 39.3524 	 117.333 	 
H 	 -72.541 	 39.9908 	 115.718 	 
C 	 -74.6726 	 39.5045 	 116.515 	 
H 	 -75.1053 	 38.6202 	 117.065 	 
H 	 -74.8604 	 40.4268 	 117.059 	 
H 	 -75.281 	 39.5859 	 115.602 	 
S 	 -67.3487 	 36.6205 	 112.512 	 
C 	 -66.6847 	 37.6644 	 111.231 	 
C 	 -67.5511 	 38.7264 	 110.942 	 
C 	 -68.514 	 38.8995 	 111.972 	 
C 	 -68.5784 	 37.8245 	 112.901 	 
H 	 -67.4281 	 39.408 	 110.087 	 
C 	 -69.4808 	 40.0304 	 111.811 	 
H 	 -70.4813 	 39.542 	 111.642 	 
H 	 -69.2174 	 40.6337 	 110.857 	 
C 	 -69.5529 	 41.0172 	 112.98 	 
H 	 -68.5775 	 41.5075 	 113.14 	 
H 	 -69.6392 	 40.3249 	 113.853 	 
C 	 -70.6459 	 42.0773 	 112.728 	 
H 	 -70.9078 	 42.6891 	 113.584 	 
H 	 -71.4509 	 41.6966 	 112.124 	 
H 	 -70.2545 	 42.9482 	 112.059 	 
H 	 -70.5671 	 36.4265 	 117.344 	 
H 	 -65.9692 	 37.4342 	 110.48 	 
*
