! wB97X-D3 SP def2-SVP
%pal
nprocs 16
end

* xyz 0 1
S 	 -5.83249 	 -13.7227 	 78.0511 	 
C 	 -5.98045 	 -12.0585 	 77.4737 	 
C 	 -6.09748 	 -11.1702 	 78.5259 	 
C 	 -5.99843 	 -11.8061 	 79.7864 	 
C 	 -5.83293 	 -13.2097 	 79.744 	 
H 	 -6.13929 	 -11.3493 	 80.7921 	 
C 	 -6.34309 	 -9.65569 	 78.5306 	 
H 	 -7.27899 	 -9.43371 	 79.1211 	 
H 	 -6.67703 	 -9.49845 	 77.4381 	 
C 	 -5.14656 	 -8.74667 	 78.8099 	 
H 	 -4.97435 	 -8.72843 	 79.9223 	 
H 	 -4.24995 	 -9.26359 	 78.4051 	 
C 	 -5.39431 	 -7.26219 	 78.471 	 
H 	 -4.58727 	 -6.69716 	 78.9169 	 
H 	 -5.49204 	 -7.03184 	 77.3859 	 
H 	 -6.34266 	 -6.89705 	 78.9321 	 
S 	 -6.88835 	 -15.1764 	 81.3533 	 
C 	 -6.01658 	 -15.7028 	 82.7758 	 
C 	 -4.8105 	 -14.9899 	 82.8816 	 
C 	 -4.61605 	 -14.0996 	 81.7638 	 
C 	 -5.65769 	 -14.1077 	 80.8572 	 
H 	 -4.14266 	 -15.1918 	 83.6789 	 
C 	 -3.41171 	 -13.2145 	 81.5941 	 
H 	 -3.19858 	 -12.9864 	 80.5097 	 
H 	 -2.58118 	 -13.8393 	 81.9477 	 
C 	 -3.41517 	 -11.8071 	 82.337 	 
H 	 -4.32089 	 -11.2744 	 81.9702 	 
H 	 -2.52007 	 -11.2121 	 82.0638 	 
C 	 -3.24506 	 -11.9171 	 83.8781 	 
H 	 -4.2 	 -12.1131 	 84.4456 	 
H 	 -2.83361 	 -10.9567 	 84.2246 	 
H 	 -2.58093 	 -12.7154 	 84.1764 	 
H 	 -6.05471 	 -11.6593 	 76.4483 	 
H 	 -6.2592 	 -16.4707 	 83.455 	 
*
