! wB97X-D3 SP def2-SVP
%pal
nprocs 16
end

* xyz 0 1
S 	 7.68516 	 1.8668 	 88.0875 	 
C 	 8.46787 	 3.395 	 88.4279 	 
C 	 9.04241 	 3.92126 	 87.2587 	 
C 	 8.8511 	 3.08695 	 86.1373 	 
C 	 8.11211 	 1.98031 	 86.3936 	 
H 	 9.25315 	 3.16037 	 85.1698 	 
C 	 9.81366 	 5.25596 	 87.1829 	 
H 	 9.54407 	 5.8431 	 88.0422 	 
H 	 9.30475 	 5.76258 	 86.3036 	 
C 	 11.3642 	 5.02567 	 87.058 	 
H 	 11.5459 	 4.43801 	 86.1309 	 
H 	 11.8628 	 5.96729 	 87.1006 	 
C 	 12.01 	 4.16536 	 88.0855 	 
H 	 11.9974 	 4.66318 	 89.0624 	 
H 	 11.6501 	 3.16532 	 88.217 	 
H 	 13.0888 	 4.02985 	 87.8823 	 
S 	 6.17099 	 0.844345 	 84.8392 	 
C 	 6.66139 	 -0.346101 	 83.6731 	 
C 	 8.0285 	 -0.626181 	 83.7528 	 
C 	 8.72442 	 0.171152 	 84.6889 	 
C 	 7.84446 	 0.950869 	 85.4107 	 
H 	 8.37402 	 -1.39646 	 83.0828 	 
C 	 10.1322 	 0.021777 	 84.9751 	 
H 	 10.2714 	 -0.995871 	 85.245 	 
H 	 10.4535 	 0.444892 	 85.8777 	 
C 	 11.1833 	 0.310001 	 83.8425 	 
H 	 11.0308 	 1.27597 	 83.3224 	 
H 	 10.8768 	 -0.391317 	 83.0377 	 
C 	 12.6882 	 -0.0234041 	 84.1822 	 
H 	 13.0356 	 0.592556 	 84.9443 	 
H 	 13.2924 	 -0.0710591 	 83.251 	 
H 	 12.6737 	 -0.986551 	 84.7332 	 
H 	 8.55435 	 3.92982 	 89.3977 	 
H 	 6.07197 	 -0.724227 	 82.8426 	 
*
