! wB97X-D3 SP def2-SVP
%pal
nprocs 16
end

* xyz 0 1
S 	 -6.57439 	 34.6718 	 54.5249 	 
C 	 -5.59912 	 33.7071 	 55.5465 	 
C 	 -4.53398 	 33.2219 	 54.8708 	 
C 	 -4.71028 	 33.4036 	 53.4666 	 
C 	 -5.99934 	 33.8496 	 53.1218 	 
H 	 -4.06489 	 33.0384 	 52.6555 	 
C 	 -3.33163 	 32.5562 	 55.4835 	 
H 	 -2.96864 	 31.858 	 54.8088 	 
H 	 -3.52005 	 31.8942 	 56.3728 	 
C 	 -2.17416 	 33.5402 	 55.9706 	 
H 	 -1.27135 	 33.0255 	 56.302 	 
H 	 -1.67591 	 34.0267 	 55.119 	 
C 	 -2.72093 	 34.5489 	 57.0552 	 
H 	 -3.21902 	 33.9953 	 57.8473 	 
H 	 -1.8058 	 35.0682 	 57.3632 	 
H 	 -3.45383 	 35.1916 	 56.6131 	 
S 	 -6.90805 	 35.7312 	 51.3105 	 
C 	 -7.58558 	 35.2647 	 49.8658 	 
C 	 -7.33191 	 33.9201 	 49.599 	 
C 	 -6.76948 	 33.1819 	 50.7101 	 
C 	 -6.56875 	 34.0408 	 51.8164 	 
H 	 -7.63906 	 33.5131 	 48.6279 	 
C 	 -6.55217 	 31.7228 	 50.6729 	 
H 	 -5.58975 	 31.5141 	 51.1245 	 
H 	 -6.51556 	 31.3936 	 49.6259 	 
C 	 -7.58029 	 31.03 	 51.5638 	 
H 	 -8.56622 	 31.2767 	 51.2908 	 
H 	 -7.46221 	 31.3514 	 52.5926 	 
C 	 -7.59883 	 29.4682 	 51.5712 	 
H 	 -8.25917 	 29.1149 	 52.4424 	 
H 	 -6.60319 	 29.0908 	 51.8297 	 
H 	 -7.84252 	 28.9813 	 50.5955 	 
H 	 -5.50837 	 33.749 	 56.6476 	 
H 	 -7.9775 	 35.9707 	 49.1685 	 
*
