! wB97X-D3 SP def2-SVP
%pal
nprocs 16
end

* xyz 0 1
S 	 -71.9289 	 42.7417 	 122.858 	 
C 	 -73.5756 	 42.0878 	 122.669 	 
C 	 -74.5028 	 43.1119 	 122.498 	 
C 	 -73.9063 	 44.4121 	 122.368 	 
C 	 -72.5329 	 44.3944 	 122.562 	 
H 	 -74.4118 	 45.3017 	 122.174 	 
C 	 -75.9412 	 42.9501 	 122.16 	 
H 	 -76.1534 	 43.1669 	 121.107 	 
H 	 -76.4673 	 43.6639 	 122.825 	 
C 	 -76.4759 	 41.5466 	 122.481 	 
H 	 -75.9964 	 40.7015 	 121.826 	 
H 	 -76.251 	 41.4452 	 123.528 	 
C 	 -78.0153 	 41.4409 	 122.27 	 
H 	 -78.3718 	 40.4374 	 122.605 	 
H 	 -78.5877 	 42.2255 	 122.801 	 
H 	 -78.294 	 41.5079 	 121.185 	 
S 	 -71.2761 	 46.2256 	 124.092 	 
C 	 -70.2017 	 47.2854 	 123.256 	 
C 	 -70.1811 	 47.1444 	 121.92 	 
C 	 -71.0833 	 46.1464 	 121.503 	 
C 	 -71.742 	 45.5663 	 122.563 	 
H 	 -69.6597 	 47.8165 	 121.35 	 
C 	 -71.2283 	 45.7364 	 120.061 	 
H 	 -70.5128 	 46.4154 	 119.573 	 
H 	 -72.2133 	 46.044 	 119.779 	 
C 	 -70.8837 	 44.3003 	 119.639 	 
H 	 -71.2834 	 43.3892 	 120.146 	 
H 	 -69.8019 	 44.2738 	 119.845 	 
C 	 -70.9154 	 44.0037 	 118.14 	 
H 	 -71.7773 	 44.2739 	 117.614 	 
H 	 -70.7163 	 42.9375 	 118.042 	 
H 	 -70.1476 	 44.5554 	 117.66 	 
H 	 -73.7873 	 41.066 	 122.575 	 
H 	 -69.4415 	 47.9742 	 123.726 	 
*
