! wB97X-D3 SP def2-SVP
%pal
nprocs 16
end

* xyz 0 1
S 	 52.7777 	 -1.40512 	 81.4565 	 
C 	 51.4149 	 -0.764175 	 82.2914 	 
C 	 51.7803 	 -0.361754 	 83.5455 	 
C 	 53.1326 	 -0.34033 	 83.797 	 
C 	 53.8584 	 -0.982466 	 82.7806 	 
H 	 53.707 	 -0.0426128 	 84.7085 	 
C 	 50.7926 	 0.235586 	 84.4609 	 
H 	 51.2937 	 0.141447 	 85.3817 	 
H 	 49.9879 	 -0.368651 	 84.4987 	 
C 	 50.2753 	 1.61053 	 84.1434 	 
H 	 50.9796 	 2.4397 	 84.1152 	 
H 	 49.61 	 1.71856 	 83.2624 	 
C 	 49.4375 	 2.05082 	 85.3824 	 
H 	 48.7924 	 1.2409 	 85.7502 	 
H 	 50.2179 	 2.29121 	 86.1662 	 
H 	 48.8799 	 2.90482 	 85.1151 	 
S 	 56.2546 	 -2.28559 	 83.515 	 
C 	 57.7618 	 -1.61511 	 82.8377 	 
C 	 57.557 	 -0.349383 	 82.3833 	 
C 	 56.1814 	 0.0371671 	 82.3175 	 
C 	 55.3069 	 -1.02055 	 82.6715 	 
H 	 58.4805 	 0.147512 	 82.0137 	 
C 	 55.8189 	 1.45906 	 82.0008 	 
H 	 55.943 	 2.17022 	 82.8525 	 
H 	 54.7669 	 1.40913 	 81.6959 	 
C 	 56.596 	 2.13913 	 80.8104 	 
H 	 56.6362 	 1.42601 	 79.9322 	 
H 	 57.6395 	 2.21375 	 81.1926 	 
C 	 56.2207 	 3.52193 	 80.2631 	 
H 	 56.8821 	 3.93752 	 79.4775 	 
H 	 56.3744 	 4.20448 	 81.1125 	 
H 	 55.1448 	 3.42403 	 79.9092 	 
H 	 50.4622 	 -0.863211 	 81.911 	 
H 	 58.6776 	 -2.08977 	 82.9515 	 
*
