! wB97X-D3 SP def2-SVP
%pal
nprocs 16
end

* xyz 0 1
S 	 17.4212 	 0.678565 	 69.9649 	 
C 	 16.9408 	 -0.291462 	 68.6097 	 
C 	 17.9293 	 -0.251713 	 67.6115 	 
C 	 19.0908 	 0.507579 	 68.0334 	 
C 	 19.0391 	 0.974605 	 69.3038 	 
H 	 20.0304 	 0.708013 	 67.5963 	 
C 	 17.8137 	 -0.930934 	 66.2382 	 
H 	 17.9364 	 -0.119621 	 65.4909 	 
H 	 16.8003 	 -1.34311 	 66.1407 	 
C 	 18.9367 	 -1.9472 	 65.9492 	 
H 	 19.0384 	 -2.04661 	 64.8432 	 
H 	 19.9092 	 -1.4534 	 66.1806 	 
C 	 18.7233 	 -3.31814 	 66.6301 	 
H 	 19.5868 	 -3.91107 	 66.2486 	 
H 	 18.5611 	 -3.19954 	 67.7151 	 
H 	 17.8801 	 -3.70253 	 66.1062 	 
S 	 20.2907 	 1.1996 	 71.8347 	 
C 	 21.5877 	 2.23073 	 72.0553 	 
C 	 21.8771 	 2.98372 	 70.9011 	 
C 	 20.974 	 2.65991 	 69.8251 	 
C 	 20.0997 	 1.61308 	 70.1253 	 
H 	 22.5796 	 3.79059 	 70.8958 	 
C 	 21.0536 	 3.45096 	 68.567 	 
H 	 20.7009 	 2.8165 	 67.7858 	 
H 	 22.1232 	 3.6778 	 68.4526 	 
C 	 20.2764 	 4.76451 	 68.4969 	 
H 	 19.2778 	 4.6462 	 68.0723 	 
H 	 20.744 	 5.30791 	 67.6665 	 
C 	 20.4681 	 5.6965 	 69.6911 	 
H 	 21.4424 	 6.22023 	 69.5775 	 
H 	 20.4734 	 5.1137 	 70.6681 	 
H 	 19.7286 	 6.47085 	 69.7171 	 
H 	 15.9737 	 -0.718191 	 68.4701 	 
H 	 22.1436 	 2.33011 	 72.9496 	 
*
