! wB97X-D3 SP def2-SVP
%pal
nprocs 16
end

* xyz 0 1
S 	 -44.0012 	 17.0567 	 72.9204 	 
C 	 -43.1697 	 16.0122 	 71.7706 	 
C 	 -42.558 	 16.7686 	 70.7964 	 
C 	 -42.8441 	 18.1615 	 70.9098 	 
C 	 -43.7401 	 18.4304 	 71.9253 	 
H 	 -42.5706 	 18.9405 	 70.2617 	 
C 	 -41.6506 	 16.1555 	 69.7736 	 
H 	 -41.8567 	 16.7068 	 68.8109 	 
H 	 -41.8536 	 15.0955 	 69.5012 	 
C 	 -40.1112 	 16.1094 	 70.1102 	 
H 	 -39.9703 	 15.6506 	 71.116 	 
H 	 -39.6235 	 15.4433 	 69.3319 	 
C 	 -39.5571 	 17.5697 	 70.0522 	 
H 	 -39.9657 	 18.1149 	 70.8514 	 
H 	 -38.5019 	 17.7318 	 70.1012 	 
H 	 -39.8959 	 18.1847 	 69.1928 	 
S 	 -44.9265 	 20.841 	 70.9271 	 
C 	 -45.5249 	 22.0125 	 72.1042 	 
C 	 -45.3662 	 21.5362 	 73.392 	 
C 	 -44.6727 	 20.2786 	 73.4722 	 
C 	 -44.3104 	 19.769 	 72.2368 	 
H 	 -45.8024 	 22.204 	 74.155 	 
C 	 -44.4511 	 19.7901 	 74.8933 	 
H 	 -44.9189 	 18.7838 	 75.0959 	 
H 	 -45.1764 	 20.3769 	 75.4419 	 
C 	 -43.0527 	 19.9195 	 75.5772 	 
H 	 -42.2918 	 19.2824 	 75.0597 	 
H 	 -43.007 	 19.4532 	 76.5862 	 
C 	 -42.6471 	 21.415 	 75.5756 	 
H 	 -42.6527 	 21.9127 	 74.6225 	 
H 	 -41.6621 	 21.4618 	 76.0408 	 
H 	 -43.3606 	 22.0453 	 76.1648 	 
H 	 -42.8922 	 14.9788 	 71.891 	 
H 	 -45.9263 	 23 	 71.8284 	 
*
