! wB97X-D3 SP def2-SVP
%pal
nprocs 16
end

* xyz 0 1
S 	 0.707316 	 -3.64616 	 79.2043 	 
C 	 0.51882 	 -1.96659 	 79.5521 	 
C 	 0.972015 	 -1.66415 	 80.8239 	 
C 	 1.60026 	 -2.77128 	 81.4548 	 
C 	 1.58553 	 -3.93145 	 80.6542 	 
H 	 1.97453 	 -2.69059 	 82.4876 	 
C 	 1.03911 	 -0.267114 	 81.3682 	 
H 	 1.31764 	 0.474174 	 80.5405 	 
H 	 1.82982 	 -0.2358 	 82.1307 	 
C 	 -0.188535 	 0.273707 	 82.0259 	 
H 	 -0.118118 	 1.35468 	 82.0549 	 
H 	 -1.02946 	 0.0904159 	 81.4337 	 
C 	 -0.306519 	 -0.120763 	 83.5105 	 
H 	 -1.10968 	 0.422608 	 84.0418 	 
H 	 -0.499305 	 -1.23794 	 83.5506 	 
H 	 0.64947 	 0.0216815 	 84.0622 	 
S 	 3.37615 	 -5.88166 	 79.8569 	 
C 	 3.702 	 -7.26782 	 80.9038 	 
C 	 2.84631 	 -7.30336 	 81.9466 	 
C 	 2.04489 	 -6.13983 	 82.0169 	 
C 	 2.23082 	 -5.23431 	 80.9475 	 
H 	 2.81153 	 -8.18508 	 82.6529 	 
C 	 1.20642 	 -5.88506 	 83.215 	 
H 	 0.747239 	 -6.77202 	 83.5453 	 
H 	 0.391411 	 -5.31712 	 82.9422 	 
C 	 1.87383 	 -5.35454 	 84.4959 	 
H 	 2.85534 	 -4.80069 	 84.3032 	 
H 	 2.14042 	 -6.17293 	 85.1891 	 
C 	 1.05676 	 -4.29189 	 85.2733 	 
H 	 0.903677 	 -3.32234 	 84.716 	 
H 	 1.5878 	 -4.16036 	 86.2847 	 
H 	 0.0286758 	 -4.61417 	 85.4599 	 
H 	 0.128922 	 -1.20863 	 78.8686 	 
H 	 4.491 	 -7.99227 	 80.7714 	 
*
