! wB97X-D3 SP def2-SVP
%pal
nprocs 16
end

* xyz 0 1
S 	 -65.8205 	 45.6532 	 126.038 	 
C 	 -66.2052 	 47.3495 	 126.357 	 
C 	 -66.5022 	 48.0314 	 125.178 	 
C 	 -66.0823 	 47.2656 	 124.028 	 
C 	 -65.8053 	 45.9111 	 124.284 	 
H 	 -66.0615 	 47.6237 	 122.997 	 
C 	 -66.9998 	 49.496 	 125.164 	 
H 	 -67.2918 	 49.5538 	 126.196 	 
H 	 -67.9452 	 49.3559 	 124.515 	 
C 	 -66.0567 	 50.5731 	 124.768 	 
H 	 -65.0648 	 50.4327 	 125.273 	 
H 	 -65.9194 	 50.4444 	 123.745 	 
C 	 -66.5914 	 52.0058 	 124.979 	 
H 	 -66.3195 	 52.4642 	 125.967 	 
H 	 -66.0774 	 52.5569 	 124.148 	 
H 	 -67.6358 	 52.0762 	 124.984 	 
S 	 -63.6346 	 44.2699 	 123.657 	 
C 	 -63.6829 	 43.2416 	 122.243 	 
C 	 -64.8567 	 43.5145 	 121.53 	 
C 	 -65.7785 	 44.4575 	 122.162 	 
C 	 -65.2441 	 44.9199 	 123.339 	 
H 	 -65.0549 	 42.9089 	 120.69 	 
C 	 -67.0626 	 44.8753 	 121.46 	 
H 	 -67.825 	 45.3029 	 122.164 	 
H 	 -67.4358 	 44.014 	 120.982 	 
C 	 -66.9798 	 45.8813 	 120.305 	 
H 	 -66.1717 	 45.5563 	 119.615 	 
H 	 -66.5791 	 46.8277 	 120.77 	 
C 	 -68.3213 	 46.1293 	 119.669 	 
H 	 -68.6331 	 45.3586 	 118.97 	 
H 	 -68.2465 	 46.9849 	 118.948 	 
H 	 -69.086 	 46.419 	 120.406 	 
H 	 -66.4438 	 47.7184 	 127.322 	 
H 	 -62.9283 	 42.4991 	 121.998 	 
*
