! wB97X-D3 SP def2-SVP
%pal
nprocs 16
end

* xyz 0 1
S 	 -1.68572 	 -18.325 	 83.5366 	 
C 	 -0.0481013 	 -18.1864 	 83.0649 	 
C 	 0.562069 	 -17.2093 	 83.7711 	 
C 	 -0.304718 	 -16.6025 	 84.7662 	 
C 	 -1.56469 	 -17.1489 	 84.808 	 
H 	 -0.098016 	 -15.8746 	 85.5511 	 
C 	 1.96972 	 -16.7367 	 83.5292 	 
H 	 2.1351 	 -15.7559 	 83.9068 	 
H 	 2.1987 	 -16.7058 	 82.4601 	 
C 	 3.0302 	 -17.7441 	 84.1272 	 
H 	 2.67406 	 -17.941 	 85.1316 	 
H 	 2.94724 	 -18.7217 	 83.7184 	 
C 	 4.48854 	 -17.3331 	 84.0491 	 
H 	 4.74118 	 -16.3982 	 84.5496 	 
H 	 5.04783 	 -18.2049 	 84.4758 	 
H 	 4.79026 	 -17.1258 	 83.003 	 
S 	 -2.8849 	 -18.3313 	 86.7698 	 
C 	 -4.08438 	 -17.5062 	 87.6978 	 
C 	 -4.17277 	 -16.187 	 87.3935 	 
C 	 -3.29424 	 -15.8789 	 86.3224 	 
C 	 -2.55489 	 -16.9304 	 85.8576 	 
H 	 -4.85708 	 -15.5762 	 87.8958 	 
C 	 -3.12966 	 -14.431 	 85.8212 	 
H 	 -2.10711 	 -14.1573 	 85.5925 	 
H 	 -3.43297 	 -13.8003 	 86.6847 	 
C 	 -3.92387 	 -14.1146 	 84.5372 	 
H 	 -4.98163 	 -14.3088 	 84.7848 	 
H 	 -3.51311 	 -14.7685 	 83.7499 	 
C 	 -3.83067 	 -12.5923 	 84.2006 	 
H 	 -4.40452 	 -12.0505 	 84.9592 	 
H 	 -4.39543 	 -12.4595 	 83.2139 	 
H 	 -2.84078 	 -12.1518 	 83.9886 	 
H 	 0.392355 	 -18.7355 	 82.2705 	 
H 	 -4.51861 	 -17.9742 	 88.5837 	 
*
