! wB97X-D3 SP def2-SVP
%pal
nprocs 16
end

* xyz 0 1
S 	 -32.5798 	 56.613 	 109.693 	 
C 	 -31.3009 	 57.1113 	 108.595 	 
C 	 -31.7569 	 57.4163 	 107.299 	 
C 	 -33.1983 	 57.4484 	 107.283 	 
C 	 -33.7526 	 57.0539 	 108.467 	 
H 	 -33.8249 	 57.8013 	 106.482 	 
C 	 -30.9288 	 57.7807 	 106.055 	 
H 	 -29.9284 	 57.5577 	 106.374 	 
H 	 -30.9795 	 58.8706 	 105.917 	 
C 	 -31.1344 	 57.0948 	 104.658 	 
H 	 -32.0882 	 57.2248 	 104.296 	 
H 	 -30.3718 	 57.4255 	 103.946 	 
C 	 -30.8636 	 55.5556 	 104.812 	 
H 	 -30.8589 	 55.0258 	 103.847 	 
H 	 -29.8803 	 55.3637 	 105.224 	 
H 	 -31.5684 	 55.1681 	 105.506 	 
S 	 -35.6704 	 57.2515 	 110.58 	 
C 	 -37.305 	 57.6906 	 110.209 	 
C 	 -37.4878 	 57.684 	 108.856 	 
C 	 -36.3613 	 57.3668 	 108.034 	 
C 	 -35.1846 	 57.2457 	 108.816 	 
H 	 -38.4959 	 57.9649 	 108.442 	 
C 	 -36.5653 	 57.3658 	 106.516 	 
H 	 -37.4776 	 56.6802 	 106.386 	 
H 	 -35.752 	 56.7017 	 106.075 	 
C 	 -36.7943 	 58.6777 	 105.74 	 
H 	 -35.8164 	 59.251 	 105.698 	 
H 	 -37.4653 	 59.3428 	 106.354 	 
C 	 -37.3261 	 58.339 	 104.321 	 
H 	 -36.6471 	 57.8217 	 103.605 	 
H 	 -37.7602 	 59.243 	 103.861 	 
H 	 -38.1206 	 57.6945 	 104.493 	 
H 	 -30.3327 	 57.3582 	 108.951 	 
H 	 -38.0418 	 57.95 	 110.971 	 
*
