! wB97X-D3 SP def2-SVP
%pal
nprocs 16
end

* xyz 0 1
S 	 1.3083 	 -5.58794 	 80.226 	 
C 	 1.49131 	 -3.81045 	 80.1404 	 
C 	 2.76696 	 -3.39195 	 80.4358 	 
C 	 3.63784 	 -4.5269 	 80.4349 	 
C 	 3.00715 	 -5.74427 	 80.178 	 
H 	 4.72832 	 -4.42466 	 80.4971 	 
C 	 3.19279 	 -1.91213 	 80.4894 	 
H 	 3.00667 	 -1.41731 	 79.4977 	 
H 	 4.19645 	 -1.98887 	 80.7281 	 
C 	 2.45713 	 -1.14367 	 81.5613 	 
H 	 2.43618 	 -0.145275 	 81.1171 	 
H 	 1.34598 	 -1.46703 	 81.6994 	 
C 	 3.29299 	 -1.22418 	 82.8837 	 
H 	 3.67905 	 -2.18881 	 83.1401 	 
H 	 4.22668 	 -0.629997 	 82.723 	 
H 	 2.83355 	 -0.566188 	 83.6401 	 
S 	 3.4264 	 -7.73102 	 78.2711 	 
C 	 4.65522 	 -8.94438 	 78.6252 	 
C 	 5.12894 	 -8.76927 	 79.9423 	 
C 	 4.47013 	 -7.73957 	 80.6776 	 
C 	 3.67854 	 -6.99199 	 79.9124 	 
H 	 5.89221 	 -9.47762 	 80.2493 	 
C 	 4.61085 	 -7.48194 	 82.08 	 
H 	 3.927 	 -8.16395 	 82.5398 	 
H 	 4.15155 	 -6.50226 	 82.4214 	 
C 	 6.03439 	 -7.46945 	 82.6742 	 
H 	 6.59154 	 -6.75397 	 82.1725 	 
H 	 6.60513 	 -8.32254 	 82.5248 	 
C 	 6.00282 	 -7.17775 	 84.2523 	 
H 	 5.36904 	 -6.38799 	 84.518 	 
H 	 7.08271 	 -7.03025 	 84.4637 	 
H 	 5.65225 	 -8.11024 	 84.7007 	 
H 	 0.712835 	 -3.08041 	 80.0341 	 
H 	 5.16709 	 -9.31327 	 77.7212 	 
*
