! wB97X-D3 SP def2-SVP
%pal
nprocs 16
end

* xyz 0 1
S 	 -33.1065 	 75.1952 	 151.463 	 
C 	 -31.5789 	 75.2098 	 152.333 	 
C 	 -30.7955 	 74.0965 	 152.043 	 
C 	 -31.5801 	 73.0748 	 151.446 	 
C 	 -32.8505 	 73.4898 	 151.02 	 
H 	 -31.1869 	 71.9919 	 151.347 	 
C 	 -29.3944 	 73.9456 	 152.569 	 
H 	 -29.092 	 72.8792 	 152.468 	 
H 	 -29.3051 	 74.1294 	 153.624 	 
C 	 -28.3795 	 74.7675 	 151.748 	 
H 	 -28.4017 	 74.356 	 150.76 	 
H 	 -28.5975 	 75.7608 	 151.505 	 
C 	 -26.9597 	 74.6917 	 152.26 	 
H 	 -26.4142 	 75.2123 	 151.526 	 
H 	 -26.8426 	 75.2146 	 153.244 	 
H 	 -26.6437 	 73.6282 	 152.306 	 
S 	 -35.1054 	 73.2988 	 149.33 	 
C 	 -35.976 	 71.8144 	 149.229 	 
C 	 -35.4685 	 70.8916 	 150.075 	 
C 	 -34.3696 	 71.3512 	 150.914 	 
C 	 -33.9532 	 72.6453 	 150.58 	 
H 	 -35.8266 	 69.893 	 150.037 	 
C 	 -33.8406 	 70.5747 	 152.152 	 
H 	 -33.1677 	 71.2987 	 152.62 	 
H 	 -33.1159 	 69.7663 	 151.854 	 
C 	 -34.9439 	 70.1229 	 153.098 	 
H 	 -35.4748 	 69.2985 	 152.622 	 
H 	 -35.6889 	 70.8818 	 153.262 	 
C 	 -34.3656 	 69.5442 	 154.426 	 
H 	 -35.1073 	 69.5387 	 155.214 	 
H 	 -33.7113 	 70.3254 	 154.79 	 
H 	 -33.9169 	 68.5553 	 154.283 	 
H 	 -31.3317 	 76.1131 	 152.82 	 
H 	 -36.72 	 71.7143 	 148.491 	 
*
