! wB97X-D3 SP def2-SVP
%pal
nprocs 16
end

* xyz 0 1
S 	 -7.2348 	 64.1446 	 48.2745 	 
C 	 -7.92212 	 64.8047 	 49.7907 	 
C 	 -6.95466 	 64.9846 	 50.7804 	 
C 	 -5.616 	 64.6512 	 50.2319 	 
C 	 -5.63297 	 64.294 	 48.9083 	 
H 	 -4.62174 	 64.6868 	 50.6226 	 
C 	 -7.14546 	 65.3194 	 52.242 	 
H 	 -8.18405 	 65.7318 	 52.1966 	 
H 	 -6.40669 	 66.0645 	 52.6173 	 
C 	 -7.21942 	 64.1106 	 53.1627 	 
H 	 -8.02359 	 63.446 	 52.8435 	 
H 	 -6.26973 	 63.5969 	 53.0339 	 
C 	 -7.54754 	 64.4977 	 54.6003 	 
H 	 -6.6808 	 64.4816 	 55.299 	 
H 	 -8.10928 	 65.3791 	 54.6126 	 
H 	 -8.18509 	 63.7554 	 55.1277 	 
S 	 -4.14003 	 62.4879 	 47.4301 	 
C 	 -2.66239 	 63.097 	 46.684 	 
C 	 -2.36977 	 64.384 	 47.0196 	 
C 	 -3.47377 	 64.9902 	 47.7248 	 
C 	 -4.47871 	 64.1028 	 48.0462 	 
H 	 -1.47882 	 64.7932 	 46.6979 	 
C 	 -3.63805 	 66.4538 	 47.964 	 
H 	 -2.59446 	 66.8362 	 48.1978 	 
H 	 -4.33318 	 66.6448 	 48.8228 	 
C 	 -4.29531 	 67.1753 	 46.7632 	 
H 	 -4.87874 	 66.4553 	 46.1826 	 
H 	 -3.43873 	 67.341 	 46.1532 	 
C 	 -5.0969 	 68.5128 	 47.0396 	 
H 	 -5.33091 	 69.0144 	 46.1446 	 
H 	 -4.45067 	 69.1737 	 47.7765 	 
H 	 -5.98207 	 68.2482 	 47.5396 	 
H 	 -8.96761 	 64.8806 	 50.008 	 
H 	 -2.0952 	 62.4768 	 46.0538 	 
*
