! wB97X-D3 SP def2-SVP
%pal
nprocs 16
end

* xyz 0 1
S 	 -29.6341 	 29.0484 	 40.0405 	 
C 	 -28.4991 	 29.7411 	 38.8752 	 
C 	 -27.5083 	 30.3864 	 39.5535 	 
C 	 -27.8277 	 30.4456 	 40.9486 	 
C 	 -28.9452 	 29.8155 	 41.3918 	 
H 	 -27.0752 	 30.9016 	 41.717 	 
C 	 -26.3947 	 31.1893 	 38.9116 	 
H 	 -25.8376 	 31.5289 	 39.7585 	 
H 	 -26.7999 	 31.9502 	 38.2569 	 
C 	 -25.3619 	 30.452 	 38.0657 	 
H 	 -25.7811 	 29.7807 	 37.327 	 
H 	 -24.7499 	 31.2266 	 37.6047 	 
C 	 -24.2937 	 29.6252 	 38.8403 	 
H 	 -24.6551 	 28.7254 	 39.3521 	 
H 	 -23.5303 	 29.256 	 38.1721 	 
H 	 -23.7995 	 30.1652 	 39.5969 	 
S 	 -29.7968 	 28.0638 	 43.335 	 
C 	 -30.1776 	 28.7674 	 44.8975 	 
C 	 -30.0175 	 30.0815 	 45.0119 	 
C 	 -29.7214 	 30.6728 	 43.7243 	 
C 	 -29.5144 	 29.6881 	 42.7335 	 
H 	 -30.3731 	 30.4427 	 45.9183 	 
C 	 -29.4099 	 32.1614 	 43.6221 	 
H 	 -30.3691 	 32.6678 	 43.4556 	 
H 	 -28.7845 	 32.4701 	 42.7335 	 
C 	 -28.7151 	 32.8953 	 44.8575 	 
H 	 -29.4039 	 33.05 	 45.6481 	 
H 	 -28.4515 	 33.9401 	 44.6324 	 
C 	 -27.3978 	 32.3233 	 45.3014 	 
H 	 -26.6441 	 32.0621 	 44.5057 	 
H 	 -27.5417 	 31.478 	 45.9396 	 
H 	 -26.7791 	 33.0392 	 45.7867 	 
H 	 -28.3776 	 29.6717 	 37.7624 	 
H 	 -30.5953 	 28.1496 	 45.6988 	 
*
