! wB97X-D3 SP def2-SVP
%pal
nprocs 16
end

* xyz 0 1
S 	 41.3617 	 12.7935 	 84.8188 	 
C 	 41.4123 	 11.18 	 85.5573 	 
C 	 42.656 	 10.6993 	 85.9245 	 
C 	 43.6 	 11.739 	 85.7509 	 
C 	 43.0875 	 12.968 	 85.3002 	 
H 	 44.646 	 11.6976 	 85.9272 	 
C 	 42.9948 	 9.37977 	 86.5498 	 
H 	 43.723 	 8.86866 	 85.9586 	 
H 	 42.1175 	 8.74741 	 86.6623 	 
C 	 43.7203 	 9.4285 	 87.8854 	 
H 	 43.694 	 8.42705 	 88.298 	 
H 	 44.7886 	 9.78364 	 87.7351 	 
C 	 43.1281 	 10.3414 	 88.8962 	 
H 	 42.0206 	 10.088 	 89.0572 	 
H 	 43.6881 	 10.3877 	 89.7964 	 
H 	 43.0071 	 11.3777 	 88.538 	 
S 	 43.7128 	 15.0757 	 83.5775 	 
C 	 45.0386 	 16.1517 	 84.0442 	 
C 	 45.6649 	 15.7312 	 85.2021 	 
C 	 44.9683 	 14.6451 	 85.8266 	 
C 	 43.8879 	 14.1725 	 85.1141 	 
H 	 46.5046 	 16.2288 	 85.5641 	 
C 	 45.4469 	 14.1234 	 87.1022 	 
H 	 46.5281 	 13.9516 	 86.9263 	 
H 	 45.137 	 13.1398 	 87.3801 	 
C 	 45.0988 	 14.939 	 88.306 	 
H 	 45.6572 	 15.94 	 88.1484 	 
H 	 45.7323 	 14.6339 	 89.0726 	 
C 	 43.6588 	 15.1707 	 88.4546 	 
H 	 43.0714 	 14.1696 	 88.5682 	 
H 	 43.2413 	 15.8417 	 87.6607 	 
H 	 43.5063 	 15.5616 	 89.4749 	 
H 	 40.5802 	 10.5239 	 85.7073 	 
H 	 45.3201 	 16.979 	 83.4954 	 
*
