! wB97X-D3 SP def2-SVP
%pal
nprocs 16
end

* xyz 0 1
S 	 -25.3475 	 46.0642 	 58.8475 	 
C 	 -26.6907 	 46.6311 	 59.7519 	 
C 	 -26.2303 	 47.335 	 60.8877 	 
C 	 -24.7892 	 47.5084 	 60.8899 	 
C 	 -24.1223 	 46.783 	 59.9136 	 
H 	 -24.2697 	 48.1219 	 61.6118 	 
C 	 -27.1774 	 47.7474 	 62.0169 	 
H 	 -27.2127 	 46.9232 	 62.749 	 
H 	 -28.2384 	 47.8533 	 61.7067 	 
C 	 -26.8577 	 49.0291 	 62.8277 	 
H 	 -27.683 	 49.1089 	 63.4462 	 
H 	 -25.96 	 48.9759 	 63.4543 	 
C 	 -26.6989 	 50.3075 	 61.9964 	 
H 	 -25.6979 	 50.176 	 61.4991 	 
H 	 -27.3103 	 50.2306 	 61.145 	 
H 	 -26.7516 	 51.2705 	 62.4666 	 
S 	 -21.6279 	 46.1097 	 60.9356 	 
C 	 -20.2426 	 45.9865 	 59.9318 	 
C 	 -20.5289 	 46.3114 	 58.6498 	 
C 	 -21.8717 	 46.7357 	 58.4541 	 
C 	 -22.6715 	 46.6832 	 59.6235 	 
H 	 -19.7147 	 46.2394 	 57.9728 	 
C 	 -22.3918 	 47.133 	 57.1115 	 
H 	 -21.5142 	 47.5701 	 56.6968 	 
H 	 -23.0559 	 47.9289 	 57.3595 	 
C 	 -22.8974 	 45.9762 	 56.2194 	 
H 	 -23.1246 	 46.407 	 55.2555 	 
H 	 -23.8598 	 45.5661 	 56.464 	 
C 	 -21.9258 	 44.8568 	 56.0477 	 
H 	 -22.2467 	 44.1177 	 55.2937 	 
H 	 -21.7289 	 44.1511 	 56.9001 	 
H 	 -20.9922 	 45.2013 	 55.8125 	 
H 	 -27.716 	 46.3583 	 59.5848 	 
H 	 -19.2912 	 45.7268 	 60.3281 	 
*
