! wB97X-D3 SP def2-SVP
%pal
nprocs 16
end

* xyz 0 1
S 	 -14.6154 	 40.3968 	 34.4989 	 
C 	 -14.6448 	 38.6474 	 34.5355 	 
C 	 -13.9278 	 38.2234 	 33.4413 	 
C 	 -13.1924 	 39.2387 	 32.7355 	 
C 	 -13.4316 	 40.4931 	 33.2113 	 
H 	 -12.4945 	 39.1502 	 31.8745 	 
C 	 -13.8551 	 36.7433 	 33.0751 	 
H 	 -14.2205 	 36.1301 	 33.8713 	 
H 	 -12.8043 	 36.4269 	 32.9427 	 
C 	 -14.7367 	 36.3375 	 31.8821 	 
H 	 -14.3721 	 35.4522 	 31.4026 	 
H 	 -15.7246 	 35.9742 	 32.2937 	 
C 	 -15.0117 	 37.4226 	 30.8128 	 
H 	 -15.4557 	 37.0255 	 29.9442 	 
H 	 -15.6444 	 38.2707 	 31.2158 	 
H 	 -14.1923 	 37.8776 	 30.4423 	 
S 	 -12.8667 	 43.2147 	 33.7333 	 
C 	 -12.1677 	 44.2528 	 32.4929 	 
C 	 -12.1509 	 43.605 	 31.2678 	 
C 	 -12.5401 	 42.1751 	 31.3863 	 
C 	 -12.9692 	 41.8229 	 32.6749 	 
H 	 -11.8017 	 44.0897 	 30.3331 	 
C 	 -12.5238 	 41.2804 	 30.1416 	 
H 	 -12.9602 	 41.8358 	 29.2995 	 
H 	 -13.2034 	 40.5004 	 30.3621 	 
C 	 -11.0745 	 40.8113 	 29.7758 	 
H 	 -10.5519 	 40.5599 	 30.6277 	 
H 	 -10.4794 	 41.59 	 29.4462 	 
C 	 -10.9994 	 39.6886 	 28.7119 	 
H 	 -10.0663 	 39.1742 	 28.5919 	 
H 	 -11.1658 	 40.1872 	 27.7606 	 
H 	 -11.7667 	 38.9596 	 28.8966 	 
H 	 -15.147 	 37.9528 	 35.2236 	 
H 	 -11.7331 	 45.2251 	 32.5784 	 
*
