! wB97X-D3 SP def2-SVP
%pal
nprocs 16
end

* xyz 0 1
S 	 22.2541 	 8.97487 	 73.329 	 
C 	 20.8273 	 8.82249 	 72.2484 	 
C 	 20.6475 	 7.46346 	 71.9376 	 
C 	 21.3997 	 6.55551 	 72.6656 	 
C 	 22.1038 	 7.21594 	 73.6381 	 
H 	 21.4003 	 5.46683 	 72.7281 	 
C 	 19.7226 	 6.88834 	 70.9115 	 
H 	 20.1259 	 7.20995 	 69.9875 	 
H 	 18.8003 	 7.42595 	 71.0491 	 
C 	 19.2324 	 5.3816 	 70.9429 	 
H 	 18.742 	 5.11403 	 69.9526 	 
H 	 20.0395 	 4.65535 	 71.1698 	 
C 	 18.2107 	 5.05781 	 72.0702 	 
H 	 18.0678 	 3.97776 	 72.1035 	 
H 	 18.4935 	 5.25 	 73.0492 	 
H 	 17.3228 	 5.7049 	 71.8883 	 
S 	 24.6445 	 6.63937 	 74.6409 	 
C 	 24.7971 	 5.61771 	 76.0328 	 
C 	 23.5958 	 5.40726 	 76.6463 	 
C 	 22.4983 	 5.98029 	 75.9224 	 
C 	 22.8869 	 6.5327 	 74.6811 	 
H 	 23.4619 	 4.83531 	 77.573 	 
C 	 21.1449 	 5.84153 	 76.5021 	 
H 	 20.9449 	 4.75869 	 76.694 	 
H 	 20.3886 	 6.2124 	 75.7391 	 
C 	 20.8941 	 6.58997 	 77.7901 	 
H 	 21.5725 	 6.2316 	 78.5857 	 
H 	 19.8907 	 6.44565 	 78.2098 	 
C 	 21.1348 	 8.05393 	 77.7664 	 
H 	 20.6234 	 8.54086 	 78.5864 	 
H 	 20.7871 	 8.62911 	 76.902 	 
H 	 22.2278 	 8.29014 	 77.7932 	 
H 	 20.118 	 9.66465 	 71.9728 	 
H 	 25.7668 	 5.30805 	 76.4949 	 
*
