! wB97X-D3 SP def2-SVP
%pal
nprocs 16
end

* xyz 0 1
S 	 -4.63297 	 -13.0966 	 82.3115 	 
C 	 -3.29901 	 -12.1784 	 81.4493 	 
C 	 -3.80409 	 -11.5018 	 80.3399 	 
C 	 -5.22261 	 -11.6878 	 80.1614 	 
C 	 -5.85947 	 -12.4404 	 81.1447 	 
H 	 -5.78226 	 -11.3305 	 79.3251 	 
C 	 -2.81702 	 -10.7792 	 79.4146 	 
H 	 -2.21987 	 -10.1576 	 80.1012 	 
H 	 -3.42029 	 -10.0445 	 78.9124 	 
C 	 -2.05663 	 -11.477 	 78.2155 	 
H 	 -1.5344 	 -10.7581 	 77.5481 	 
H 	 -1.17038 	 -11.9872 	 78.5008 	 
C 	 -2.98783 	 -12.2266 	 77.3307 	 
H 	 -2.48515 	 -12.6241 	 76.4093 	 
H 	 -3.49197 	 -13.1025 	 77.83 	 
H 	 -3.85883 	 -11.5463 	 77.0902 	 
S 	 -8.21582 	 -12.446 	 79.8107 	 
C 	 -9.67776 	 -13.0658 	 80.5571 	 
C 	 -9.37267 	 -13.7906 	 81.6906 	 
C 	 -8.07567 	 -13.5193 	 82.1886 	 
C 	 -7.27454 	 -12.872 	 81.2353 	 
H 	 -10.0289 	 -14.5166 	 82.1462 	 
C 	 -7.64846 	 -14.1376 	 83.4802 	 
H 	 -6.73327 	 -14.8705 	 83.3809 	 
H 	 -8.43422 	 -14.8284 	 83.8872 	 
C 	 -7.40606 	 -13.1462 	 84.6637 	 
H 	 -8.38284 	 -12.7449 	 85.0411 	 
H 	 -6.8448 	 -12.2754 	 84.2604 	 
C 	 -6.48337 	 -13.6211 	 85.8359 	 
H 	 -7.09344 	 -14.3078 	 86.4353 	 
H 	 -5.9733 	 -12.8722 	 86.3774 	 
H 	 -5.75767 	 -14.3121 	 85.4312 	 
H 	 -2.2377 	 -12.3803 	 81.6031 	 
H 	 -10.5859 	 -13.1022 	 80.0072 	 
*
