! wB97X-D3 SP def2-SVP
%pal
nprocs 16
end

* xyz 0 1
S 	 -30.8238 	 28.7506 	 41.0453 	 
C 	 -30.2357 	 29.4858 	 39.5375 	 
C 	 -29.761 	 30.7187 	 39.6739 	 
C 	 -29.6281 	 31.0771 	 41.0449 	 
C 	 -30.2837 	 30.211 	 41.9285 	 
H 	 -29.1518 	 31.9978 	 41.3298 	 
C 	 -29.1315 	 31.4421 	 38.5247 	 
H 	 -28.8894 	 32.4276 	 38.934 	 
H 	 -29.7637 	 31.5353 	 37.6638 	 
C 	 -27.7291 	 30.9515 	 38.0689 	 
H 	 -27.7384 	 29.942 	 37.7724 	 
H 	 -27.3629 	 31.3751 	 37.1267 	 
C 	 -26.5267 	 31.2175 	 39.0701 	 
H 	 -26.5634 	 30.616 	 39.9324 	 
H 	 -25.5993 	 30.9394 	 38.6155 	 
H 	 -26.4674 	 32.2524 	 39.3635 	 
S 	 -30.0145 	 28.6477 	 44.1331 	 
C 	 -30.4182 	 29.2414 	 45.7138 	 
C 	 -30.8094 	 30.5463 	 45.6212 	 
C 	 -30.6737 	 31.1693 	 44.3463 	 
C 	 -30.28 	 30.182 	 43.4089 	 
H 	 -31.249 	 31.1012 	 46.3821 	 
C 	 -31.1798 	 32.546 	 44.0773 	 
H 	 -32.1869 	 32.755 	 44.5612 	 
H 	 -31.2866 	 32.6024 	 42.9561 	 
C 	 -30.2651 	 33.6791 	 44.5199 	 
H 	 -30.1392 	 33.5754 	 45.6038 	 
H 	 -30.7532 	 34.6399 	 44.2849 	 
C 	 -28.89 	 33.7581 	 43.8941 	 
H 	 -29.0246 	 34.0457 	 42.8683 	 
H 	 -28.4393 	 32.6878 	 43.8782 	 
H 	 -28.2379 	 34.449 	 44.4654 	 
H 	 -30.3871 	 29.0259 	 38.5857 	 
H 	 -30.5243 	 28.5945 	 46.5438 	 
*
