! wB97X-D3 SP def2-SVP
%pal
nprocs 16
end

* xyz 0 1
S 	 23.1013 	 6.07066 	 76.3902 	 
C 	 23.8584 	 4.5845 	 75.8776 	 
C 	 24.9096 	 4.21609 	 76.6698 	 
C 	 25.2305 	 5.25961 	 77.6005 	 
C 	 24.4699 	 6.40246 	 77.432 	 
H 	 26.0412 	 5.28937 	 78.3488 	 
C 	 25.6725 	 2.89098 	 76.4437 	 
H 	 26.7091 	 2.97417 	 76.9051 	 
H 	 25.7857 	 2.88895 	 75.3312 	 
C 	 25.108 	 1.56246 	 76.9731 	 
H 	 25.7206 	 0.840068 	 76.3939 	 
H 	 25.269 	 1.39816 	 78.051 	 
C 	 23.6315 	 1.40912 	 76.6395 	 
H 	 23.5309 	 1.39808 	 75.6242 	 
H 	 23.3103 	 0.44877 	 77.0342 	 
H 	 22.9708 	 2.12367 	 77.1029 	 
S 	 23.0266 	 8.58421 	 78.0942 	 
C 	 23.7133 	 9.71559 	 79.3109 	 
C 	 25.0132 	 9.45068 	 79.6114 	 
C 	 25.4901 	 8.30112 	 78.9148 	 
C 	 24.5225 	 7.67455 	 78.0854 	 
H 	 25.5356 	 10.1255 	 80.3156 	 
C 	 27.0086 	 7.97686 	 78.9621 	 
H 	 27.4455 	 9.01027 	 79.0046 	 
H 	 27.3476 	 7.3814 	 78.1158 	 
C 	 27.5695 	 7.37708 	 80.2776 	 
H 	 27.3342 	 8.11227 	 81.0408 	 
H 	 28.6302 	 7.17071 	 80.2963 	 
C 	 26.898 	 6.01533 	 80.7414 	 
H 	 27.2755 	 5.77811 	 81.7679 	 
H 	 27.2598 	 5.17472 	 80.1287 	 
H 	 25.8173 	 6.01602 	 80.761 	 
H 	 23.5811 	 4.12921 	 74.9086 	 
H 	 23.1521 	 10.5892 	 79.6975 	 
*
