! wB97X-D3 SP def2-SVP
%pal
nprocs 16
end

* xyz 0 1
S 	 -39.4992 	 34.2111 	 81.5273 	 
C 	 -39.706 	 35.5093 	 80.3172 	 
C 	 -40.7005 	 35.2231 	 79.4016 	 
C 	 -41.2308 	 33.8939 	 79.5899 	 
C 	 -40.757 	 33.2696 	 80.7398 	 
H 	 -41.9916 	 33.3921 	 78.9648 	 
C 	 -41.1379 	 36.2556 	 78.3981 	 
H 	 -41.8456 	 35.7105 	 77.7273 	 
H 	 -40.3074 	 36.6253 	 77.8106 	 
C 	 -41.8805 	 37.5193 	 78.9396 	 
H 	 -42.9102 	 37.2274 	 79.2789 	 
H 	 -41.3739 	 37.8634 	 79.8458 	 
C 	 -42.059 	 38.6251 	 77.9737 	 
H 	 -42.6271 	 38.4899 	 77.0806 	 
H 	 -42.4235 	 39.4419 	 78.5417 	 
H 	 -41.0701 	 38.8312 	 77.7352 	 
S 	 -43.1166 	 31.9112 	 81.5338 	 
C 	 -42.9197 	 30.4143 	 82.3021 	 
C 	 -41.6061 	 30.0255 	 82.3053 	 
C 	 -40.6789 	 30.9006 	 81.6402 	 
C 	 -41.3434 	 32.0315 	 81.2232 	 
H 	 -41.2947 	 29.1744 	 82.7382 	 
C 	 -39.156 	 30.6117 	 81.5283 	 
H 	 -38.8915 	 30.5642 	 82.6325 	 
H 	 -38.6384 	 31.4595 	 81.1413 	 
C 	 -38.7754 	 29.2386 	 80.8946 	 
H 	 -39.1221 	 29.2641 	 79.8249 	 
H 	 -39.2562 	 28.4025 	 81.4281 	 
C 	 -37.2051 	 28.9104 	 80.8032 	 
H 	 -36.9514 	 28.4278 	 81.7636 	 
H 	 -36.5665 	 29.7975 	 80.5441 	 
H 	 -37.0114 	 28.1634 	 80.0807 	 
H 	 -39.2191 	 36.5074 	 80.3504 	 
H 	 -43.6257 	 29.8602 	 82.8215 	 
*
