! wB97X-D3 SP def2-SVP
%pal
nprocs 16
end

* xyz 0 1
S 	 -34.679 	 41.0214 	 98.0181 	 
C 	 -33.5047 	 40.7909 	 96.7261 	 
C 	 -33.7473 	 39.6027 	 96.0164 	 
C 	 -34.8117 	 38.8449 	 96.529 	 
C 	 -35.3865 	 39.4101 	 97.6821 	 
H 	 -35.2181 	 37.9189 	 96.1421 	 
C 	 -32.9292 	 39.1349 	 94.8438 	 
H 	 -32.2431 	 39.934 	 94.6912 	 
H 	 -33.6001 	 39.0347 	 93.9945 	 
C 	 -32.2766 	 37.7782 	 95.0153 	 
H 	 -31.4936 	 37.8217 	 95.7929 	 
H 	 -32.9836 	 37.1089 	 95.4072 	 
C 	 -31.5342 	 37.2668 	 93.6962 	 
H 	 -30.874 	 36.3976 	 94.0185 	 
H 	 -32.3137 	 36.9662 	 93.063 	 
H 	 -31.0272 	 38.039 	 93.1741 	 
S 	 -38.0602 	 39.5026 	 98.0284 	 
C 	 -38.9034 	 38.409 	 99.1189 	 
C 	 -38.0298 	 37.4895 	 99.5958 	 
C 	 -36.6551 	 37.9205 	 99.4567 	 
C 	 -36.541 	 38.905 	 98.5042 	 
H 	 -38.3157 	 36.6404 	 100.157 	 
C 	 -35.4705 	 37.131 	 99.9399 	 
H 	 -34.8414 	 37.0676 	 99.1019 	 
H 	 -35.6922 	 36.0789 	 100.118 	 
C 	 -34.7969 	 37.8317 	 101.109 	 
H 	 -34.7869 	 38.8762 	 100.947 	 
H 	 -33.7781 	 37.4767 	 101.049 	 
C 	 -35.4115 	 37.3957 	 102.429 	 
H 	 -36.5201 	 37.5428 	 102.391 	 
H 	 -35.0845 	 37.973 	 103.33 	 
H 	 -35.3524 	 36.3674 	 102.552 	 
H 	 -32.6702 	 41.3863 	 96.5072 	 
H 	 -39.9417 	 38.4125 	 99.2781 	 
*
