! wB97X-D3 SP def2-SVP
%pal
nprocs 16
end

* xyz 0 1
S 	 4.70699 	 -22.6949 	 59.7829 	 
C 	 3.58522 	 -24.092 	 59.4466 	 
C 	 4.24127 	 -25.2396 	 59.0588 	 
C 	 5.69365 	 -25.1406 	 59.241 	 
C 	 6.10514 	 -23.7983 	 59.5234 	 
H 	 6.45112 	 -25.8356 	 59.052 	 
C 	 3.54647 	 -26.5674 	 58.7412 	 
H 	 4.12626 	 -26.9557 	 57.8619 	 
H 	 2.52475 	 -26.3609 	 58.3504 	 
C 	 3.51803 	 -27.6494 	 59.8284 	 
H 	 4.56376 	 -28.0585 	 59.8118 	 
H 	 3.34165 	 -27.2668 	 60.8417 	 
C 	 2.58334 	 -28.792 	 59.4922 	 
H 	 2.92218 	 -29.3233 	 58.5803 	 
H 	 2.42845 	 -29.5069 	 60.3476 	 
H 	 1.6087 	 -28.3652 	 59.2009 	 
S 	 7.74569 	 -21.8347 	 58.745 	 
C 	 9.47263 	 -21.8649 	 59.1903 	 
C 	 9.80122 	 -22.9802 	 59.956 	 
C 	 8.6628 	 -23.833 	 60.2354 	 
C 	 7.50946 	 -23.3895 	 59.5629 	 
H 	 10.7779 	 -23.0968 	 60.3689 	 
C 	 8.81135 	 -25.1242 	 61.074 	 
H 	 7.82519 	 -25.405 	 61.4961 	 
H 	 9.36898 	 -24.8804 	 61.9123 	 
C 	 9.53222 	 -26.3331 	 60.3302 	 
H 	 9.56184 	 -27.0978 	 61.0606 	 
H 	 10.6087 	 -26.1237 	 60.3214 	 
C 	 9.17793 	 -26.74 	 58.9038 	 
H 	 9.92548 	 -27.4299 	 58.6173 	 
H 	 9.16734 	 -25.8465 	 58.2593 	 
H 	 8.21166 	 -27.2616 	 58.91 	 
H 	 2.46552 	 -24.0923 	 59.4904 	 
H 	 10.1726 	 -21.1811 	 58.7441 	 
*
