! wB97X-D3 SP def2-SVP
%pal
nprocs 16
end

* xyz 0 1
S 	 -38.7396 	 48.756 	 106.637 	 
C 	 -37.5348 	 47.9837 	 105.674 	 
C 	 -37.5614 	 48.2915 	 104.326 	 
C 	 -38.7793 	 48.9988 	 104.043 	 
C 	 -39.4971 	 49.3229 	 105.172 	 
H 	 -39.0861 	 49.5153 	 103.179 	 
C 	 -36.5853 	 47.8771 	 103.22 	 
H 	 -35.6483 	 48.4806 	 103.275 	 
H 	 -36.9191 	 48.1393 	 102.187 	 
C 	 -36.1377 	 46.4153 	 103.31 	 
H 	 -35.3175 	 46.1174 	 102.668 	 
H 	 -35.8028 	 46.2614 	 104.38 	 
C 	 -37.3113 	 45.4449 	 103.024 	 
H 	 -37.6971 	 45.512 	 102.016 	 
H 	 -37.0645 	 44.3481 	 103.01 	 
H 	 -38.1473 	 45.6239 	 103.712 	 
S 	 -41.0344 	 51.1682 	 106.581 	 
C 	 -42.7338 	 51.2838 	 106.167 	 
C 	 -42.9547 	 50.9624 	 104.894 	 
C 	 -41.8266 	 50.1872 	 104.331 	 
C 	 -40.7268 	 50.1793 	 105.224 	 
H 	 -43.8906 	 51.0978 	 104.414 	 
C 	 -41.8817 	 49.476 	 103.011 	 
H 	 -41.2153 	 48.6016 	 103.12 	 
H 	 -41.369 	 50.0375 	 102.214 	 
C 	 -43.3189 	 49.0631 	 102.552 	 
H 	 -43.9419 	 49.9602 	 102.344 	 
H 	 -43.7367 	 48.5983 	 103.491 	 
C 	 -43.1893 	 48.2576 	 101.288 	 
H 	 -44.1928 	 48.0178 	 100.85 	 
H 	 -42.5747 	 47.3652 	 101.48 	 
H 	 -42.6987 	 48.7798 	 100.473 	 
H 	 -36.9263 	 47.2134 	 106.041 	 
H 	 -43.4791 	 51.6167 	 106.89 	 
*
