! wB97X-D3 SP def2-SVP
%pal
nprocs 16
end

* xyz 0 1
S 	 41.1032 	 8.0693 	 78.4842 	 
C 	 40.9556 	 6.94697 	 79.703 	 
C 	 39.6952 	 6.8842 	 80.2188 	 
C 	 38.768 	 7.77991 	 79.5347 	 
C 	 39.4568 	 8.51547 	 78.5556 	 
H 	 37.7774 	 7.98863 	 79.7378 	 
C 	 39.1841 	 5.90043 	 81.2371 	 
H 	 40.1345 	 5.40105 	 81.7018 	 
H 	 38.6387 	 5.07126 	 80.7772 	 
C 	 38.4728 	 6.42211 	 82.4004 	 
H 	 37.4551 	 6.72593 	 82.0544 	 
H 	 38.3064 	 5.62803 	 83.1186 	 
C 	 39.2646 	 7.64847 	 82.9951 	 
H 	 38.5392 	 8.12144 	 83.7062 	 
H 	 40.1816 	 7.37056 	 83.4305 	 
H 	 39.5193 	 8.38871 	 82.2287 	 
S 	 39.8389 	 11.0408 	 77.7155 	 
C 	 38.656 	 11.8207 	 76.7582 	 
C 	 37.5311 	 11.076 	 76.5496 	 
C 	 37.6278 	 9.78911 	 77.1673 	 
C 	 38.8819 	 9.59766 	 77.8036 	 
H 	 36.6578 	 11.4938 	 76.1041 	 
C 	 36.4477 	 8.91168 	 77.1312 	 
H 	 36.9537 	 7.95493 	 77.3296 	 
H 	 35.9985 	 8.95478 	 76.1324 	 
C 	 35.3868 	 9.13467 	 78.2479 	 
H 	 35.796 	 8.89694 	 79.2631 	 
H 	 34.6065 	 8.39221 	 78.0584 	 
C 	 34.6943 	 10.5558 	 78.0588 	 
H 	 35.3488 	 11.3218 	 78.4519 	 
H 	 33.7736 	 10.5354 	 78.6268 	 
H 	 34.5098 	 10.7271 	 77.0024 	 
H 	 41.7737 	 6.24617 	 79.9698 	 
H 	 38.7456 	 12.8722 	 76.4334 	 
*
