! wB97X-D3 SP def2-SVP
%pal
nprocs 16
end

* xyz 0 1
S 	 -12.2641 	 68.129 	 55.9316 	 
C 	 -12.4763 	 66.8246 	 57.0057 	 
C 	 -12.6745 	 65.6683 	 56.2473 	 
C 	 -12.7926 	 65.9161 	 54.8274 	 
C 	 -12.5315 	 67.2117 	 54.4614 	 
H 	 -12.8844 	 65.2426 	 54.0076 	 
C 	 -13.0001 	 64.2737 	 56.9193 	 
H 	 -13.9272 	 63.7237 	 56.5782 	 
H 	 -13.201 	 64.4672 	 57.9791 	 
C 	 -11.8391 	 63.3471 	 56.7362 	 
H 	 -11.6527 	 63.1537 	 55.6808 	 
H 	 -10.9116 	 63.8009 	 57.1114 	 
C 	 -11.8602 	 62.0235 	 57.5059 	 
H 	 -12.6611 	 61.3467 	 57.0985 	 
H 	 -10.8269 	 61.6633 	 57.4969 	 
H 	 -12.1017 	 62.0837 	 58.6556 	 
S 	 -13.7098 	 67.7401 	 51.9772 	 
C 	 -12.9871 	 68.8119 	 50.8993 	 
C 	 -11.6705 	 69.098 	 51.286 	 
C 	 -11.3812 	 68.5549 	 52.5596 	 
C 	 -12.4428 	 67.8322 	 53.1616 	 
H 	 -10.9431 	 69.6026 	 50.6743 	 
C 	 -9.97545 	 68.6599 	 53.18 	 
H 	 -9.2958 	 68.2424 	 52.4621 	 
H 	 -9.88488 	 68.0068 	 54.0859 	 
C 	 -9.42311 	 70.0455 	 53.4187 	 
H 	 -10.1798 	 70.7243 	 53.8874 	 
H 	 -9.02785 	 70.4282 	 52.506 	 
C 	 -8.12303 	 69.9707 	 54.3059 	 
H 	 -8.4537 	 69.5623 	 55.2474 	 
H 	 -7.631 	 70.9811 	 54.5211 	 
H 	 -7.3388 	 69.4041 	 53.8557 	 
H 	 -12.3424 	 66.8552 	 58.0896 	 
H 	 -13.4114 	 69.0936 	 49.9301 	 
*
