! wB97X-D3 SP def2-SVP
%pal
nprocs 16
end

* xyz 0 1
S 	 -79.6237 	 43.1659 	 136.45 	 
C 	 -79.8788 	 42.0497 	 137.762 	 
C 	 -80.7236 	 42.4983 	 138.798 	 
C 	 -81.074 	 43.8736 	 138.496 	 
C 	 -80.3835 	 44.4342 	 137.386 	 
H 	 -81.4959 	 44.4966 	 139.27 	 
C 	 -81.181 	 41.7373 	 140.014 	 
H 	 -81.4597 	 40.6873 	 139.706 	 
H 	 -82.2228 	 42.0195 	 140.23 	 
C 	 -80.3086 	 41.7935 	 141.286 	 
H 	 -80.2745 	 42.8726 	 141.602 	 
H 	 -80.9377 	 41.2002 	 141.994 	 
C 	 -78.8671 	 41.1885 	 140.968 	 
H 	 -78.311 	 41.8614 	 140.354 	 
H 	 -78.2557 	 41.1184 	 141.913 	 
H 	 -78.957 	 40.1567 	 140.534 	 
S 	 -81.2148 	 46.0112 	 135.287 	 
C 	 -81.6878 	 47.6448 	 135.509 	 
C 	 -81.2921 	 48.0914 	 136.737 	 
C 	 -80.6807 	 47.0119 	 137.536 	 
C 	 -80.559 	 45.7738 	 136.935 	 
H 	 -81.4461 	 49.1673 	 136.948 	 
C 	 -80.0346 	 47.1876 	 138.92 	 
H 	 -80.1915 	 46.3384 	 139.543 	 
H 	 -80.5614 	 48.0401 	 139.397 	 
C 	 -78.5473 	 47.4242 	 138.852 	 
H 	 -77.9799 	 46.5419 	 138.565 	 
H 	 -78.3092 	 47.4326 	 139.935 	 
C 	 -78.0833 	 48.7043 	 138.101 	 
H 	 -78.6026 	 49.5118 	 138.718 	 
H 	 -78.4061 	 48.7626 	 137.088 	 
H 	 -77.0054 	 48.7969 	 138.106 	 
H 	 -79.4256 	 41.0603 	 137.758 	 
H 	 -82.0686 	 48.2978 	 134.722 	 
*
