! wB97X-D3 SP def2-SVP
%pal
nprocs 16
end

* xyz 0 1
S 	 -48.7222 	 63.6641 	 131.512 	 
C 	 -48.559 	 61.9462 	 131.102 	 
C 	 -48.0136 	 61.2583 	 132.155 	 
C 	 -47.8623 	 62.0187 	 133.342 	 
C 	 -48.2756 	 63.3276 	 133.194 	 
H 	 -47.3896 	 61.7366 	 134.279 	 
C 	 -47.5777 	 59.7681 	 132.039 	 
H 	 -47.8635 	 59.2596 	 131.127 	 
H 	 -48.0463 	 59.1836 	 132.769 	 
C 	 -46.1052 	 59.5227 	 132.035 	 
H 	 -45.7952 	 58.5098 	 131.745 	 
H 	 -45.6234 	 60.1465 	 131.332 	 
C 	 -45.4276 	 59.6603 	 133.369 	 
H 	 -46.0355 	 59.1286 	 134.169 	 
H 	 -44.4703 	 59.1147 	 133.28 	 
H 	 -45.1527 	 60.6297 	 133.708 	 
S 	 -47.234 	 65.8289 	 133.93 	 
C 	 -47.3265 	 66.2822 	 135.6 	 
C 	 -47.9986 	 65.3416 	 136.354 	 
C 	 -48.4691 	 64.2316 	 135.605 	 
C 	 -48.1919 	 64.3374 	 134.25 	 
H 	 -48.1734 	 65.4724 	 137.429 	 
C 	 -49.2658 	 63.0858 	 136.261 	 
H 	 -49.7448 	 62.5257 	 135.468 	 
H 	 -50.1301 	 63.427 	 136.926 	 
C 	 -48.4546 	 62.1601 	 137.085 	 
H 	 -47.9934 	 62.7441 	 137.795 	 
H 	 -47.7024 	 61.7388 	 136.469 	 
C 	 -49.3341 	 61.0747 	 137.713 	 
H 	 -49.6424 	 60.3983 	 136.862 	 
H 	 -50.2091 	 61.484 	 138.213 	 
H 	 -48.7694 	 60.4972 	 138.466 	 
H 	 -48.6062 	 61.5832 	 130.102 	 
H 	 -47.0987 	 67.2572 	 135.987 	 
*
