! wB97X-D3 SP def2-SVP
%pal
nprocs 16
end

* xyz 0 1
S 	 43.54 	 14.5671 	 86.5875 	 
C 	 44.7581 	 15.7872 	 87.1105 	 
C 	 45.9946 	 15.3787 	 86.7604 	 
C 	 45.9657 	 14.2102 	 85.9168 	 
C 	 44.715 	 13.7666 	 85.633 	 
H 	 46.8631 	 13.6905 	 85.5466 	 
C 	 47.2771 	 16.0606 	 87.267 	 
H 	 47.975 	 15.2223 	 87.4422 	 
H 	 46.9266 	 16.3751 	 88.2705 	 
C 	 48.0173 	 17.2078 	 86.5182 	 
H 	 48.8389 	 17.5391 	 87.2254 	 
H 	 48.581 	 16.8621 	 85.6407 	 
C 	 47.0884 	 18.3343 	 86.2591 	 
H 	 46.8607 	 18.6504 	 87.2307 	 
H 	 47.5799 	 19.1871 	 85.8266 	 
H 	 46.2612 	 18.1398 	 85.5986 	 
S 	 43.3096 	 11.5188 	 85.3737 	 
C 	 43.4081 	 10.6038 	 83.8574 	 
C 	 44.1688 	 11.2507 	 82.9272 	 
C 	 44.883 	 12.3649 	 83.4919 	 
C 	 44.3964 	 12.7041 	 84.7324 	 
H 	 44.2024 	 10.8823 	 81.9493 	 
C 	 45.7364 	 13.2714 	 82.7042 	 
H 	 46.0614 	 12.6845 	 81.9665 	 
H 	 46.701 	 13.4843 	 83.2309 	 
C 	 45.0638 	 14.5027 	 82.0056 	 
H 	 44.1655 	 14.2523 	 81.3918 	 
H 	 45.918 	 14.7787 	 81.3388 	 
C 	 44.7006 	 15.6343 	 82.969 	 
H 	 43.85 	 15.3325 	 83.5998 	 
H 	 44.2763 	 16.5164 	 82.5389 	 
H 	 45.5561 	 15.8824 	 83.5563 	 
H 	 44.4573 	 16.6419 	 87.7669 	 
H 	 42.7111 	 9.84535 	 83.5427 	 
*
