! wB97X-D3 SP def2-SVP
%pal
nprocs 16
end

* xyz 0 1
S 	 -40.9737 	 15.3394 	 79.0442 	 
C 	 -40.812 	 17.0836 	 78.8071 	 
C 	 -41.4856 	 17.4893 	 77.6665 	 
C 	 -42.1226 	 16.392 	 76.9734 	 
C 	 -42.0352 	 15.2078 	 77.6551 	 
H 	 -42.8223 	 16.3756 	 76.134 	 
C 	 -41.5927 	 18.9782 	 77.2366 	 
H 	 -41.603 	 19.5878 	 78.0921 	 
H 	 -42.531 	 19.2545 	 76.7797 	 
C 	 -40.4782 	 19.4276 	 76.2682 	 
H 	 -39.4918 	 19.291 	 76.8057 	 
H 	 -40.5719 	 18.919 	 75.2916 	 
C 	 -40.5488 	 20.8842 	 75.9813 	 
H 	 -40.269 	 21.4353 	 76.8829 	 
H 	 -39.882 	 21.1979 	 75.1421 	 
H 	 -41.6133 	 21.1157 	 75.6997 	 
S 	 -42.8219 	 12.8259 	 78.5643 	 
C 	 -43.7927 	 11.7559 	 77.5695 	 
C 	 -43.6965 	 12.0959 	 76.2214 	 
C 	 -43.0625 	 13.4122 	 76.0504 	 
C 	 -42.6438 	 13.9558 	 77.288 	 
H 	 -44.0697 	 11.4668 	 75.4712 	 
C 	 -42.9436 	 13.9774 	 74.6993 	 
H 	 -42.2426 	 14.7891 	 74.6907 	 
H 	 -43.8458 	 14.4228 	 74.4789 	 
C 	 -42.6138 	 12.9963 	 73.4756 	 
H 	 -43.3912 	 12.1694 	 73.3643 	 
H 	 -41.5914 	 12.5834 	 73.6903 	 
C 	 -42.6545 	 13.736 	 72.0492 	 
H 	 -42.1325 	 14.6591 	 72.0179 	 
H 	 -43.6623 	 14.07 	 71.8114 	 
H 	 -42.3795 	 13.0992 	 71.1978 	 
H 	 -40.2264 	 17.7996 	 79.4095 	 
H 	 -44.1474 	 10.7843 	 77.9348 	 
*
