! wB97X-D3 SP def2-SVP
%pal
nprocs 16
end

* xyz 0 1
S 	 36.4992 	 32.7907 	 55.3938 	 
C 	 37.4804 	 33.5737 	 54.1373 	 
C 	 38.3942 	 34.4483 	 54.6543 	 
C 	 38.3528 	 34.4952 	 56.1114 	 
C 	 37.3747 	 33.628 	 56.6431 	 
H 	 39.0419 	 35.1253 	 56.7045 	 
C 	 39.3332 	 35.2979 	 53.7818 	 
H 	 39.6354 	 34.6965 	 52.8657 	 
H 	 40.2558 	 35.4529 	 54.3297 	 
C 	 38.6558 	 36.615 	 53.2738 	 
H 	 37.7208 	 36.4651 	 52.7457 	 
H 	 38.3569 	 37.3052 	 54.1522 	 
C 	 39.6045 	 37.618 	 52.5164 	 
H 	 40.5109 	 37.8895 	 53.0936 	 
H 	 39.9583 	 37.1941 	 51.6119 	 
H 	 38.9634 	 38.437 	 52.1748 	 
S 	 36.9666 	 31.6424 	 58.4011 	 
C 	 36.7598 	 31.9585 	 60.0571 	 
C 	 36.6288 	 33.2905 	 60.2419 	 
C 	 36.8743 	 34.0842 	 59.1057 	 
C 	 36.9966 	 33.2974 	 57.9862 	 
H 	 36.4985 	 33.6419 	 61.2891 	 
C 	 37.0038 	 35.6044 	 59.1797 	 
H 	 36.1561 	 36.016 	 59.6866 	 
H 	 37.0535 	 36.0543 	 58.1821 	 
C 	 38.2266 	 36.1292 	 59.8815 	 
H 	 38.9197 	 35.3631 	 59.5436 	 
H 	 37.9229 	 36.0957 	 60.9353 	 
C 	 38.4396 	 37.6785 	 59.7263 	 
H 	 37.6145 	 38.2598 	 60.1819 	 
H 	 38.5133 	 38.0264 	 58.7313 	 
H 	 39.3361 	 37.8025 	 60.291 	 
H 	 37.3337 	 33.42 	 53.0317 	 
H 	 36.8168 	 31.2024 	 60.8787 	 
*
