! wB97X-D3 SP def2-SVP
%pal
nprocs 16
end

* xyz 0 1
S 	 -68.9031 	 38.2117 	 115.938 	 
C 	 -69.0201 	 36.8412 	 116.991 	 
C 	 -69.1207 	 35.6768 	 116.202 	 
C 	 -68.9477 	 35.8607 	 114.867 	 
C 	 -68.7047 	 37.1774 	 114.556 	 
H 	 -68.9395 	 35.1418 	 114.088 	 
C 	 -69.3422 	 34.3051 	 116.85 	 
H 	 -68.3524 	 33.8592 	 116.764 	 
H 	 -69.8645 	 33.7128 	 116.056 	 
C 	 -70.0242 	 34.1543 	 118.234 	 
H 	 -69.3513 	 34.5737 	 118.948 	 
H 	 -70.8639 	 34.7187 	 118.232 	 
C 	 -70.48 	 32.6674 	 118.571 	 
H 	 -69.6171 	 32.0405 	 118.706 	 
H 	 -71.0858 	 32.7377 	 119.502 	 
H 	 -71.1266 	 32.2958 	 117.801 	 
S 	 -70.0878 	 39.0267 	 113.099 	 
C 	 -70.008 	 38.9487 	 111.408 	 
C 	 -69.0412 	 38.0663 	 110.934 	 
C 	 -68.2993 	 37.5855 	 112.066 	 
C 	 -68.9084 	 37.7604 	 113.274 	 
H 	 -69.0574 	 37.8985 	 109.81 	 
C 	 -67.1557 	 36.7388 	 111.866 	 
H 	 -67.4325 	 35.9848 	 111.16 	 
H 	 -66.9021 	 36.1453 	 112.734 	 
C 	 -65.9763 	 37.4477 	 111.209 	 
H 	 -66.3108 	 37.9124 	 110.273 	 
H 	 -65.2686 	 36.6455 	 110.975 	 
C 	 -65.2188 	 38.5807 	 111.947 	 
H 	 -64.5228 	 38.2008 	 112.712 	 
H 	 -65.9189 	 39.221 	 112.563 	 
H 	 -64.5658 	 39.2166 	 111.353 	 
H 	 -69.1434 	 36.8991 	 118.082 	 
H 	 -70.753 	 39.3781 	 110.773 	 
*
