! wB97X-D3 SP def2-SVP
%pal
nprocs 16
end

* xyz 0 1
S 	 -37.2241 	 53.8518 	 108.828 	 
C 	 -36.1981 	 55.2794 	 108.845 	 
C 	 -36.8706 	 56.3251 	 109.513 	 
C 	 -38.2527 	 56.0655 	 109.638 	 
C 	 -38.6053 	 54.8782 	 109.082 	 
H 	 -38.9201 	 56.7796 	 110.111 	 
C 	 -36.3686 	 57.7167 	 109.564 	 
H 	 -37.2591 	 58.4048 	 109.796 	 
H 	 -35.9983 	 57.9074 	 108.57 	 
C 	 -35.2311 	 57.9486 	 110.662 	 
H 	 -34.4642 	 57.22 	 110.565 	 
H 	 -34.7035 	 58.8851 	 110.536 	 
C 	 -35.7172 	 57.8223 	 112.099 	 
H 	 -36.5623 	 58.473 	 112.337 	 
H 	 -35.9877 	 56.8587 	 112.43 	 
H 	 -34.879 	 58.0275 	 112.768 	 
S 	 -40.0518 	 52.6078 	 109.764 	 
C 	 -41.7943 	 52.5792 	 109.577 	 
C 	 -42.2569 	 53.8849 	 109.463 	 
C 	 -41.2116 	 54.8779 	 109.261 	 
C 	 -39.9448 	 54.3499 	 109.307 	 
H 	 -43.267 	 54.0319 	 109.447 	 
C 	 -41.6239 	 56.3303 	 109.109 	 
H 	 -41.1666 	 56.837 	 110.014 	 
H 	 -42.7416 	 56.4795 	 109.224 	 
C 	 -41.3218 	 57.0228 	 107.742 	 
H 	 -40.3757 	 57.3295 	 107.66 	 
H 	 -41.8978 	 57.9292 	 107.607 	 
C 	 -41.6617 	 56.3247 	 106.434 	 
H 	 -40.9134 	 55.4832 	 106.224 	 
H 	 -41.7106 	 57.0086 	 105.56 	 
H 	 -42.6988 	 55.924 	 106.396 	 
H 	 -35.1741 	 55.2877 	 108.664 	 
H 	 -42.3808 	 51.6736 	 109.665 	 
*
