! wB97X-D3 SP def2-SVP
%pal
nprocs 16
end

* xyz 0 1
S 	 26.3501 	 6.6879 	 75.7933 	 
C 	 27.9564 	 7.44864 	 75.7108 	 
C 	 28.9475 	 6.61073 	 76.0449 	 
C 	 28.4897 	 5.33013 	 76.3596 	 
C 	 27.1368 	 5.18715 	 76.1924 	 
H 	 29.0734 	 4.43135 	 76.6838 	 
C 	 30.4842 	 6.92113 	 76.0651 	 
H 	 30.8965 	 6.96506 	 77.0369 	 
H 	 30.6566 	 7.92047 	 75.5992 	 
C 	 31.3586 	 5.89043 	 75.3169 	 
H 	 32.3714 	 5.99366 	 75.6532 	 
H 	 31.0749 	 4.90833 	 75.6795 	 
C 	 31.1936 	 5.69455 	 73.8065 	 
H 	 31.7788 	 4.91768 	 73.384 	 
H 	 30.1144 	 5.36302 	 73.7429 	 
H 	 31.3231 	 6.56527 	 73.1003 	 
S 	 25.8069 	 3.15102 	 74.8792 	 
C 	 25.1873 	 1.76444 	 75.7486 	 
C 	 25.5517 	 1.83159 	 77.1119 	 
C 	 26.2875 	 3.02851 	 77.4491 	 
C 	 26.4634 	 3.93425 	 76.3332 	 
H 	 25.2673 	 1.0838 	 77.8193 	 
C 	 26.6275 	 3.32415 	 78.9359 	 
H 	 27.4671 	 4.01157 	 78.8667 	 
H 	 27.1239 	 2.37858 	 79.3508 	 
C 	 25.4981 	 3.93626 	 79.8235 	 
H 	 24.6001 	 3.31929 	 79.8391 	 
H 	 25.212 	 4.90735 	 79.3588 	 
C 	 25.9701 	 4.2444 	 81.2673 	 
H 	 26.8624 	 4.89602 	 81.1149 	 
H 	 26.3169 	 3.30964 	 81.6066 	 
H 	 25.247 	 4.83694 	 81.8995 	 
H 	 28.0643 	 8.52036 	 75.5648 	 
H 	 24.4544 	 1.09662 	 75.3639 	 
*
