! wB97X-D3 SP def2-SVP
%pal
nprocs 16
end

* xyz 0 1
S 	 -55.865 	 33.58 	 93.1465 	 
C 	 -57.4616 	 33.2668 	 92.5031 	 
C 	 -58.4536 	 33.661 	 93.4069 	 
C 	 -57.9757 	 34.1771 	 94.6312 	 
C 	 -56.5643 	 34.214 	 94.6037 	 
H 	 -58.5477 	 34.4265 	 95.4989 	 
C 	 -59.9558 	 33.6341 	 93.1469 	 
H 	 -59.9767 	 32.7828 	 92.4705 	 
H 	 -60.3012 	 34.5951 	 92.7236 	 
C 	 -60.9615 	 33.4598 	 94.3546 	 
H 	 -60.6194 	 32.5992 	 94.9476 	 
H 	 -60.914 	 34.2729 	 95.0848 	 
C 	 -62.4881 	 33.2962 	 93.9349 	 
H 	 -63.3111 	 33.589 	 94.5818 	 
H 	 -62.5763 	 33.9712 	 93.11 	 
H 	 -62.5643 	 32.3369 	 93.4489 	 
S 	 -55.8514 	 33.6246 	 97.1024 	 
C 	 -54.8525 	 34.8037 	 97.9925 	 
C 	 -54.2129 	 35.7078 	 97.1693 	 
C 	 -54.7865 	 35.7517 	 95.8484 	 
C 	 -55.7263 	 34.6797 	 95.6977 	 
H 	 -53.4935 	 36.4618 	 97.4246 	 
C 	 -54.299 	 36.6417 	 94.7042 	 
H 	 -54.9966 	 36.5448 	 93.9195 	 
H 	 -53.3035 	 36.295 	 94.4202 	 
C 	 -54.2008 	 38.1668 	 94.9463 	 
H 	 -53.543 	 38.3615 	 95.8062 	 
H 	 -55.1975 	 38.5114 	 95.1962 	 
C 	 -53.5602 	 38.8518 	 93.8604 	 
H 	 -54.2008 	 38.7859 	 92.9521 	 
H 	 -52.6246 	 38.3849 	 93.5324 	 
H 	 -53.3331 	 39.9361 	 94.0607 	 
H 	 -57.7294 	 32.9114 	 91.5682 	 
H 	 -54.633 	 34.8295 	 99.0739 	 
*
