! wB97X-D3 SP def2-SVP
%pal
nprocs 16
end

* xyz 0 1
S 	 -42.8165 	 37.998 	 98.6932 	 
C 	 -44.0439 	 38.7964 	 97.7995 	 
C 	 -45.2692 	 38.7898 	 98.4521 	 
C 	 -45.2236 	 38.072 	 99.6897 	 
C 	 -43.9273 	 37.6226 	 99.9955 	 
H 	 -46.089 	 37.9978 	 100.401 	 
C 	 -46.488 	 39.4932 	 97.9131 	 
H 	 -47.3606 	 39.1322 	 98.4834 	 
H 	 -46.7606 	 39.1582 	 96.9491 	 
C 	 -46.6957 	 41.023 	 98.1745 	 
H 	 -47.2914 	 41.1438 	 99.1002 	 
H 	 -45.6832 	 41.3975 	 98.2246 	 
C 	 -47.5214 	 41.8072 	 97.1243 	 
H 	 -47.2026 	 41.5931 	 96.0976 	 
H 	 -48.6253 	 41.5232 	 97.267 	 
H 	 -47.6924 	 42.9208 	 97.1663 	 
S 	 -42.2581 	 35.7829 	 101.185 	 
C 	 -42.2174 	 35.6997 	 102.958 	 
C 	 -43.1211 	 36.5428 	 103.563 	 
C 	 -43.7523 	 37.3742 	 102.601 	 
C 	 -43.4478 	 37.0941 	 101.266 	 
H 	 -43.1861 	 36.4858 	 104.676 	 
C 	 -44.6818 	 38.464 	 103.049 	 
H 	 -44.7744 	 39.1976 	 102.32 	 
H 	 -44.1039 	 38.9489 	 103.876 	 
C 	 -46.1114 	 38.0455 	 103.558 	 
H 	 -45.9967 	 37.3656 	 104.45 	 
H 	 -46.5872 	 37.5875 	 102.732 	 
C 	 -46.9966 	 39.2006 	 103.978 	 
H 	 -47.1279 	 39.2856 	 105.072 	 
H 	 -47.9849 	 39.1234 	 103.528 	 
H 	 -46.6323 	 40.1708 	 103.603 	 
H 	 -43.9349 	 39.3864 	 96.845 	 
H 	 -41.6088 	 35.0118 	 103.56 	 
*
