! wB97X-D3 SP def2-SVP
%pal
nprocs 16
end

* xyz 0 1
S 	 48.2964 	 23.9385 	 43.0343 	 
C 	 47.7152 	 25.5653 	 42.7768 	 
C 	 46.7079 	 25.8779 	 43.5873 	 
C 	 46.5407 	 24.8434 	 44.6034 	 
C 	 47.4134 	 23.7778 	 44.5617 	 
H 	 45.8869 	 24.7723 	 45.4767 	 
C 	 45.9919 	 27.2184 	 43.5288 	 
H 	 46.2825 	 27.7345 	 42.5802 	 
H 	 46.3108 	 27.6996 	 44.4285 	 
C 	 44.4509 	 27.0674 	 43.475 	 
H 	 44.0231 	 26.8222 	 44.4228 	 
H 	 44.1381 	 28.0838 	 43.0385 	 
C 	 43.9029 	 25.9106 	 42.5847 	 
H 	 44.196 	 24.9005 	 42.9203 	 
H 	 42.8612 	 25.9618 	 42.4472 	 
H 	 44.406 	 26.1367 	 41.6649 	 
S 	 47.4902 	 22.9127 	 47.2134 	 
C 	 47.7224 	 21.2488 	 47.6302 	 
C 	 47.748 	 20.5026 	 46.4905 	 
C 	 47.5873 	 21.2628 	 45.2749 	 
C 	 47.4236 	 22.632 	 45.4818 	 
H 	 47.7218 	 19.4292 	 46.554 	 
C 	 47.3773 	 20.4715 	 43.9486 	 
H 	 46.7966 	 21.1279 	 43.2949 	 
H 	 46.6892 	 19.6447 	 44.1012 	 
C 	 48.6534 	 20.0075 	 43.24 	 
H 	 49.156 	 20.7441 	 42.629 	 
H 	 48.4134 	 19.2018 	 42.4719 	 
C 	 49.6148 	 19.2463 	 44.2319 	 
H 	 50.0397 	 19.9885 	 44.9281 	 
H 	 50.4149 	 18.8332 	 43.6506 	 
H 	 49.0784 	 18.4651 	 44.7914 	 
H 	 48.1591 	 26.2015 	 41.9755 	 
H 	 47.6232 	 20.8558 	 48.6925 	 
*
