! wB97X-D3 SP def2-SVP
%pal
nprocs 16
end

* xyz 0 1
S 	 -37.9068 	 53.4267 	 107.092 	 
C 	 -38.0365 	 54.863 	 108.026 	 
C 	 -37.8682 	 54.6109 	 109.398 	 
C 	 -37.6738 	 53.2082 	 109.671 	 
C 	 -37.7793 	 52.4057 	 108.508 	 
H 	 -37.5261 	 52.6999 	 110.602 	 
C 	 -38.0343 	 55.6017 	 110.508 	 
H 	 -37.4573 	 56.4197 	 110.207 	 
H 	 -37.6782 	 55.1541 	 111.432 	 
C 	 -39.4935 	 56.0068 	 110.877 	 
H 	 -40.111 	 56.1315 	 110.01 	 
H 	 -40.0122 	 55.1412 	 111.357 	 
C 	 -39.4439 	 57.1638 	 111.769 	 
H 	 -38.9162 	 56.9753 	 112.726 	 
H 	 -39.1534 	 58.0591 	 111.242 	 
H 	 -40.4707 	 57.4203 	 112.131 	 
S 	 -36.7202 	 50.0193 	 107.678 	 
C 	 -37.52 	 48.5046 	 108.139 	 
C 	 -38.7774 	 48.7405 	 108.748 	 
C 	 -38.9517 	 50.1515 	 108.995 	 
C 	 -37.9565 	 50.9236 	 108.436 	 
H 	 -39.4671 	 47.9402 	 109.006 	 
C 	 -40.2914 	 50.7048 	 109.59 	 
H 	 -39.9286 	 51.4916 	 110.227 	 
H 	 -40.8808 	 50.0013 	 110.16 	 
C 	 -41.1756 	 51.481 	 108.518 	 
H 	 -41.474 	 50.7947 	 107.722 	 
H 	 -40.5275 	 52.1454 	 108.019 	 
C 	 -42.4314 	 52.1511 	 109.03 	 
H 	 -43.0158 	 51.4285 	 109.587 	 
H 	 -43.0912 	 52.6033 	 108.231 	 
H 	 -42.2901 	 52.8309 	 109.879 	 
H 	 -38.1657 	 55.8582 	 107.573 	 
H 	 -37.1863 	 47.5514 	 107.774 	 
*
