! wB97X-D3 SP def2-SVP
%pal
nprocs 16
end

* xyz 0 1
S 	 18.4459 	 31.7702 	 56.2504 	 
C 	 17.4148 	 32.2553 	 57.5877 	 
C 	 17.8849 	 33.3354 	 58.2165 	 
C 	 19.1679 	 33.6586 	 57.7702 	 
C 	 19.6561 	 32.9307 	 56.6423 	 
H 	 19.7295 	 34.4207 	 58.1493 	 
C 	 17.2376 	 34.1249 	 59.3205 	 
H 	 16.3967 	 34.6454 	 58.9 	 
H 	 17.9627 	 34.8171 	 59.6586 	 
C 	 16.851 	 33.2945 	 60.5864 	 
H 	 16.0472 	 32.615 	 60.4084 	 
H 	 17.6277 	 32.7095 	 61.0022 	 
C 	 16.4458 	 34.2681 	 61.7003 	 
H 	 16.0454 	 33.6741 	 62.5304 	 
H 	 17.3299 	 34.7413 	 61.9939 	 
H 	 15.6324 	 34.903 	 61.2751 	 
S 	 21.9754 	 31.6112 	 56.208 	 
C 	 23.4428 	 32.4501 	 55.6016 	 
C 	 23.2073 	 33.7696 	 55.4096 	 
C 	 21.7745 	 34.1269 	 55.6842 	 
C 	 20.9863 	 33.0425 	 56.0948 	 
H 	 23.9702 	 34.4575 	 55.2337 	 
C 	 21.3193 	 35.5068 	 55.3777 	 
H 	 20.2414 	 35.4625 	 55.5784 	 
H 	 21.347 	 35.6307 	 54.271 	 
C 	 21.9887 	 36.63 	 56.2094 	 
H 	 22.9965 	 36.8346 	 55.7834 	 
H 	 22.0287 	 36.3962 	 57.2754 	 
C 	 21.2347 	 37.9858 	 56.089 	 
H 	 20.3665 	 37.9186 	 56.74 	 
H 	 20.9873 	 38.074 	 55.046 	 
H 	 21.9675 	 38.7164 	 56.4578 	 
H 	 16.3945 	 31.8394 	 57.7357 	 
H 	 24.3904 	 32.0448 	 55.373 	 
*
