! wB97X-D3 SP def2-SVP
%pal
nprocs 16
end

* xyz 0 1
S 	 7.23104 	 -11.4745 	 64.0935 	 
C 	 7.26177 	 -10.3731 	 62.7869 	 
C 	 7.04168 	 -9.07665 	 63.1396 	 
C 	 6.85472 	 -8.97348 	 64.5233 	 
C 	 6.94345 	 -10.1368 	 65.1901 	 
H 	 6.72016 	 -8.03354 	 65.0315 	 
C 	 7.19309 	 -7.78484 	 62.3226 	 
H 	 6.8882 	 -6.96191 	 62.9351 	 
H 	 6.45962 	 -7.76942 	 61.512 	 
C 	 8.59472 	 -7.66799 	 61.8607 	 
H 	 8.92889 	 -8.59684 	 61.4683 	 
H 	 8.68106 	 -7.00135 	 61.0004 	 
C 	 9.63559 	 -7.15134 	 62.8503 	 
H 	 10.0918 	 -8.02947 	 63.3467 	 
H 	 10.4251 	 -6.67852 	 62.3602 	 
H 	 9.21285 	 -6.49729 	 63.6362 	 
S 	 7.12726 	 -9.03046 	 67.6469 	 
C 	 6.62446 	 -9.90672 	 69.0849 	 
C 	 6.11044 	 -11.1236 	 68.7585 	 
C 	 6.182 	 -11.4151 	 67.3677 	 
C 	 6.72183 	 -10.3332 	 66.6177 	 
H 	 5.63309 	 -11.7209 	 69.502 	 
C 	 5.53922 	 -12.7285 	 66.8727 	 
H 	 5.30394 	 -12.5313 	 65.8286 	 
H 	 4.65886 	 -13.0726 	 67.4627 	 
C 	 6.49178 	 -13.9141 	 66.7908 	 
H 	 6.83347 	 -14.3343 	 67.7108 	 
H 	 7.35186 	 -13.595 	 66.2174 	 
C 	 5.93467 	 -15.0673 	 66.0003 	 
H 	 5.24619 	 -15.6433 	 66.5672 	 
H 	 6.72531 	 -15.8043 	 65.8454 	 
H 	 5.68417 	 -14.7567 	 65.0755 	 
H 	 7.643 	 -10.6465 	 61.756 	 
H 	 6.66552 	 -9.60441 	 70.1022 	 
*
