! wB97X-D3 SP def2-SVP
%pal
nprocs 16
end

* xyz 0 1
S 	 40.2872 	 26.2401 	 95.1429 	 
C 	 41.0706 	 27.5171 	 96.0625 	 
C 	 42.0581 	 26.9865 	 96.8691 	 
C 	 42.1574 	 25.5784 	 96.858 	 
C 	 41.3092 	 24.9902 	 95.9192 	 
H 	 42.9961 	 25.1042 	 97.3598 	 
C 	 43.0973 	 27.8286 	 97.5456 	 
H 	 43.2687 	 27.3338 	 98.5385 	 
H 	 42.6887 	 28.7808 	 97.7873 	 
C 	 44.4476 	 28.027 	 96.7899 	 
H 	 44.3484 	 28.5588 	 95.8508 	 
H 	 45.0827 	 28.5703 	 97.3987 	 
C 	 45.131 	 26.6637 	 96.4631 	 
H 	 45.4274 	 26.1616 	 97.4575 	 
H 	 44.5916 	 25.9532 	 95.8492 	 
H 	 46.073 	 26.78 	 95.9533 	 
S 	 39.6301 	 22.934 	 95.7773 	 
C 	 40.1867 	 21.3128 	 95.5208 	 
C 	 41.5146 	 21.3254 	 95.2692 	 
C 	 42.1586 	 22.5843 	 95.3604 	 
C 	 41.2041 	 23.5862 	 95.6436 	 
H 	 41.9306 	 20.3926 	 95.0491 	 
C 	 43.6785 	 22.7095 	 95.1757 	 
H 	 44.25 	 21.9458 	 95.8636 	 
H 	 44.0742 	 23.5947 	 95.5311 	 
C 	 44.17 	 22.5582 	 93.7287 	 
H 	 45.2578 	 22.428 	 93.8015 	 
H 	 43.9623 	 23.4105 	 93.0957 	 
C 	 43.8691 	 21.2292 	 92.9672 	 
H 	 42.8392 	 20.9698 	 93.0374 	 
H 	 44.3673 	 20.3719 	 93.4215 	 
H 	 44.0637 	 21.2802 	 91.8654 	 
H 	 40.834 	 28.5321 	 95.841 	 
H 	 39.5826 	 20.4143 	 95.3861 	 
*
