! wB97X-D3 SP def2-SVP
%pal
nprocs 16
end

* xyz 0 1
S 	 -41.7127 	 50.0918 	 101.939 	 
C 	 -40.3763 	 48.9494 	 101.77 	 
C 	 -39.2114 	 49.4799 	 102.244 	 
C 	 -39.3307 	 50.8397 	 102.655 	 
C 	 -40.5645 	 51.3678 	 102.528 	 
H 	 -38.4779 	 51.4569 	 102.968 	 
C 	 -37.8688 	 48.7589 	 102.355 	 
H 	 -37.1608 	 49.2789 	 101.71 	 
H 	 -37.9834 	 47.6933 	 102.005 	 
C 	 -37.2929 	 48.5704 	 103.711 	 
H 	 -36.4671 	 47.9292 	 103.547 	 
H 	 -36.7559 	 49.341 	 104.264 	 
C 	 -38.1902 	 47.7837 	 104.663 	 
H 	 -38.1705 	 46.6771 	 104.574 	 
H 	 -37.7505 	 47.9702 	 105.602 	 
H 	 -39.2161 	 48.16 	 104.83 	 
S 	 -40.9077 	 53.3521 	 104.369 	 
C 	 -41.6707 	 54.8283 	 103.994 	 
C 	 -41.9948 	 54.8318 	 102.613 	 
C 	 -41.5952 	 53.6577 	 101.913 	 
C 	 -40.939 	 52.7706 	 102.745 	 
H 	 -42.5495 	 55.6451 	 102.18 	 
C 	 -41.6874 	 53.4486 	 100.444 	 
H 	 -42.6715 	 53.7939 	 100.265 	 
H 	 -41.6433 	 52.4063 	 100.078 	 
C 	 -40.6457 	 54.2468 	 99.7134 	 
H 	 -39.6813 	 53.8049 	 99.9074 	 
H 	 -40.6366 	 55.2761 	 100.094 	 
C 	 -41.0374 	 54.3808 	 98.2189 	 
H 	 -42.0941 	 54.8297 	 98.049 	 
H 	 -41.1069 	 53.4279 	 97.701 	 
H 	 -40.2493 	 54.874 	 97.7265 	 
H 	 -40.435 	 47.8839 	 101.664 	 
H 	 -41.9756 	 55.6658 	 104.675 	 
*
