! wB97X-D3 SP def2-SVP
%pal
nprocs 16
end

* xyz 0 1
S 	 -100.202 	 49.2321 	 128.276 	 
C 	 -99.4169 	 49.1738 	 126.738 	 
C 	 -100.207 	 49.6934 	 125.787 	 
C 	 -101.302 	 50.4643 	 126.302 	 
C 	 -101.499 	 50.2322 	 127.602 	 
H 	 -102.111 	 50.8968 	 125.786 	 
C 	 -99.8659 	 49.8213 	 124.31 	 
H 	 -100.806 	 49.6266 	 123.761 	 
H 	 -99.1605 	 49.0401 	 124.012 	 
C 	 -99.328 	 51.1235 	 123.716 	 
H 	 -100.118 	 51.8792 	 123.717 	 
H 	 -98.5621 	 51.4083 	 124.504 	 
C 	 -98.866 	 51.0838 	 122.252 	 
H 	 -99.7311 	 51.0521 	 121.643 	 
H 	 -98.3185 	 51.9724 	 121.972 	 
H 	 -98.1676 	 50.238 	 122.14 	 
S 	 -102.208 	 51.1802 	 130.016 	 
C 	 -103.899 	 51.4981 	 130.245 	 
C 	 -104.701 	 51.2212 	 129.214 	 
C 	 -103.966 	 50.8592 	 128.091 	 
C 	 -102.597 	 50.7226 	 128.362 	 
H 	 -105.732 	 51.3793 	 129.247 	 
C 	 -104.718 	 50.3938 	 126.895 	 
H 	 -105.61 	 49.7911 	 127.158 	 
H 	 -104.115 	 49.6714 	 126.459 	 
C 	 -105.164 	 51.4416 	 125.851 	 
H 	 -104.32 	 51.8991 	 125.344 	 
H 	 -105.804 	 52.2798 	 126.32 	 
C 	 -106.015 	 50.8266 	 124.685 	 
H 	 -106.005 	 51.5299 	 123.892 	 
H 	 -107.061 	 50.6279 	 124.886 	 
H 	 -105.464 	 49.9111 	 124.398 	 
H 	 -98.6522 	 48.5082 	 126.52 	 
H 	 -104.28 	 51.8951 	 131.149 	 
*
