! wB97X-D3 SP def2-SVP
%pal
nprocs 16
end

* xyz 0 1
S 	 -93.7018 	 56.0353 	 132.552 	 
C 	 -92.4666 	 57.3001 	 132.545 	 
C 	 -92.9584 	 58.4595 	 132.94 	 
C 	 -94.4046 	 58.4259 	 133.124 	 
C 	 -94.9999 	 57.1731 	 132.879 	 
H 	 -95.0788 	 59.2412 	 133.306 	 
C 	 -92.1466 	 59.7224 	 133.204 	 
H 	 -91.1375 	 59.4232 	 133.393 	 
H 	 -92.5447 	 60.1712 	 134.032 	 
C 	 -92.1851 	 60.6215 	 131.992 	 
H 	 -91.8619 	 60.1014 	 131.087 	 
H 	 -93.2415 	 60.7791 	 131.83 	 
C 	 -91.5803 	 62.0142 	 132.08 	 
H 	 -91.8504 	 62.6335 	 131.238 	 
H 	 -91.8684 	 62.4288 	 133.038 	 
H 	 -90.5122 	 61.9934 	 132.056 	 
S 	 -96.7655 	 55.1967 	 133.622 	 
C 	 -98.4383 	 55.453 	 133.509 	 
C 	 -98.6744 	 56.7189 	 133.026 	 
C 	 -97.4963 	 57.4689 	 132.73 	 
C 	 -96.3748 	 56.8245 	 133.02 	 
H 	 -99.6699 	 57.0725 	 132.746 	 
C 	 -97.5957 	 58.8998 	 132.072 	 
H 	 -96.7538 	 59.4656 	 132.19 	 
H 	 -98.4175 	 59.3643 	 132.566 	 
C 	 -97.8977 	 58.8116 	 130.561 	 
H 	 -98.8731 	 58.3232 	 130.413 	 
H 	 -97.1002 	 58.1157 	 130.214 	 
C 	 -97.853 	 60.1706 	 129.9 	 
H 	 -96.8314 	 60.5506 	 130.056 	 
H 	 -98.4419 	 60.9545 	 130.352 	 
H 	 -98.0296 	 60.0509 	 128.811 	 
H 	 -91.4137 	 57.2369 	 132.318 	 
H 	 -99.2765 	 54.6904 	 133.71 	 
*
