! wB97X-D3 SP def2-SVP
%pal
nprocs 16
end

* xyz 0 1
S 	 -3.40087 	 -11.4138 	 94.6118 	 
C 	 -5.1116 	 -11.8889 	 94.8875 	 
C 	 -5.47198 	 -12.959 	 94.1584 	 
C 	 -4.3941 	 -13.3786 	 93.3087 	 
C 	 -3.22028 	 -12.6412 	 93.4091 	 
H 	 -4.52196 	 -14.035 	 92.464 	 
C 	 -6.90257 	 -13.5632 	 93.9798 	 
H 	 -7.66261 	 -12.832 	 94.3346 	 
H 	 -6.91406 	 -14.3811 	 94.6425 	 
C 	 -7.22841 	 -14.2954 	 92.6303 	 
H 	 -6.65771 	 -15.1625 	 92.5043 	 
H 	 -8.23804 	 -14.7441 	 92.7313 	 
C 	 -7.26908 	 -13.4074 	 91.3901 	 
H 	 -7.83639 	 -12.431 	 91.4453 	 
H 	 -6.33837 	 -13.4146 	 90.8013 	 
H 	 -7.81426 	 -13.9577 	 90.749 	 
S 	 -1.48738 	 -11.4106 	 91.6876 	 
C 	 -0.411111 	 -12.4856 	 90.6255 	 
C 	 -0.608218 	 -13.7721 	 90.9758 	 
C 	 -1.50064 	 -13.9615 	 92.0745 	 
C 	 -2.05815 	 -12.7895 	 92.5198 	 
H 	 -0.210483 	 -14.5912 	 90.457 	 
C 	 -1.76176 	 -15.3858 	 92.6567 	 
H 	 -1.94549 	 -15.9191 	 91.7849 	 
H 	 -2.69025 	 -15.4644 	 93.2927 	 
C 	 -0.523144 	 -16.0911 	 93.3409 	 
H 	 -0.227511 	 -15.579 	 94.2796 	 
H 	 0.282685 	 -15.927 	 92.6296 	 
C 	 -0.682941 	 -17.6581 	 93.4189 	 
H 	 -1.06397 	 -17.9634 	 92.4333 	 
H 	 -1.50443 	 -17.9445 	 94.0783 	 
H 	 0.164058 	 -18.2415 	 93.7205 	 
H 	 -5.6026 	 -11.5083 	 95.738 	 
H 	 0.0415874 	 -12.1273 	 89.762 	 
*
