! wB97X-D3 SP def2-SVP
%pal
nprocs 16
end

* xyz 0 1
S 	 -69.6467 	 56.628 	 122.169 	 
C 	 -69.4999 	 58.1316 	 121.336 	 
C 	 -68.7801 	 59.1135 	 122.037 	 
C 	 -68.4654 	 58.5434 	 123.3 	 
C 	 -68.6686 	 57.1822 	 123.496 	 
H 	 -67.8437 	 59.0775 	 124.036 	 
C 	 -68.2919 	 60.4963 	 121.586 	 
H 	 -68.9358 	 61.2413 	 122.061 	 
H 	 -68.4237 	 60.5638 	 120.486 	 
C 	 -66.9069 	 60.8417 	 122.053 	 
H 	 -66.9141 	 60.9788 	 123.116 	 
H 	 -66.208 	 60.0715 	 121.812 	 
C 	 -66.5207 	 62.2334 	 121.546 	 
H 	 -66.5538 	 62.3644 	 120.461 	 
H 	 -67.1381 	 62.9292 	 122.12 	 
H 	 -65.4512 	 62.4581 	 121.691 	 
S 	 -69.8938 	 55.7632 	 125.42 	 
C 	 -69.1118 	 55.508 	 127.022 	 
C 	 -67.826 	 55.9572 	 126.908 	 
C 	 -67.4413 	 56.4889 	 125.656 	 
C 	 -68.4716 	 56.4703 	 124.711 	 
H 	 -67.2668 	 55.8859 	 127.803 	 
C 	 -65.9362 	 56.7418 	 125.394 	 
H 	 -65.6933 	 57.6409 	 125.937 	 
H 	 -65.7998 	 56.891 	 124.334 	 
C 	 -64.9826 	 55.5731 	 125.834 	 
H 	 -65.1655 	 54.8254 	 125.047 	 
H 	 -65.2797 	 55.2278 	 126.756 	 
C 	 -63.4688 	 55.8216 	 125.981 	 
H 	 -63.2344 	 56.4852 	 126.834 	 
H 	 -63.0667 	 56.1532 	 125.041 	 
H 	 -63.0184 	 54.8554 	 126.147 	 
H 	 -69.8259 	 58.3871 	 120.316 	 
H 	 -69.4913 	 55.1177 	 127.969 	 
*
