! wB97X-D3 SP def2-SVP
%pal
nprocs 16
end

* xyz 0 1
S 	 -18.4191 	 0.33155 	 77.6599 	 
C 	 -17.8039 	 -1.20316 	 77.1737 	 
C 	 -18.6965 	 -1.83583 	 76.2855 	 
C 	 -19.7871 	 -1.02029 	 75.9958 	 
C 	 -19.8693 	 0.149997 	 76.7056 	 
H 	 -20.6619 	 -1.24071 	 75.364 	 
C 	 -18.4642 	 -3.16369 	 75.5538 	 
H 	 -17.4725 	 -3.21152 	 75.1835 	 
H 	 -19.0574 	 -3.10262 	 74.6565 	 
C 	 -18.7896 	 -4.38775 	 76.4461 	 
H 	 -19.7284 	 -4.22221 	 77.0437 	 
H 	 -18.9361 	 -5.19453 	 75.7229 	 
C 	 -17.6175 	 -4.73856 	 77.4058 	 
H 	 -16.7151 	 -4.54365 	 76.8636 	 
H 	 -17.6 	 -4.14095 	 78.3652 	 
H 	 -17.4183 	 -5.76557 	 77.6731 	 
S 	 -20.3191 	 2.8828 	 76.4614 	 
C 	 -21.9857 	 3.48869 	 76.2687 	 
C 	 -22.7953 	 2.45576 	 76.6961 	 
C 	 -22.2444 	 1.1938 	 76.6428 	 
C 	 -20.8841 	 1.23371 	 76.5249 	 
H 	 -23.6907 	 2.78879 	 77.106 	 
C 	 -23.0094 	 -0.0428498 	 76.9142 	 
H 	 -22.7963 	 -0.72689 	 76.1081 	 
H 	 -24.0569 	 0.0699659 	 76.7245 	 
C 	 -22.8845 	 -0.63706 	 78.3775 	 
H 	 -23.3405 	 0.113419 	 79.0297 	 
H 	 -21.8425 	 -0.639026 	 78.7054 	 
C 	 -23.6573 	 -1.9775 	 78.5743 	 
H 	 -24.7064 	 -1.87972 	 78.7464 	 
H 	 -23.1615 	 -2.29087 	 79.4645 	 
H 	 -23.5457 	 -2.6468 	 77.7394 	 
H 	 -16.7537 	 -1.53293 	 77.2598 	 
H 	 -22.1928 	 4.48174 	 76.3454 	 
*
