! wB97X-D3 SP def2-SVP
%pal
nprocs 16
end

* xyz 0 1
S 	 -103.161 	 55.667 	 117.209 	 
C 	 -102.535 	 56.192 	 115.714 	 
C 	 -103.51 	 56.6466 	 114.881 	 
C 	 -104.726 	 56.8479 	 115.564 	 
C 	 -104.663 	 56.4674 	 116.95 	 
H 	 -105.566 	 57.356 	 115.126 	 
C 	 -103.374 	 56.9779 	 113.381 	 
H 	 -102.989 	 57.9824 	 113.256 	 
H 	 -104.353 	 57.0067 	 112.921 	 
C 	 -102.59 	 55.9476 	 112.592 	 
H 	 -102.227 	 56.3876 	 111.658 	 
H 	 -101.598 	 55.7065 	 112.968 	 
C 	 -103.284 	 54.6095 	 112.171 	 
H 	 -103.532 	 54.0513 	 113.03 	 
H 	 -104.225 	 54.8419 	 111.66 	 
H 	 -102.649 	 54.0378 	 111.535 	 
S 	 -104.891 	 57.0943 	 119.609 	 
C 	 -106.432 	 56.9819 	 120.388 	 
C 	 -107.452 	 56.8698 	 119.506 	 
C 	 -106.97 	 56.67 	 118.154 	 
C 	 -105.599 	 56.6138 	 118.042 	 
H 	 -108.445 	 56.9047 	 119.915 	 
C 	 -107.877 	 56.3753 	 117.008 	 
H 	 -107.708 	 55.2452 	 116.786 	 
H 	 -107.609 	 56.9595 	 116.123 	 
C 	 -109.386 	 56.4506 	 117.257 	 
H 	 -109.644 	 55.9018 	 118.209 	 
H 	 -110.058 	 55.975 	 116.556 	 
C 	 -109.905 	 57.9653 	 117.369 	 
H 	 -109.927 	 58.5595 	 116.429 	 
H 	 -109.272 	 58.4763 	 118.121 	 
H 	 -110.924 	 57.9361 	 117.709 	 
H 	 -101.509 	 56.1138 	 115.368 	 
H 	 -106.483 	 57.0926 	 121.5 	 
*
