! wB97X-D3 SP def2-SVP
%pal
nprocs 16
end

* xyz 0 1
S 	 44.1539 	 19.048 	 86.7241 	 
C 	 42.509 	 19.3997 	 87.1664 	 
C 	 41.5964 	 18.5604 	 86.58 	 
C 	 42.239 	 17.6901 	 85.6664 	 
C 	 43.5992 	 17.602 	 85.8277 	 
H 	 41.8077 	 17.0211 	 84.9528 	 
C 	 40.0676 	 18.6248 	 86.708 	 
H 	 39.9625 	 18.8566 	 87.7295 	 
H 	 39.945 	 17.5269 	 86.5087 	 
C 	 39.2158 	 19.4979 	 85.8404 	 
H 	 39.2512 	 20.4796 	 86.1825 	 
H 	 39.5799 	 19.5529 	 84.7844 	 
C 	 37.6983 	 19.2711 	 85.8787 	 
H 	 37.3692 	 19.0427 	 86.8757 	 
H 	 37.2016 	 20.1904 	 85.4299 	 
H 	 37.3972 	 18.3687 	 85.3251 	 
S 	 45.5671 	 17.8706 	 83.9536 	 
C 	 46.5867 	 16.5497 	 83.4148 	 
C 	 46.0363 	 15.3776 	 83.855 	 
C 	 44.8985 	 15.5388 	 84.7483 	 
C 	 44.5356 	 16.8605 	 84.9893 	 
H 	 46.4278 	 14.5395 	 83.3728 	 
C 	 43.9759 	 14.3778 	 85.1648 	 
H 	 44.0743 	 13.585 	 84.3646 	 
H 	 42.9211 	 14.6381 	 85.0661 	 
C 	 44.2067 	 13.8582 	 86.5897 	 
H 	 44.0062 	 14.7046 	 87.3175 	 
H 	 45.2492 	 13.511 	 86.633 	 
C 	 43.4288 	 12.619 	 86.9341 	 
H 	 43.8251 	 11.859 	 86.2796 	 
H 	 42.3415 	 12.656 	 86.742 	 
H 	 43.7583 	 12.3488 	 87.9444 	 
H 	 42.2525 	 20.2259 	 87.8298 	 
H 	 47.2618 	 16.5577 	 82.5688 	 
*
