! wB97X-D3 SP def2-SVP
%pal
nprocs 16
end

* xyz 0 1
S 	 43.5265 	 19.0204 	 45.9721 	 
C 	 42.8875 	 18.9851 	 44.3405 	 
C 	 43.9321 	 19.1526 	 43.4579 	 
C 	 45.2422 	 19.21 	 44.0709 	 
C 	 45.1319 	 19.2883 	 45.4521 	 
H 	 46.2049 	 19.13 	 43.6207 	 
C 	 43.8004 	 19.2365 	 41.947 	 
H 	 43.1387 	 18.459 	 41.5755 	 
H 	 44.8458 	 18.9959 	 41.597 	 
C 	 43.2489 	 20.571 	 41.2715 	 
H 	 43.9012 	 21.402 	 41.608 	 
H 	 43.3769 	 20.3989 	 40.1973 	 
C 	 41.8192 	 20.8988 	 41.6834 	 
H 	 41.7666 	 21.052 	 42.693 	 
H 	 41.443 	 21.8035 	 41.1783 	 
H 	 41.034 	 20.1901 	 41.5171 	 
S 	 45.8939 	 18.8657 	 47.9999 	 
C 	 47.4323 	 19.4568 	 48.5804 	 
C 	 48.1136 	 20.1225 	 47.5675 	 
C 	 47.4527 	 20.1806 	 46.3116 	 
C 	 46.1623 	 19.5581 	 46.3977 	 
H 	 49.1277 	 20.528 	 47.7636 	 
C 	 48.164 	 20.9237 	 45.2414 	 
H 	 48.4892 	 21.8587 	 45.5927 	 
H 	 47.3826 	 21.2114 	 44.5105 	 
C 	 49.3209 	 20.2047 	 44.5855 	 
H 	 50.0847 	 19.8578 	 45.4405 	 
H 	 49.9087 	 20.9143 	 43.9402 	 
C 	 48.9318 	 18.8854 	 43.9355 	 
H 	 48.467 	 18.1158 	 44.6096 	 
H 	 49.8884 	 18.4466 	 43.4531 	 
H 	 48.2604 	 18.9786 	 43.0404 	 
H 	 41.8588 	 18.9283 	 44.0164 	 
H 	 47.7791 	 19.354 	 49.5516 	 
*
