! wB97X-D3 SP def2-SVP
%pal
nprocs 16
end

* xyz 0 1
S 	 -23.178 	 46.3901 	 63.9883 	 
C 	 -21.6764 	 47.2361 	 63.6726 	 
C 	 -21.7308 	 47.935 	 62.499 	 
C 	 -23.0362 	 47.8781 	 61.8874 	 
C 	 -23.84 	 46.9198 	 62.4845 	 
H 	 -23.5208 	 48.3122 	 61.0507 	 
C 	 -20.5772 	 48.7756 	 61.8737 	 
H 	 -20.5272 	 48.5648 	 60.7997 	 
H 	 -19.6145 	 48.5134 	 62.3024 	 
C 	 -20.6861 	 50.2765 	 62.1567 	 
H 	 -19.9859 	 50.7739 	 61.4369 	 
H 	 -21.738 	 50.5939 	 62.0347 	 
C 	 -20.2937 	 50.7157 	 63.5372 	 
H 	 -20.6361 	 51.7331 	 63.5856 	 
H 	 -20.8343 	 50.221 	 64.4146 	 
H 	 -19.2654 	 50.7749 	 63.8439 	 
S 	 -25.6522 	 46.3716 	 60.4618 	 
C 	 -27.1835 	 45.7373 	 60.7752 	 
C 	 -27.5069 	 46.0485 	 62.1268 	 
C 	 -26.3588 	 46.4595 	 62.9483 	 
C 	 -25.2116 	 46.6375 	 62.1541 	 
H 	 -28.5282 	 45.863 	 62.4855 	 
C 	 -26.3615 	 46.5622 	 64.4849 	 
H 	 -27.2327 	 47.1117 	 64.7237 	 
H 	 -25.5424 	 47.1849 	 64.7911 	 
C 	 -26.2905 	 45.1287 	 65.2108 	 
H 	 -26.1061 	 45.1791 	 66.2838 	 
H 	 -25.4109 	 44.6973 	 64.8012 	 
C 	 -27.4792 	 44.1639 	 64.9293 	 
H 	 -27.6299 	 44.1914 	 63.8936 	 
H 	 -28.4841 	 44.465 	 65.3625 	 
H 	 -27.0678 	 43.1773 	 65.2727 	 
H 	 -20.8811 	 47.2303 	 64.3721 	 
H 	 -27.8938 	 45.3794 	 60.1154 	 
*
