! wB97X-D3 SP def2-SVP
%pal
nprocs 16
end

* xyz 0 1
S 	 -40.7262 	 -6.27351 	 96.0049 	 
C 	 -39.7006 	 -6.39591 	 94.5692 	 
C 	 -39.6699 	 -5.21874 	 93.9004 	 
C 	 -40.5491 	 -4.28667 	 94.4852 	 
C 	 -41.1381 	 -4.61792 	 95.6974 	 
H 	 -40.8324 	 -3.44212 	 93.9418 	 
C 	 -39.0116 	 -4.99478 	 92.5832 	 
H 	 -38.1893 	 -5.69168 	 92.4772 	 
H 	 -38.5044 	 -3.97604 	 92.666 	 
C 	 -40.015 	 -5.14699 	 91.4742 	 
H 	 -39.5536 	 -5.66624 	 90.6377 	 
H 	 -40.8236 	 -5.77254 	 91.7223 	 
C 	 -40.5534 	 -3.80985 	 90.8957 	 
H 	 -39.8221 	 -3.41361 	 90.2328 	 
H 	 -41.434 	 -4.0474 	 90.3149 	 
H 	 -40.8029 	 -3.06334 	 91.6545 	 
S 	 -42.2747 	 -2.15995 	 96.4215 	 
C 	 -43.7767 	 -2.17053 	 97.278 	 
C 	 -44.129 	 -3.41093 	 97.7187 	 
C 	 -43.3595 	 -4.46292 	 97.0964 	 
C 	 -42.2136 	 -3.94475 	 96.421 	 
H 	 -44.9584 	 -3.45177 	 98.393 	 
C 	 -43.7682 	 -5.89216 	 97.2851 	 
H 	 -43.7535 	 -6.5432 	 96.3934 	 
H 	 -44.8703 	 -5.74984 	 97.4185 	 
C 	 -43.2934 	 -6.55047 	 98.5793 	 
H 	 -43.9479 	 -6.23715 	 99.3907 	 
H 	 -42.2759 	 -6.21476 	 98.8555 	 
C 	 -43.479 	 -8.1228 	 98.5488 	 
H 	 -44.4586 	 -8.39602 	 98.2371 	 
H 	 -43.246 	 -8.50289 	 99.5669 	 
H 	 -42.8654 	 -8.71626 	 97.8714 	 
H 	 -39.0188 	 -7.27199 	 94.3714 	 
H 	 -44.2985 	 -1.18845 	 97.6697 	 
*
