! wB97X-D3 SP def2-SVP
%pal
nprocs 16
end

* xyz 0 1
S 	 47.2795 	 20.4809 	 93.4619 	 
C 	 48.5223 	 21.1963 	 94.5181 	 
C 	 49.4793 	 21.8632 	 93.7767 	 
C 	 49.2002 	 21.8241 	 92.3774 	 
C 	 47.993 	 21.1844 	 92.0684 	 
H 	 49.7783 	 22.2903 	 91.5531 	 
C 	 50.7784 	 22.5569 	 94.2388 	 
H 	 51.6129 	 22.0083 	 93.8217 	 
H 	 51.0452 	 22.2141 	 95.2534 	 
C 	 50.9206 	 24.0489 	 93.9676 	 
H 	 51.9746 	 24.2999 	 94.2031 	 
H 	 50.7532 	 24.1732 	 92.8825 	 
C 	 50.0352 	 24.9253 	 94.8248 	 
H 	 48.9599 	 24.5762 	 94.7523 	 
H 	 50.405 	 24.9541 	 95.8389 	 
H 	 50.0687 	 25.9715 	 94.4844 	 
S 	 46.3571 	 19.864 	 90.3327 	 
C 	 46.3152 	 20.3291 	 88.6419 	 
C 	 46.974 	 21.5831 	 88.4288 	 
C 	 47.581 	 22.0829 	 89.6339 	 
C 	 47.4203 	 21.1675 	 90.6834 	 
H 	 46.8398 	 22.0594 	 87.4623 	 
C 	 48.2759 	 23.4851 	 89.6973 	 
H 	 48.4013 	 23.8474 	 90.7082 	 
H 	 47.6085 	 24.2097 	 89.2541 	 
C 	 49.6684 	 23.5438 	 89 	 
H 	 49.8327 	 22.7767 	 88.279 	 
H 	 50.43 	 23.2853 	 89.7174 	 
C 	 49.9928 	 24.9481 	 88.3803 	 
H 	 49.4212 	 25.3508 	 87.5369 	 
H 	 51.0354 	 24.936 	 87.8979 	 
H 	 49.9647 	 25.7799 	 89.112 	 
H 	 48.5652 	 21.0241 	 95.5682 	 
H 	 45.6653 	 19.726 	 87.9993 	 
*
