! wB97X-D3 SP def2-SVP
%pal
nprocs 16
end

* xyz 0 1
S 	 -38.1213 	 68.9045 	 144.637 	 
C 	 -38.9104 	 67.7515 	 143.566 	 
C 	 -39.4057 	 66.6919 	 144.227 	 
C 	 -39.0208 	 66.6856 	 145.606 	 
C 	 -38.2718 	 67.7517 	 145.979 	 
H 	 -39.3784 	 65.8768 	 146.268 	 
C 	 -40.2221 	 65.6481 	 143.464 	 
H 	 -40.6731 	 65.9745 	 142.558 	 
H 	 -41.055 	 65.2922 	 144.065 	 
C 	 -39.5182 	 64.3233 	 143.02 	 
H 	 -38.79 	 63.9959 	 143.786 	 
H 	 -40.1577 	 63.3918 	 142.957 	 
C 	 -38.7584 	 64.3692 	 141.695 	 
H 	 -39.3581 	 64.6295 	 140.846 	 
H 	 -38.0805 	 65.1546 	 141.794 	 
H 	 -38.2336 	 63.4615 	 141.438 	 
S 	 -38.6827 	 68.8934 	 148.417 	 
C 	 -37.5875 	 68.4875 	 149.748 	 
C 	 -36.582 	 67.6266 	 149.384 	 
C 	 -36.6389 	 67.3129 	 147.973 	 
C 	 -37.7311 	 67.8732 	 147.302 	 
H 	 -35.7497 	 67.335 	 149.996 	 
C 	 -35.6045 	 66.3201 	 147.566 	 
H 	 -35.6942 	 66.0769 	 146.506 	 
H 	 -35.864 	 65.3377 	 148.126 	 
C 	 -34.1474 	 66.5715 	 148.019 	 
H 	 -34.0366 	 66.5047 	 149.106 	 
H 	 -33.87 	 67.611 	 147.748 	 
C 	 -33.1515 	 65.5317 	 147.526 	 
H 	 -32.1374 	 65.7839 	 147.833 	 
H 	 -33.0859 	 65.4164 	 146.503 	 
H 	 -33.4886 	 64.5555 	 147.927 	 
H 	 -39.1428 	 67.9425 	 142.518 	 
H 	 -37.6818 	 68.7297 	 150.731 	 
*
