! wB97X-D3 SP def2-SVP
%pal
nprocs 16
end

* xyz 0 1
S 	 60.5425 	 19.5779 	 75.1652 	 
C 	 60.5738 	 19.9878 	 73.5063 	 
C 	 59.7446 	 19.1529 	 72.7748 	 
C 	 58.9882 	 18.2364 	 73.5901 	 
C 	 59.2951 	 18.4333 	 74.9158 	 
H 	 58.2728 	 17.4666 	 73.1745 	 
C 	 59.5577 	 19.2066 	 71.2889 	 
H 	 59.9736 	 20.142 	 70.9441 	 
H 	 58.4854 	 19.3758 	 70.9803 	 
C 	 60.1693 	 18.1283 	 70.3938 	 
H 	 59.6623 	 17.1517 	 70.454 	 
H 	 59.8597 	 18.308 	 69.3646 	 
C 	 61.6512 	 17.9113 	 70.5945 	 
H 	 61.847 	 17.2918 	 71.4497 	 
H 	 62.1542 	 17.4377 	 69.7436 	 
H 	 62.2066 	 18.8228 	 70.7885 	 
S 	 59.7283 	 17.074 	 77.2449 	 
C 	 58.4703 	 16.6397 	 78.3473 	 
C 	 57.2712 	 16.9368 	 77.8133 	 
C 	 57.29 	 17.5192 	 76.5096 	 
C 	 58.6228 	 17.7971 	 76.0753 	 
H 	 56.3312 	 16.6912 	 78.2758 	 
C 	 56.1436 	 17.9154 	 75.6302 	 
H 	 56.3166 	 17.2742 	 74.7496 	 
H 	 56.3075 	 18.9927 	 75.4147 	 
C 	 54.7507 	 17.7132 	 76.0791 	 
H 	 54.5814 	 16.6478 	 76.3123 	 
H 	 54.1637 	 18.0476 	 75.2735 	 
C 	 54.29 	 18.659 	 77.2373 	 
H 	 54.2649 	 19.6372 	 76.7109 	 
H 	 54.9867 	 18.7627 	 78.0057 	 
H 	 53.3217 	 18.4681 	 77.8481 	 
H 	 61.1601 	 20.7787 	 73.0811 	 
H 	 58.5921 	 15.9761 	 79.1573 	 
*
