! wB97X-D3 SP def2-SVP
%pal
nprocs 16
end

* xyz 0 1
S 	 -36.8426 	 71.0975 	 106.826 	 
C 	 -36.4862 	 70.4397 	 105.258 	 
C 	 -35.5916 	 71.2576 	 104.586 	 
C 	 -35.427 	 72.5407 	 105.213 	 
C 	 -36.0177 	 72.6018 	 106.428 	 
H 	 -34.8388 	 73.3538 	 104.852 	 
C 	 -34.8437 	 70.794 	 103.378 	 
H 	 -34.5944 	 71.6785 	 102.89 	 
H 	 -35.4202 	 70.3446 	 102.645 	 
C 	 -33.5149 	 69.9681 	 103.695 	 
H 	 -32.8142 	 70.4066 	 104.478 	 
H 	 -33.7765 	 68.8992 	 103.905 	 
C 	 -32.6482 	 69.9934 	 102.408 	 
H 	 -31.6656 	 69.5389 	 102.516 	 
H 	 -32.9642 	 69.5719 	 101.41 	 
H 	 -32.362 	 71.0252 	 102.203 	 
S 	 -35.7215 	 73.5778 	 109.065 	 
C 	 -35.3968 	 75.2745 	 109.252 	 
C 	 -35.5942 	 75.9907 	 108.082 	 
C 	 -35.8551 	 75.1009 	 107.01 	 
C 	 -35.9301 	 73.7654 	 107.309 	 
H 	 -35.7302 	 77.0619 	 108.062 	 
C 	 -36.1628 	 75.6709 	 105.616 	 
H 	 -36.4406 	 74.8452 	 104.998 	 
H 	 -35.2282 	 75.9111 	 105.123 	 
C 	 -37.1889 	 76.8406 	 105.476 	 
H 	 -37.1517 	 77.2032 	 104.476 	 
H 	 -37.0192 	 77.7345 	 106.046 	 
C 	 -38.644 	 76.4437 	 105.782 	 
H 	 -39.1894 	 77.3743 	 105.863 	 
H 	 -38.8179 	 75.8984 	 106.709 	 
H 	 -39.0092 	 75.8297 	 104.98 	 
H 	 -36.7208 	 69.4081 	 104.893 	 
H 	 -35.1572 	 75.8083 	 110.188 	 
*
