! wB97X-D3 SP def2-SVP
%pal
nprocs 16
end

* xyz 0 1
S 	 1.38985 	 -28.1339 	 83.7696 	 
C 	 0.924604 	 -29.826 	 83.7371 	 
C 	 0.712187 	 -30.3103 	 85.0293 	 
C 	 1.12848 	 -29.3875 	 86.0681 	 
C 	 1.43739 	 -28.1076 	 85.5444 	 
H 	 1.24385 	 -29.6054 	 87.0806 	 
C 	 0.177223 	 -31.6726 	 85.4415 	 
H 	 -0.285849 	 -31.9736 	 84.4926 	 
H 	 -0.587172 	 -31.534 	 86.2622 	 
C 	 1.17307 	 -32.8121 	 85.792 	 
H 	 0.58234 	 -33.7258 	 86.0731 	 
H 	 1.68223 	 -33.0619 	 84.8544 	 
C 	 2.24335 	 -32.4282 	 86.835 	 
H 	 2.80256 	 -31.4759 	 86.5065 	 
H 	 1.75954 	 -32.0828 	 87.7517 	 
H 	 3.03527 	 -33.226 	 86.9496 	 
S 	 3.54478 	 -26.4352 	 86.3974 	 
C 	 3.12665 	 -25.3805 	 87.7089 	 
C 	 1.83071 	 -25.3456 	 87.9915 	 
C 	 1.05537 	 -26.2621 	 87.2425 	 
C 	 1.83481 	 -26.9908 	 86.3793 	 
H 	 1.40941 	 -24.6775 	 88.732 	 
C 	 -0.309049 	 -26.6134 	 87.6828 	 
H 	 -0.560101 	 -26.0161 	 88.5701 	 
H 	 -0.223719 	 -27.674 	 87.8783 	 
C 	 -1.42969 	 -26.4434 	 86.6417 	 
H 	 -1.23786 	 -26.8876 	 85.6697 	 
H 	 -1.45871 	 -25.2853 	 86.501 	 
C 	 -2.7213 	 -26.9574 	 87.1725 	 
H 	 -2.56862 	 -27.9115 	 87.6223 	 
H 	 -3.46855 	 -26.8952 	 86.3872 	 
H 	 -3.06178 	 -26.3399 	 87.9722 	 
H 	 0.505894 	 -30.3843 	 82.8917 	 
H 	 3.76639 	 -24.7987 	 88.3006 	 
*
