! wB97X-D3 SP def2-SVP
%pal
nprocs 16
end

* xyz 0 1
S 	 -36.9278 	 52.7013 	 110.698 	 
C 	 -37.9181 	 53.9505 	 111.456 	 
C 	 -38.9717 	 53.3819 	 112.166 	 
C 	 -39.1467 	 51.9868 	 111.88 	 
C 	 -38.203 	 51.5087 	 110.941 	 
H 	 -39.8584 	 51.2591 	 112.324 	 
C 	 -39.964 	 54.1041 	 113.061 	 
H 	 -39.4909 	 55.0329 	 113.449 	 
H 	 -40.2069 	 53.428 	 113.882 	 
C 	 -41.3984 	 54.2843 	 112.38 	 
H 	 -41.6187 	 53.3813 	 111.803 	 
H 	 -42.1326 	 54.4551 	 113.127 	 
C 	 -41.3874 	 55.5765 	 111.493 	 
H 	 -42.3567 	 55.6132 	 110.977 	 
H 	 -41.2098 	 56.4193 	 112.113 	 
H 	 -40.5893 	 55.5336 	 110.73 	 
S 	 -36.4254 	 49.5039 	 110.908 	 
C 	 -36.8405 	 47.8953 	 110.339 	 
C 	 -38.1683 	 47.9021 	 109.955 	 
C 	 -38.8026 	 49.2182 	 109.95 	 
C 	 -37.9299 	 50.1438 	 110.535 	 
H 	 -38.6225 	 46.909 	 109.634 	 
C 	 -40.2797 	 49.4135 	 109.669 	 
H 	 -40.4129 	 48.8196 	 108.816 	 
H 	 -40.6047 	 50.4349 	 109.483 	 
C 	 -41.2009 	 48.8803 	 110.79 	 
H 	 -41.1223 	 49.6245 	 111.586 	 
H 	 -40.8185 	 47.9124 	 111.164 	 
C 	 -42.6783 	 48.7199 	 110.503 	 
H 	 -43.1153 	 48.1943 	 111.307 	 
H 	 -42.9074 	 48.14 	 109.693 	 
H 	 -43.0739 	 49.737 	 110.361 	 
H 	 -37.5541 	 55.0023 	 111.522 	 
H 	 -36.2099 	 47.0265 	 110.396 	 
*
