! wB97X-D3 SP def2-SVP
%pal
nprocs 16
end

* xyz 0 1
S 	 -37.7903 	 51.6385 	 106.876 	 
C 	 -37.7193 	 51.9484 	 108.608 	 
C 	 -38.8022 	 51.3392 	 109.223 	 
C 	 -39.6003 	 50.5645 	 108.329 	 
C 	 -39.2535 	 50.7913 	 107.015 	 
H 	 -40.415 	 49.9557 	 108.539 	 
C 	 -39.2639 	 51.4401 	 110.678 	 
H 	 -39.9429 	 50.585 	 110.985 	 
H 	 -39.7447 	 52.4209 	 110.856 	 
C 	 -38.1038 	 51.3416 	 111.597 	 
H 	 -37.2679 	 51.9987 	 111.563 	 
H 	 -38.4455 	 51.6265 	 112.572 	 
C 	 -37.4258 	 49.9636 	 111.614 	 
H 	 -38.1396 	 49.051 	 111.727 	 
H 	 -37.0632 	 49.7515 	 110.588 	 
H 	 -36.6406 	 49.8669 	 112.255 	 
S 	 -38.663 	 49.2377 	 104.905 	 
C 	 -40.0485 	 48.5602 	 104.006 	 
C 	 -41.2865 	 49.0047 	 104.401 	 
C 	 -41.1655 	 49.9626 	 105.438 	 
C 	 -39.83 	 50.1219 	 105.852 	 
H 	 -42.1679 	 48.5949 	 103.938 	 
C 	 -42.429 	 50.4402 	 106.065 	 
H 	 -43.2191 	 50.4206 	 105.253 	 
H 	 -42.3837 	 51.4478 	 106.454 	 
C 	 -42.9745 	 49.4992 	 107.141 	 
H 	 -42.1793 	 49.13 	 107.819 	 
H 	 -43.2855 	 48.511 	 106.692 	 
C 	 -44.0108 	 50.1434 	 108.01 	 
H 	 -44.3927 	 49.4091 	 108.716 	 
H 	 -44.8195 	 50.4894 	 107.405 	 
H 	 -43.6972 	 51.0824 	 108.383 	 
H 	 -37.0021 	 52.5005 	 109.192 	 
H 	 -39.9383 	 47.9191 	 103.139 	 
*
