! wB97X-D3 SP def2-SVP
%pal
nprocs 16
end

* xyz 0 1
S 	 18.7097 	 -9.93754 	 80.839 	 
C 	 19.3826 	 -11.2466 	 81.7736 	 
C 	 20.6917 	 -11.4923 	 81.3971 	 
C 	 21.1987 	 -10.519 	 80.4951 	 
C 	 20.2405 	 -9.61336 	 80.0702 	 
H 	 22.2268 	 -10.4397 	 80.1166 	 
C 	 21.5557 	 -12.5731 	 82.0382 	 
H 	 21.2303 	 -12.9216 	 82.9958 	 
H 	 22.5366 	 -12.0737 	 82.1951 	 
C 	 21.7286 	 -13.8895 	 81.1565 	 
H 	 20.7642 	 -14.1593 	 80.7518 	 
H 	 22.2757 	 -13.6196 	 80.3133 	 
C 	 22.5106 	 -15.137 	 81.7949 	 
H 	 23.548 	 -14.9073 	 82.1573 	 
H 	 22.0893 	 -15.5235 	 82.6772 	 
H 	 22.8104 	 -15.8831 	 80.9655 	 
S 	 20.0123 	 -6.89979 	 80.2141 	 
C 	 20.1319 	 -5.92452 	 78.7767 	 
C 	 20.9032 	 -6.59383 	 77.8254 	 
C 	 20.9986 	 -7.97412 	 78.125 	 
C 	 20.4378 	 -8.37271 	 79.3124 	 
H 	 21.2162 	 -6.11025 	 76.8772 	 
C 	 21.7072 	 -8.88046 	 77.0908 	 
H 	 22.1322 	 -9.7872 	 77.5887 	 
H 	 22.6474 	 -8.41827 	 76.7422 	 
C 	 20.8421 	 -9.36566 	 75.9221 	 
H 	 20.4603 	 -8.50928 	 75.371 	 
H 	 19.841 	 -9.78579 	 76.1945 	 
C 	 21.5396 	 -10.4064 	 75.0984 	 
H 	 21.7082 	 -11.3484 	 75.6531 	 
H 	 22.5009 	 -10.0246 	 74.8539 	 
H 	 21.1024 	 -10.559 	 74.1355 	 
H 	 18.804 	 -11.8199 	 82.544 	 
H 	 19.9613 	 -4.84164 	 78.8006 	 
*
