! wB97X-D3 SP def2-SVP
%pal
nprocs 16
end

* xyz 0 1
S 	 -64.7607 	 45.4516 	 120.298 	 
C 	 -64.935 	 44.0785 	 121.408 	 
C 	 -65.2167 	 44.532 	 122.694 	 
C 	 -65.2438 	 45.9647 	 122.762 	 
C 	 -64.8156 	 46.6698 	 121.609 	 
H 	 -65.4609 	 46.4979 	 123.672 	 
C 	 -65.6064 	 43.6769 	 123.891 	 
H 	 -65.7095 	 44.3288 	 124.75 	 
H 	 -64.8797 	 42.885 	 124.119 	 
C 	 -66.9853 	 42.9759 	 123.709 	 
H 	 -67.7128 	 43.6223 	 123.123 	 
H 	 -66.7184 	 42.1035 	 123.107 	 
C 	 -67.6095 	 42.4595 	 125.045 	 
H 	 -68.6206 	 42.2464 	 124.884 	 
H 	 -67.2296 	 41.5474 	 125.482 	 
H 	 -67.6129 	 43.3282 	 125.75 	 
S 	 -65.226 	 48.582 	 119.85 	 
C 	 -65.1163 	 50.2516 	 120.316 	 
C 	 -64.7318 	 50.4033 	 121.613 	 
C 	 -64.6126 	 49.1046 	 122.287 	 
C 	 -64.8676 	 48.0817 	 121.44 	 
H 	 -64.5741 	 51.3847 	 122.05 	 
C 	 -64.2715 	 48.9651 	 123.745 	 
H 	 -63.465 	 49.6432 	 123.992 	 
H 	 -63.8682 	 47.8841 	 123.791 	 
C 	 -65.4886 	 49.0473 	 124.716 	 
H 	 -66.2228 	 48.388 	 124.267 	 
H 	 -65.8571 	 50.1079 	 124.868 	 
C 	 -65.1119 	 48.561 	 126.144 	 
H 	 -65.1724 	 47.4282 	 126.246 	 
H 	 -65.9358 	 48.8534 	 126.847 	 
H 	 -64.2709 	 49.0257 	 126.558 	 
H 	 -65.0643 	 43.0082 	 121.178 	 
H 	 -65.2852 	 51.0948 	 119.751 	 
*
