! wB97X-D3 SP def2-SVP
%pal
nprocs 16
end

* xyz 0 1
S 	 -42.2032 	 25.5672 	 79.1123 	 
C 	 -41.4085 	 25.6342 	 80.623 	 
C 	 -40.3206 	 24.7203 	 80.6446 	 
C 	 -40.3763 	 23.8264 	 79.4999 	 
C 	 -41.358 	 24.045 	 78.6835 	 
H 	 -39.6579 	 23.0266 	 79.2906 	 
C 	 -39.3516 	 24.56 	 81.7515 	 
H 	 -38.8497 	 23.5689 	 81.7697 	 
H 	 -40.0091 	 24.5527 	 82.6303 	 
C 	 -38.3838 	 25.7039 	 81.8828 	 
H 	 -37.68 	 25.5244 	 82.665 	 
H 	 -37.7009 	 25.8477 	 80.9798 	 
C 	 -39.0434 	 27.0689 	 82.1143 	 
H 	 -38.2151 	 27.8219 	 82.2848 	 
H 	 -39.5462 	 27.4516 	 81.2083 	 
H 	 -39.799 	 27.03 	 82.8844 	 
S 	 -43.0302 	 23.1192 	 76.7148 	 
C 	 -42.526 	 22.4033 	 75.2388 	 
C 	 -41.1272 	 22.4667 	 75.2008 	 
C 	 -40.5391 	 23.0637 	 76.3838 	 
C 	 -41.4318 	 23.4245 	 77.3586 	 
H 	 -40.6255 	 21.898 	 74.4152 	 
C 	 -39.0272 	 23.0999 	 76.539 	 
H 	 -38.6078 	 22.1628 	 75.9817 	 
H 	 -38.7079 	 22.9037 	 77.5754 	 
C 	 -38.4203 	 24.4003 	 75.9649 	 
H 	 -38.9045 	 24.7057 	 74.9824 	 
H 	 -37.3003 	 24.3638 	 75.8858 	 
C 	 -38.8548 	 25.6944 	 76.7577 	 
H 	 -38.5532 	 25.6056 	 77.8222 	 
H 	 -39.9371 	 25.9578 	 76.8133 	 
H 	 -38.4112 	 26.4687 	 76.2506 	 
H 	 -41.6668 	 26.3801 	 81.4742 	 
H 	 -43.1726 	 22.0602 	 74.4661 	 
*
