! wB97X-D3 SP def2-SVP
%pal
nprocs 16
end

* xyz 0 1
S 	 -33.2171 	 74.603 	 152.877 	 
C 	 -31.77 	 74.6161 	 151.863 	 
C 	 -31.6401 	 73.4853 	 151.109 	 
C 	 -32.8145 	 72.6621 	 151.25 	 
C 	 -33.8505 	 73.1479 	 152.048 	 
H 	 -33.0333 	 71.7586 	 150.714 	 
C 	 -30.6021 	 73.1986 	 150.034 	 
H 	 -30.4754 	 72.1089 	 150.022 	 
H 	 -29.792 	 73.6789 	 150.476 	 
C 	 -31.0227 	 73.6133 	 148.639 	 
H 	 -31.9705 	 73.223 	 148.337 	 
H 	 -31.1539 	 74.7515 	 148.662 	 
C 	 -29.9993 	 73.2742 	 147.552 	 
H 	 -30.2788 	 73.9577 	 146.741 	 
H 	 -28.9331 	 73.502 	 147.759 	 
H 	 -29.8847 	 72.2173 	 147.271 	 
S 	 -36.576 	 73.5332 	 152.11 	 
C 	 -37.5982 	 72.1388 	 152.564 	 
C 	 -36.8469 	 70.9806 	 152.648 	 
C 	 -35.4229 	 71.2282 	 152.669 	 
C 	 -35.1524 	 72.5676 	 152.389 	 
H 	 -37.248 	 70.059 	 152.753 	 
C 	 -34.4319 	 70.1339 	 152.918 	 
H 	 -33.4542 	 70.5284 	 152.635 	 
H 	 -34.7978 	 69.4281 	 152.18 	 
C 	 -34.3102 	 69.5911 	 154.376 	 
H 	 -33.5732 	 68.6982 	 154.325 	 
H 	 -35.225 	 69.2041 	 154.661 	 
C 	 -33.8485 	 70.6906 	 155.361 	 
H 	 -33.3998 	 70.2162 	 156.151 	 
H 	 -34.7231 	 71.1666 	 155.844 	 
H 	 -33.2205 	 71.5032 	 154.923 	 
H 	 -30.9911 	 75.3782 	 151.997 	 
H 	 -38.6833 	 72.1176 	 152.453 	 
*
