! wB97X-D3 SP def2-SVP
%pal
nprocs 16
end

* xyz 0 1
S 	 6.01032 	 -27.0082 	 83.7353 	 
C 	 6.85323 	 -28.5829 	 83.7722 	 
C 	 7.94705 	 -28.5191 	 82.9405 	 
C 	 8.21078 	 -27.1646 	 82.491 	 
C 	 7.3436 	 -26.237 	 82.9114 	 
H 	 8.91342 	 -26.8582 	 81.7302 	 
C 	 8.98859 	 -29.5732 	 82.7168 	 
H 	 9.32797 	 -29.5804 	 81.6994 	 
H 	 8.49291 	 -30.5561 	 82.7392 	 
C 	 10.181 	 -29.5143 	 83.7095 	 
H 	 10.7838 	 -28.6108 	 83.5745 	 
H 	 9.71942 	 -29.5066 	 84.7119 	 
C 	 11.025 	 -30.7501 	 83.6969 	 
H 	 11.0394 	 -31.2943 	 82.7818 	 
H 	 12.0316 	 -30.4455 	 84.0611 	 
H 	 10.6961 	 -31.5188 	 84.4027 	 
S 	 5.71952 	 -24.1495 	 82.3845 	 
C 	 6.34728 	 -22.7619 	 81.6251 	 
C 	 7.73849 	 -22.7245 	 81.6072 	 
C 	 8.3184 	 -23.9067 	 82.1576 	 
C 	 7.34164 	 -24.8687 	 82.4798 	 
H 	 8.2557 	 -21.8688 	 81.1695 	 
C 	 9.82341 	 -24.1291 	 82.2757 	 
H 	 10.3206 	 -23.1846 	 81.9619 	 
H 	 10.1277 	 -24.8493 	 81.5734 	 
C 	 10.4077 	 -24.3869 	 83.7235 	 
H 	 10.0252 	 -25.289 	 84.1672 	 
H 	 10.164 	 -23.5123 	 84.3652 	 
C 	 11.9296 	 -24.6544 	 83.7459 	 
H 	 12.197 	 -24.8258 	 84.7925 	 
H 	 12.6687 	 -23.9588 	 83.3431 	 
H 	 12.1333 	 -25.6346 	 83.261 	 
H 	 6.49693 	 -29.4919 	 84.0851 	 
H 	 5.77428 	 -21.8963 	 81.3655 	 
*
