! wB97X-D3 SP def2-SVP
%pal
nprocs 16
end

* xyz 0 1
S 	 44.2322 	 18.7274 	 86.8879 	 
C 	 42.7016 	 19.4376 	 87.1491 	 
C 	 41.8297 	 18.9767 	 86.1842 	 
C 	 42.4687 	 18.1324 	 85.2256 	 
C 	 43.7354 	 17.8585 	 85.5241 	 
H 	 42.0773 	 17.6485 	 84.374 	 
C 	 40.4159 	 19.53 	 86.0034 	 
H 	 39.848 	 18.6335 	 85.8522 	 
H 	 40.3909 	 19.9906 	 84.9978 	 
C 	 39.9121 	 20.5666 	 87.0095 	 
H 	 40.0951 	 20.1821 	 88.0119 	 
H 	 40.4541 	 21.4223 	 86.8274 	 
C 	 38.4275 	 20.9836 	 86.7984 	 
H 	 38.2177 	 21.4608 	 85.8258 	 
H 	 37.8792 	 20.0523 	 87.0264 	 
H 	 38.2668 	 21.7799 	 87.5753 	 
S 	 46.3804 	 17.6655 	 84.4133 	 
C 	 46.6894 	 16.4252 	 83.2199 	 
C 	 45.7397 	 15.4039 	 83.2067 	 
C 	 44.6147 	 15.8038 	 83.9582 	 
C 	 44.6608 	 17.0544 	 84.6129 	 
H 	 45.907 	 14.5461 	 82.5629 	 
C 	 43.3425 	 15.0148 	 83.847 	 
H 	 43.474 	 14.1798 	 83.2412 	 
H 	 42.6839 	 15.715 	 83.2423 	 
C 	 42.8423 	 14.4477 	 85.2291 	 
H 	 42.6574 	 15.2672 	 85.9786 	 
H 	 43.5613 	 13.8269 	 85.7514 	 
C 	 41.5092 	 13.6862 	 85.0125 	 
H 	 41.6131 	 12.8212 	 84.4504 	 
H 	 40.7347 	 14.3741 	 84.6607 	 
H 	 41.0994 	 13.3472 	 86.0092 	 
H 	 42.3668 	 20.1765 	 87.8644 	 
H 	 47.6468 	 16.2547 	 82.7221 	 
*
