! wB97X-D3 SP def2-SVP
%pal
nprocs 16
end

* xyz 0 1
S 	 -44.4718 	 16.6816 	 81.7644 	 
C 	 -43.1647 	 15.5611 	 81.9447 	 
C 	 -42.3022 	 15.9292 	 82.9184 	 
C 	 -42.7079 	 17.242 	 83.5036 	 
C 	 -43.9011 	 17.7601 	 82.9673 	 
H 	 -42.1864 	 17.8433 	 84.2815 	 
C 	 -41.0798 	 15.1427 	 83.2466 	 
H 	 -41.2736 	 14.142 	 83.5064 	 
H 	 -40.657 	 15.6359 	 84.1817 	 
C 	 -40.0421 	 15.2736 	 82.1408 	 
H 	 -39.2473 	 14.5886 	 82.4524 	 
H 	 -40.4773 	 14.8333 	 81.2193 	 
C 	 -39.3714 	 16.674 	 81.9786 	 
H 	 -38.8432 	 17.1259 	 82.8047 	 
H 	 -38.7504 	 16.737 	 81.0374 	 
H 	 -40.093 	 17.3744 	 81.6364 	 
S 	 -44.2742 	 20.3969 	 82.4185 	 
C 	 -45.6935 	 21.146 	 83.0185 	 
C 	 -46.2746 	 20.3684 	 83.9882 	 
C 	 -45.6151 	 19.1618 	 84.1541 	 
C 	 -44.5518 	 18.9666 	 83.3422 	 
H 	 -47.1383 	 20.7087 	 84.5358 	 
C 	 -46.0496 	 18.1071 	 85.1947 	 
H 	 -46.1738 	 17.2412 	 84.6138 	 
H 	 -47.007 	 18.4711 	 85.5315 	 
C 	 -45.1258 	 17.9209 	 86.4358 	 
H 	 -44.1574 	 17.5909 	 86.0707 	 
H 	 -45.4613 	 17.1385 	 87.1021 	 
C 	 -45.0123 	 19.1402 	 87.3863 	 
H 	 -44.316 	 18.8201 	 88.1284 	 
H 	 -45.9385 	 19.3975 	 87.9191 	 
H 	 -44.6159 	 19.9708 	 86.7763 	 
H 	 -43.0163 	 14.6504 	 81.2913 	 
H 	 -46.0723 	 22.1469 	 82.8051 	 
*
