! wB97X-D3 SP def2-SVP
%pal
nprocs 16
end

* xyz 0 1
S 	 29.9795 	 -7.12392 	 81.9911 	 
C 	 31.18 	 -6.61027 	 80.8126 	 
C 	 30.5797 	 -5.87019 	 79.7609 	 
C 	 29.1383 	 -5.89436 	 79.8738 	 
C 	 28.6816 	 -6.60255 	 81.0105 	 
H 	 28.4228 	 -5.48897 	 79.2308 	 
C 	 31.2622 	 -5.2194 	 78.6247 	 
H 	 30.4745 	 -4.64933 	 78.0892 	 
H 	 31.5821 	 -5.94984 	 77.8369 	 
C 	 32.4338 	 -4.42653 	 79.0287 	 
H 	 33.2351 	 -4.99347 	 79.3562 	 
H 	 32.692 	 -4.03025 	 78.0524 	 
C 	 32.0812 	 -3.16593 	 79.9324 	 
H 	 32.9065 	 -2.46988 	 80.0969 	 
H 	 31.3428 	 -2.57164 	 79.4636 	 
H 	 31.7394 	 -3.57764 	 80.849 	 
S 	 26.6015 	 -8.42882 	 81.4941 	 
C 	 24.9773 	 -7.86943 	 81.9436 	 
C 	 24.9986 	 -6.51795 	 82.1645 	 
C 	 26.2725 	 -5.94444 	 81.8814 	 
C 	 27.2766 	 -6.80442 	 81.4418 	 
H 	 24.1216 	 -6.02172 	 82.4952 	 
C 	 26.5203 	 -4.48854 	 82.0241 	 
H 	 25.5892 	 -3.90573 	 82.2096 	 
H 	 26.7503 	 -4.14219 	 81.0414 	 
C 	 27.4778 	 -4.21935 	 83.184 	 
H 	 27.4557 	 -3.15995 	 83.3223 	 
H 	 28.411 	 -4.56292 	 82.7535 	 
C 	 27.1206 	 -4.90671 	 84.5278 	 
H 	 27.2231 	 -5.96121 	 84.5128 	 
H 	 26.0848 	 -4.69416 	 84.7867 	 
H 	 27.6085 	 -4.41425 	 85.4011 	 
H 	 32.2134 	 -6.8903 	 80.8481 	 
H 	 24.0524 	 -8.39094 	 82.0087 	 
*
