! wB97X-D3 SP def2-SVP
%pal
nprocs 16
end

* xyz 0 1
S 	 -38.5274 	 54.6523 	 108.327 	 
C 	 -37.7271 	 56.1772 	 108.279 	 
C 	 -38.2726 	 57.0658 	 109.252 	 
C 	 -39.475 	 56.522 	 109.835 	 
C 	 -39.6898 	 55.1881 	 109.59 	 
H 	 -40.0735 	 57.0591 	 110.526 	 
C 	 -37.9174 	 58.5199 	 109.182 	 
H 	 -38.4935 	 58.9764 	 109.976 	 
H 	 -38.2458 	 59.0787 	 108.212 	 
C 	 -36.4594 	 58.7829 	 109.364 	 
H 	 -35.8184 	 58.2461 	 108.694 	 
H 	 -36.1904 	 59.7814 	 109.281 	 
C 	 -35.9853 	 58.4863 	 110.821 	 
H 	 -36.4018 	 57.4974 	 111.019 	 
H 	 -34.8486 	 58.3155 	 110.882 	 
H 	 -36.2857 	 59.0797 	 111.66 	 
S 	 -39.983 	 52.6245 	 110.529 	 
C 	 -41.5885 	 52.1256 	 111.061 	 
C 	 -42.5015 	 53.1655 	 111.016 	 
C 	 -41.9092 	 54.4058 	 110.63 	 
C 	 -40.5746 	 54.2298 	 110.212 	 
H 	 -43.5511 	 53.0523 	 111.331 	 
C 	 -42.6852 	 55.6631 	 110.503 	 
H 	 -41.9699 	 56.4361 	 110.875 	 
H 	 -43.5659 	 55.6538 	 111.172 	 
C 	 -43.1428 	 55.9666 	 109.131 	 
H 	 -42.3136 	 55.9231 	 108.408 	 
H 	 -43.5478 	 57.0182 	 109.099 	 
C 	 -44.257 	 55.0448 	 108.69 	 
H 	 -43.8735 	 53.9987 	 108.725 	 
H 	 -44.5431 	 55.0769 	 107.671 	 
H 	 -45.1724 	 55.067 	 109.303 	 
H 	 -36.7982 	 56.4428 	 107.778 	 
H 	 -41.7768 	 51.163 	 111.621 	 
*
