! wB97X-D3 SP def2-SVP
%pal
nprocs 16
end

* xyz 0 1
S 	 -14.7624 	 40.5838 	 30.9007 	 
C 	 -15.8138 	 39.5957 	 31.9417 	 
C 	 -17.1288 	 40.1321 	 31.8874 	 
C 	 -17.2624 	 41.2526 	 31.0378 	 
C 	 -16.0761 	 41.5408 	 30.3438 	 
H 	 -18.2185 	 41.7657 	 30.9647 	 
C 	 -18.2183 	 39.6923 	 32.8713 	 
H 	 -18.7113 	 38.8803 	 32.3829 	 
H 	 -19.0168 	 40.3624 	 32.8639 	 
C 	 -17.786 	 39.3984 	 34.3123 	 
H 	 -18.7198 	 39.2531 	 34.8686 	 
H 	 -17.3376 	 38.4447 	 34.3911 	 
C 	 -16.9874 	 40.6073 	 34.9482 	 
H 	 -16.0463 	 40.8412 	 34.4941 	 
H 	 -17.6605 	 41.4431 	 35.0273 	 
H 	 -16.7035 	 40.3032 	 35.9784 	 
S 	 -16.0611 	 42.1303 	 27.5826 	 
C 	 -15.4077 	 43.688 	 27.0213 	 
C 	 -15.2808 	 44.5032 	 28.1396 	 
C 	 -15.5493 	 43.943 	 29.4389 	 
C 	 -15.8525 	 42.5776 	 29.3226 	 
H 	 -15.0661 	 45.5549 	 27.8352 	 
C 	 -15.3658 	 44.5846 	 30.7251 	 
H 	 -14.3742 	 44.9922 	 30.6864 	 
H 	 -15.3587 	 43.7795 	 31.5552 	 
C 	 -16.5081 	 45.496 	 31.115 	 
H 	 -16.422 	 45.9339 	 32.1109 	 
H 	 -17.4123 	 44.9352 	 31.0111 	 
C 	 -16.6141 	 46.727 	 30.189 	 
H 	 -17.4296 	 47.5056 	 30.4482 	 
H 	 -16.6559 	 46.4088 	 29.1549 	 
H 	 -15.6963 	 47.3745 	 30.2962 	 
H 	 -15.6596 	 38.7571 	 32.5728 	 
H 	 -15.2228 	 44.0122 	 26.0174 	 
*
