! wB97X-D3 SP def2-SVP
%pal
nprocs 16
end

* xyz 0 1
S 	 7.14271 	 -25.7759 	 83.8338 	 
C 	 5.5583 	 -25.1713 	 83.6989 	 
C 	 5.44052 	 -24.3676 	 82.516 	 
C 	 6.74165 	 -24.2025 	 81.8686 	 
C 	 7.71445 	 -25.0165 	 82.3514 	 
H 	 7.00421 	 -23.616 	 81.0015 	 
C 	 4.22735 	 -23.6301 	 82.0596 	 
H 	 3.35782 	 -24.3103 	 82.3809 	 
H 	 4.2716 	 -23.5956 	 80.9487 	 
C 	 4.09051 	 -22.2074 	 82.5563 	 
H 	 4.09244 	 -22.2357 	 83.606 	 
H 	 5.00222 	 -21.6467 	 82.2006 	 
C 	 2.79033 	 -21.5032 	 82.0944 	 
H 	 2.87876 	 -20.405 	 82.358 	 
H 	 2.5532 	 -21.6611 	 81.0543 	 
H 	 1.9128 	 -21.7624 	 82.6534 	 
S 	 9.66032 	 -26.866 	 82.1301 	 
C 	 11.0348 	 -26.6553 	 81.1401 	 
C 	 11.017 	 -25.4464 	 80.507 	 
C 	 9.82819 	 -24.6941 	 80.845 	 
C 	 8.96207 	 -25.4039 	 81.6471 	 
H 	 11.7764 	 -25.0124 	 79.8811 	 
C 	 9.70451 	 -23.2475 	 80.3966 	 
H 	 10.5619 	 -22.9137 	 80.8445 	 
H 	 8.86157 	 -22.8226 	 80.8949 	 
C 	 9.64235 	 -23.0315 	 78.9144 	 
H 	 8.74388 	 -23.565 	 78.5334 	 
H 	 10.4599 	 -23.5261 	 78.3267 	 
C 	 9.66558 	 -21.5333 	 78.6619 	 
H 	 10.7563 	 -21.2384 	 78.7941 	 
H 	 8.94638 	 -20.8976 	 79.2056 	 
H 	 9.43449 	 -21.3503 	 77.6146 	 
H 	 4.65089 	 -25.1725 	 84.3044 	 
H 	 11.9263 	 -27.279 	 81.1134 	 
*
