! wB97X-D3 SP def2-SVP
%pal
nprocs 16
end

* xyz 0 1
S 	 -0.311577 	 61.3584 	 49.5969 	 
C 	 -1.81458 	 62.1075 	 50.1725 	 
C 	 -2.52546 	 62.7737 	 49.1656 	 
C 	 -1.83249 	 62.6668 	 47.8692 	 
C 	 -0.682298 	 61.9014 	 47.9096 	 
H 	 -2.2627 	 63.1236 	 46.9292 	 
C 	 -3.9362 	 63.3736 	 49.3404 	 
H 	 -4.21586 	 63.8451 	 48.3748 	 
H 	 -3.7541 	 64.1884 	 50.0685 	 
C 	 -5.03498 	 62.3689 	 49.7066 	 
H 	 -5.06636 	 61.6994 	 48.7811 	 
H 	 -4.75466 	 61.8649 	 50.6052 	 
C 	 -6.41722 	 62.9882 	 50.0117 	 
H 	 -6.77679 	 63.6012 	 49.1089 	 
H 	 -7.08168 	 62.1783 	 50.2146 	 
H 	 -6.34251 	 63.7224 	 50.7903 	 
S 	 1.85002 	 61.9997 	 46.7856 	 
C 	 2.04062 	 61.2574 	 45.2273 	 
C 	 0.922832 	 60.5727 	 44.8199 	 
C 	 -0.198186 	 60.7879 	 45.6999 	 
C 	 0.120656 	 61.6225 	 46.7474 	 
H 	 0.913876 	 59.9481 	 43.9014 	 
C 	 -1.54721 	 60.174 	 45.4887 	 
H 	 -1.63325 	 59.7622 	 44.5341 	 
H 	 -2.16785 	 60.9943 	 45.6193 	 
C 	 -2.00143 	 59.224 	 46.5339 	 
H 	 -2.19327 	 59.8947 	 47.3582 	 
H 	 -1.21945 	 58.5452 	 46.6742 	 
C 	 -3.2032 	 58.4258 	 46.2008 	 
H 	 -3.37185 	 58.1469 	 45.1573 	 
H 	 -4.02601 	 59.0359 	 46.5378 	 
H 	 -3.37077 	 57.4845 	 46.8009 	 
H 	 -2.18778 	 61.9482 	 51.1139 	 
H 	 2.92916 	 61.1404 	 44.7159 	 
*
