! wB97X-D3 SP def2-SVP
%pal
nprocs 16
end

* xyz 0 1
S 	 -112.582 	 49.4175 	 127.441 	 
C 	 -113.204 	 50.732 	 128.451 	 
C 	 -113.534 	 50.2805 	 129.745 	 
C 	 -113.24 	 48.921 	 129.919 	 
C 	 -112.858 	 48.2193 	 128.754 	 
H 	 -113.214 	 48.292 	 130.869 	 
C 	 -113.954 	 51.1213 	 130.891 	 
H 	 -114.796 	 50.5739 	 131.374 	 
H 	 -114.484 	 52.0579 	 130.578 	 
C 	 -112.849 	 51.3656 	 131.903 	 
H 	 -112.511 	 50.4228 	 132.23 	 
H 	 -112.007 	 51.9097 	 131.53 	 
C 	 -113.351 	 52.1122 	 133.184 	 
H 	 -114.275 	 51.505 	 133.568 	 
H 	 -112.531 	 52.296 	 133.93 	 
H 	 -113.724 	 53.1198 	 133.061 	 
S 	 -110.751 	 46.5669 	 128.006 	 
C 	 -110.982 	 44.778 	 128.175 	 
C 	 -112.287 	 44.4832 	 128.704 	 
C 	 -113.017 	 45.6384 	 129.006 	 
C 	 -112.389 	 46.8258 	 128.696 	 
H 	 -112.605 	 43.4776 	 128.81 	 
C 	 -114.374 	 45.4975 	 129.684 	 
H 	 -114.851 	 44.8255 	 129.022 	 
H 	 -114.941 	 46.523 	 129.565 	 
C 	 -114.374 	 44.932 	 131.102 	 
H 	 -113.783 	 45.6454 	 131.762 	 
H 	 -113.977 	 43.8961 	 131.176 	 
C 	 -115.829 	 44.9994 	 131.673 	 
H 	 -116.459 	 44.5417 	 130.91 	 
H 	 -116.073 	 46.0435 	 131.903 	 
H 	 -115.866 	 44.5459 	 132.629 	 
H 	 -113.218 	 51.7487 	 128.11 	 
H 	 -110.28 	 43.9008 	 128.011 	 
*
