! wB97X-D3 SP def2-SVP
%pal
nprocs 16
end

* xyz 0 1
S 	 52.0404 	 6.00328 	 83.1189 	 
C 	 52.5384 	 7.5966 	 82.5469 	 
C 	 51.5391 	 8.49826 	 82.6863 	 
C 	 50.4136 	 7.96306 	 83.4225 	 
C 	 50.5309 	 6.59345 	 83.7315 	 
H 	 49.4501 	 8.53395 	 83.4665 	 
C 	 51.6962 	 9.90613 	 82.2694 	 
H 	 52.6608 	 10.1697 	 82.5167 	 
H 	 51.0663 	 10.5631 	 82.8188 	 
C 	 51.5618 	 10.0513 	 80.743 	 
H 	 52.3616 	 9.4871 	 80.2419 	 
H 	 50.6187 	 9.72044 	 80.2934 	 
C 	 51.7375 	 11.4898 	 80.3079 	 
H 	 51.5786 	 11.5745 	 79.2852 	 
H 	 51.1092 	 12.083 	 80.8637 	 
H 	 52.7074 	 11.8466 	 80.6652 	 
S 	 48.8061 	 4.51011 	 83.2833 	 
C 	 47.6012 	 4.13569 	 84.4413 	 
C 	 47.6147 	 5.03851 	 85.4584 	 
C 	 48.609 	 6.09327 	 85.3835 	 
C 	 49.4221 	 5.81128 	 84.2665 	 
H 	 46.9326 	 4.8691 	 86.2437 	 
C 	 48.6599 	 7.24559 	 86.2875 	 
H 	 47.8273 	 7.9466 	 86.0377 	 
H 	 49.5926 	 7.81211 	 86.1507 	 
C 	 48.388 	 6.84813 	 87.7319 	 
H 	 47.4218 	 6.37811 	 87.7056 	 
H 	 48.0047 	 7.78728 	 88.2548 	 
C 	 49.4882 	 5.97965 	 88.4297 	 
H 	 50.3811 	 6.47373 	 88.6559 	 
H 	 49.738 	 5.26575 	 87.6609 	 
H 	 49.212 	 5.4504 	 89.3058 	 
H 	 53.4226 	 7.75783 	 81.9553 	 
H 	 46.819 	 3.36365 	 84.2954 	 
*
