! wB97X-D3 SP def2-SVP
%pal
nprocs 16
end

* xyz 0 1
S 	 -1.96304 	 -4.70127 	 75.0605 	 
C 	 -2.25688 	 -5.83299 	 76.3523 	 
C 	 -1.32467 	 -5.8826 	 77.3349 	 
C 	 -0.280907 	 -4.99264 	 77.0258 	 
C 	 -0.464249 	 -4.34741 	 75.8188 	 
H 	 0.654991 	 -4.68071 	 77.5409 	 
C 	 -1.43063 	 -6.73033 	 78.4993 	 
H 	 -1.78076 	 -7.6549 	 78.1858 	 
H 	 -2.20596 	 -6.29936 	 79.149 	 
C 	 -0.177161 	 -7.06029 	 79.3435 	 
H 	 -0.148277 	 -8.05566 	 79.7274 	 
H 	 0.579888 	 -7.04691 	 78.6108 	 
C 	 0.233532 	 -5.95469 	 80.3185 	 
H 	 0.396492 	 -4.99888 	 79.7812 	 
H 	 -0.513613 	 -5.79384 	 81.0433 	 
H 	 1.21991 	 -6.13031 	 80.9372 	 
S 	 1.71818 	 -3.73189 	 74.2209 	 
C 	 2.20981 	 -2.11346 	 73.9347 	 
C 	 1.32068 	 -1.19784 	 74.5402 	 
C 	 0.26445 	 -1.85049 	 75.2937 	 
C 	 0.3534 	 -3.28808 	 75.2446 	 
H 	 1.43703 	 -0.159369 	 74.3674 	 
C 	 -0.815887 	 -1.06455 	 76.0039 	 
H 	 -0.220476 	 -0.2969 	 76.6141 	 
H 	 -1.38137 	 -1.75252 	 76.6408 	 
C 	 -1.72544 	 -0.226613 	 75.0981 	 
H 	 -1.88303 	 -0.933313 	 74.2045 	 
H 	 -1.31663 	 0.672681 	 74.7364 	 
C 	 -2.95248 	 0.143021 	 75.9455 	 
H 	 -3.74964 	 0.576828 	 75.3403 	 
H 	 -2.66722 	 0.927123 	 76.6716 	 
H 	 -3.37565 	 -0.748829 	 76.5699 	 
H 	 -3.14239 	 -6.44301 	 76.3187 	 
H 	 2.81888 	 -1.76638 	 73.1208 	 
*
