! wB97X-D3 SP def2-SVP
%pal
nprocs 16
end

* xyz 0 1
S 	 -101.009 	 55.7494 	 119.411 	 
C 	 -99.8914 	 56.2198 	 118.094 	 
C 	 -100.461 	 57.1871 	 117.344 	 
C 	 -101.824 	 57.2949 	 117.619 	 
C 	 -102.219 	 56.5637 	 118.675 	 
H 	 -102.479 	 57.966 	 117.104 	 
C 	 -99.7699 	 58.003 	 116.199 	 
H 	 -98.9044 	 57.3329 	 115.918 	 
H 	 -99.361 	 58.925 	 116.566 	 
C 	 -100.727 	 58.3631 	 114.951 	 
H 	 -101.395 	 59.1528 	 115.151 	 
H 	 -99.9891 	 58.7695 	 114.206 	 
C 	 -101.485 	 57.2657 	 114.256 	 
H 	 -102.391 	 57.0139 	 114.641 	 
H 	 -101.664 	 57.6033 	 113.227 	 
H 	 -100.867 	 56.4079 	 114.091 	 
S 	 -104.75 	 55.5876 	 118.615 	 
C 	 -105.863 	 55.8076 	 119.901 	 
C 	 -105.369 	 56.7936 	 120.747 	 
C 	 -104.054 	 57.21 	 120.471 	 
C 	 -103.535 	 56.5903 	 119.29 	 
H 	 -105.899 	 57.0263 	 121.613 	 
C 	 -103.343 	 58.1856 	 121.383 	 
H 	 -102.417 	 57.5716 	 121.647 	 
H 	 -103.824 	 58.3677 	 122.354 	 
C 	 -102.924 	 59.5978 	 120.778 	 
H 	 -103.862 	 60.1421 	 120.508 	 
H 	 -102.36 	 59.5049 	 119.826 	 
C 	 -101.986 	 60.3949 	 121.776 	 
H 	 -102.522 	 60.6504 	 122.663 	 
H 	 -101.433 	 61.1792 	 121.285 	 
H 	 -101.121 	 59.7635 	 122.044 	 
H 	 -98.8086 	 55.8704 	 118.037 	 
H 	 -106.887 	 55.4049 	 120.021 	 
*
