! wB97X-D3 SP def2-SVP
%pal
nprocs 16
end

* xyz 0 1
S 	 -2.78439 	 -10.887 	 73.0515 	 
C 	 -3.38317 	 -12.4949 	 73.4648 	 
C 	 -2.97605 	 -13.3943 	 72.4823 	 
C 	 -2.18883 	 -12.695 	 71.4847 	 
C 	 -1.94122 	 -11.3599 	 71.6091 	 
H 	 -1.75177 	 -13.0573 	 70.6315 	 
C 	 -3.04153 	 -14.9113 	 72.622 	 
H 	 -2.2839 	 -15.2768 	 71.9196 	 
H 	 -4.08514 	 -15.2394 	 72.1536 	 
C 	 -2.86359 	 -15.4536 	 73.9713 	 
H 	 -1.89351 	 -15.2323 	 74.4468 	 
H 	 -3.6111 	 -15.1162 	 74.7029 	 
C 	 -3.01704 	 -17.006 	 73.8936 	 
H 	 -4.08703 	 -17.2797 	 73.9573 	 
H 	 -2.60224 	 -17.5404 	 73.0264 	 
H 	 -2.74219 	 -17.51 	 74.8621 	 
S 	 0.480981 	 -10.0216 	 71.7126 	 
C 	 1.22406 	 -9.40325 	 70.2602 	 
C 	 0.361107 	 -9.56268 	 69.179 	 
C 	 -0.84983 	 -10.2642 	 69.4978 	 
C 	 -0.999607 	 -10.5179 	 70.8399 	 
H 	 0.77576 	 -9.19401 	 68.2459 	 
C 	 -1.70289 	 -10.7586 	 68.4137 	 
H 	 -1.72264 	 -10.0672 	 67.6064 	 
H 	 -2.66223 	 -10.7869 	 68.8314 	 
C 	 -1.20598 	 -11.9656 	 67.5758 	 
H 	 -0.929502 	 -12.6801 	 68.3023 	 
H 	 -0.2654 	 -11.7515 	 66.9897 	 
C 	 -2.23788 	 -12.5815 	 66.5527 	 
H 	 -3.16711 	 -12.8521 	 66.994 	 
H 	 -1.87736 	 -13.5095 	 66.2032 	 
H 	 -2.4376 	 -11.8932 	 65.7247 	 
H 	 -3.87453 	 -12.7143 	 74.4174 	 
H 	 2.18038 	 -8.83263 	 70.2188 	 
*
