! wB97X-D3 SP def2-SVP
%pal
nprocs 16
end

* xyz 0 1
S 	 -2.38397 	 -22.6661 	 85.4692 	 
C 	 -1.38188 	 -22.4256 	 84.0542 	 
C 	 -0.800711 	 -21.1966 	 83.9895 	 
C 	 -1.2373 	 -20.401 	 85.1476 	 
C 	 -2.04167 	 -21.03 	 86.0985 	 
H 	 -0.879577 	 -19.4231 	 85.2958 	 
C 	 0.236633 	 -20.7402 	 82.9986 	 
H 	 -0.119684 	 -19.9698 	 82.3454 	 
H 	 0.275166 	 -21.6259 	 82.4175 	 
C 	 1.67798 	 -20.3913 	 83.4695 	 
H 	 2.28826 	 -20.1713 	 82.6119 	 
H 	 1.77792 	 -19.4517 	 83.9892 	 
C 	 2.32667 	 -21.4805 	 84.3726 	 
H 	 1.71635 	 -21.4795 	 85.2979 	 
H 	 2.32721 	 -22.5346 	 83.9676 	 
H 	 3.30666 	 -21.281 	 84.7162 	 
S 	 -1.72904 	 -21.7659 	 88.8368 	 
C 	 -2.3154 	 -20.626 	 90.0171 	 
C 	 -2.7043 	 -19.4513 	 89.4473 	 
C 	 -2.52267 	 -19.4276 	 88.0293 	 
C 	 -2.16357 	 -20.6293 	 87.4905 	 
H 	 -3.23598 	 -18.73 	 90.0727 	 
C 	 -3.02221 	 -18.1452 	 87.2625 	 
H 	 -3.82014 	 -17.6681 	 87.8861 	 
H 	 -3.45495 	 -18.4712 	 86.3358 	 
C 	 -1.95462 	 -17.017 	 87.2804 	 
H 	 -1.07228 	 -17.3108 	 86.6203 	 
H 	 -1.53748 	 -16.9372 	 88.3245 	 
C 	 -2.54631 	 -15.6593 	 86.887 	 
H 	 -1.73988 	 -14.9424 	 86.8399 	 
H 	 -3.23074 	 -15.4575 	 87.7178 	 
H 	 -3.11067 	 -15.7136 	 85.9606 	 
H 	 -1.28039 	 -23.0756 	 83.2226 	 
H 	 -2.6455 	 -20.8606 	 90.9927 	 
*
