! wB97X-D3 SP def2-SVP
%pal
nprocs 16
end

* xyz 0 1
S 	 -20.7459 	 -5.77104 	 82.6801 	 
C 	 -20.0407 	 -6.79026 	 81.407 	 
C 	 -18.9351 	 -7.43848 	 81.874 	 
C 	 -18.5093 	 -7.06384 	 83.2173 	 
C 	 -19.439 	 -6.20533 	 83.7978 	 
H 	 -17.5816 	 -7.44388 	 83.7056 	 
C 	 -18.207 	 -8.32691 	 80.898 	 
H 	 -17.7882 	 -7.7641 	 80.0568 	 
H 	 -19.016 	 -8.96277 	 80.5196 	 
C 	 -17.0815 	 -9.31849 	 81.3873 	 
H 	 -16.3227 	 -8.76607 	 81.9244 	 
H 	 -17.5739 	 -10.0476 	 82.0618 	 
C 	 -16.5134 	 -10.2123 	 80.317 	 
H 	 -16.0782 	 -9.61476 	 79.5035 	 
H 	 -15.7882 	 -10.8129 	 80.7338 	 
H 	 -17.302 	 -10.7739 	 79.8128 	 
S 	 -20.9091 	 -5.46658 	 86.0236 	 
C 	 -20.0968 	 -4.49915 	 87.1835 	 
C 	 -18.8149 	 -4.26913 	 86.8293 	 
C 	 -18.3463 	 -4.93095 	 85.698 	 
C 	 -19.3946 	 -5.5978 	 85.0695 	 
H 	 -18.2239 	 -3.50151 	 87.2756 	 
C 	 -16.9906 	 -4.65957 	 85.0797 	 
H 	 -16.8534 	 -3.63028 	 85.2349 	 
H 	 -16.9922 	 -4.68085 	 84.0002 	 
C 	 -15.8236 	 -5.61995 	 85.5394 	 
H 	 -16.1653 	 -6.52461 	 86.0334 	 
H 	 -15.2169 	 -5.13407 	 86.4104 	 
C 	 -14.8863 	 -5.86717 	 84.3926 	 
H 	 -14.1144 	 -6.56429 	 84.7305 	 
H 	 -14.3069 	 -4.99856 	 84.0076 	 
H 	 -15.3366 	 -6.18474 	 83.4622 	 
H 	 -20.3927 	 -6.90497 	 80.4411 	 
H 	 -20.6193 	 -3.83405 	 87.8013 	 
*
