! wB97X-D3 SP def2-SVP
%pal
nprocs 16
end

* xyz 0 1
S 	 0.689633 	 -13.3451 	 76.3813 	 
C 	 2.15878 	 -12.4728 	 76.0566 	 
C 	 2.22771 	 -11.339 	 76.8656 	 
C 	 1.18723 	 -11.2829 	 77.8572 	 
C 	 0.292704 	 -12.3104 	 77.707 	 
H 	 0.975012 	 -10.4399 	 78.5814 	 
C 	 3.31811 	 -10.3398 	 76.8038 	 
H 	 2.93959 	 -9.25617 	 76.85 	 
H 	 3.81035 	 -10.4084 	 75.7981 	 
C 	 4.48443 	 -10.4793 	 77.8459 	 
H 	 4.04927 	 -10.604 	 78.8632 	 
H 	 4.92884 	 -11.5039 	 77.6155 	 
C 	 5.66367 	 -9.42787 	 77.7976 	 
H 	 6.34249 	 -9.52578 	 76.9454 	 
H 	 5.17498 	 -8.40661 	 77.7502 	 
H 	 6.27212 	 -9.21099 	 78.6486 	 
S 	 -2.54232 	 -12.2692 	 77.8223 	 
C 	 -3.24173 	 -12.437 	 79.3945 	 
C 	 -2.27665 	 -12.608 	 80.3759 	 
C 	 -0.975014 	 -12.6967 	 79.9128 	 
C 	 -0.926681 	 -12.5136 	 78.5487 	 
H 	 -2.51057 	 -12.8866 	 81.4391 	 
C 	 0.176776 	 -12.8938 	 80.8613 	 
H 	 1.02987 	 -12.9856 	 80.2215 	 
H 	 0.107376 	 -13.9305 	 81.2716 	 
C 	 0.231569 	 -11.9042 	 82.013 	 
H 	 -0.684661 	 -11.8546 	 82.5938 	 
H 	 0.380927 	 -10.9076 	 81.7164 	 
C 	 1.24126 	 -12.2725 	 83.094 	 
H 	 1.09062 	 -11.491 	 83.8893 	 
H 	 2.28655 	 -12.2095 	 82.7195 	 
H 	 0.896969 	 -13.2826 	 83.4487 	 
H 	 2.91528 	 -12.7862 	 75.3156 	 
H 	 -4.32198 	 -12.3792 	 79.503 	 
*
