! wB97X-D3 SP def2-SVP
%pal
nprocs 16
end

* xyz 0 1
S 	 -32.6238 	 71.5213 	 169.335 	 
C 	 -31.6722 	 71.1069 	 167.959 	 
C 	 -31.9508 	 71.9461 	 166.883 	 
C 	 -32.9286 	 72.9379 	 167.245 	 
C 	 -33.3177 	 72.9767 	 168.568 	 
H 	 -33.2322 	 73.7978 	 166.703 	 
C 	 -31.2255 	 71.7972 	 165.515 	 
H 	 -31.9227 	 71.3565 	 164.762 	 
H 	 -30.3569 	 71.1486 	 165.618 	 
C 	 -30.6513 	 73.1899 	 165.011 	 
H 	 -31.4533 	 73.8931 	 164.743 	 
H 	 -30.0295 	 73.7097 	 165.764 	 
C 	 -30.0211 	 73.1154 	 163.605 	 
H 	 -29.8551 	 74.0902 	 163.02 	 
H 	 -29.1034 	 72.5907 	 163.586 	 
H 	 -30.6979 	 72.555 	 162.995 	 
S 	 -33.7106 	 74.1898 	 171.009 	 
C 	 -34.6449 	 75.6476 	 171.196 	 
C 	 -35.1199 	 75.9879 	 169.939 	 
C 	 -34.9701 	 75.0069 	 168.897 	 
C 	 -34.1367 	 73.9802 	 169.309 	 
H 	 -35.6714 	 76.8741 	 169.823 	 
C 	 -35.5991 	 75.1301 	 167.588 	 
H 	 -35.3585 	 74.4201 	 166.861 	 
H 	 -35.2918 	 76.1853 	 167.262 	 
C 	 -37.1208 	 74.9749 	 167.601 	 
H 	 -37.49 	 75.0721 	 166.661 	 
H 	 -37.4314 	 75.8102 	 168.2 	 
C 	 -37.5048 	 73.652 	 168.224 	 
H 	 -37.5287 	 73.7847 	 169.257 	 
H 	 -36.8782 	 72.9179 	 167.786 	 
H 	 -38.5376 	 73.4583 	 167.957 	 
H 	 -30.8753 	 70.3712 	 167.86 	 
H 	 -34.725 	 76.3375 	 172.051 	 
*
