! wB97X-D3 SP def2-SVP
%pal
nprocs 16
end

* xyz 0 1
S 	 -34.8729 	 58.228 	 103.132 	 
C 	 -35.823 	 57.3124 	 102.005 	 
C 	 -35.118 	 56.1999 	 101.543 	 
C 	 -33.8103 	 56.1276 	 102.154 	 
C 	 -33.6015 	 57.1122 	 103.056 	 
H 	 -33.0999 	 55.3044 	 102.029 	 
C 	 -35.6238 	 55.1902 	 100.514 	 
H 	 -36.3014 	 55.8202 	 99.8342 	 
H 	 -36.2832 	 54.3201 	 100.78 	 
C 	 -34.4735 	 54.5479 	 99.711 	 
H 	 -33.8175 	 54.0587 	 100.315 	 
H 	 -34.9077 	 53.6864 	 99.1995 	 
C 	 -33.9559 	 55.4338 	 98.6011 	 
H 	 -34.7605 	 55.5121 	 97.9072 	 
H 	 -33.6695 	 56.4433 	 98.8699 	 
H 	 -33.0649 	 55.1116 	 98.1813 	 
S 	 -32.7309 	 57.3157 	 105.61 	 
C 	 -31.0726 	 57.6779 	 106.046 	 
C 	 -30.3526 	 57.444 	 104.885 	 
C 	 -31.0721 	 57.0949 	 103.655 	 
C 	 -32.415 	 57.32 	 103.893 	 
H 	 -29.241 	 57.5051 	 104.942 	 
C 	 -30.3737 	 56.7475 	 102.345 	 
H 	 -31.0996 	 56.4735 	 101.534 	 
H 	 -29.723 	 55.8447 	 102.53 	 
C 	 -29.4515 	 57.8127 	 101.796 	 
H 	 -28.6204 	 57.993 	 102.455 	 
H 	 -30.0602 	 58.6816 	 101.591 	 
C 	 -28.8021 	 57.3794 	 100.507 	 
H 	 -28.1476 	 56.548 	 100.8 	 
H 	 -28.1666 	 58.209 	 100.099 	 
H 	 -29.4647 	 57.1835 	 99.6852 	 
H 	 -36.7916 	 57.5165 	 101.648 	 
H 	 -30.6507 	 57.8826 	 107.019 	 
*
