! wB97X-D3 SP def2-SVP
%pal
nprocs 16
end

* xyz 0 1
S 	 -8.48284 	 43.7482 	 37.869 	 
C 	 -7.59154 	 44.2445 	 36.4536 	 
C 	 -6.90813 	 45.4328 	 36.6989 	 
C 	 -7.20676 	 45.8667 	 38.0617 	 
C 	 -8.02287 	 45.0429 	 38.8427 	 
H 	 -6.76461 	 46.8466 	 38.409 	 
C 	 -6.12886 	 46.2349 	 35.5934 	 
H 	 -5.82067 	 45.5819 	 34.8346 	 
H 	 -5.09525 	 46.4893 	 36.0074 	 
C 	 -6.73133 	 47.5102 	 34.9696 	 
H 	 -5.97965 	 48.0115 	 34.3081 	 
H 	 -7.63636 	 47.2286 	 34.4445 	 
C 	 -7.26507 	 48.5688 	 36.022 	 
H 	 -8.08793 	 48.1195 	 36.6829 	 
H 	 -6.46251 	 48.9763 	 36.6529 	 
H 	 -7.73492 	 49.3451 	 35.4197 	 
S 	 -10.0027 	 44.9041 	 40.7249 	 
C 	 -9.68961 	 45.5513 	 42.3084 	 
C 	 -8.31538 	 45.5541 	 42.5185 	 
C 	 -7.5199 	 45.3109 	 41.3607 	 
C 	 -8.33115 	 45.0929 	 40.243 	 
H 	 -8.01977 	 45.6546 	 43.5573 	 
C 	 -6.00656 	 45.3719 	 41.4036 	 
H 	 -5.7256 	 46.2911 	 41.9015 	 
H 	 -5.74357 	 45.5725 	 40.3308 	 
C 	 -5.31049 	 44.1593 	 42.0528 	 
H 	 -5.63942 	 43.2668 	 41.5503 	 
H 	 -5.72912 	 44.0876 	 43.0321 	 
C 	 -3.76265 	 44.2613 	 42.0694 	 
H 	 -3.368 	 45.0838 	 42.5657 	 
H 	 -3.36168 	 44.3285 	 41.0799 	 
H 	 -3.31138 	 43.4672 	 42.5514 	 
H 	 -7.57683 	 43.6727 	 35.5082 	 
H 	 -10.3534 	 45.466 	 43.0949 	 
*
