! wB97X-D3 SP def2-SVP
%pal
nprocs 16
end

* xyz 0 1
S 	 58.715 	 15.9971 	 57.9958 	 
C 	 57.9019 	 17.411 	 58.4522 	 
C 	 58.4869 	 18.0228 	 59.5493 	 
C 	 59.4956 	 17.2269 	 60.0858 	 
C 	 59.6571 	 15.9574 	 59.418 	 
H 	 60.1921 	 17.4443 	 60.8923 	 
C 	 58.0206 	 19.3357 	 60.0823 	 
H 	 58.3265 	 19.9768 	 59.2098 	 
H 	 58.6819 	 19.6156 	 60.912 	 
C 	 56.5094 	 19.3892 	 60.2872 	 
H 	 56.2442 	 20.4158 	 60.424 	 
H 	 55.9766 	 19.2897 	 59.4207 	 
C 	 55.9337 	 18.5668 	 61.3557 	 
H 	 56.2823 	 18.8701 	 62.3646 	 
H 	 54.8177 	 18.8452 	 61.3192 	 
H 	 56.0624 	 17.5489 	 61.0844 	 
S 	 60.1366 	 13.4329 	 60.4971 	 
C 	 61.7198 	 12.8632 	 60.8073 	 
C 	 62.5544 	 13.9799 	 60.8059 	 
C 	 61.9932 	 15.0391 	 60.0319 	 
C 	 60.6686 	 14.8957 	 59.7225 	 
H 	 63.485 	 13.8404 	 61.3008 	 
C 	 62.8141 	 16.2734 	 59.9212 	 
H 	 63.5871 	 16.185 	 60.6006 	 
H 	 62.2314 	 17.2232 	 60.1887 	 
C 	 63.5333 	 16.5564 	 58.5554 	 
H 	 64.2241 	 15.7244 	 58.462 	 
H 	 64.2209 	 17.4531 	 58.5308 	 
C 	 62.6607 	 16.4721 	 57.224 	 
H 	 61.9713 	 17.2974 	 57.182 	 
H 	 62.1453 	 15.53 	 57.241 	 
H 	 63.2205 	 16.5355 	 56.2939 	 
H 	 56.9575 	 17.7137 	 57.9099 	 
H 	 61.9432 	 12.0303 	 61.3699 	 
*
