! wB97X-D3 SP def2-SVP
%pal
nprocs 16
end

* xyz 0 1
S 	 -74.2484 	 49.043 	 139.549 	 
C 	 -74.8939 	 50.6464 	 139.153 	 
C 	 -73.9471 	 51.4262 	 138.497 	 
C 	 -72.6707 	 50.7496 	 138.378 	 
C 	 -72.6948 	 49.4116 	 138.791 	 
H 	 -71.7847 	 51.1727 	 137.915 	 
C 	 -74.1368 	 52.8791 	 138.128 	 
H 	 -74.4142 	 53.473 	 138.995 	 
H 	 -74.75 	 52.9415 	 137.292 	 
C 	 -72.8558 	 53.5623 	 137.524 	 
H 	 -72.0928 	 53.291 	 138.257 	 
H 	 -72.65 	 52.9631 	 136.665 	 
C 	 -72.7573 	 55.0532 	 137.103 	 
H 	 -71.7344 	 55.4275 	 136.839 	 
H 	 -73.4316 	 55.4108 	 136.328 	 
H 	 -73.0085 	 55.6494 	 137.967 	 
S 	 -71.7255 	 47.0197 	 139.79 	 
C 	 -70.2465 	 46.3296 	 139.164 	 
C 	 -69.7149 	 47.0528 	 138.085 	 
C 	 -70.4969 	 48.2245 	 137.797 	 
C 	 -71.6008 	 48.3645 	 138.638 	 
H 	 -68.8548 	 46.7004 	 137.53 	 
C 	 -69.9724 	 49.213 	 136.781 	 
H 	 -70.7016 	 49.8053 	 136.352 	 
H 	 -69.5378 	 48.5512 	 135.997 	 
C 	 -68.8902 	 50.2042 	 137.306 	 
H 	 -68.0759 	 49.5978 	 137.62 	 
H 	 -69.1573 	 50.7462 	 138.163 	 
C 	 -68.4707 	 51.0693 	 136.125 	 
H 	 -68.01 	 50.5074 	 135.301 	 
H 	 -67.6462 	 51.8913 	 136.401 	 
H 	 -69.3509 	 51.6201 	 135.746 	 
H 	 -75.8571 	 50.9411 	 139.32 	 
H 	 -69.7398 	 45.3983 	 139.5 	 
*
