! wB97X-D3 SP def2-SVP
%pal
nprocs 16
end

* xyz 0 1
S 	 51.7016 	 5.24961 	 83.1762 	 
C 	 52.9017 	 4.47241 	 82.1527 	 
C 	 52.4154 	 3.30716 	 81.4843 	 
C 	 51.0411 	 3.12132 	 81.7363 	 
C 	 50.5773 	 3.97606 	 82.7052 	 
H 	 50.5015 	 2.21364 	 81.4187 	 
C 	 53.1745 	 2.46767 	 80.5917 	 
H 	 54.0346 	 3.09052 	 80.2139 	 
H 	 52.6048 	 2.2135 	 79.7415 	 
C 	 53.7888 	 1.17283 	 81.2081 	 
H 	 54.4911 	 1.36447 	 81.9868 	 
H 	 53.0681 	 0.531666 	 81.7339 	 
C 	 54.4888 	 0.31003 	 80.2256 	 
H 	 55.2111 	 -0.252323 	 80.6337 	 
H 	 53.8231 	 -0.331627 	 79.7182 	 
H 	 54.9469 	 0.846861 	 79.4286 	 
S 	 49.4284 	 3.42755 	 85.078 	 
C 	 47.6322 	 3.38109 	 85.2023 	 
C 	 47.0363 	 3.62491 	 83.9902 	 
C 	 47.9931 	 3.70732 	 82.9597 	 
C 	 49.3201 	 3.79544 	 83.3598 	 
H 	 45.9562 	 3.4957 	 83.9239 	 
C 	 47.5818 	 3.99366 	 81.4881 	 
H 	 48.1427 	 4.87612 	 81.1071 	 
H 	 46.5132 	 4.27041 	 81.4341 	 
C 	 47.7259 	 2.78625 	 80.5307 	 
H 	 46.9209 	 2.05327 	 80.9039 	 
H 	 48.6454 	 2.30078 	 80.6899 	 
C 	 47.5896 	 3.03483 	 79.0271 	 
H 	 48.1851 	 3.92273 	 78.8479 	 
H 	 46.5468 	 3.36299 	 78.6681 	 
H 	 48.065 	 2.31561 	 78.3129 	 
H 	 53.7936 	 4.94838 	 81.8418 	 
H 	 47.0481 	 2.8761 	 86.0393 	 
*
