! wB97X-D3 SP def2-SVP
%pal
nprocs 16
end

* xyz 0 1
S 	 -40.831 	 13.3119 	 75.7839 	 
C 	 -39.7608 	 14.2478 	 74.8231 	 
C 	 -40.2824 	 15.5286 	 74.6328 	 
C 	 -41.642 	 15.6091 	 75.0859 	 
C 	 -42.1538 	 14.4653 	 75.7036 	 
H 	 -42.2089 	 16.4574 	 74.9055 	 
C 	 -39.6906 	 16.6135 	 73.8288 	 
H 	 -40.4506 	 16.925 	 73.1259 	 
H 	 -38.9765 	 16.2466 	 73.1242 	 
C 	 -39.0803 	 17.8416 	 74.59 	 
H 	 -39.8749 	 18.2962 	 75.1841 	 
H 	 -38.3281 	 17.4298 	 75.2528 	 
C 	 -38.6128 	 19.0164 	 73.6515 	 
H 	 -39.3145 	 19.3006 	 72.8563 	 
H 	 -38.2982 	 19.7991 	 74.3088 	 
H 	 -37.7055 	 18.7216 	 73.1993 	 
S 	 -43.7504 	 14.1906 	 77.9636 	 
C 	 -45.4177 	 14.5568 	 77.8979 	 
C 	 -45.8703 	 14.681 	 76.5838 	 
C 	 -44.7666 	 14.5884 	 75.7146 	 
C 	 -43.511 	 14.363 	 76.2429 	 
H 	 -46.8683 	 15.0302 	 76.3128 	 
C 	 -44.956 	 14.8421 	 74.2074 	 
H 	 -45.6117 	 14.0686 	 73.769 	 
H 	 -44.009 	 14.5735 	 73.7176 	 
C 	 -45.417 	 16.2933 	 73.8843 	 
H 	 -44.7375 	 17.1031 	 74.3634 	 
H 	 -46.387 	 16.3897 	 74.2938 	 
C 	 -45.3969 	 16.7933 	 72.3787 	 
H 	 -44.547 	 16.7356 	 71.6889 	 
H 	 -45.7572 	 17.8603 	 72.4561 	 
H 	 -46.1545 	 16.2371 	 71.8767 	 
H 	 -38.8217 	 13.9807 	 74.5257 	 
H 	 -46.0871 	 14.6483 	 78.7451 	 
*
