! wB97X-D3 SP def2-SVP
%pal
nprocs 16
end

* xyz 0 1
S 	 -54.4517 	 38.2922 	 115.942 	 
C 	 -54.4079 	 36.5712 	 116.269 	 
C 	 -55.3476 	 35.9178 	 115.392 	 
C 	 -55.9314 	 36.799 	 114.341 	 
C 	 -55.6366 	 38.1443 	 114.615 	 
H 	 -56.5676 	 36.5332 	 113.484 	 
C 	 -55.6917 	 34.4503 	 115.434 	 
H 	 -56.7594 	 34.3571 	 115.411 	 
H 	 -55.2568 	 34.0969 	 116.393 	 
C 	 -55.2559 	 33.5745 	 114.213 	 
H 	 -55.799 	 32.6063 	 114.399 	 
H 	 -55.7602 	 33.8845 	 113.345 	 
C 	 -53.7369 	 33.3159 	 113.896 	 
H 	 -53.2187 	 34.1778 	 113.619 	 
H 	 -53.2769 	 33.1105 	 114.86 	 
H 	 -53.7346 	 32.4757 	 113.25 	 
S 	 -57.6257 	 39.8039 	 113.685 	 
C 	 -57.2146 	 41.1347 	 112.627 	 
C 	 -55.8601 	 41.1086 	 112.318 	 
C 	 -55.1416 	 39.9688 	 112.878 	 
C 	 -55.9525 	 39.2257 	 113.699 	 
H 	 -55.4151 	 41.9026 	 111.694 	 
C 	 -53.6216 	 39.887 	 112.803 	 
H 	 -53.2814 	 38.8758 	 112.931 	 
H 	 -53.1856 	 40.3481 	 113.686 	 
C 	 -52.9982 	 40.3884 	 111.486 	 
H 	 -51.9602 	 40.1796 	 111.572 	 
H 	 -53.1523 	 41.434 	 111.35 	 
C 	 -53.5766 	 39.6806 	 110.296 	 
H 	 -53.5072 	 38.5776 	 110.327 	 
H 	 -53.0198 	 39.8182 	 109.362 	 
H 	 -54.6389 	 40.0015 	 110.019 	 
H 	 -53.7072 	 35.9857 	 116.952 	 
H 	 -57.799 	 41.9994 	 112.321 	 
*
