! wB97X-D3 SP def2-SVP
%pal
nprocs 16
end

* xyz 0 1
S 	 41.1077 	 11.046 	 82.1138 	 
C 	 42.5161 	 10.9768 	 81.0126 	 
C 	 42.7263 	 12.1664 	 80.325 	 
C 	 41.7201 	 13.0866 	 80.6834 	 
C 	 40.8465 	 12.6402 	 81.6267 	 
H 	 41.5103 	 14.0266 	 80.1718 	 
C 	 43.7233 	 12.5229 	 79.2583 	 
H 	 44.7119 	 12.176 	 79.6321 	 
H 	 43.8298 	 13.5771 	 79.2553 	 
C 	 43.2913 	 12.0372 	 77.9232 	 
H 	 43.1149 	 10.9833 	 78.1641 	 
H 	 42.3255 	 12.4436 	 77.552 	 
C 	 44.3651 	 12.1527 	 76.8354 	 
H 	 45.2675 	 11.6107 	 77.0006 	 
H 	 43.9195 	 11.7661 	 75.8955 	 
H 	 44.5566 	 13.1952 	 76.6151 	 
S 	 38.2003 	 12.7405 	 82.2422 	 
C 	 37.3592 	 14.2328 	 82.6738 	 
C 	 38.2956 	 15.2884 	 82.668 	 
C 	 39.6751 	 14.9122 	 82.3862 	 
C 	 39.7589 	 13.5003 	 82.1805 	 
H 	 37.9984 	 16.3101 	 82.8991 	 
C 	 40.7972 	 15.9064 	 82.3646 	 
H 	 40.4413 	 16.7841 	 82.754 	 
H 	 41.0648 	 16.1321 	 81.3489 	 
C 	 42.11 	 15.5467 	 83.2383 	 
H 	 42.6148 	 14.6682 	 82.9427 	 
H 	 41.6992 	 15.1592 	 84.1387 	 
C 	 43.0326 	 16.7365 	 83.6314 	 
H 	 42.7154 	 17.4991 	 84.3281 	 
H 	 43.2057 	 17.1836 	 82.6901 	 
H 	 44.0525 	 16.3302 	 83.8625 	 
H 	 43.1015 	 10.1476 	 80.7488 	 
H 	 36.3132 	 14.4193 	 82.8346 	 
*
