! wB97X-D3 SP def2-SVP
%pal
nprocs 16
end

* xyz 0 1
S 	 -66.0306 	 53.0051 	 130.665 	 
C 	 -65.6771 	 54.2753 	 131.833 	 
C 	 -66.6291 	 54.5062 	 132.785 	 
C 	 -67.6879 	 53.6306 	 132.592 	 
C 	 -67.584 	 52.6952 	 131.543 	 
H 	 -68.5344 	 53.5167 	 133.315 	 
C 	 -66.501 	 55.4978 	 133.927 	 
H 	 -65.5422 	 55.8901 	 133.76 	 
H 	 -66.4241 	 54.9953 	 134.899 	 
C 	 -67.4998 	 56.7173 	 133.883 	 
H 	 -67.2408 	 57.2056 	 133.004 	 
H 	 -68.5878 	 56.4499 	 133.915 	 
C 	 -67.3401 	 57.709 	 135.068 	 
H 	 -66.2775 	 57.8386 	 135.259 	 
H 	 -67.7607 	 58.6705 	 134.899 	 
H 	 -67.8456 	 57.2964 	 135.885 	 
S 	 -67.8746 	 50.3273 	 130.385 	 
C 	 -69.4426 	 49.8459 	 129.885 	 
C 	 -70.421 	 50.6191 	 130.344 	 
C 	 -69.8852 	 51.6983 	 131.119 	 
C 	 -68.5081 	 51.6448 	 131.139 	 
H 	 -71.456 	 50.3891 	 129.962 	 
C 	 -70.7617 	 52.7722 	 131.691 	 
H 	 -71.4321 	 53.0127 	 130.906 	 
H 	 -70.1595 	 53.6777 	 131.896 	 
C 	 -71.5377 	 52.4315 	 132.975 	 
H 	 -72.0373 	 53.3136 	 133.428 	 
H 	 -70.7992 	 52.0438 	 133.639 	 
C 	 -72.6546 	 51.3403 	 132.859 	 
H 	 -72.927 	 51.0751 	 133.884 	 
H 	 -72.2402 	 50.4481 	 132.283 	 
H 	 -73.54 	 51.7739 	 132.357 	 
H 	 -64.8231 	 54.9797 	 131.66 	 
H 	 -69.575 	 49.0136 	 129.268 	 
*
