! wB97X-D3 SP def2-SVP
%pal
nprocs 16
end

* xyz 0 1
S 	 -84.2276 	 52.0267 	 135.951 	 
C 	 -84.8347 	 53.0726 	 137.188 	 
C 	 -83.7515 	 53.6947 	 137.863 	 
C 	 -82.5524 	 53.5021 	 137.148 	 
C 	 -82.6677 	 52.8387 	 135.918 	 
H 	 -81.6464 	 53.8472 	 137.572 	 
C 	 -83.8094 	 54.5172 	 139.101 	 
H 	 -83.2873 	 54.0894 	 139.925 	 
H 	 -84.871 	 54.4989 	 139.486 	 
C 	 -83.5343 	 55.9701 	 139.045 	 
H 	 -82.5025 	 56.0828 	 138.8 	 
H 	 -84.1193 	 56.5147 	 138.337 	 
C 	 -83.6482 	 56.6479 	 140.462 	 
H 	 -82.8543 	 56.2958 	 141.183 	 
H 	 -83.4563 	 57.7373 	 140.307 	 
H 	 -84.6408 	 56.492 	 140.916 	 
S 	 -81.5566 	 53.9871 	 133.787 	 
C 	 -80.2279 	 53.2219 	 132.867 	 
C 	 -79.8491 	 52 	 133.49 	 
C 	 -80.7035 	 51.7102 	 134.577 	 
C 	 -81.6922 	 52.6376 	 134.845 	 
H 	 -79.0317 	 51.3783 	 133.139 	 
C 	 -80.4461 	 50.46 	 135.323 	 
H 	 -80.2306 	 49.7581 	 134.555 	 
H 	 -81.3082 	 50.1023 	 135.901 	 
C 	 -79.2772 	 50.6507 	 136.333 	 
H 	 -78.3699 	 51.0502 	 135.79 	 
H 	 -78.9314 	 49.6861 	 136.641 	 
C 	 -79.5973 	 51.6158 	 137.46 	 
H 	 -78.682 	 51.9022 	 137.975 	 
H 	 -80.2802 	 51.0986 	 138.104 	 
H 	 -79.9917 	 52.5254 	 136.953 	 
H 	 -85.8745 	 52.9637 	 137.624 	 
H 	 -79.5446 	 53.7688 	 132.223 	 
*
