! wB97X-D3 SP def2-SVP
%pal
nprocs 16
end

* xyz 0 1
S 	 -45.1169 	 58.69 	 96.1197 	 
C 	 -45.9505 	 59.3473 	 97.4847 	 
C 	 -46.1915 	 58.2828 	 98.4367 	 
C 	 -46.0261 	 57.0214 	 97.8484 	 
C 	 -45.5887 	 57.0567 	 96.5192 	 
H 	 -46.2733 	 56.0615 	 98.275 	 
C 	 -46.7913 	 58.3756 	 99.8558 	 
H 	 -46.1864 	 57.5663 	 100.384 	 
H 	 -47.8371 	 58.0672 	 99.9436 	 
C 	 -46.7363 	 59.7317 	 100.667 	 
H 	 -45.7185 	 60.127 	 100.936 	 
H 	 -47.1151 	 60.4689 	 100.046 	 
C 	 -47.4663 	 59.5712 	 102.059 	 
H 	 -47.2796 	 60.4171 	 102.653 	 
H 	 -48.5698 	 59.3973 	 101.909 	 
H 	 -47.1912 	 58.6159 	 102.475 	 
S 	 -45.8276 	 56.0294 	 94.0324 	 
C 	 -45.5704 	 54.3013 	 93.7843 	 
C 	 -45.0262 	 53.6794 	 94.9024 	 
C 	 -44.7931 	 54.6129 	 95.9515 	 
C 	 -45.3314 	 55.8839 	 95.6826 	 
H 	 -44.825 	 52.6643 	 94.8399 	 
C 	 -44.1548 	 54.1594 	 97.314 	 
H 	 -44.5133 	 53.1749 	 97.6099 	 
H 	 -44.4044 	 54.7871 	 98.1861 	 
C 	 -42.6426 	 54.1122 	 97.3288 	 
H 	 -42.3774 	 53.2084 	 96.7123 	 
H 	 -42.362 	 53.9944 	 98.3481 	 
C 	 -42.0379 	 55.437 	 96.8891 	 
H 	 -42.4965 	 56.2274 	 97.4828 	 
H 	 -42.1774 	 55.7566 	 95.9074 	 
H 	 -40.976 	 55.2802 	 97.1122 	 
H 	 -46.158 	 60.4388 	 97.5907 	 
H 	 -46.0923 	 53.702 	 93.1019 	 
*
