! wB97X-D3 SP def2-SVP
%pal
nprocs 16
end

* xyz 0 1
S 	 2.10044 	 -14.9265 	 84.0193 	 
C 	 0.684467 	 -15.9704 	 83.9187 	 
C 	 -0.119086 	 -15.8407 	 85.0281 	 
C 	 0.428467 	 -14.8967 	 85.9893 	 
C 	 1.67943 	 -14.4624 	 85.6373 	 
H 	 0.00869855 	 -14.4964 	 86.948 	 
C 	 -1.39338 	 -16.4865 	 85.2271 	 
H 	 -1.96851 	 -16.3686 	 84.2881 	 
H 	 -1.89623 	 -15.9725 	 86.0038 	 
C 	 -1.46177 	 -18.0537 	 85.2569 	 
H 	 -2.5398 	 -18.3168 	 85.219 	 
H 	 -0.927362 	 -18.4396 	 84.3703 	 
C 	 -0.916031 	 -18.7194 	 86.5192 	 
H 	 0.158482 	 -18.4116 	 86.647 	 
H 	 -1.52638 	 -18.3254 	 87.3851 	 
H 	 -0.979828 	 -19.8531 	 86.418 	 
S 	 3.05603 	 -12.0564 	 85.3072 	 
C 	 3.7209 	 -11.2712 	 86.7376 	 
C 	 3.68422 	 -12.1083 	 87.8127 	 
C 	 2.99381 	 -13.3847 	 87.5107 	 
C 	 2.5281 	 -13.4541 	 86.2356 	 
H 	 4.21995 	 -11.8052 	 88.67 	 
C 	 2.89002 	 -14.5077 	 88.5104 	 
H 	 3.94384 	 -14.5617 	 88.8109 	 
H 	 2.69015 	 -15.5696 	 88.0717 	 
C 	 2.01606 	 -14.1247 	 89.7799 	 
H 	 1.56367 	 -13.135 	 89.5833 	 
H 	 2.66777 	 -13.8411 	 90.6651 	 
C 	 0.858278 	 -15.0338 	 90.1448 	 
H 	 1.26388 	 -15.9425 	 90.567 	 
H 	 0.371257 	 -15.4625 	 89.3317 	 
H 	 0.156592 	 -14.5413 	 90.7353 	 
H 	 0.442098 	 -16.7332 	 83.1713 	 
H 	 4.20774 	 -10.327 	 86.716 	 
*
