! wB97X-D3 SP def2-SVP
%pal
nprocs 16
end

* xyz 0 1
S 	 -20.9444 	 0.42639 	 81.2288 	 
C 	 -19.5499 	 1.45094 	 81.2121 	 
C 	 -18.5499 	 0.849864 	 81.9625 	 
C 	 -18.675 	 -0.584287 	 81.8802 	 
C 	 -19.9534 	 -0.978015 	 81.3806 	 
H 	 -17.9547 	 -1.24935 	 82.3767 	 
C 	 -17.2125 	 1.46513 	 82.32 	 
H 	 -17.4023 	 2.52054 	 82.4762 	 
H 	 -16.5638 	 1.41397 	 81.4985 	 
C 	 -16.5195 	 0.855317 	 83.5313 	 
H 	 -17.1873 	 0.554975 	 84.2928 	 
H 	 -15.9899 	 0.0023448 	 83.1963 	 
C 	 -15.5222 	 1.81335 	 84.1159 	 
H 	 -15.2439 	 1.54395 	 85.1043 	 
H 	 -14.6116 	 1.96812 	 83.577 	 
H 	 -16.0789 	 2.75162 	 84.1818 	 
S 	 -21.9533 	 -2.54755 	 82.4845 	 
C 	 -21.9903 	 -4.29409 	 82.3035 	 
C 	 -20.9597 	 -4.59646 	 81.4987 	 
C 	 -20.0834 	 -3.51382 	 81.0621 	 
C 	 -20.5186 	 -2.31797 	 81.5073 	 
H 	 -20.8663 	 -5.60079 	 81.1403 	 
C 	 -18.923 	 -3.7444 	 80.06 	 
H 	 -18.4665 	 -2.92223 	 79.6271 	 
H 	 -19.341 	 -4.41895 	 79.192 	 
C 	 -17.646 	 -4.32991 	 80.7228 	 
H 	 -17.9246 	 -5.21112 	 81.3056 	 
H 	 -17.2187 	 -3.63931 	 81.4501 	 
C 	 -16.6381 	 -4.66269 	 79.6377 	 
H 	 -15.6771 	 -5.20504 	 80.0005 	 
H 	 -16.3611 	 -3.83538 	 79.0021 	 
H 	 -17.0051 	 -5.39172 	 78.8848 	 
H 	 -19.5145 	 2.51521 	 80.8949 	 
H 	 -22.6557 	 -5.05959 	 82.75 	 
*
