! wB97X-D3 SP def2-SVP
%pal
nprocs 16
end

* xyz 0 1
S 	 -8.54825 	 13.0221 	 86.8264 	 
C 	 -9.47183 	 11.5295 	 86.767 	 
C 	 -8.69058 	 10.481 	 87.2934 	 
C 	 -7.33656 	 10.7969 	 87.6245 	 
C 	 -7.13051 	 12.1513 	 87.5029 	 
H 	 -6.62462 	 10.1667 	 88.0309 	 
C 	 -9.16188 	 9.05299 	 87.3272 	 
H 	 -8.77446 	 8.37223 	 86.6196 	 
H 	 -10.19 	 8.96093 	 87.0395 	 
C 	 -9.10353 	 8.41203 	 88.7288 	 
H 	 -8.53727 	 8.95423 	 89.4891 	 
H 	 -10.1588 	 8.42439 	 89.0611 	 
C 	 -8.3921 	 7.10147 	 88.7124 	 
H 	 -8.84929 	 6.24755 	 88.1584 	 
H 	 -7.3925 	 7.26626 	 88.2529 	 
H 	 -8.12241 	 6.76261 	 89.6937 	 
S 	 -6.85927 	 14.0104 	 89.4837 	 
C 	 -5.33144 	 14.41 	 90.179 	 
C 	 -4.27993 	 13.8293 	 89.4468 	 
C 	 -4.76431 	 12.9854 	 88.3631 	 
C 	 -6.14931 	 12.9868 	 88.259 	 
H 	 -3.2525 	 13.8852 	 89.8656 	 
C 	 -3.73188 	 12.2226 	 87.5683 	 
H 	 -3.04536 	 13.0289 	 87.4127 	 
H 	 -4.02639 	 12.0337 	 86.4808 	 
C 	 -3.02564 	 11.0936 	 88.2537 	 
H 	 -2.38301 	 11.5674 	 89.0218 	 
H 	 -2.37777 	 10.613 	 87.544 	 
C 	 -3.88938 	 10.0201 	 89.0054 	 
H 	 -3.17399 	 9.53551 	 89.6804 	 
H 	 -4.22695 	 9.39493 	 88.1505 	 
H 	 -4.70786 	 10.4403 	 89.5063 	 
H 	 -10.3971 	 11.3336 	 86.2644 	 
H 	 -5.14487 	 14.7357 	 91.207 	 
*
