! wB97X-D3 SP def2-SVP
%pal
nprocs 16
end

* xyz 0 1
S 	 42.4934 	 12.6299 	 88.7757 	 
C 	 42.9784 	 11.3075 	 87.7004 	 
C 	 41.9513 	 10.3559 	 87.5724 	 
C 	 40.7851 	 10.6913 	 88.4127 	 
C 	 40.8975 	 11.9229 	 89.088 	 
H 	 39.9906 	 10.032 	 88.5675 	 
C 	 41.9286 	 9.16494 	 86.6912 	 
H 	 42.9563 	 8.8596 	 86.5249 	 
H 	 41.5526 	 9.53212 	 85.7216 	 
C 	 41.3883 	 7.82188 	 87.1854 	 
H 	 40.3599 	 7.87535 	 87.5921 	 
H 	 41.3689 	 7.24479 	 86.2838 	 
C 	 42.3457 	 7.33592 	 88.3308 	 
H 	 43.2969 	 7.10195 	 87.8754 	 
H 	 42.5356 	 8.00181 	 89.2266 	 
H 	 41.9772 	 6.49692 	 88.8561 	 
S 	 39.7243 	 14.2877 	 89.745 	 
C 	 38.5375 	 14.3427 	 90.9964 	 
C 	 38.3362 	 13.1296 	 91.5373 	 
C 	 39.0304 	 12.0302 	 90.9051 	 
C 	 39.9566 	 12.5791 	 89.9851 	 
H 	 37.501 	 13.0477 	 92.2286 	 
C 	 38.8353 	 10.6032 	 91.3823 	 
H 	 38.8499 	 10.5796 	 92.3761 	 
H 	 39.6704 	 10.0896 	 91.1137 	 
C 	 37.6837 	 9.83452 	 90.8136 	 
H 	 37.7561 	 9.67541 	 89.6973 	 
H 	 36.7771 	 10.3646 	 91.0772 	 
C 	 37.4242 	 8.3996 	 91.3724 	 
H 	 38.2514 	 7.6801 	 91.1604 	 
H 	 36.5004 	 7.95538 	 91.0569 	 
H 	 37.2754 	 8.27833 	 92.4635 	 
H 	 43.8867 	 11.3307 	 87.1303 	 
H 	 38.0759 	 15.2784 	 91.3186 	 
*
