! wB97X-D3 SP def2-SVP
%pal
nprocs 16
end

* xyz 0 1
S 	 56.5686 	 13.4169 	 57.0665 	 
C 	 56.0861 	 14.9581 	 57.927 	 
C 	 57.1184 	 15.8723 	 57.7234 	 
C 	 58.2505 	 15.3726 	 56.9416 	 
C 	 58.097 	 14.0681 	 56.4857 	 
H 	 59.0668 	 16.0334 	 56.5891 	 
C 	 56.8771 	 17.3243 	 57.8938 	 
H 	 57.8101 	 17.8106 	 57.7702 	 
H 	 56.4925 	 17.4735 	 58.8803 	 
C 	 55.8214 	 17.9004 	 56.9391 	 
H 	 56.0204 	 17.8364 	 55.8785 	 
H 	 54.824 	 17.4274 	 57.1564 	 
C 	 55.6917 	 19.4329 	 57.2025 	 
H 	 55.054 	 19.8347 	 57.9566 	 
H 	 56.6071 	 19.821 	 57.5179 	 
H 	 55.3628 	 19.8847 	 56.2973 	 
S 	 59.6277 	 11.8809 	 56.8204 	 
C 	 60.9618 	 11.5867 	 55.7318 	 
C 	 61.0605 	 12.4199 	 54.673 	 
C 	 60.0332 	 13.4117 	 54.7484 	 
C 	 59.1514 	 13.2853 	 55.8103 	 
H 	 61.934 	 12.4741 	 54.0716 	 
C 	 60.0318 	 14.5078 	 53.7067 	 
H 	 60.9271 	 15.1333 	 53.823 	 
H 	 59.2692 	 15.2498 	 53.864 	 
C 	 59.8226 	 13.8922 	 52.2842 	 
H 	 60.4673 	 12.9963 	 52.1023 	 
H 	 59.9195 	 14.5777 	 51.4517 	 
C 	 58.3825 	 13.3252 	 52.217 	 
H 	 57.5722 	 14.0302 	 52.4801 	 
H 	 58.2896 	 12.4963 	 52.9102 	 
H 	 58.0492 	 12.9577 	 51.2216 	 
H 	 55.0329 	 15.1316 	 58.3152 	 
H 	 61.6254 	 10.7249 	 55.8398 	 
*
