! wB97X-D3 SP def2-SVP
%pal
nprocs 16
end

* xyz 0 1
S 	 44.7121 	 21.1439 	 47.5059 	 
C 	 43.4517 	 19.8786 	 47.198 	 
C 	 43.9083 	 18.6026 	 47.0053 	 
C 	 45.3724 	 18.5566 	 47.1744 	 
C 	 45.9698 	 19.8 	 47.3438 	 
H 	 46.0352 	 17.7405 	 47.246 	 
C 	 43.073 	 17.4315 	 46.7034 	 
H 	 42.0519 	 17.7196 	 46.9268 	 
H 	 43.3476 	 16.6119 	 47.3783 	 
C 	 43.1628 	 16.921 	 45.2086 	 
H 	 44.1764 	 16.8965 	 45.0231 	 
H 	 42.7957 	 15.9205 	 45.0486 	 
C 	 42.5319 	 17.7448 	 44.0895 	 
H 	 43.0593 	 18.682 	 44.0949 	 
H 	 42.7081 	 17.3392 	 43.1104 	 
H 	 41.5331 	 18.0387 	 44.3067 	 
S 	 48.2641 	 19.7802 	 48.8571 	 
C 	 49.7768 	 20.344 	 48.1986 	 
C 	 49.5495 	 20.5964 	 46.8601 	 
C 	 48.2004 	 20.6654 	 46.3923 	 
C 	 47.368 	 20.101 	 47.3869 	 
H 	 50.4477 	 20.7458 	 46.3143 	 
C 	 47.8718 	 20.9926 	 44.9776 	 
H 	 48.1732 	 22.016 	 44.9222 	 
H 	 46.8409 	 20.9757 	 44.7474 	 
C 	 48.5745 	 20.1616 	 43.8717 	 
H 	 49.724 	 20.4294 	 43.8409 	 
H 	 48.3309 	 20.5616 	 42.9297 	 
C 	 48.3546 	 18.6371 	 43.8747 	 
H 	 48.3806 	 18.1756 	 44.8663 	 
H 	 49.1457 	 18.1784 	 43.2649 	 
H 	 47.4353 	 18.3147 	 43.3979 	 
H 	 42.3733 	 20.1416 	 47.0466 	 
H 	 50.7616 	 20.0249 	 48.6579 	 
*
