! wB97X-D3 SP def2-SVP
%pal
nprocs 16
end

* xyz 0 1
S 	 7.36083 	 -10.7335 	 60.9786 	 
C 	 8.62384 	 -11.3923 	 62.0174 	 
C 	 8.08028 	 -11.9772 	 63.1072 	 
C 	 6.68867 	 -11.6398 	 63.2414 	 
C 	 6.1645 	 -10.8571 	 62.2126 	 
H 	 6.10731 	 -11.9292 	 64.1159 	 
C 	 8.75491 	 -12.7099 	 64.2689 	 
H 	 8.7301 	 -12.0316 	 65.1241 	 
H 	 9.84698 	 -12.6537 	 63.9989 	 
C 	 8.29087 	 -14.146 	 64.4488 	 
H 	 7.24361 	 -14.3674 	 64.3125 	 
H 	 8.75719 	 -14.7911 	 63.7099 	 
C 	 8.65601 	 -14.7481 	 65.8007 	 
H 	 8.2989 	 -14.1643 	 66.582 	 
H 	 8.3589 	 -15.8347 	 65.8212 	 
H 	 9.75338 	 -14.7107 	 65.9197 	 
S 	 4.5901 	 -8.68074 	 62.0897 	 
C 	 2.83644 	 -8.79427 	 62.1082 	 
C 	 2.43938 	 -10.1059 	 62.0545 	 
C 	 3.5658 	 -11.0557 	 62.0714 	 
C 	 4.81078 	 -10.3975 	 62.0983 	 
H 	 1.35801 	 -10.2058 	 62.0055 	 
C 	 3.37097 	 -12.5652 	 62.0381 	 
H 	 4.21543 	 -13.0223 	 62.5781 	 
H 	 3.43863 	 -12.8252 	 60.9691 	 
C 	 2.10494 	 -13.1589 	 62.6319 	 
H 	 1.26139 	 -12.9711 	 61.9361 	 
H 	 1.78664 	 -12.6713 	 63.6025 	 
C 	 2.24568 	 -14.7 	 62.777 	 
H 	 1.20666 	 -15.0258 	 62.8633 	 
H 	 2.9902 	 -14.9373 	 63.6019 	 
H 	 2.61026 	 -15.127 	 61.8648 	 
H 	 9.6849 	 -11.2967 	 61.8104 	 
H 	 2.23239 	 -7.88572 	 62.1703 	 
*
