! wB97X-D3 SP def2-SVP
%pal
nprocs 16
end

* xyz 0 1
S 	 33.5074 	 26.8523 	 53.9864 	 
C 	 34.809 	 27.9578 	 53.8245 	 
C 	 36.0238 	 27.3566 	 53.9229 	 
C 	 35.8775 	 25.9504 	 54.3006 	 
C 	 34.6345 	 25.4792 	 54.2302 	 
H 	 36.7273 	 25.2749 	 54.6094 	 
C 	 37.3037 	 28.0653 	 53.738 	 
H 	 37.0715 	 29.1057 	 54.0279 	 
H 	 37.5986 	 28.0344 	 52.6744 	 
C 	 38.4074 	 27.708 	 54.6854 	 
H 	 38.6619 	 26.702 	 54.3419 	 
H 	 39.2611 	 28.3907 	 54.5879 	 
C 	 38.1173 	 27.8486 	 56.1616 	 
H 	 37.6471 	 27.0649 	 56.7799 	 
H 	 39.0458 	 28.0455 	 56.7045 	 
H 	 37.6353 	 28.7863 	 56.4006 	 
S 	 32.8676 	 23.8968 	 55.6907 	 
C 	 32.9824 	 22.1442 	 55.7675 	 
C 	 33.8895 	 21.8239 	 54.8215 	 
C 	 34.6831 	 22.8716 	 54.1842 	 
C 	 34.2159 	 24.1002 	 54.5276 	 
H 	 33.9472 	 20.829 	 54.6067 	 
C 	 35.7789 	 22.627 	 53.1266 	 
H 	 36.6621 	 22.6083 	 53.7302 	 
H 	 35.8052 	 23.5098 	 52.4662 	 
C 	 35.6307 	 21.3381 	 52.3244 	 
H 	 34.6606 	 21.4667 	 51.9344 	 
H 	 35.7909 	 20.392 	 52.9059 	 
C 	 36.6437 	 21.3236 	 51.2115 	 
H 	 36.4046 	 20.8339 	 50.2229 	 
H 	 37.4997 	 20.857 	 51.5101 	 
H 	 36.8879 	 22.3264 	 50.909 	 
H 	 34.6968 	 29.0132 	 53.7124 	 
H 	 32.255 	 21.5214 	 56.3462 	 
*
