! wB97X-D3 SP def2-SVP
%pal
nprocs 16
end

* xyz 0 1
S 	 50.0291 	 4.84451 	 85.4968 	 
C 	 51.4348 	 5.62844 	 84.8793 	 
C 	 51.3088 	 5.92376 	 83.5409 	 
C 	 50.1784 	 5.26673 	 82.9533 	 
C 	 49.3757 	 4.60254 	 83.922 	 
H 	 49.8948 	 5.1784 	 81.9505 	 
C 	 52.3158 	 6.70925 	 82.6902 	 
H 	 52.3232 	 7.69747 	 83.1999 	 
H 	 52.0184 	 6.93915 	 81.6874 	 
C 	 53.6476 	 6.0743 	 82.4934 	 
H 	 54.2516 	 5.9735 	 83.4539 	 
H 	 53.4688 	 5.09407 	 82.2777 	 
C 	 54.5834 	 6.72983 	 81.4809 	 
H 	 55.4985 	 6.11462 	 81.526 	 
H 	 54.2086 	 6.74104 	 80.4628 	 
H 	 54.9865 	 7.72086 	 81.7357 	 
S 	 46.6909 	 4.49832 	 83.7234 	 
C 	 45.9193 	 2.9645 	 83.3731 	 
C 	 46.8409 	 1.96284 	 83.1246 	 
C 	 48.1927 	 2.40703 	 83.3919 	 
C 	 48.2732 	 3.74402 	 83.6985 	 
H 	 46.604 	 0.965299 	 82.7249 	 
C 	 49.4384 	 1.56964 	 83.0875 	 
H 	 49.1792 	 0.563293 	 83.3698 	 
H 	 50.2288 	 1.92424 	 83.8134 	 
C 	 49.9448 	 1.62122 	 81.61 	 
H 	 50.4045 	 2.58111 	 81.5391 	 
H 	 49.0482 	 1.49259 	 81.0282 	 
C 	 51.0361 	 0.598872 	 81.1976 	 
H 	 51.4782 	 0.780272 	 80.2026 	 
H 	 50.7187 	 -0.395043 	 81.1712 	 
H 	 51.9013 	 0.684193 	 81.9399 	 
H 	 52.2223 	 6.0447 	 85.4854 	 
H 	 44.8188 	 2.92786 	 83.1721 	 
*
