! wB97X-D3 SP def2-SVP
%pal
nprocs 16
end

* xyz 0 1
S 	 12.504 	 -8.78548 	 89.8674 	 
C 	 12.4688 	 -7.94337 	 91.3867 	 
C 	 11.3524 	 -7.09895 	 91.5443 	 
C 	 10.5723 	 -7.13222 	 90.3337 	 
C 	 11.0877 	 -7.89503 	 89.2913 	 
H 	 9.66479 	 -6.64125 	 90.1634 	 
C 	 10.8879 	 -6.24795 	 92.7387 	 
H 	 10.0041 	 -6.69236 	 93.2618 	 
H 	 10.5983 	 -5.27456 	 92.358 	 
C 	 11.93 	 -6.02421 	 93.8174 	 
H 	 12.3274 	 -6.96678 	 94.1353 	 
H 	 12.7822 	 -5.51691 	 93.2759 	 
C 	 11.4552 	 -5.26354 	 95.0129 	 
H 	 12.066 	 -5.40099 	 95.907 	 
H 	 11.4617 	 -4.16578 	 94.8009 	 
H 	 10.4148 	 -5.51841 	 95.1942 	 
S 	 10.592 	 -9.92608 	 87.4706 	 
C 	 9.33064 	 -9.77629 	 86.2868 	 
C 	 8.87166 	 -8.49056 	 86.2173 	 
C 	 9.40525 	 -7.69897 	 87.2991 	 
C 	 10.4193 	 -8.27743 	 88.0478 	 
H 	 8.01389 	 -8.1961 	 85.4831 	 
C 	 8.88267 	 -6.28898 	 87.4966 	 
H 	 8.97098 	 -5.79815 	 86.5338 	 
H 	 9.60762 	 -5.8255 	 88.1951 	 
C 	 7.49383 	 -6.31953 	 88.3031 	 
H 	 7.51705 	 -6.98169 	 89.1906 	 
H 	 6.78863 	 -6.80845 	 87.5991 	 
C 	 7.07512 	 -4.88297 	 88.7516 	 
H 	 7.15366 	 -4.25216 	 87.8822 	 
H 	 7.48601 	 -4.44971 	 89.6109 	 
H 	 5.95233 	 -4.95232 	 88.9249 	 
H 	 13.1719 	 -8.11905 	 92.1971 	 
H 	 9.0371 	 -10.6048 	 85.6878 	 
*
