! wB97X-D3 SP def2-SVP
%pal
nprocs 16
end

* xyz 0 1
S 	 -30.8449 	 59.6099 	 104.951 	 
C 	 -29.546 	 59.2905 	 106.082 	 
C 	 -29.369 	 60.3496 	 106.994 	 
C 	 -30.2967 	 61.3888 	 106.753 	 
C 	 -31.0577 	 61.195 	 105.573 	 
H 	 -30.5504 	 62.2499 	 107.402 	 
C 	 -28.3345 	 60.2393 	 108.122 	 
H 	 -27.7913 	 59.346 	 107.915 	 
H 	 -28.7781 	 60.0215 	 109.069 	 
C 	 -27.2842 	 61.321 	 108.4 	 
H 	 -27.7435 	 61.995 	 109.138 	 
H 	 -26.3985 	 60.9298 	 108.982 	 
C 	 -26.7833 	 62.0422 	 107.176 	 
H 	 -26.296 	 61.268 	 106.563 	 
H 	 -27.6087 	 62.5265 	 106.683 	 
H 	 -26.0503 	 62.7595 	 107.346 	 
S 	 -33.531 	 61.4408 	 104.226 	 
C 	 -34.2163 	 62.9083 	 103.821 	 
C 	 -33.3686 	 63.8667 	 104.351 	 
C 	 -32.1975 	 63.4214 	 105.025 	 
C 	 -32.1165 	 62.0581 	 105.056 	 
H 	 -33.8151 	 64.8484 	 104.25 	 
C 	 -31.1855 	 64.4919 	 105.606 	 
H 	 -31.049 	 64.2351 	 106.649 	 
H 	 -31.7921 	 65.3884 	 105.729 	 
C 	 -29.9019 	 64.7534 	 104.751 	 
H 	 -30.1572 	 64.9265 	 103.643 	 
H 	 -29.2299 	 63.9638 	 104.876 	 
C 	 -29.2034 	 66.1044 	 105.077 	 
H 	 -29.9045 	 66.9461 	 105.067 	 
H 	 -28.4474 	 66.435 	 104.392 	 
H 	 -28.747 	 66.0518 	 106.115 	 
H 	 -28.7992 	 58.5387 	 105.996 	 
H 	 -35.022 	 63.1782 	 103.142 	 
*
