! wB97X-D3 SP def2-SVP
%pal
nprocs 16
end

* xyz 0 1
S 	 -44.0648 	 56.6944 	 104.74 	 
C 	 -45.1716 	 56.1956 	 103.454 	 
C 	 -44.4217 	 55.5758 	 102.446 	 
C 	 -43.0438 	 55.613 	 102.756 	 
C 	 -42.6408 	 56.2057 	 103.919 	 
H 	 -42.2639 	 55.4217 	 102.084 	 
C 	 -44.9586 	 55.0605 	 101.091 	 
H 	 -44.5884 	 55.8033 	 100.385 	 
H 	 -46.0609 	 55.1956 	 101.163 	 
C 	 -44.6744 	 53.5527 	 100.864 	 
H 	 -45.2525 	 53.308 	 99.9883 	 
H 	 -43.6634 	 53.3408 	 100.566 	 
C 	 -45.1567 	 52.6673 	 101.996 	 
H 	 -44.8575 	 53.0619 	 102.986 	 
H 	 -46.236 	 52.6302 	 101.906 	 
H 	 -44.7432 	 51.6449 	 101.843 	 
S 	 -40.6939 	 58.1928 	 104.342 	 
C 	 -39.1304 	 57.5582 	 104.852 	 
C 	 -39.1272 	 56.2043 	 105.013 	 
C 	 -40.3716 	 55.5796 	 104.772 	 
C 	 -41.3074 	 56.4865 	 104.431 	 
H 	 -38.2277 	 55.7079 	 105.177 	 
C 	 -40.531 	 54.0929 	 104.736 	 
H 	 -41.6178 	 53.8991 	 104.767 	 
H 	 -40.1424 	 53.5707 	 105.637 	 
C 	 -40.0826 	 53.3695 	 103.444 	 
H 	 -40.4533 	 53.7837 	 102.523 	 
H 	 -40.4536 	 52.3869 	 103.453 	 
C 	 -38.58 	 53.2763 	 103.342 	 
H 	 -38.2582 	 54.246 	 103.513 	 
H 	 -38.2552 	 52.9002 	 102.399 	 
H 	 -38.2392 	 52.6149 	 104.147 	 
H 	 -46.2365 	 56.3017 	 103.543 	 
H 	 -38.2555 	 58.1762 	 104.894 	 
*
