! wB97X-D3 SP def2-SVP
%pal
nprocs 16
end

* xyz 0 1
S 	 55.4215 	 14.3628 	 50.2434 	 
C 	 56.3946 	 14.7502 	 51.6588 	 
C 	 55.6779 	 15.2968 	 52.6475 	 
C 	 54.2664 	 15.4183 	 52.3578 	 
C 	 53.9518 	 15.0029 	 51.0492 	 
H 	 53.4728 	 15.7934 	 52.9481 	 
C 	 56.1829 	 15.428 	 54.1141 	 
H 	 57.2675 	 15.3379 	 54.18 	 
H 	 55.7033 	 14.6109 	 54.7297 	 
C 	 55.9837 	 16.7537 	 54.8131 	 
H 	 54.9195 	 16.7862 	 54.9032 	 
H 	 56.4093 	 16.7768 	 55.8194 	 
C 	 56.7124 	 17.9764 	 54.0994 	 
H 	 57.7701 	 17.7365 	 53.8904 	 
H 	 56.3215 	 18.1261 	 53.1228 	 
H 	 56.7069 	 18.8374 	 54.7096 	 
S 	 52.5475 	 15.3397 	 48.7358 	 
C 	 50.8097 	 15.3117 	 48.7615 	 
C 	 50.3486 	 15.0585 	 50.0539 	 
C 	 51.3545 	 14.8572 	 51.0392 	 
C 	 52.6423 	 14.9957 	 50.4792 	 
H 	 49.2875 	 14.9435 	 50.2452 	 
C 	 50.9643 	 14.5365 	 52.5054 	 
H 	 51.8825 	 14.281 	 53.0184 	 
H 	 50.2839 	 13.6942 	 52.6664 	 
C 	 50.2924 	 15.7637 	 53.2208 	 
H 	 49.5261 	 16.1859 	 52.5637 	 
H 	 50.9644 	 16.5713 	 53.3151 	 
C 	 49.8186 	 15.4191 	 54.5969 	 
H 	 50.6302 	 14.7602 	 55.0061 	 
H 	 48.9122 	 14.9113 	 54.4938 	 
H 	 49.7075 	 16.4002 	 55.0301 	 
H 	 57.3512 	 14.4404 	 51.8262 	 
H 	 50.0941 	 15.4816 	 47.9229 	 
*
