! wB97X-D3 SP def2-SVP
%pal
nprocs 16
end

* xyz 0 1
S 	 57.545 	 26.8635 	 40.9845 	 
C 	 58.8477 	 26.7306 	 42.125 	 
C 	 58.3772 	 26.5864 	 43.4003 	 
C 	 56.9602 	 26.632 	 43.4652 	 
C 	 56.3594 	 26.9507 	 42.305 	 
H 	 56.3758 	 26.2558 	 44.251 	 
C 	 59.1521 	 26.1331 	 44.5759 	 
H 	 58.6998 	 25.2736 	 45.0975 	 
H 	 59.1116 	 27.0082 	 45.1632 	 
C 	 60.6075 	 25.7614 	 44.4103 	 
H 	 60.9284 	 25.4302 	 45.3726 	 
H 	 60.6043 	 25.0232 	 43.6081 	 
C 	 61.5975 	 26.9333 	 44.2981 	 
H 	 61.2292 	 27.4917 	 43.5126 	 
H 	 61.5178 	 27.6891 	 45.1496 	 
H 	 62.6455 	 26.6528 	 44.2001 	 
S 	 54.3503 	 28.6231 	 42.4434 	 
C 	 52.724 	 28.0898 	 41.8904 	 
C 	 52.6366 	 26.7964 	 41.517 	 
C 	 53.9269 	 26.1539 	 41.7114 	 
C 	 54.9575 	 27.0646 	 42.0087 	 
H 	 51.6322 	 26.366 	 41.3934 	 
C 	 53.9478 	 24.6935 	 41.4664 	 
H 	 54.7709 	 24.4464 	 40.743 	 
H 	 53.1536 	 24.4367 	 40.801 	 
C 	 54.1315 	 23.7365 	 42.6942 	 
H 	 53.2959 	 23.9803 	 43.3851 	 
H 	 55.0017 	 24.0078 	 43.174 	 
C 	 54.1726 	 22.2161 	 42.4561 	 
H 	 53.6169 	 21.8465 	 41.6248 	 
H 	 53.9163 	 21.5576 	 43.3015 	 
H 	 55.2187 	 21.9756 	 42.174 	 
H 	 59.8267 	 26.4719 	 41.8092 	 
H 	 51.7305 	 28.6548 	 42.0354 	 
*
