! wB97X-D3 SP def2-SVP
%pal
nprocs 16
end

* xyz 0 1
S 	 36.3361 	 13.0459 	 80.7481 	 
C 	 36.5703 	 14.2257 	 82.0325 	 
C 	 37.1188 	 15.4156 	 81.5041 	 
C 	 37.215 	 15.3502 	 80.137 	 
C 	 37.0437 	 14.1027 	 79.5849 	 
H 	 37.6831 	 16.0506 	 79.5255 	 
C 	 37.6499 	 16.5824 	 82.2825 	 
H 	 38.0538 	 16.3412 	 83.2946 	 
H 	 36.8275 	 17.236 	 82.4985 	 
C 	 38.6314 	 17.4548 	 81.6392 	 
H 	 39.5067 	 16.8967 	 81.2556 	 
H 	 38.1965 	 17.9098 	 80.8141 	 
C 	 39.1927 	 18.5346 	 82.5441 	 
H 	 38.5011 	 19.1384 	 83.1409 	 
H 	 39.9894 	 18.1876 	 83.1613 	 
H 	 39.6607 	 19.1948 	 81.7497 	 
S 	 35.6979 	 13.0158 	 77.4536 	 
C 	 36.2315 	 13.2578 	 75.8474 	 
C 	 37.5397 	 13.582 	 75.8313 	 
C 	 38.1101 	 13.8175 	 77.1632 	 
C 	 37.1916 	 13.6282 	 78.202 	 
H 	 38.1127 	 13.5718 	 74.9528 	 
C 	 39.5561 	 14.3096 	 77.251 	 
H 	 39.5675 	 15.3414 	 77.598 	 
H 	 40.0241 	 14.3316 	 76.2692 	 
C 	 40.4731 	 13.4357 	 78.1139 	 
H 	 41.4778 	 13.8431 	 78.0877 	 
H 	 40.5777 	 12.4858 	 77.6703 	 
C 	 40.1286 	 13.2079 	 79.5997 	 
H 	 40.9845 	 12.6871 	 80.031 	 
H 	 39.358 	 12.5052 	 79.6577 	 
H 	 39.8174 	 14.1497 	 80.0689 	 
H 	 36.3127 	 14.116 	 83.0863 	 
H 	 35.6707 	 13.0562 	 74.9659 	 
*
