! wB97X-D3 SP def2-SVP
%pal
nprocs 16
end

* xyz 0 1
S 	 -1.29583 	 46.622 	 45.7128 	 
C 	 -0.0843342 	 47.7097 	 45.1304 	 
C 	 -0.583132 	 49.0163 	 45.0537 	 
C 	 -1.96567 	 49.1853 	 45.4404 	 
C 	 -2.47833 	 47.9663 	 45.869 	 
H 	 -2.52732 	 50.0844 	 45.3731 	 
C 	 0.247694 	 50.1945 	 44.5678 	 
H 	 1.3468 	 50.0404 	 44.6969 	 
H 	 -0.0323968 	 50.9983 	 45.2563 	 
C 	 0.0229808 	 50.7419 	 43.1636 	 
H 	 -1.04531 	 51.0025 	 43.0386 	 
H 	 0.587508 	 51.6989 	 43.0246 	 
C 	 0.146066 	 49.7121 	 42.0364 	 
H 	 -0.611473 	 48.9609 	 42.0835 	 
H 	 -0.0123539 	 50.2068 	 41.0853 	 
H 	 1.09176 	 49.2092 	 42.1983 	 
S 	 -5.1697 	 48.1865 	 45.2466 	 
C 	 -6.2388 	 48.2838 	 46.5343 	 
C 	 -5.66323 	 48.0285 	 47.7719 	 
C 	 -4.28332 	 47.6943 	 47.6692 	 
C 	 -3.84354 	 47.7793 	 46.3599 	 
H 	 -6.23476 	 48.1569 	 48.7288 	 
C 	 -3.34214 	 47.4915 	 48.8526 	 
H 	 -3.06471 	 48.4192 	 49.4227 	 
H 	 -2.38869 	 47.0594 	 48.5919 	 
C 	 -3.89141 	 46.5111 	 49.9144 	 
H 	 -3.99376 	 45.5243 	 49.4896 	 
H 	 -4.88579 	 46.8575 	 50.2354 	 
C 	 -2.97774 	 46.3475 	 51.1426 	 
H 	 -3.24322 	 45.4828 	 51.7771 	 
H 	 -2.96801 	 47.1862 	 51.8046 	 
H 	 -1.97284 	 46.2262 	 50.825 	 
H 	 0.96434 	 47.5208 	 44.9814 	 
H 	 -7.28018 	 48.6519 	 46.3901 	 
*
