! wB97X-D3 SP def2-SVP
%pal
nprocs 16
end

* xyz 0 1
S 	 -22.2327 	 56.5722 	 107.87 	 
C 	 -23.8175 	 56.3273 	 107.197 	 
C 	 -24.8288 	 56.9864 	 107.937 	 
C 	 -24.203 	 57.693 	 109.006 	 
C 	 -22.8054 	 57.6065 	 109.117 	 
H 	 -24.8358 	 58.2199 	 109.694 	 
C 	 -26.3276 	 56.8351 	 107.76 	 
H 	 -26.8639 	 56.7619 	 108.71 	 
H 	 -26.4427 	 55.8292 	 107.466 	 
C 	 -27.0589 	 57.8841 	 106.903 	 
H 	 -28.1255 	 57.9817 	 107.141 	 
H 	 -26.6338 	 58.8282 	 107.135 	 
C 	 -27.1162 	 57.7319 	 105.402 	 
H 	 -26.2013 	 57.8388 	 104.97 	 
H 	 -27.5162 	 56.6894 	 105.273 	 
H 	 -27.7067 	 58.5143 	 104.925 	 
S 	 -20.952 	 59.5755 	 109.423 	 
C 	 -20.4281 	 59.9334 	 111.088 	 
C 	 -20.9693 	 59.0467 	 111.959 	 
C 	 -21.7824 	 58.0523 	 111.353 	 
C 	 -21.9639 	 58.2969 	 110 	 
H 	 -20.7677 	 59.0588 	 112.99 	 
C 	 -22.531 	 57.0213 	 112.144 	 
H 	 -21.7432 	 56.3845 	 112.613 	 
H 	 -22.998 	 56.302 	 111.415 	 
C 	 -23.5129 	 57.4933 	 113.208 	 
H 	 -22.9527 	 58.0208 	 113.998 	 
H 	 -24.0757 	 56.6765 	 113.568 	 
C 	 -24.5368 	 58.5386 	 112.772 	 
H 	 -25.1522 	 58.0694 	 111.999 	 
H 	 -24.0805 	 59.4373 	 112.32 	 
H 	 -25.1778 	 58.9373 	 113.534 	 
H 	 -24.0727 	 55.6486 	 106.357 	 
H 	 -19.7392 	 60.7101 	 111.403 	 
*
