! wB97X-D3 SP def2-SVP
%pal
nprocs 16
end

* xyz 0 1
S 	 -95.7128 	 56.2453 	 131.89 	 
C 	 -94.447 	 57.093 	 132.828 	 
C 	 -95.0148 	 58.1197 	 133.618 	 
C 	 -96.3538 	 58.3986 	 133.206 	 
C 	 -96.9494 	 57.4861 	 132.263 	 
H 	 -96.9882 	 59.1889 	 133.571 	 
C 	 -94.3202 	 58.8871 	 134.665 	 
H 	 -93.4522 	 58.3721 	 135.07 	 
H 	 -94.9337 	 59.1406 	 135.594 	 
C 	 -93.7591 	 60.218 	 134.185 	 
H 	 -92.9573 	 59.9219 	 133.431 	 
H 	 -94.4615 	 60.7721 	 133.591 	 
C 	 -93.0217 	 61.1136 	 135.215 	 
H 	 -92.2784 	 61.7711 	 134.656 	 
H 	 -93.7064 	 61.762 	 135.826 	 
H 	 -92.2662 	 60.6931 	 135.81 	 
S 	 -99.0802 	 55.6762 	 132.365 	 
C 	 -100.635 	 56.0934 	 131.694 	 
C 	 -100.536 	 57.3114 	 131.059 	 
C 	 -99.3218 	 58.0227 	 131.239 	 
C 	 -98.383 	 57.2143 	 131.92 	 
H 	 -101.433 	 57.5602 	 130.536 	 
C 	 -99.1356 	 59.5192 	 131.05 	 
H 	 -98.6808 	 59.9818 	 131.995 	 
H 	 -100.124 	 59.8959 	 130.847 	 
C 	 -98.4691 	 59.9163 	 129.764 	 
H 	 -99.0537 	 59.4092 	 129.036 	 
H 	 -97.5014 	 59.4668 	 129.597 	 
C 	 -98.5321 	 61.3743 	 129.498 	 
H 	 -98.0408 	 62.0813 	 130.153 	 
H 	 -99.5624 	 61.7117 	 129.346 	 
H 	 -97.9719 	 61.5383 	 128.564 	 
H 	 -93.4468 	 56.8239 	 132.977 	 
H 	 -101.424 	 55.4674 	 131.387 	 
*
