! wB97X-D3 SP def2-SVP
%pal
nprocs 16
end

* xyz 0 1
S 	 10.4978 	 -13.3065 	 80.8577 	 
C 	 10.6603 	 -14.5414 	 82.1353 	 
C 	 10.5261 	 -15.7889 	 81.6125 	 
C 	 10.1957 	 -15.7658 	 80.2226 	 
C 	 10.1993 	 -14.5355 	 79.6375 	 
H 	 10.0933 	 -16.6033 	 79.636 	 
C 	 10.6788 	 -17.0507 	 82.4548 	 
H 	 10.23 	 -17.965 	 81.899 	 
H 	 9.90908 	 -16.7696 	 83.2231 	 
C 	 12.0703 	 -17.3191 	 82.9588 	 
H 	 12.64 	 -17.3978 	 82.1011 	 
H 	 12.4259 	 -16.4639 	 83.4875 	 
C 	 12.1131 	 -18.5824 	 83.7693 	 
H 	 12.1139 	 -19.5384 	 83.1828 	 
H 	 12.9471 	 -18.7039 	 84.3143 	 
H 	 11.2978 	 -18.6842 	 84.5039 	 
S 	 10.8679 	 -15.0751 	 76.9446 	 
C 	 9.88156 	 -14.2841 	 75.7061 	 
C 	 8.95387 	 -13.4167 	 76.2115 	 
C 	 8.9662 	 -13.4373 	 77.6313 	 
C 	 9.97441 	 -14.23 	 78.186 	 
H 	 8.17239 	 -13.0692 	 75.569 	 
C 	 7.77788 	 -12.9102 	 78.3227 	 
H 	 7.89315 	 -13.2964 	 79.3102 	 
H 	 6.85488 	 -13.4533 	 77.975 	 
C 	 7.67149 	 -11.3684 	 78.368 	 
H 	 7.50234 	 -10.9714 	 77.3619 	 
H 	 8.64743 	 -10.9456 	 78.6658 	 
C 	 6.54271 	 -10.9121 	 79.2801 	 
H 	 5.51469 	 -10.9758 	 78.9414 	 
H 	 6.73271 	 -9.86542 	 79.6612 	 
H 	 6.64263 	 -11.5546 	 80.1489 	 
H 	 10.9826 	 -14.4806 	 83.0886 	 
H 	 9.92302 	 -14.6408 	 74.6672 	 
*
