! wB97X-D3 SP def2-SVP
%pal
nprocs 16
end

* xyz 0 1
S 	 -9.75839 	 35.925 	 32.6496 	 
C 	 -8.81917 	 35.7383 	 31.1744 	 
C 	 -9.02219 	 36.6961 	 30.2516 	 
C 	 -9.96367 	 37.6212 	 30.751 	 
C 	 -10.3422 	 37.4487 	 32.0836 	 
H 	 -10.2357 	 38.5491 	 30.276 	 
C 	 -8.28714 	 36.7767 	 28.9499 	 
H 	 -8.92181 	 37.2841 	 28.203 	 
H 	 -8.14589 	 35.7419 	 28.5536 	 
C 	 -6.96826 	 37.5254 	 28.9436 	 
H 	 -7.07829 	 38.5638 	 29.2083 	 
H 	 -6.18219 	 37.1284 	 29.6182 	 
C 	 -6.27604 	 37.5644 	 27.477 	 
H 	 -5.19668 	 37.8892 	 27.484 	 
H 	 -6.31538 	 36.5632 	 27.0209 	 
H 	 -6.94989 	 38.157 	 26.8392 	 
S 	 -10.0449 	 39.8187 	 33.3749 	 
C 	 -11.4236 	 40.3659 	 34.3529 	 
C 	 -12.4397 	 39.4417 	 34.3278 	 
C 	 -12.1621 	 38.2783 	 33.5957 	 
C 	 -10.9456 	 38.3764 	 32.9968 	 
H 	 -13.3347 	 39.5384 	 34.8932 	 
C 	 -13.0714 	 37.0651 	 33.591 	 
H 	 -13.6006 	 36.9386 	 34.5268 	 
H 	 -12.5384 	 36.1603 	 33.5056 	 
C 	 -14.1951 	 37.0847 	 32.5278 	 
H 	 -14.4615 	 36.0853 	 32.4188 	 
H 	 -13.8454 	 37.3475 	 31.515 	 
C 	 -15.4201 	 37.8937 	 33.0766 	 
H 	 -15.6564 	 37.5791 	 34.0206 	 
H 	 -16.2385 	 37.6108 	 32.3781 	 
H 	 -15.0416 	 38.9232 	 33.1238 	 
H 	 -8.11018 	 34.9371 	 31.0391 	 
H 	 -11.3893 	 41.1606 	 35.0742 	 
*
