! wB97X-D3 SP def2-SVP
%pal
nprocs 16
end

* xyz 0 1
S 	 -44.4628 	 25.766 	 83.653 	 
C 	 -44.8778 	 24.0072 	 83.542 	 
C 	 -43.7808 	 23.2546 	 83.2685 	 
C 	 -42.6123 	 24.0313 	 83.1404 	 
C 	 -42.8474 	 25.3745 	 83.1668 	 
H 	 -41.6534 	 23.5828 	 82.9546 	 
C 	 -43.9332 	 21.7908 	 83.1019 	 
H 	 -43.1344 	 21.4143 	 82.3559 	 
H 	 -44.9295 	 21.5255 	 82.721 	 
C 	 -43.9767 	 21.0394 	 84.4334 	 
H 	 -44.1108 	 19.9265 	 84.2299 	 
H 	 -43.0521 	 21.1011 	 84.9961 	 
C 	 -44.9477 	 21.5721 	 85.4754 	 
H 	 -45.0818 	 20.9704 	 86.3272 	 
H 	 -44.7467 	 22.6434 	 85.8691 	 
H 	 -45.9207 	 21.7186 	 85.0317 	 
S 	 -42.5437 	 27.9704 	 82.3198 	 
C 	 -40.9654 	 28.6747 	 82.2007 	 
C 	 -40.0389 	 27.7394 	 82.4075 	 
C 	 -40.5737 	 26.4517 	 82.7806 	 
C 	 -41.9358 	 26.4011 	 82.7635 	 
H 	 -38.9585 	 27.9297 	 82.3195 	 
C 	 -39.6532 	 25.2914 	 82.9919 	 
H 	 -39.975 	 24.6286 	 83.8184 	 
H 	 -38.7102 	 25.7792 	 83.3515 	 
C 	 -39.3063 	 24.326 	 81.7888 	 
H 	 -38.7296 	 24.8332 	 81.0614 	 
H 	 -40.29 	 24.0437 	 81.4311 	 
C 	 -38.6125 	 23.0373 	 82.2292 	 
H 	 -38.5846 	 22.2513 	 81.4322 	 
H 	 -39.1629 	 22.7546 	 83.0702 	 
H 	 -37.5402 	 23.1041 	 82.6521 	 
H 	 -45.848 	 23.5774 	 83.7516 	 
H 	 -40.8016 	 29.7816 	 82.0989 	 
*
