! wB97X-D3 SP def2-SVP
%pal
nprocs 16
end

* xyz 0 1
S 	 -65.6261 	 46.0272 	 121.952 	 
C 	 -66.4952 	 44.6217 	 122.495 	 
C 	 -67.5617 	 45.0148 	 123.276 	 
C 	 -67.7494 	 46.4088 	 123.397 	 
C 	 -66.7484 	 47.1184 	 122.773 	 
H 	 -68.5809 	 46.9324 	 123.863 	 
C 	 -68.4858 	 44.0444 	 123.979 	 
H 	 -68.7492 	 43.3709 	 123.221 	 
H 	 -69.4015 	 44.5991 	 124.309 	 
C 	 -67.9036 	 43.3687 	 125.291 	 
H 	 -66.874 	 43.1 	 125.095 	 
H 	 -67.7217 	 43.9935 	 126.13 	 
C 	 -68.637 	 42.1425 	 125.735 	 
H 	 -68.0045 	 41.5074 	 126.31 	 
H 	 -69.4166 	 42.5494 	 126.447 	 
H 	 -69.3178 	 41.6528 	 125.021 	 
S 	 -66.7342 	 49.5587 	 121.449 	 
C 	 -66.2665 	 51.0756 	 122.315 	 
C 	 -66.0966 	 50.7604 	 123.672 	 
C 	 -66.3527 	 49.374 	 123.95 	 
C 	 -66.5878 	 48.5896 	 122.889 	 
H 	 -65.9549 	 51.5361 	 124.451 	 
C 	 -66.1865 	 48.8406 	 125.417 	 
H 	 -66.6697 	 47.8844 	 125.468 	 
H 	 -66.7808 	 49.6064 	 125.955 	 
C 	 -64.6693 	 48.7746 	 125.891 	 
H 	 -64.198 	 49.8126 	 125.659 	 
H 	 -64.0585 	 48.0466 	 125.298 	 
C 	 -64.5454 	 48.6681 	 127.445 	 
H 	 -65.2567 	 49.308 	 127.863 	 
H 	 -63.5832 	 48.845 	 127.793 	 
H 	 -64.7587 	 47.6064 	 127.696 	 
H 	 -66.1363 	 43.5874 	 122.366 	 
H 	 -66.1602 	 52.0624 	 121.79 	 
*
