! wB97X-D3 SP def2-SVP
%pal
nprocs 16
end

* xyz 0 1
S 	 6.47261 	 77.1097 	 45.42 	 
C 	 6.48351 	 75.405 	 44.9647 	 
C 	 6.83749 	 74.4976 	 45.9713 	 
C 	 7.01724 	 75.2096 	 47.1843 	 
C 	 6.93886 	 76.5835 	 47.0584 	 
H 	 7.14134 	 74.7965 	 48.2124 	 
C 	 6.82953 	 72.9931 	 45.8178 	 
H 	 7.81495 	 72.5818 	 46.1568 	 
H 	 6.77173 	 72.8974 	 44.7343 	 
C 	 5.75838 	 72.2149 	 46.5671 	 
H 	 5.42665 	 72.8805 	 47.3481 	 
H 	 4.86796 	 72.2269 	 45.9076 	 
C 	 6.16244 	 70.8184 	 47.0811 	 
H 	 5.35833 	 70.2502 	 47.4716 	 
H 	 6.69056 	 70.1986 	 46.3625 	 
H 	 6.96349 	 70.9071 	 47.872 	 
S 	 8.85931 	 78.3754 	 47.6906 	 
C 	 8.49656 	 79.3553 	 49.1032 	 
C 	 7.52177 	 78.8931 	 49.8993 	 
C 	 6.89926 	 77.8088 	 49.3016 	 
C 	 7.40161 	 77.5064 	 48.0361 	 
H 	 7.24912 	 79.352 	 50.8642 	 
C 	 5.6803 	 77.173 	 50.0022 	 
H 	 5.38343 	 77.8048 	 50.8196 	 
H 	 5.96209 	 76.2781 	 50.5514 	 
C 	 4.4564 	 76.7459 	 49.1553 	 
H 	 3.79799 	 76.1389 	 49.6376 	 
H 	 4.73049 	 76.0684 	 48.3413 	 
C 	 3.84685 	 78.0352 	 48.5787 	 
H 	 2.77309 	 77.9334 	 48.3216 	 
H 	 4.46194 	 78.3074 	 47.692 	 
H 	 3.84121 	 78.803 	 49.3638 	 
H 	 6.2181 	 75.065 	 43.9824 	 
H 	 8.94501 	 80.2496 	 49.378 	 
*
