! wB97X-D3 SP def2-SVP
%pal
nprocs 16
end

* xyz 0 1
S 	 -117.257 	 55.3827 	 109.85 	 
C 	 -115.953 	 54.257 	 109.53 	 
C 	 -114.981 	 54.3873 	 110.462 	 
C 	 -115.263 	 55.3591 	 111.504 	 
C 	 -116.56 	 55.8506 	 111.412 	 
H 	 -114.685 	 55.6304 	 112.35 	 
C 	 -113.693 	 53.5718 	 110.565 	 
H 	 -113.879 	 52.5013 	 110.859 	 
H 	 -113.148 	 53.9002 	 111.429 	 
C 	 -112.829 	 53.7606 	 109.31 	 
H 	 -111.971 	 53.0838 	 109.511 	 
H 	 -113.376 	 53.3816 	 108.501 	 
C 	 -112.181 	 55.1666 	 109.022 	 
H 	 -111.908 	 55.2876 	 107.991 	 
H 	 -112.809 	 56.0005 	 109.485 	 
H 	 -111.21 	 55.2175 	 109.468 	 
S 	 -117.613 	 58.3949 	 111.361 	 
C 	 -117.946 	 59.2058 	 112.862 	 
C 	 -117.802 	 58.2916 	 113.902 	 
C 	 -117.318 	 57.006 	 113.618 	 
C 	 -117.146 	 56.8532 	 112.2 	 
H 	 -117.989 	 58.6237 	 114.913 	 
C 	 -116.951 	 55.9324 	 114.684 	 
H 	 -117.128 	 55.0614 	 114.142 	 
H 	 -117.728 	 56.0542 	 115.478 	 
C 	 -115.458 	 55.7615 	 115.235 	 
H 	 -114.653 	 55.1985 	 114.608 	 
H 	 -115.523 	 55.0629 	 116.069 	 
C 	 -114.708 	 57.0664 	 115.61 	 
H 	 -113.752 	 56.8151 	 115.987 	 
H 	 -115.277 	 57.6156 	 116.407 	 
H 	 -114.73 	 57.7806 	 114.794 	 
H 	 -115.904 	 53.6624 	 108.66 	 
H 	 -118.312 	 60.2206 	 112.924 	 
*
