! wB97X-D3 SP def2-SVP
%pal
nprocs 16
end

* xyz 0 1
S 	 -81.7751 	 45.2679 	 137.467 	 
C 	 -81.664 	 44.5928 	 139.124 	 
C 	 -80.3585 	 44.0155 	 139.306 	 
C 	 -79.517 	 44.2979 	 138.21 	 
C 	 -80.1085 	 44.9953 	 137.136 	 
H 	 -78.4625 	 44.0594 	 138.194 	 
C 	 -79.7396 	 43.3335 	 140.545 	 
H 	 -80.4742 	 43.4139 	 141.319 	 
H 	 -78.952 	 44.0533 	 140.88 	 
C 	 -79.1798 	 41.8588 	 140.434 	 
H 	 -78.5493 	 41.7053 	 139.518 	 
H 	 -78.4469 	 41.652 	 141.166 	 
C 	 -80.1576 	 40.7273 	 140.662 	 
H 	 -80.9979 	 40.7856 	 140.012 	 
H 	 -79.6664 	 39.8122 	 140.36 	 
H 	 -80.5501 	 40.5565 	 141.618 	 
S 	 -79.9612 	 47.2474 	 135.535 	 
C 	 -78.5865 	 47.4519 	 134.523 	 
C 	 -77.9525 	 46.2398 	 134.285 	 
C 	 -78.3733 	 45.247 	 135.222 	 
C 	 -79.3898 	 45.6806 	 136.094 	 
H 	 -77.0856 	 46.2214 	 133.582 	 
C 	 -77.6298 	 43.9331 	 135.335 	 
H 	 -77.1799 	 43.937 	 136.326 	 
H 	 -76.7211 	 44.0296 	 134.695 	 
C 	 -78.3424 	 42.5933 	 135.089 	 
H 	 -79.3201 	 42.5988 	 135.584 	 
H 	 -77.7401 	 41.7311 	 135.435 	 
C 	 -78.9367 	 42.3586 	 133.654 	 
H 	 -79.481 	 41.4361 	 133.56 	 
H 	 -78.11 	 42.3197 	 132.972 	 
H 	 -79.6335 	 43.2325 	 133.298 	 
H 	 -82.4326 	 44.286 	 139.761 	 
H 	 -78.3596 	 48.3466 	 133.828 	 
*
