! wB97X-D3 SP def2-SVP
%pal
nprocs 16
end

* xyz 0 1
S 	 -64.6465 	 48.4082 	 124.727 	 
C 	 -63.6839 	 47.0662 	 125.328 	 
C 	 -63.0484 	 47.4111 	 126.504 	 
C 	 -63.2746 	 48.7959 	 126.839 	 
C 	 -64.197 	 49.4528 	 126.025 	 
H 	 -62.9355 	 49.3842 	 127.677 	 
C 	 -62.1207 	 46.4566 	 127.273 	 
H 	 -61.2376 	 47.0909 	 127.537 	 
H 	 -61.711 	 45.6898 	 126.624 	 
C 	 -62.7017 	 45.655 	 128.467 	 
H 	 -63.3356 	 46.2754 	 129.193 	 
H 	 -63.3613 	 44.8851 	 128.082 	 
C 	 -61.5791 	 44.9198 	 129.223 	 
H 	 -60.693 	 45.5863 	 129.215 	 
H 	 -61.7522 	 44.6453 	 130.232 	 
H 	 -61.1829 	 44.0209 	 128.69 	 
S 	 -63.6914 	 51.6941 	 124.635 	 
C 	 -63.9868 	 53.2465 	 125.338 	 
C 	 -64.5098 	 53.1607 	 126.644 	 
C 	 -64.7811 	 51.7944 	 127.004 	 
C 	 -64.3834 	 50.8962 	 126.027 	 
H 	 -64.7387 	 54.052 	 127.198 	 
C 	 -65.2936 	 51.3967 	 128.423 	 
H 	 -65.2647 	 50.3246 	 128.33 	 
H 	 -66.3561 	 51.5583 	 128.441 	 
C 	 -64.5748 	 51.8427 	 129.658 	 
H 	 -64.2993 	 52.8294 	 129.534 	 
H 	 -63.6048 	 51.2696 	 129.857 	 
C 	 -65.6057 	 51.7767 	 130.815 	 
H 	 -66.3457 	 52.4668 	 130.759 	 
H 	 -65.072 	 51.8438 	 131.844 	 
H 	 -66.0071 	 50.6978 	 130.837 	 
H 	 -63.5182 	 46.1423 	 124.839 	 
H 	 -63.7939 	 54.1821 	 124.851 	 
*
