! wB97X-D3 SP def2-SVP
%pal
nprocs 16
end

* xyz 0 1
S 	 38.3335 	 11.2129 	 77.0033 	 
C 	 38.9804 	 9.76663 	 77.8024 	 
C 	 39.5276 	 10.127 	 79.0567 	 
C 	 39.3484 	 11.5367 	 79.321 	 
C 	 38.7003 	 12.2591 	 78.3453 	 
H 	 39.6392 	 12.0701 	 80.2418 	 
C 	 40.1191 	 9.05281 	 80.0264 	 
H 	 39.3567 	 8.49112 	 80.5529 	 
H 	 40.4944 	 9.61095 	 80.8358 	 
C 	 41.2336 	 8.12214 	 79.5336 	 
H 	 41.5718 	 7.55043 	 80.4775 	 
H 	 40.8834 	 7.3351 	 78.8587 	 
C 	 42.3278 	 8.81691 	 78.7488 	 
H 	 42.0446 	 9.32143 	 77.8924 	 
H 	 42.9585 	 9.54743 	 79.3781 	 
H 	 43.0705 	 8.01138 	 78.4365 	 
S 	 39.1506 	 14.3288 	 76.6274 	 
C 	 38.8713 	 16.0072 	 77.1183 	 
C 	 38.5638 	 16.0971 	 78.449 	 
C 	 38.3479 	 14.8086 	 79.0097 	 
C 	 38.6162 	 13.7109 	 78.1848 	 
H 	 38.3331 	 17.0012 	 78.9044 	 
C 	 37.8083 	 14.7022 	 80.4392 	 
H 	 37.9555 	 13.673 	 80.7789 	 
H 	 36.7502 	 14.8977 	 80.3769 	 
C 	 38.5505 	 15.617 	 81.464 	 
H 	 38.0235 	 15.466 	 82.4008 	 
H 	 38.4498 	 16.678 	 81.163 	 
C 	 40.0574 	 15.385 	 81.5671 	 
H 	 40.3501 	 14.4722 	 82.0852 	 
H 	 40.55 	 16.1962 	 82.0568 	 
H 	 40.5139 	 15.2936 	 80.6095 	 
H 	 38.8375 	 8.76359 	 77.3698 	 
H 	 38.8463 	 16.816 	 76.3751 	 
*
