! wB97X-D3 SP def2-SVP
%pal
nprocs 16
end

* xyz 0 1
S 	 18.9617 	 -8.70156 	 82.1185 	 
C 	 17.968 	 -7.2776 	 82.2777 	 
C 	 16.602 	 -7.56362 	 82.4154 	 
C 	 16.374 	 -8.9295 	 82.6004 	 
C 	 17.5447 	 -9.66385 	 82.4076 	 
H 	 15.3802 	 -9.35445 	 82.7692 	 
C 	 15.5651 	 -6.49153 	 82.5478 	 
H 	 16.0911 	 -5.71934 	 83.1122 	 
H 	 14.7703 	 -6.7985 	 83.1686 	 
C 	 14.9402 	 -5.87835 	 81.2953 	 
H 	 15.7682 	 -5.43235 	 80.6684 	 
H 	 14.5386 	 -6.70251 	 80.7202 	 
C 	 13.8682 	 -4.80157 	 81.7241 	 
H 	 13.3037 	 -5.21047 	 82.5661 	 
H 	 14.3017 	 -3.94175 	 82.1889 	 
H 	 13.286 	 -4.48658 	 80.8705 	 
S 	 17.1947 	 -11.8064 	 84.0684 	 
C 	 17.7584 	 -13.3638 	 83.6321 	 
C 	 18.3374 	 -13.3306 	 82.388 	 
C 	 18.2719 	 -12.0546 	 81.7453 	 
C 	 17.6893 	 -11.0985 	 82.5685 	 
H 	 18.7477 	 -14.2774 	 82.0273 	 
C 	 18.9083 	 -11.8169 	 80.3529 	 
H 	 19.6513 	 -12.6542 	 80.2832 	 
H 	 19.5374 	 -10.9297 	 80.6033 	 
C 	 18.0248 	 -11.6819 	 79.1135 	 
H 	 18.8199 	 -11.3062 	 78.4461 	 
H 	 17.261 	 -10.9025 	 79.3179 	 
C 	 17.3733 	 -12.9112 	 78.4355 	 
H 	 18.111 	 -13.7076 	 78.1101 	 
H 	 16.9692 	 -12.6554 	 77.5473 	 
H 	 16.6 	 -13.408 	 78.9149 	 
H 	 18.3632 	 -6.27538 	 82.0143 	 
H 	 17.7754 	 -14.2971 	 84.1568 	 
*
