! wB97X-D3 SP def2-SVP
%pal
nprocs 16
end

* xyz 0 1
S 	 -54.7133 	 24.7321 	 92.6542 	 
C 	 -53.0036 	 24.2753 	 92.7977 	 
C 	 -52.266 	 25.4112 	 92.9884 	 
C 	 -53.0062 	 26.6198 	 92.9664 	 
C 	 -54.3632 	 26.4149 	 92.8338 	 
H 	 -52.5747 	 27.6066 	 92.8921 	 
C 	 -50.7516 	 25.3944 	 93.2124 	 
H 	 -50.4054 	 26.3498 	 92.8671 	 
H 	 -50.3605 	 24.7003 	 92.4903 	 
C 	 -50.223 	 24.9834 	 94.6156 	 
H 	 -50.6636 	 25.5226 	 95.3815 	 
H 	 -50.574 	 23.9773 	 94.7373 	 
C 	 -48.7289 	 24.8581 	 94.6184 	 
H 	 -48.3792 	 24.4391 	 95.5812 	 
H 	 -48.3163 	 24.3519 	 93.7617 	 
H 	 -48.3666 	 25.8754 	 94.4757 	 
S 	 -56.7721 	 27.3349 	 91.7977 	 
C 	 -57.2429 	 28.9663 	 92.1988 	 
C 	 -56.3889 	 29.5628 	 93.1381 	 
C 	 -55.2536 	 28.7521 	 93.3819 	 
C 	 -55.3377 	 27.4691 	 92.7842 	 
H 	 -56.7098 	 30.5067 	 93.5379 	 
C 	 -54.2822 	 29.2602 	 94.4863 	 
H 	 -53.7466 	 28.3436 	 94.9179 	 
H 	 -54.8334 	 29.582 	 95.3477 	 
C 	 -53.306 	 30.3163 	 94.0421 	 
H 	 -53.8929 	 30.9569 	 93.3054 	 
H 	 -52.5528 	 29.8638 	 93.4784 	 
C 	 -52.6517 	 31.0419 	 95.186 	 
H 	 -51.9458 	 31.8697 	 94.8863 	 
H 	 -52.1342 	 30.2958 	 95.844 	 
H 	 -53.3761 	 31.552 	 95.7651 	 
H 	 -52.491 	 23.3337 	 93.0152 	 
H 	 -58.1398 	 29.4448 	 91.8374 	 
*
