! wB97X-D3 SP def2-SVP
%pal
nprocs 16
end

* xyz 0 1
S 	 5.09589 	 -18.2831 	 83.1788 	 
C 	 4.4727 	 -19.7437 	 84.0493 	 
C 	 5.11787 	 -19.847 	 85.2435 	 
C 	 5.99096 	 -18.7669 	 85.5166 	 
C 	 6.07728 	 -17.8232 	 84.5265 	 
H 	 6.60363 	 -18.6509 	 86.3936 	 
C 	 4.94905 	 -20.9783 	 86.1827 	 
H 	 3.88866 	 -21.1795 	 86.3334 	 
H 	 5.17982 	 -20.6569 	 87.1867 	 
C 	 5.62843 	 -22.2826 	 85.8223 	 
H 	 5.2885 	 -22.7538 	 84.933 	 
H 	 6.72967 	 -22.1366 	 85.6647 	 
C 	 5.29296 	 -23.2997 	 86.843 	 
H 	 5.82891 	 -24.2244 	 86.5351 	 
H 	 5.61084 	 -23.0489 	 87.8163 	 
H 	 4.19575 	 -23.5244 	 86.8763 	 
S 	 6.63462 	 -15.1407 	 84.0277 	 
C 	 8.25033 	 -14.4724 	 84.1175 	 
C 	 9.09345 	 -15.5112 	 84.2725 	 
C 	 8.48108 	 -16.8152 	 84.5186 	 
C 	 7.08977 	 -16.7564 	 84.4132 	 
H 	 10.1472 	 -15.3543 	 84.3054 	 
C 	 9.23873 	 -18.0575 	 84.8524 	 
H 	 9.88342 	 -18.2839 	 83.9729 	 
H 	 8.62388 	 -18.9644 	 84.8961 	 
C 	 10.198 	 -17.9494 	 86.0898 	 
H 	 9.79294 	 -17.6398 	 87.0321 	 
H 	 10.8789 	 -17.14 	 85.9085 	 
C 	 11.1043 	 -19.1252 	 86.3028 	 
H 	 11.6393 	 -19.4135 	 85.3773 	 
H 	 10.5423 	 -20.044 	 86.6915 	 
H 	 11.932 	 -18.983 	 86.9747 	 
H 	 3.83615 	 -20.5652 	 83.6056 	 
H 	 8.46326 	 -13.463 	 83.859 	 
*
