! wB97X-D3 SP def2-SVP
%pal
nprocs 16
end

* xyz 0 1
S 	 -13.7209 	 66.4381 	 55.9058 	 
C 	 -12.9568 	 64.8888 	 56.3965 	 
C 	 -12.5989 	 64.2477 	 55.247 	 
C 	 -12.4534 	 65.1654 	 54.196 	 
C 	 -12.7521 	 66.4438 	 54.4714 	 
H 	 -11.9716 	 64.8638 	 53.2738 	 
C 	 -12.1555 	 62.8077 	 55.093 	 
H 	 -12.2402 	 62.5927 	 54.0408 	 
H 	 -12.8731 	 62.1863 	 55.5792 	 
C 	 -10.7007 	 62.5141 	 55.6106 	 
H 	 -9.94769 	 63.1586 	 55.269 	 
H 	 -10.732 	 62.6606 	 56.7 	 
C 	 -10.1935 	 61.1335 	 55.3735 	 
H 	 -9.10942 	 61.0281 	 55.6377 	 
H 	 -10.6888 	 60.3459 	 55.9039 	 
H 	 -10.3043 	 60.7802 	 54.3699 	 
S 	 -13.6552 	 68.6754 	 53.1101 	 
C 	 -12.4966 	 69.8356 	 52.5221 	 
C 	 -11.1423 	 69.445 	 52.7063 	 
C 	 -11.1133 	 68.2193 	 53.4572 	 
C 	 -12.3761 	 67.6826 	 53.7431 	 
H 	 -10.4532 	 70.1734 	 52.3589 	 
C 	 -9.7765 	 67.5909 	 53.7786 	 
H 	 -9.03972 	 67.6373 	 52.9695 	 
H 	 -9.89152 	 66.5596 	 53.9229 	 
C 	 -9.13355 	 68.1704 	 55.0822 	 
H 	 -9.88745 	 68.2743 	 55.8583 	 
H 	 -8.79926 	 69.148 	 54.8085 	 
C 	 -7.84668 	 67.3793 	 55.544 	 
H 	 -8.08727 	 66.4247 	 56.0698 	 
H 	 -7.03244 	 67.9574 	 56.0996 	 
H 	 -7.36241 	 67.0364 	 54.6297 	 
H 	 -13.2364 	 64.4556 	 57.4272 	 
H 	 -12.6868 	 70.7484 	 52.0333 	 
*
