! wB97X-D3 SP def2-SVP
%pal
nprocs 16
end

* xyz 0 1
S 	 -59.1828 	 37.3678 	 117.701 	 
C 	 -58.1504 	 38.2252 	 118.798 	 
C 	 -58.5406 	 39.5722 	 119.008 	 
C 	 -59.5888 	 39.9398 	 118.153 	 
C 	 -60.0571 	 38.8739 	 117.379 	 
H 	 -60.1763 	 40.8661 	 118.053 	 
C 	 -58.0469 	 40.533 	 119.995 	 
H 	 -57.5062 	 41.3615 	 119.499 	 
H 	 -57.2336 	 40.0481 	 120.582 	 
C 	 -59.02 	 41.1073 	 121.064 	 
H 	 -58.5581 	 41.9962 	 121.501 	 
H 	 -59.8463 	 41.564 	 120.609 	 
C 	 -59.3347 	 40.2391 	 122.249 	 
H 	 -60.0704 	 40.7145 	 122.981 	 
H 	 -59.5507 	 39.2075 	 122.037 	 
H 	 -58.467 	 40.1393 	 122.891 	 
S 	 -61.1528 	 38.8687 	 114.805 	 
C 	 -62.8463 	 39.0838 	 114.678 	 
C 	 -63.486 	 39.3092 	 115.892 	 
C 	 -62.5737 	 39.1796 	 117.009 	 
C 	 -61.2897 	 38.9286 	 116.569 	 
H 	 -64.4692 	 39.6525 	 115.919 	 
C 	 -63.1214 	 39.2721 	 118.417 	 
H 	 -62.3286 	 39.114 	 119.134 	 
H 	 -63.8898 	 38.4822 	 118.52 	 
C 	 -63.8219 	 40.6066 	 118.672 	 
H 	 -64.4427 	 40.47 	 119.548 	 
H 	 -64.5015 	 40.8337 	 117.844 	 
C 	 -62.8282 	 41.7124 	 118.888 	 
H 	 -62.2773 	 41.9684 	 117.953 	 
H 	 -62.165 	 41.5721 	 119.726 	 
H 	 -63.4409 	 42.5869 	 119.04 	 
H 	 -57.5304 	 37.6897 	 119.545 	 
H 	 -63.3625 	 39.2369 	 113.719 	 
*
