! wB97X-D3 SP def2-SVP
%pal
nprocs 16
end

* xyz 0 1
S 	 -12.9081 	 73.4805 	 48.4103 	 
C 	 -14.5474 	 73.9377 	 47.9882 	 
C 	 -15.5131 	 72.9989 	 48.3634 	 
C 	 -14.8909 	 71.8509 	 48.9416 	 
C 	 -13.5309 	 71.9205 	 49.0164 	 
H 	 -15.3189 	 71.0164 	 49.3959 	 
C 	 -16.9808 	 73.0133 	 47.9351 	 
H 	 -17.4681 	 72.0962 	 48.0456 	 
H 	 -17.0389 	 73.1719 	 46.8516 	 
C 	 -17.7667 	 74.167 	 48.6939 	 
H 	 -17.7271 	 74.1464 	 49.796 	 
H 	 -17.3082 	 75.0919 	 48.4094 	 
C 	 -19.259 	 74.2387 	 48.2982 	 
H 	 -19.782 	 75.1789 	 48.5343 	 
H 	 -19.3027 	 74.1639 	 47.2028 	 
H 	 -19.6812 	 73.4253 	 48.9164 	 
S 	 -11.399 	 71.7389 	 50.7198 	 
C 	 -10.7865 	 70.2672 	 51.2603 	 
C 	 -11.4293 	 69.1889 	 50.658 	 
C 	 -12.5465 	 69.6144 	 49.8777 	 
C 	 -12.5984 	 71.0244 	 49.7463 	 
H 	 -11.1616 	 68.1307 	 50.8571 	 
C 	 -13.5419 	 68.5684 	 49.3249 	 
H 	 -12.9668 	 67.8711 	 48.7236 	 
H 	 -14.3487 	 69.0032 	 48.7302 	 
C 	 -14.1607 	 67.771 	 50.5087 	 
H 	 -14.7817 	 68.4093 	 51.1336 	 
H 	 -13.4598 	 67.3129 	 51.1539 	 
C 	 -15.0165 	 66.6104 	 49.989 	 
H 	 -14.5681 	 65.8695 	 49.3355 	 
H 	 -15.9198 	 67.1345 	 49.6292 	 
H 	 -15.3532 	 66.2044 	 50.871 	 
H 	 -14.798 	 74.782 	 47.431 	 
H 	 -9.91594 	 70.2177 	 51.8811 	 
*
