! wB97X-D3 SP def2-SVP
%pal
nprocs 16
end

* xyz 0 1
S 	 15.0337 	 35.1615 	 59.1079 	 
C 	 16.7586 	 35.2886 	 58.7378 	 
C 	 17.5496 	 35.4493 	 59.9086 	 
C 	 16.7125 	 35.2887 	 61.1222 	 
C 	 15.4095 	 35.2803 	 60.8239 	 
H 	 17.048 	 35.309 	 62.2021 	 
C 	 19.0148 	 35.6598 	 59.8686 	 
H 	 19.3478 	 35.9754 	 58.9353 	 
H 	 19.5642 	 34.6901 	 59.8744 	 
C 	 19.5728 	 36.7248 	 60.8002 	 
H 	 19.5774 	 36.3979 	 61.8054 	 
H 	 20.6629 	 36.8313 	 60.5485 	 
C 	 18.939 	 38.1968 	 60.7927 	 
H 	 17.9106 	 38.273 	 61.121 	 
H 	 19.5623 	 38.8717 	 61.4884 	 
H 	 18.9349 	 38.662 	 59.7933 	 
S 	 13.3491 	 33.6806 	 61.7471 	 
C 	 12.5856 	 34.1394 	 63.216 	 
C 	 12.9886 	 35.3445 	 63.6851 	 
C 	 14.0415 	 35.9305 	 62.9697 	 
C 	 14.4015 	 35.1229 	 61.8993 	 
H 	 12.5118 	 35.8086 	 64.5576 	 
C 	 14.5529 	 37.3437 	 63.4188 	 
H 	 15.6255 	 37.2911 	 63.2759 	 
H 	 14.6085 	 37.4758 	 64.5277 	 
C 	 14.0422 	 38.5728 	 62.5877 	 
H 	 14.5708 	 39.3544 	 62.9925 	 
H 	 12.9404 	 38.718 	 62.7364 	 
C 	 14.487 	 38.4475 	 61.1406 	 
H 	 14.2971 	 39.3894 	 60.7423 	 
H 	 14.0188 	 37.6339 	 60.5651 	 
H 	 15.5277 	 38.2053 	 61.0967 	 
H 	 17.273 	 35.3356 	 57.7692 	 
H 	 11.7385 	 33.5552 	 63.636 	 
*
