! wB97X-D3 SP def2-SVP
%pal
nprocs 16
end

* xyz 0 1
S 	 46.5379 	 11.5299 	 50.442 	 
C 	 45.3327 	 10.7792 	 49.2694 	 
C 	 44.289 	 11.6425 	 48.9846 	 
C 	 44.3524 	 12.8307 	 49.7111 	 
C 	 45.4433 	 12.9248 	 50.5671 	 
H 	 43.552 	 13.5654 	 49.7458 	 
C 	 43.1116 	 11.3585 	 48.0784 	 
H 	 43.2813 	 10.4676 	 47.518 	 
H 	 42.9885 	 12.2249 	 47.3937 	 
C 	 41.8115 	 11.0729 	 48.8673 	 
H 	 41.9674 	 10.1974 	 49.521 	 
H 	 41.5682 	 11.8314 	 49.5717 	 
C 	 40.5716 	 10.9094 	 47.9667 	 
H 	 39.6294 	 11.0238 	 48.5942 	 
H 	 40.5695 	 11.745 	 47.268 	 
H 	 40.6009 	 9.96163 	 47.4313 	 
S 	 47.2417 	 14.9044 	 51.248 	 
C 	 46.8589 	 16.0354 	 52.4933 	 
C 	 45.5557 	 15.8324 	 52.9824 	 
C 	 44.9541 	 14.7039 	 52.4208 	 
C 	 45.7325 	 14.0338 	 51.5074 	 
H 	 45.2375 	 16.3314 	 53.8664 	 
C 	 43.5466 	 14.3543 	 52.8395 	 
H 	 43.6972 	 14.2588 	 53.9272 	 
H 	 43.3869 	 13.3764 	 52.4885 	 
C 	 42.3852 	 15.1938 	 52.2509 	 
H 	 42.3595 	 15.377 	 51.1322 	 
H 	 42.4016 	 16.203 	 52.8383 	 
C 	 41.071 	 14.4906 	 52.5657 	 
H 	 40.9248 	 14.3097 	 53.6476 	 
H 	 41.0124 	 13.5759 	 52.0353 	 
H 	 40.1755 	 15.0497 	 52.2019 	 
H 	 45.5113 	 9.8369 	 48.7864 	 
H 	 47.5305 	 16.7121 	 52.9507 	 
*
