! wB97X-D3 SP def2-SVP
%pal
nprocs 16
end

* xyz 0 1
S 	 10.3424 	 -11.0095 	 100.177 	 
C 	 11.0886 	 -11.3213 	 101.7 	 
C 	 10.3537 	 -12.1525 	 102.523 	 
C 	 9.12428 	 -12.5497 	 101.836 	 
C 	 9.07016 	 -12.2092 	 100.5 	 
H 	 8.40754 	 -13.314 	 102.251 	 
C 	 10.8129 	 -12.5845 	 103.895 	 
H 	 10.0041 	 -12.5386 	 104.596 	 
H 	 11.4428 	 -11.6984 	 104.237 	 
C 	 11.425 	 -14.012 	 103.991 	 
H 	 11.7737 	 -14.0917 	 105.045 	 
H 	 10.6706 	 -14.7625 	 103.806 	 
C 	 12.6353 	 -14.3717 	 103.104 	 
H 	 12.3422 	 -14.4166 	 102.104 	 
H 	 13.3568 	 -13.5667 	 103.3 	 
H 	 13.0521 	 -15.3258 	 103.378 	 
S 	 7.67479 	 -10.9335 	 98.6234 	 
C 	 6.32892 	 -11.582 	 97.8072 	 
C 	 6.16374 	 -12.8596 	 98.2116 	 
C 	 7.07631 	 -13.3317 	 99.2564 	 
C 	 8.05879 	 -12.3535 	 99.5382 	 
H 	 5.28552 	 -13.5031 	 97.7921 	 
C 	 6.99702 	 -14.6873 	 99.9001 	 
H 	 6.0102 	 -15.0942 	 99.8881 	 
H 	 7.29481 	 -14.7492 	 100.946 	 
C 	 7.93138 	 -15.7275 	 99.1507 	 
H 	 9.07802 	 -15.4057 	 99.1893 	 
H 	 7.72506 	 -15.7278 	 98.111 	 
C 	 7.69368 	 -17.1876 	 99.5203 	 
H 	 7.34769 	 -17.5289 	 100.463 	 
H 	 8.60758 	 -17.7678 	 99.2164 	 
H 	 6.85297 	 -17.5675 	 98.9809 	 
H 	 12.1428 	 -10.9577 	 101.925 	 
H 	 5.75386 	 -10.9999 	 97.0461 	 
*
