! wB97X-D3 SP def2-SVP
%pal
nprocs 16
end

* xyz 0 1
S 	 -1.54077 	 -19.3276 	 86.0118 	 
C 	 -3.15003 	 -19.8068 	 86.6812 	 
C 	 -3.03382 	 -19.6887 	 88.0424 	 
C 	 -1.83071 	 -19.0223 	 88.4851 	 
C 	 -1.00524 	 -18.562 	 87.4666 	 
H 	 -1.59633 	 -18.7206 	 89.4869 	 
C 	 -4.06095 	 -20.2458 	 88.9333 	 
H 	 -3.73546 	 -21.2893 	 88.999 	 
H 	 -5.02518 	 -20.2405 	 88.4058 	 
C 	 -4.31341 	 -19.6005 	 90.2888 	 
H 	 -5.07735 	 -20.2391 	 90.8189 	 
H 	 -3.45426 	 -19.5816 	 90.9105 	 
C 	 -4.91986 	 -18.2031 	 90.0984 	 
H 	 -4.26836 	 -17.4814 	 89.6861 	 
H 	 -5.79797 	 -18.2942 	 89.4863 	 
H 	 -5.40168 	 -17.7973 	 91.0251 	 
S 	 1.667 	 -18.5218 	 86.8738 	 
C 	 2.66725 	 -17.152 	 87.1568 	 
C 	 1.95834 	 -16.1834 	 87.9021 	 
C 	 0.591092 	 -16.594 	 88.1391 	 
C 	 0.234023 	 -17.834 	 87.5761 	 
H 	 2.43884 	 -15.2545 	 88.0469 	 
C 	 -0.439243 	 -15.6278 	 88.8205 	 
H 	 0.203764 	 -14.9304 	 89.3597 	 
H 	 -1.02735 	 -16.1504 	 89.5883 	 
C 	 -1.46069 	 -14.9263 	 87.8586 	 
H 	 -2.27766 	 -15.6293 	 87.5824 	 
H 	 -0.937898 	 -14.844 	 86.8886 	 
C 	 -2.19229 	 -13.7279 	 88.3216 	 
H 	 -2.81234 	 -14.0644 	 89.1708 	 
H 	 -2.89276 	 -13.4598 	 87.493 	 
H 	 -1.51469 	 -12.9321 	 88.5017 	 
H 	 -3.94648 	 -20.3839 	 86.1783 	 
H 	 3.67883 	 -16.9426 	 86.855 	 
*
