! wB97X-D3 SP def2-SVP
%pal
nprocs 16
end

* xyz 0 1
S 	 -14.2623 	 47.569 	 43.2713 	 
C 	 -15.0136 	 47.7912 	 41.7165 	 
C 	 -14.9668 	 46.5821 	 41.0663 	 
C 	 -14.4837 	 45.512 	 41.8889 	 
C 	 -13.9118 	 45.9573 	 43.0533 	 
H 	 -14.5613 	 44.4657 	 41.7297 	 
C 	 -15.5705 	 46.3467 	 39.7425 	 
H 	 -14.8082 	 46.6218 	 39.0178 	 
H 	 -16.448 	 46.9445 	 39.6061 	 
C 	 -16.0114 	 44.912 	 39.3983 	 
H 	 -15.1966 	 44.1969 	 39.4315 	 
H 	 -16.6317 	 44.4612 	 40.0898 	 
C 	 -16.8289 	 44.703 	 38.1362 	 
H 	 -17.6178 	 43.9187 	 38.0936 	 
H 	 -17.2086 	 45.6616 	 37.699 	 
H 	 -16.1125 	 44.5473 	 37.3419 	 
S 	 -14.3539 	 45.2147 	 45.718 	 
C 	 -13.345 	 43.9619 	 46.3517 	 
C 	 -12.5882 	 43.3128 	 45.4479 	 
C 	 -12.6642 	 43.966 	 44.1762 	 
C 	 -13.4944 	 45.0858 	 44.1702 	 
H 	 -12.1062 	 42.4047 	 45.7349 	 
C 	 -11.7318 	 43.5756 	 43.0298 	 
H 	 -12.1868 	 43.6328 	 42.0369 	 
H 	 -11.4375 	 42.4924 	 43.0796 	 
C 	 -10.5008 	 44.4849 	 42.9593 	 
H 	 -9.98119 	 44.399 	 43.8558 	 
H 	 -10.704 	 45.5021 	 42.7737 	 
C 	 -9.52236 	 44.0396 	 41.817 	 
H 	 -9.26851 	 42.984 	 41.8127 	 
H 	 -8.60178 	 44.6513 	 41.8693 	 
H 	 -9.74988 	 44.2022 	 40.8083 	 
H 	 -15.4776 	 48.6926 	 41.2633 	 
H 	 -13.3473 	 43.6853 	 47.4535 	 
*
