! wB97X-D3 SP def2-SVP
%pal
nprocs 16
end

* xyz 0 1
S 	 9.26561 	 -5.16489 	 64.6998 	 
C 	 8.90623 	 -3.55238 	 64.0765 	 
C 	 10.0278 	 -2.84127 	 63.7214 	 
C 	 11.2324 	 -3.65533 	 63.9172 	 
C 	 10.9821 	 -4.94222 	 64.3266 	 
H 	 12.2072 	 -3.38839 	 63.6687 	 
C 	 10.0599 	 -1.4369 	 63.2902 	 
H 	 9.47834 	 -1.33138 	 62.4004 	 
H 	 11.076 	 -1.2474 	 62.9726 	 
C 	 9.56751 	 -0.4125 	 64.3265 	 
H 	 9.42158 	 0.504043 	 63.8861 	 
H 	 8.60428 	 -0.781467 	 64.6998 	 
C 	 10.444 	 -0.312413 	 65.5988 	 
H 	 11.5336 	 -0.436433 	 65.3556 	 
H 	 10.3089 	 0.641248 	 66.204 	 
H 	 10.2054 	 -1.17972 	 66.288 	 
S 	 11.625 	 -7.43 	 63.6493 	 
C 	 13.0838 	 -8.19694 	 64.3747 	 
C 	 13.6087 	 -7.42758 	 65.3881 	 
C 	 12.9868 	 -6.12992 	 65.4992 	 
C 	 11.9213 	 -5.99782 	 64.5877 	 
H 	 14.3762 	 -7.84464 	 65.9926 	 
C 	 13.4968 	 -5.08628 	 66.5042 	 
H 	 13.2182 	 -4.1015 	 66.181 	 
H 	 14.572 	 -5.10983 	 66.3555 	 
C 	 12.9642 	 -5.21491 	 67.8801 	 
H 	 13.218 	 -6.22165 	 68.1784 	 
H 	 11.9684 	 -5.20792 	 67.8742 	 
C 	 13.6542 	 -4.13625 	 68.795 	 
H 	 13.6354 	 -3.19434 	 68.2121 	 
H 	 14.7112 	 -4.35739 	 69.1096 	 
H 	 13.113 	 -4.0691 	 69.7277 	 
H 	 7.91262 	 -3.18515 	 63.9845 	 
H 	 13.2358 	 -9.22226 	 64.3182 	 
*
