! wB97X-D3 SP def2-SVP
%pal
nprocs 16
end

* xyz 0 1
S 	 6.47371 	 -2.9539 	 99.3105 	 
C 	 5.16182 	 -4.02739 	 99.4622 	 
C 	 5.00944 	 -4.8311 	 98.3828 	 
C 	 6.03774 	 -4.63076 	 97.4509 	 
C 	 6.84295 	 -3.48142 	 97.7027 	 
H 	 6.06733 	 -5.15635 	 96.503 	 
C 	 3.9677 	 -5.92285 	 98.2193 	 
H 	 3.43428 	 -5.68985 	 97.3409 	 
H 	 3.25476 	 -5.9019 	 99.1026 	 
C 	 4.51446 	 -7.3715 	 98.0854 	 
H 	 3.60158 	 -7.99807 	 98.1486 	 
H 	 4.90378 	 -7.53372 	 97.1088 	 
C 	 5.57706 	 -7.73329 	 99.1225 	 
H 	 6.43861 	 -7.07228 	 99.1238 	 
H 	 5.18078 	 -7.9282 	 100.088 	 
H 	 6.02908 	 -8.68598 	 98.8114 	 
S 	 9.19103 	 -2.13648 	 97.3546 	 
C 	 9.86435 	 -1.97062 	 95.7639 	 
C 	 8.88839 	 -2.16823 	 94.7472 	 
C 	 7.77229 	 -2.89636 	 95.2987 	 
C 	 7.82963 	 -2.96278 	 96.7178 	 
H 	 9.06314 	 -1.91787 	 93.7342 	 
C 	 6.53962 	 -3.17759 	 94.3994 	 
H 	 6.0748 	 -4.10052 	 94.5478 	 
H 	 6.93497 	 -3.33535 	 93.4134 	 
C 	 5.55393 	 -1.99582 	 94.3676 	 
H 	 6.1338 	 -1.07524 	 94.1058 	 
H 	 5.11892 	 -1.79022 	 95.3636 	 
C 	 4.35132 	 -2.28439 	 93.4939 	 
H 	 3.69964 	 -1.403 	 93.5323 	 
H 	 3.79202 	 -3.21472 	 93.6917 	 
H 	 4.607 	 -2.3404 	 92.4255 	 
H 	 4.58261 	 -4.17562 	 100.345 	 
H 	 10.8343 	 -1.52073 	 95.5725 	 
*
