! wB97X-D3 SP def2-SVP
%pal
nprocs 16
end

* xyz 0 1
S 	 -57.345 	 41.2929 	 114.112 	 
C 	 -58.1851 	 41.0553 	 112.631 	 
C 	 -57.5078 	 40.4043 	 111.649 	 
C 	 -56.2639 	 39.9177 	 112.187 	 
C 	 -56.0353 	 40.398 	 113.453 	 
H 	 -55.5813 	 39.2865 	 111.699 	 
C 	 -57.9188 	 40.2653 	 110.195 	 
H 	 -58.5292 	 41.1321 	 110.031 	 
H 	 -58.5888 	 39.3869 	 110.095 	 
C 	 -56.8201 	 40.1094 	 109.131 	 
H 	 -56.2649 	 41.0896 	 109.034 	 
H 	 -56.0561 	 39.3629 	 109.415 	 
C 	 -57.3432 	 39.8604 	 107.706 	 
H 	 -58.2143 	 39.2506 	 107.735 	 
H 	 -57.4493 	 40.8287 	 107.084 	 
H 	 -56.6825 	 39.2727 	 107.11 	 
S 	 -54.3073 	 41.5514 	 115.311 	 
C 	 -52.9508 	 40.6226 	 115.95 	 
C 	 -53.0265 	 39.3328 	 115.543 	 
C 	 -54.0722 	 39.0559 	 114.617 	 
C 	 -54.8624 	 40.1299 	 114.347 	 
H 	 -52.2291 	 38.6694 	 115.824 	 
C 	 -54.2597 	 37.6284 	 114.114 	 
H 	 -53.2627 	 37.2873 	 113.68 	 
H 	 -54.7481 	 37.6285 	 113.178 	 
C 	 -55.1058 	 36.7436 	 115.104 	 
H 	 -54.6903 	 37.014 	 116.098 	 
H 	 -55.0897 	 35.6518 	 115.118 	 
C 	 -56.5974 	 37.067 	 115.025 	 
H 	 -56.6872 	 38.1385 	 115.248 	 
H 	 -57.2784 	 36.5684 	 115.776 	 
H 	 -57.0839 	 36.8021 	 114.127 	 
H 	 -59.2415 	 41.3402 	 112.511 	 
H 	 -52.177 	 41.094 	 116.474 	 
*
