! wB97X-D3 SP def2-SVP
%pal
nprocs 16
end

* xyz 0 1
S 	 12.8038 	 25.7154 	 62.3376 	 
C 	 13.1928 	 24.7408 	 60.9528 	 
C 	 12.0682 	 24.1347 	 60.4477 	 
C 	 10.933 	 24.3526 	 61.2953 	 
C 	 11.1509 	 25.1433 	 62.4483 	 
H 	 9.93616 	 23.9782 	 61.2546 	 
C 	 12.0454 	 23.2613 	 59.2092 	 
H 	 12.367 	 23.8121 	 58.3666 	 
H 	 10.8817 	 23.1424 	 59.1616 	 
C 	 12.6557 	 21.8203 	 59.2742 	 
H 	 12.83 	 21.4061 	 58.2862 	 
H 	 13.6839 	 21.9064 	 59.6472 	 
C 	 11.8343 	 20.8342 	 60.0553 	 
H 	 11.8071 	 21.0498 	 61.2036 	 
H 	 10.8323 	 20.7892 	 59.6025 	 
H 	 12.3011 	 19.9073 	 60.0499 	 
S 	 10.9596 	 25.0002 	 65.2059 	 
C 	 9.37582 	 25.2924 	 66.0394 	 
C 	 8.41422 	 25.6326 	 65.1289 	 
C 	 8.83733 	 25.5412 	 63.7181 	 
C 	 10.2253 	 25.3137 	 63.6229 	 
H 	 7.44946 	 25.8873 	 65.4463 	 
C 	 7.9345 	 25.9158 	 62.5317 	 
H 	 8.61145 	 25.7887 	 61.6928 	 
H 	 7.68539 	 26.9843 	 62.5977 	 
C 	 6.58724 	 25.2035 	 62.5161 	 
H 	 6.03281 	 25.4962 	 61.6112 	 
H 	 6.03576 	 25.6102 	 63.2875 	 
C 	 6.53288 	 23.6255 	 62.5915 	 
H 	 7.16365 	 23.1221 	 61.8524 	 
H 	 5.50757 	 23.3808 	 62.4026 	 
H 	 6.8521 	 23.2384 	 63.5844 	 
H 	 14.1351 	 24.8277 	 60.4558 	 
H 	 9.14576 	 25.2899 	 67.0525 	 
*
