! wB97X-D3 SP def2-SVP
%pal
nprocs 16
end

* xyz 0 1
S 	 8.85343 	 -7.5059 	 90.6313 	 
C 	 9.44306 	 -6.06545 	 91.5625 	 
C 	 9.13934 	 -4.87832 	 90.9397 	 
C 	 8.36079 	 -5.11523 	 89.7656 	 
C 	 8.10051 	 -6.46205 	 89.5151 	 
H 	 8.06135 	 -4.39381 	 89.0689 	 
C 	 9.5345 	 -3.51011 	 91.3396 	 
H 	 10.3804 	 -3.75691 	 91.9465 	 
H 	 8.85234 	 -3.02484 	 91.9652 	 
C 	 10.0105 	 -2.56424 	 90.2375 	 
H 	 10.6765 	 -1.8476 	 90.6416 	 
H 	 10.4454 	 -3.16746 	 89.4334 	 
C 	 8.92787 	 -1.74045 	 89.5674 	 
H 	 9.43805 	 -1.242 	 88.703 	 
H 	 8.07419 	 -2.37917 	 89.252 	 
H 	 8.58863 	 -0.972137 	 90.2363 	 
S 	 8.23701 	 -7.85097 	 87.124 	 
C 	 6.79415 	 -7.9093 	 86.266 	 
C 	 5.69057 	 -7.49083 	 86.9969 	 
C 	 6.07779 	 -6.8808 	 88.1993 	 
C 	 7.39725 	 -6.96131 	 88.4209 	 
H 	 4.66878 	 -7.60181 	 86.6056 	 
C 	 5.02471 	 -6.17126 	 89.1479 	 
H 	 5.23557 	 -6.3243 	 90.1808 	 
H 	 4.00678 	 -6.60602 	 89.0245 	 
C 	 4.84528 	 -4.63803 	 88.9147 	 
H 	 4.31021 	 -4.60264 	 87.963 	 
H 	 5.73192 	 -4.21263 	 88.664 	 
C 	 4.02086 	 -3.79128 	 89.9121 	 
H 	 3.64278 	 -2.84013 	 89.5444 	 
H 	 4.62351 	 -3.65856 	 90.8384 	 
H 	 3.15214 	 -4.21928 	 90.2482 	 
H 	 10.0251 	 -6.18573 	 92.4647 	 
H 	 6.73149 	 -8.61189 	 85.449 	 
*
