! wB97X-D3 SP def2-SVP
%pal
nprocs 16
end

* xyz 0 1
S 	 40.4218 	 26.7248 	 97.1604 	 
C 	 40.079 	 26.7498 	 95.3981 	 
C 	 40.6153 	 25.5735 	 94.8305 	 
C 	 41.0518 	 24.5951 	 95.8192 	 
C 	 41.073 	 25.083 	 97.1164 	 
H 	 41.4747 	 23.6578 	 95.6071 	 
C 	 40.7015 	 25.1676 	 93.3283 	 
H 	 41.4624 	 24.3578 	 93.1456 	 
H 	 40.9391 	 26.0363 	 92.7802 	 
C 	 39.3251 	 24.601 	 92.7013 	 
H 	 38.4546 	 25.2733 	 92.9314 	 
H 	 39.4834 	 24.5774 	 91.6056 	 
C 	 38.9054 	 23.2573 	 93.1681 	 
H 	 38.7001 	 23.2758 	 94.1934 	 
H 	 38.0729 	 22.9717 	 92.5228 	 
H 	 39.7498 	 22.5896 	 93.0274 	 
S 	 42.8083 	 24.8505 	 99.1828 	 
C 	 42.7376 	 23.4394 	 100.211 	 
C 	 41.6445 	 22.642 	 99.8391 	 
C 	 40.8953 	 23.0746 	 98.725 	 
C 	 41.3931 	 24.2963 	 98.2822 	 
H 	 41.586 	 21.6681 	 100.377 	 
C 	 39.8009 	 22.1759 	 98.0049 	 
H 	 40.0871 	 21.1388 	 98.0971 	 
H 	 39.8575 	 22.2501 	 96.9098 	 
C 	 38.357 	 22.4628 	 98.4564 	 
H 	 37.7441 	 22.1585 	 97.6367 	 
H 	 38.2121 	 23.576 	 98.6659 	 
C 	 37.9799 	 21.6604 	 99.7074 	 
H 	 38.1375 	 20.5808 	 99.5882 	 
H 	 36.9169 	 21.7956 	 100.03 	 
H 	 38.4502 	 22.1223 	 100.58 	 
H 	 39.7778 	 27.5534 	 94.756 	 
H 	 43.3796 	 23.203 	 100.974 	 
*
