! wB97X-D3 SP def2-SVP
%pal
nprocs 16
end

* xyz 0 1
S 	 -41.5339 	 57.303 	 109.817 	 
C 	 -42.5533 	 58.1989 	 108.825 	 
C 	 -42.9091 	 57.4211 	 107.752 	 
C 	 -41.9232 	 56.3838 	 107.519 	 
C 	 -40.9207 	 56.3566 	 108.493 	 
H 	 -41.8268 	 55.8746 	 106.561 	 
C 	 -44.04 	 57.7764 	 106.911 	 
H 	 -44.7509 	 58.2798 	 107.471 	 
H 	 -44.5059 	 56.8329 	 106.544 	 
C 	 -43.7059 	 58.7081 	 105.786 	 
H 	 -42.8375 	 59.2902 	 105.885 	 
H 	 -43.3907 	 58.0762 	 105.035 	 
C 	 -44.823 	 59.5052 	 105.178 	 
H 	 -45.7653 	 58.879 	 105.054 	 
H 	 -45.0946 	 60.3592 	 105.852 	 
H 	 -44.6322 	 60.0112 	 104.276 	 
S 	 -38.1595 	 56.9533 	 108.542 	 
C 	 -37.0427 	 55.8691 	 107.715 	 
C 	 -37.6989 	 54.7177 	 107.263 	 
C 	 -39.0552 	 54.6498 	 107.773 	 
C 	 -39.5026 	 55.8368 	 108.371 	 
H 	 -37.1404 	 53.9835 	 106.681 	 
C 	 -39.9372 	 53.4495 	 107.524 	 
H 	 -40.7954 	 53.7257 	 106.882 	 
H 	 -40.3557 	 53.2403 	 108.517 	 
C 	 -39.3592 	 52.0845 	 107.046 	 
H 	 -38.7486 	 51.676 	 107.866 	 
H 	 -38.6554 	 52.3096 	 106.247 	 
C 	 -40.4486 	 51.1379 	 106.557 	 
H 	 -41.2356 	 50.924 	 107.272 	 
H 	 -40.1093 	 50.1401 	 106.167 	 
H 	 -41.0069 	 51.561 	 105.735 	 
H 	 -42.9342 	 59.1621 	 109.107 	 
H 	 -36.0024 	 56.0301 	 107.433 	 
*
