! wB97X-D3 SP def2-SVP
%pal
nprocs 16
end

* xyz 0 1
S 	 -39.9531 	 49.063 	 102.726 	 
C 	 -38.5294 	 48.8232 	 103.826 	 
C 	 -38.0265 	 50.0962 	 104.115 	 
C 	 -38.8067 	 51.1909 	 103.61 	 
C 	 -39.9288 	 50.7975 	 102.92 	 
H 	 -38.6151 	 52.3004 	 103.658 	 
C 	 -36.7583 	 50.1877 	 104.901 	 
H 	 -36.8411 	 49.5003 	 105.647 	 
H 	 -36.7934 	 51.1634 	 105.347 	 
C 	 -35.4871 	 50.0478 	 104.118 	 
H 	 -34.6333 	 49.8067 	 104.769 	 
H 	 -35.569 	 49.1761 	 103.534 	 
C 	 -35.1112 	 51.2743 	 103.277 	 
H 	 -34.1945 	 51.0635 	 102.732 	 
H 	 -35.9435 	 51.2922 	 102.583 	 
H 	 -35.0009 	 52.1562 	 103.834 	 
S 	 -41.4309 	 53.1445 	 103.338 	 
C 	 -42.6464 	 53.6277 	 102.15 	 
C 	 -42.5846 	 52.7953 	 101.049 	 
C 	 -41.6157 	 51.6998 	 101.168 	 
C 	 -40.9588 	 51.7403 	 102.366 	 
H 	 -43.312 	 52.8333 	 100.154 	 
C 	 -41.4727 	 50.6026 	 100.098 	 
H 	 -42.4766 	 50.4967 	 99.602 	 
H 	 -41.3385 	 49.6243 	 100.518 	 
C 	 -40.3018 	 50.8224 	 99.1234 	 
H 	 -39.3818 	 50.8121 	 99.6987 	 
H 	 -40.4351 	 51.82 	 98.7341 	 
C 	 -40.1659 	 49.9424 	 97.9167 	 
H 	 -41.143 	 49.6499 	 97.5841 	 
H 	 -39.634 	 49.0501 	 98.2062 	 
H 	 -39.7182 	 50.3265 	 96.9982 	 
H 	 -38.0619 	 47.9482 	 104.088 	 
H 	 -43.2735 	 54.5023 	 102.192 	 
*
