! wB97X-D3 SP def2-SVP
%pal
nprocs 16
end

* xyz 0 1
S 	 -100.913 	 52.4079 	 124.035 	 
C 	 -100.37 	 52.3353 	 122.386 	 
C 	 -100.603 	 53.5505 	 121.756 	 
C 	 -101.184 	 54.5203 	 122.641 	 
C 	 -101.628 	 53.9825 	 123.825 	 
H 	 -101.299 	 55.5525 	 122.444 	 
C 	 -100.333 	 53.9351 	 120.356 	 
H 	 -100.8 	 54.8503 	 120.164 	 
H 	 -100.829 	 53.1891 	 119.703 	 
C 	 -98.8706 	 54.0305 	 119.947 	 
H 	 -98.392 	 54.8065 	 120.609 	 
H 	 -98.2959 	 53.102 	 120.081 	 
C 	 -98.686 	 54.5689 	 118.499 	 
H 	 -97.621 	 54.5311 	 118.267 	 
H 	 -99.1741 	 53.9517 	 117.684 	 
H 	 -98.98 	 55.6005 	 118.33 	 
S 	 -100.886 	 55.4049 	 126.025 	 
C 	 -102.014 	 56.4685 	 126.85 	 
C 	 -103.317 	 56.2417 	 126.37 	 
C 	 -103.374 	 55.3423 	 125.227 	 
C 	 -102.11 	 54.7715 	 124.952 	 
H 	 -104.135 	 56.7668 	 126.843 	 
C 	 -104.604 	 55.1875 	 124.411 	 
H 	 -104.191 	 54.964 	 123.401 	 
H 	 -105.063 	 56.1893 	 124.21 	 
C 	 -105.651 	 54.2036 	 124.756 	 
H 	 -105.257 	 53.1748 	 124.594 	 
H 	 -106.473 	 54.2911 	 124.018 	 
C 	 -106.201 	 54.3833 	 126.213 	 
H 	 -105.519 	 54.0435 	 126.986 	 
H 	 -107.13 	 53.9171 	 126.372 	 
H 	 -106.245 	 55.4424 	 126.408 	 
H 	 -99.7367 	 51.604 	 121.958 	 
H 	 -101.759 	 56.8073 	 127.852 	 
*
