! wB97X-D3 SP def2-SVP
%pal
nprocs 16
end

* xyz 0 1
S 	 11.1846 	 -10.0237 	 91.2667 	 
C 	 11.7495 	 -9.14232 	 92.5874 	 
C 	 11.3864 	 -7.8001 	 92.4857 	 
C 	 10.8339 	 -7.46164 	 91.2102 	 
C 	 10.5276 	 -8.57022 	 90.5025 	 
H 	 10.5139 	 -6.49085 	 90.9422 	 
C 	 11.4697 	 -6.75302 	 93.5724 	 
H 	 11.4156 	 -7.2237 	 94.5506 	 
H 	 10.5805 	 -6.07059 	 93.5907 	 
C 	 12.7742 	 -5.99153 	 93.5995 	 
H 	 13.5229 	 -6.8041 	 93.8006 	 
H 	 13.0239 	 -5.51437 	 92.6232 	 
C 	 12.8351 	 -4.89123 	 94.7363 	 
H 	 13.5097 	 -4.10892 	 94.6115 	 
H 	 11.8582 	 -4.52467 	 94.976 	 
H 	 13.253 	 -5.27539 	 95.6383 	 
S 	 11.0521 	 -9.1574 	 87.863 	 
C 	 9.98256 	 -8.48716 	 86.6556 	 
C 	 8.84559 	 -8.01025 	 87.2124 	 
C 	 8.88361 	 -7.98862 	 88.639 	 
C 	 10.0046 	 -8.61438 	 89.189 	 
H 	 8.09498 	 -7.53043 	 86.5401 	 
C 	 7.79211 	 -7.25128 	 89.3851 	 
H 	 8.05561 	 -6.2211 	 89.3721 	 
H 	 7.82455 	 -7.56804 	 90.4117 	 
C 	 6.3503 	 -7.446 	 88.9329 	 
H 	 6.03622 	 -8.50443 	 88.7587 	 
H 	 6.25318 	 -6.90559 	 87.98 	 
C 	 5.36919 	 -6.89207 	 90.0074 	 
H 	 5.70766 	 -5.88177 	 90.2366 	 
H 	 5.18932 	 -7.57744 	 90.7713 	 
H 	 4.37202 	 -6.76742 	 89.4797 	 
H 	 12.3325 	 -9.36216 	 93.4597 	 
H 	 10.0643 	 -8.48461 	 85.5617 	 
*
