! wB97X-D3 SP def2-SVP
%pal
nprocs 16
end

* xyz 0 1
S 	 12.7883 	 -5.54053 	 63.564 	 
C 	 11.8113 	 -4.59721 	 62.5256 	 
C 	 10.9025 	 -3.76882 	 63.1986 	 
C 	 11.2198 	 -3.72862 	 64.6098 	 
C 	 12.0914 	 -4.6949 	 65.039 	 
H 	 10.7948 	 -3.16302 	 65.467 	 
C 	 9.97915 	 -2.75326 	 62.5626 	 
H 	 9.0105 	 -2.81362 	 63.1242 	 
H 	 9.66927 	 -3.2791 	 61.6336 	 
C 	 10.4643 	 -1.31942 	 62.3251 	 
H 	 10.5719 	 -0.777188 	 63.3412 	 
H 	 11.4346 	 -1.24523 	 61.964 	 
C 	 9.54301 	 -0.441997 	 61.501 	 
H 	 9.90333 	 0.586509 	 61.4714 	 
H 	 9.42935 	 -0.85558 	 60.5217 	 
H 	 8.48875 	 -0.382054 	 61.894 	 
S 	 14.3468 	 -5.32501 	 66.5 	 
C 	 14.2489 	 -5.17416 	 68.3007 	 
C 	 12.9286 	 -5.07561 	 68.7381 	 
C 	 12.0002 	 -5.03645 	 67.6348 	 
C 	 12.5872 	 -4.97849 	 66.3774 	 
H 	 12.8472 	 -5.13678 	 69.7702 	 
C 	 10.4448 	 -4.94153 	 67.9348 	 
H 	 10.0051 	 -5.40048 	 67.1141 	 
H 	 10.1738 	 -3.87537 	 67.9418 	 
C 	 10.0216 	 -5.61313 	 69.235 	 
H 	 8.95596 	 -5.47381 	 69.5026 	 
H 	 10.5308 	 -5.26578 	 70.1508 	 
C 	 10.4587 	 -7.11238 	 69.263 	 
H 	 10.1068 	 -7.67592 	 70.0869 	 
H 	 11.5179 	 -7.24668 	 69.25 	 
H 	 10.0274 	 -7.6854 	 68.4192 	 
H 	 11.8054 	 -4.70664 	 61.4794 	 
H 	 15.093 	 -5.34792 	 68.9736 	 
*
