! wB97X-D3 SP def2-SVP
%pal
nprocs 16
end

* xyz 0 1
S 	 11.4829 	 -14.6552 	 78.5174 	 
C 	 11.1484 	 -16.3057 	 78.9767 	 
C 	 9.79895 	 -16.6519 	 78.9268 	 
C 	 9.01195 	 -15.5845 	 78.3007 	 
C 	 9.77157 	 -14.4639 	 77.9703 	 
H 	 7.96278 	 -15.6152 	 78.0516 	 
C 	 9.20772 	 -17.9817 	 79.3573 	 
H 	 10.045 	 -18.6438 	 79.5814 	 
H 	 8.75084 	 -18.3289 	 78.4247 	 
C 	 8.11685 	 -18.0702 	 80.4089 	 
H 	 8.455 	 -17.9528 	 81.4123 	 
H 	 7.34802 	 -17.2456 	 80.1928 	 
C 	 7.39883 	 -19.4221 	 80.265 	 
H 	 8.14585 	 -20.2383 	 80.4273 	 
H 	 6.6102 	 -19.5629 	 81.0465 	 
H 	 6.8912 	 -19.6537 	 79.3623 	 
S 	 9.67283 	 -11.8006 	 78.1855 	 
C 	 8.98042 	 -10.8283 	 76.8862 	 
C 	 8.43039 	 -11.5841 	 75.9138 	 
C 	 8.6456 	 -12.9697 	 76.1277 	 
C 	 9.31831 	 -13.2345 	 77.3297 	 
H 	 8.11901 	 -11.1104 	 75.0198 	 
C 	 8.49944 	 -13.9745 	 75.0102 	 
H 	 7.49181 	 -14.4246 	 75.1356 	 
H 	 9.18286 	 -14.7429 	 75.2195 	 
C 	 8.84733 	 -13.4467 	 73.5579 	 
H 	 9.90323 	 -13.2571 	 73.4257 	 
H 	 8.50973 	 -12.3654 	 73.3863 	 
C 	 8.35672 	 -14.3001 	 72.4496 	 
H 	 8.94492 	 -15.2934 	 72.4337 	 
H 	 8.51778 	 -13.8149 	 71.4931 	 
H 	 7.29644 	 -14.5427 	 72.4732 	 
H 	 11.8819 	 -16.9884 	 79.4299 	 
H 	 8.93116 	 -9.71615 	 76.9329 	 
*
