! wB97X-D3 SP def2-SVP
%pal
nprocs 16
end

* xyz 0 1
S 	 44.2778 	 21.7963 	 83.2714 	 
C 	 44.452 	 23.2867 	 82.3651 	 
C 	 44.9156 	 22.9653 	 81.0706 	 
C 	 45.277 	 21.555 	 80.9641 	 
C 	 45.0725 	 20.7577 	 82.0529 	 
H 	 45.7429 	 21.2404 	 80.0303 	 
C 	 44.8484 	 23.9694 	 79.9264 	 
H 	 44.2717 	 24.8125 	 80.2218 	 
H 	 44.296 	 23.6029 	 79.0613 	 
C 	 46.2223 	 24.4962 	 79.3976 	 
H 	 46.7337 	 25.0405 	 80.1445 	 
H 	 46.9092 	 23.6884 	 79.1508 	 
C 	 46.0889 	 25.3982 	 78.2235 	 
H 	 45.9697 	 24.7345 	 77.294 	 
H 	 45.1612 	 26.0744 	 78.3107 	 
H 	 46.9889 	 26.1139 	 78.001 	 
S 	 45.3765 	 18.7236 	 83.9441 	 
C 	 46.0916 	 17.2616 	 83.4928 	 
C 	 46.3085 	 17.1717 	 82.125 	 
C 	 45.8818 	 18.3275 	 81.3797 	 
C 	 45.3759 	 19.3373 	 82.2494 	 
H 	 46.7644 	 16.3752 	 81.6247 	 
C 	 46.0663 	 18.419 	 79.8576 	 
H 	 45.3532 	 19.0764 	 79.4614 	 
H 	 45.8844 	 17.4637 	 79.3623 	 
C 	 47.5122 	 18.8131 	 79.4714 	 
H 	 48.1524 	 17.9776 	 79.5175 	 
H 	 48.006 	 19.4471 	 80.1993 	 
C 	 47.6342 	 19.4336 	 78.0558 	 
H 	 47.1707 	 20.4493 	 77.9872 	 
H 	 47.1056 	 18.7386 	 77.3413 	 
H 	 48.6223 	 19.6918 	 77.7679 	 
H 	 43.935 	 24.2207 	 82.6684 	 
H 	 46.2779 	 16.3718 	 84.0245 	 
*
