! wB97X-D3 SP def2-SVP
%pal
nprocs 16
end

* xyz 0 1
S 	 6.23867 	 -10.5392 	 70.1989 	 
C 	 4.59921 	 -10.2449 	 69.8572 	 
C 	 4.12431 	 -10.7493 	 68.6676 	 
C 	 5.16798 	 -11.4374 	 67.9997 	 
C 	 6.3433 	 -11.5365 	 68.7748 	 
H 	 5.10657 	 -11.9388 	 67.0271 	 
C 	 2.79563 	 -10.3541 	 67.9441 	 
H 	 1.95021 	 -10.2883 	 68.6791 	 
H 	 2.50783 	 -11.1354 	 67.288 	 
C 	 2.81887 	 -9.03703 	 66.9916 	 
H 	 3.69494 	 -9.00735 	 66.3726 	 
H 	 1.94761 	 -9.21 	 66.3605 	 
C 	 2.62043 	 -7.76869 	 67.8822 	 
H 	 3.46203 	 -7.62076 	 68.5765 	 
H 	 2.24204 	 -6.92877 	 67.2545 	 
H 	 1.75397 	 -7.93987 	 68.525 	 
S 	 8.98463 	 -11.0839 	 67.9929 	 
C 	 9.93642 	 -12.4371 	 67.6838 	 
C 	 9.1936 	 -13.6142 	 67.5724 	 
C 	 7.80435 	 -13.4565 	 67.8306 	 
C 	 7.57034 	 -12.1594 	 68.3491 	 
H 	 9.83386 	 -14.4487 	 67.3663 	 
C 	 6.86812 	 -14.6135 	 67.9621 	 
H 	 5.9738 	 -14.3035 	 68.4833 	 
H 	 7.11344 	 -15.3711 	 68.6385 	 
C 	 6.30447 	 -15.1646 	 66.6417 	 
H 	 5.55528 	 -14.5141 	 66.206 	 
H 	 5.59506 	 -15.9141 	 66.9787 	 
C 	 7.36816 	 -15.748 	 65.6822 	 
H 	 8.01332 	 -14.9467 	 65.2153 	 
H 	 7.01995 	 -16.3832 	 64.8791 	 
H 	 8.12098 	 -16.3298 	 66.2464 	 
H 	 3.88989 	 -9.63083 	 70.3738 	 
H 	 10.992 	 -12.2758 	 67.5438 	 
*
