! wB97X-D3 SP def2-SVP
%pal
nprocs 16
end

* xyz 0 1
S 	 -32.5754 	 47.1621 	 96.5696 	 
C 	 -32.1839 	 45.6089 	 95.8284 	 
C 	 -32.1397 	 45.7475 	 94.4672 	 
C 	 -32.3988 	 47.1149 	 93.9767 	 
C 	 -32.6735 	 47.9831 	 94.9964 	 
H 	 -32.3604 	 47.4613 	 92.978 	 
C 	 -32.0547 	 44.6175 	 93.3905 	 
H 	 -32.9806 	 43.9529 	 93.4974 	 
H 	 -31.1187 	 44.068 	 93.5387 	 
C 	 -31.9285 	 44.8833 	 91.9162 	 
H 	 -32.7519 	 45.5167 	 91.6872 	 
H 	 -31.0097 	 45.4298 	 91.6196 	 
C 	 -31.8909 	 43.7323 	 90.921 	 
H 	 -32.05 	 44.1421 	 89.8999 	 
H 	 -31.1211 	 43.0457 	 91.1008 	 
H 	 -32.8065 	 43.1241 	 91.1222 	 
S 	 -34.0196 	 49.9883 	 93.6543 	 
C 	 -34.0487 	 51.6735 	 94.2493 	 
C 	 -33.3197 	 51.6375 	 95.3894 	 
C 	 -32.7186 	 50.401 	 95.7902 	 
C 	 -32.9025 	 49.4151 	 94.8389 	 
H 	 -33.315 	 52.5861 	 95.942 	 
C 	 -31.9212 	 50.2617 	 97.1044 	 
H 	 -31.3153 	 51.1253 	 97.2953 	 
H 	 -31.2016 	 49.4303 	 97.0186 	 
C 	 -32.8622 	 50.1132 	 98.3915 	 
H 	 -33.8081 	 49.6795 	 98.2468 	 
H 	 -33.095 	 51.1596 	 98.5934 	 
C 	 -32.1219 	 49.4186 	 99.5306 	 
H 	 -32.8561 	 49.2377 	 100.317 	 
H 	 -31.2756 	 49.9971 	 100.007 	 
H 	 -31.7849 	 48.4068 	 99.2181 	 
H 	 -32.2051 	 44.6707 	 96.3863 	 
H 	 -34.5044 	 52.556 	 93.8683 	 
*
