! wB97X-D3 SP def2-SVP
%pal
nprocs 16
end

* xyz 0 1
S 	 -109.184 	 38.1392 	 129.49 	 
C 	 -107.458 	 38.3799 	 129.807 	 
C 	 -106.913 	 39.3684 	 129.005 	 
C 	 -107.885 	 39.8839 	 128.09 	 
C 	 -109.177 	 39.4434 	 128.36 	 
H 	 -107.76 	 40.6732 	 127.28 	 
C 	 -105.515 	 39.8519 	 129.018 	 
H 	 -104.94 	 39.1635 	 128.355 	 
H 	 -105.254 	 39.6512 	 130.042 	 
C 	 -105.241 	 41.3124 	 128.653 	 
H 	 -104.126 	 41.4631 	 128.755 	 
H 	 -105.46 	 41.5323 	 127.639 	 
C 	 -106.002 	 42.4011 	 129.398 	 
H 	 -106.029 	 43.3666 	 128.851 	 
H 	 -107.057 	 42.1696 	 129.694 	 
H 	 -105.455 	 42.4832 	 130.333 	 
S 	 -111.199 	 38.6848 	 126.672 	 
C 	 -112.395 	 39.8501 	 126.188 	 
C 	 -112.278 	 41.0386 	 126.844 	 
C 	 -111.086 	 41.0795 	 127.64 	 
C 	 -110.393 	 39.8359 	 127.641 	 
H 	 -113.033 	 41.7953 	 126.707 	 
C 	 -110.665 	 42.2841 	 128.457 	 
H 	 -109.736 	 42.1101 	 128.962 	 
H 	 -111.382 	 42.4155 	 129.267 	 
C 	 -110.494 	 43.6012 	 127.593 	 
H 	 -111.343 	 43.9061 	 126.987 	 
H 	 -109.756 	 43.5142 	 126.77 	 
C 	 -110.147 	 44.8563 	 128.432 	 
H 	 -110.858 	 44.9561 	 129.227 	 
H 	 -109.89 	 45.6943 	 127.862 	 
H 	 -109.198 	 44.5588 	 128.956 	 
H 	 -106.834 	 37.8428 	 130.51 	 
H 	 -113.268 	 39.5819 	 125.602 	 
*
