! wB97X-D3 SP def2-SVP
%pal
nprocs 16
end

* xyz 0 1
S 	 -106.328 	 41.6058 	 129.409 	 
C 	 -104.734 	 42.2972 	 129.485 	 
C 	 -103.976 	 41.9519 	 128.345 	 
C 	 -104.705 	 41.0434 	 127.504 	 
C 	 -106.007 	 40.7141 	 127.85 	 
H 	 -104.307 	 40.7586 	 126.563 	 
C 	 -102.74 	 42.6803 	 127.889 	 
H 	 -103.027 	 43.2868 	 127.083 	 
H 	 -102.122 	 41.9049 	 127.485 	 
C 	 -101.954 	 43.5265 	 128.859 	 
H 	 -101 	 43.7463 	 128.358 	 
H 	 -102.55 	 44.4204 	 129.095 	 
C 	 -101.51 	 42.9118 	 130.19 	 
H 	 -100.654 	 42.1686 	 130.021 	 
H 	 -101.25 	 43.7658 	 130.878 	 
H 	 -102.291 	 42.2922 	 130.526 	 
S 	 -108.237 	 39.0758 	 128.145 	 
C 	 -109.016 	 38.2435 	 126.775 	 
C 	 -108.195 	 38.4549 	 125.673 	 
C 	 -107.023 	 39.2584 	 125.912 	 
C 	 -106.944 	 39.8121 	 127.194 	 
H 	 -108.303 	 37.9215 	 124.709 	 
C 	 -105.996 	 39.5149 	 124.811 	 
H 	 -106.101 	 38.6667 	 124.146 	 
H 	 -104.983 	 39.4614 	 125.152 	 
C 	 -106.33 	 40.7635 	 124.041 	 
H 	 -105.918 	 41.572 	 124.627 	 
H 	 -107.346 	 40.9437 	 123.971 	 
C 	 -105.642 	 40.8766 	 122.695 	 
H 	 -105.574 	 41.8628 	 122.252 	 
H 	 -106.275 	 40.3247 	 121.921 	 
H 	 -104.615 	 40.5926 	 122.878 	 
H 	 -104.604 	 43.1648 	 130.051 	 
H 	 -109.899 	 37.7418 	 126.795 	 
*
