! wB97X-D3 SP def2-SVP
%pal
nprocs 16
end

* xyz 0 1
S 	 10.8998 	 -8.94255 	 97.5224 	 
C 	 12.2663 	 -8.57273 	 98.5749 	 
C 	 13.0336 	 -7.53394 	 98.0543 	 
C 	 12.5685 	 -7.16037 	 96.7743 	 
C 	 11.4027 	 -7.7164 	 96.3726 	 
H 	 13.0435 	 -6.38736 	 96.1578 	 
C 	 14.2218 	 -6.90675 	 98.7199 	 
H 	 15.0413 	 -7.61596 	 98.6529 	 
H 	 13.9148 	 -6.86613 	 99.7525 	 
C 	 14.6248 	 -5.50264 	 98.1859 	 
H 	 15.638 	 -5.2792 	 98.6067 	 
H 	 14.6122 	 -5.4886 	 97.1055 	 
C 	 13.7172 	 -4.44128 	 98.7808 	 
H 	 12.6177 	 -4.69283 	 98.4658 	 
H 	 13.7437 	 -4.46127 	 99.8221 	 
H 	 14.0463 	 -3.44867 	 98.4198 	 
S 	 9.96879 	 -8.98563 	 94.3765 	 
C 	 9.49759 	 -8.13721 	 92.8728 	 
C 	 9.87475 	 -6.80578 	 92.9337 	 
C 	 10.4212 	 -6.43211 	 94.2804 	 
C 	 10.6456 	 -7.53729 	 95.1289 	 
H 	 9.70275 	 -6.21602 	 92.0157 	 
C 	 10.6469 	 -5.00826 	 94.6797 	 
H 	 11.155 	 -4.49922 	 93.8543 	 
H 	 11.4244 	 -4.85379 	 95.5529 	 
C 	 9.36226 	 -4.18167 	 95.0958 	 
H 	 8.88537 	 -4.10183 	 94.0849 	 
H 	 9.52244 	 -3.10768 	 95.4183 	 
C 	 8.38941 	 -4.98965 	 95.9673 	 
H 	 7.89017 	 -5.78655 	 95.387 	 
H 	 7.5753 	 -4.35692 	 96.183 	 
H 	 8.73482 	 -5.3729 	 96.9211 	 
H 	 12.4945 	 -8.9908 	 99.5632 	 
H 	 9.13745 	 -8.61474 	 91.961 	 
*
