! wB97X-D3 SP def2-SVP
%pal
nprocs 16
end

* xyz 0 1
S 	 40.017 	 27.268 	 50.8512 	 
C 	 39.1508 	 28.5493 	 51.7342 	 
C 	 38.7152 	 29.544 	 50.8648 	 
C 	 39.1677 	 29.437 	 49.4912 	 
C 	 39.7365 	 28.194 	 49.3101 	 
H 	 39.1736 	 30.1752 	 48.7304 	 
C 	 38.0777 	 30.8286 	 51.3992 	 
H 	 37.7522 	 30.5999 	 52.37 	 
H 	 37.1045 	 30.8034 	 50.762 	 
C 	 38.7903 	 32.1855 	 51.3147 	 
H 	 38.8727 	 32.7234 	 50.421 	 
H 	 38.4031 	 32.9076 	 52.0019 	 
C 	 40.2974 	 32.1282 	 51.7499 	 
H 	 41.0608 	 31.7717 	 50.9839 	 
H 	 40.8553 	 33.0582 	 52.0366 	 
H 	 40.3913 	 31.4677 	 52.6513 	 
S 	 42.3227 	 27.9149 	 48.0686 	 
C 	 42.3507 	 27.5091 	 46.3633 	 
C 	 41.0903 	 27.6074 	 45.777 	 
C 	 40.0442 	 27.7475 	 46.7372 	 
C 	 40.5047 	 27.8648 	 48.0943 	 
H 	 40.9689 	 27.3815 	 44.7847 	 
C 	 38.5754 	 27.5978 	 46.3809 	 
H 	 38.4839 	 27.8495 	 45.3071 	 
H 	 38.0259 	 28.3396 	 46.9275 	 
C 	 37.8578 	 26.2683 	 46.6666 	 
H 	 36.7932 	 26.2771 	 46.4484 	 
H 	 37.9506 	 26.1744 	 47.7534 	 
C 	 38.6258 	 25.0387 	 46.0744 	 
H 	 38.0816 	 24.1224 	 46.2982 	 
H 	 39.5687 	 24.7738 	 46.5292 	 
H 	 38.7289 	 25.0753 	 45.0309 	 
H 	 38.7911 	 28.4565 	 52.7539 	 
H 	 43.2704 	 27.4351 	 45.6827 	 
*
