! wB97X-D3 SP def2-SVP
%pal
nprocs 16
end

* xyz 0 1
S 	 -47.6657 	 65.0247 	 125.361 	 
C 	 -47.2233 	 63.3208 	 125.459 	 
C 	 -46.8436 	 62.9358 	 126.719 	 
C 	 -47.0864 	 64.0016 	 127.675 	 
C 	 -47.5224 	 65.1684 	 127.114 	 
H 	 -46.8326 	 64.0213 	 128.773 	 
C 	 -46.6776 	 61.5314 	 127.288 	 
H 	 -46.1143 	 61.0456 	 126.553 	 
H 	 -47.6411 	 61.0039 	 127.253 	 
C 	 -45.9926 	 61.4878 	 128.666 	 
H 	 -44.9404 	 61.7677 	 128.431 	 
H 	 -46.3914 	 62.064 	 129.46 	 
C 	 -45.8735 	 60.0681 	 129.207 	 
H 	 -46.7731 	 59.6448 	 129.595 	 
H 	 -45.4633 	 59.4527 	 128.46 	 
H 	 -45.0401 	 60.0646 	 129.997 	 
S 	 -47.8196 	 67.8942 	 126.777 	 
C 	 -48.7363 	 68.7331 	 127.98 	 
C 	 -49.3228 	 67.8949 	 128.907 	 
C 	 -48.9491 	 66.5205 	 128.767 	 
C 	 -47.9897 	 66.4254 	 127.777 	 
H 	 -49.9079 	 68.2932 	 129.666 	 
C 	 -49.4043 	 65.4712 	 129.74 	 
H 	 -50.0373 	 65.9842 	 130.505 	 
H 	 -48.5524 	 65.0262 	 130.308 	 
C 	 -50.2303 	 64.3084 	 129.122 	 
H 	 -49.5928 	 63.6834 	 128.541 	 
H 	 -50.9901 	 64.7299 	 128.443 	 
C 	 -51.053 	 63.4604 	 130.174 	 
H 	 -51.6961 	 64.111 	 130.856 	 
H 	 -50.4089 	 62.6907 	 130.724 	 
H 	 -51.7711 	 62.7096 	 129.746 	 
H 	 -47.2424 	 62.7136 	 124.541 	 
H 	 -48.959 	 69.741 	 127.969 	 
*
