! wB97X-D3 SP def2-SVP
%pal
nprocs 16
end

* xyz 0 1
S 	 -51.0882 	 9.38382 	 91.5993 	 
C 	 -50.0098 	 10.7587 	 91.8374 	 
C 	 -49.0003 	 10.7851 	 90.9377 	 
C 	 -49.0454 	 9.69423 	 90.0221 	 
C 	 -50.1739 	 8.90374 	 90.2046 	 
H 	 -48.3192 	 9.45515 	 89.1875 	 
C 	 -47.8765 	 11.8148 	 90.8409 	 
H 	 -48.323 	 12.6189 	 90.2199 	 
H 	 -47.0537 	 11.3194 	 90.3166 	 
C 	 -47.2977 	 12.4461 	 92.0812 	 
H 	 -46.619 	 13.2454 	 91.7777 	 
H 	 -48.0684 	 12.9509 	 92.6441 	 
C 	 -46.5592 	 11.5001 	 92.9675 	 
H 	 -47.2856 	 10.7409 	 93.3102 	 
H 	 -45.8119 	 10.912 	 92.408 	 
H 	 -46.1169 	 11.9297 	 93.8799 	 
S 	 -49.1809 	 6.91575 	 88.7769 	 
C 	 -50.1846 	 5.831 	 87.8197 	 
C 	 -51.5355 	 6.02809 	 88.1416 	 
C 	 -51.7305 	 7.14755 	 88.9976 	 
C 	 -50.5506 	 7.7609 	 89.3687 	 
H 	 -52.268 	 5.40436 	 87.6803 	 
C 	 -53.0304 	 7.56206 	 89.524 	 
H 	 -53.0778 	 8.53263 	 89.1803 	 
H 	 -52.9787 	 7.59098 	 90.6044 	 
C 	 -54.2843 	 6.83876 	 89.0761 	 
H 	 -54.1133 	 5.79363 	 89.3018 	 
H 	 -54.4428 	 6.86458 	 88.0282 	 
C 	 -55.5767 	 7.31859 	 89.6822 	 
H 	 -55.7315 	 8.3977 	 89.7591 	 
H 	 -55.812 	 6.96327 	 90.6817 	 
H 	 -56.3364 	 7.02589 	 88.9477 	 
H 	 -50.0395 	 11.3624 	 92.6988 	 
H 	 -49.7835 	 5.01713 	 87.1745 	 
*
