! wB97X-D3 SP def2-SVP
%pal
nprocs 16
end

* xyz 0 1
S 	 -37.3678 	 30.3733 	 43.6104 	 
C 	 -38.3797 	 28.9715 	 43.4993 	 
C 	 -37.7075 	 27.7889 	 43.7072 	 
C 	 -36.2696 	 28.0185 	 43.706 	 
C 	 -35.9537 	 29.3515 	 43.9065 	 
H 	 -35.5401 	 27.1697 	 43.773 	 
C 	 -38.3441 	 26.4453 	 43.8421 	 
H 	 -39.3723 	 26.6558 	 43.5036 	 
H 	 -38.416 	 26.3043 	 44.9665 	 
C 	 -37.6695 	 25.2194 	 43.1408 	 
H 	 -37.2992 	 25.4652 	 42.1922 	 
H 	 -36.7106 	 24.9632 	 43.6165 	 
C 	 -38.5256 	 23.9592 	 43.0217 	 
H 	 -38.5443 	 23.3583 	 43.9411 	 
H 	 -39.5609 	 24.1299 	 42.7264 	 
H 	 -38.0048 	 23.2887 	 42.3394 	 
S 	 -34.8284 	 31.299 	 45.4228 	 
C 	 -33.0352 	 31.3805 	 45.5112 	 
C 	 -32.4325 	 30.6469 	 44.5264 	 
C 	 -33.3925 	 29.797 	 43.8751 	 
C 	 -34.7044 	 29.9982 	 44.2545 	 
H 	 -31.3657 	 30.5073 	 44.4937 	 
C 	 -32.9411 	 28.6252 	 42.9541 	 
H 	 -32.5404 	 29.1264 	 42.0903 	 
H 	 -33.8671 	 28.1572 	 42.6402 	 
C 	 -32.0392 	 27.6272 	 43.623 	 
H 	 -31.1302 	 28.1919 	 43.9514 	 
H 	 -31.6059 	 26.9841 	 42.8349 	 
C 	 -32.7664 	 26.8701 	 44.7606 	 
H 	 -33.8118 	 26.5197 	 44.5856 	 
H 	 -32.8543 	 27.395 	 45.768 	 
H 	 -32.1184 	 26.0479 	 44.9572 	 
H 	 -39.4877 	 29.0664 	 43.3798 	 
H 	 -32.4164 	 31.9256 	 46.2311 	 
*
