! wB97X-D3 SP def2-SVP
%pal
nprocs 16
end

* xyz 0 1
S 	 11.2369 	 11.3028 	 83.2625 	 
C 	 11.5994 	 10.4817 	 81.7263 	 
C 	 10.6795 	 9.47389 	 81.3929 	 
C 	 9.62517 	 9.35574 	 82.3465 	 
C 	 9.81009 	 10.3065 	 83.3617 	 
H 	 8.77883 	 8.7393 	 82.4385 	 
C 	 10.7732 	 8.59226 	 80.1594 	 
H 	 9.89669 	 7.96297 	 80.2365 	 
H 	 11.7244 	 8.07325 	 80.1725 	 
C 	 10.8884 	 9.48343 	 78.898 	 
H 	 11.6354 	 10.214 	 79.0205 	 
H 	 11.2881 	 8.9805 	 78.0778 	 
C 	 9.61737 	 10.2945 	 78.638 	 
H 	 9.83533 	 10.8996 	 77.8226 	 
H 	 8.85401 	 9.54255 	 78.3624 	 
H 	 9.24084 	 10.8696 	 79.5572 	 
S 	 8.44844 	 12.1511 	 84.7811 	 
C 	 7.57273 	 11.6081 	 86.2364 	 
C 	 7.50375 	 10.2484 	 86.3165 	 
C 	 8.30057 	 9.56363 	 85.2989 	 
C 	 8.87068 	 10.4753 	 84.4397 	 
H 	 6.88555 	 9.77285 	 87.0119 	 
C 	 8.38509 	 8.05472 	 85.1768 	 
H 	 8.01902 	 7.76672 	 84.2344 	 
H 	 7.6172 	 7.60737 	 85.8479 	 
C 	 9.72528 	 7.52478 	 85.6341 	 
H 	 9.88435 	 7.91538 	 86.6236 	 
H 	 10.5459 	 7.89338 	 85.0847 	 
C 	 9.85642 	 6.02744 	 85.4701 	 
H 	 9.54 	 5.77917 	 84.4287 	 
H 	 9.15243 	 5.39868 	 86.0654 	 
H 	 10.8568 	 5.57595 	 85.6238 	 
H 	 12.3915 	 10.7828 	 81.0909 	 
H 	 7.06672 	 12.3799 	 86.8162 	 
*
