! wB97X-D3 SP def2-SVP
%pal
nprocs 16
end

* xyz 0 1
S 	 13.9616 	 38.2191 	 59.4267 	 
C 	 15.6987 	 38.3081 	 59.5886 	 
C 	 16.1671 	 37.7159 	 60.725 	 
C 	 15.1292 	 37.0887 	 61.4634 	 
C 	 13.8733 	 37.2872 	 60.8829 	 
H 	 15.2319 	 36.5164 	 62.4405 	 
C 	 17.685 	 37.5917 	 61.0601 	 
H 	 17.711 	 37.0348 	 61.9732 	 
H 	 17.9895 	 38.5575 	 61.4212 	 
C 	 18.7037 	 37.1004 	 59.9888 	 
H 	 18.6697 	 37.7919 	 59.1323 	 
H 	 19.6936 	 37.1299 	 60.4138 	 
C 	 18.3236 	 35.666 	 59.5602 	 
H 	 17.3661 	 35.5551 	 59.1023 	 
H 	 18.9733 	 35.3005 	 58.6883 	 
H 	 18.5102 	 35.018 	 60.4825 	 
S 	 11.7072 	 35.6078 	 60.4265 	 
C 	 10.7142 	 35.1775 	 61.7957 	 
C 	 11.0801 	 35.8621 	 62.9455 	 
C 	 12.1764 	 36.7861 	 62.7576 	 
C 	 12.6955 	 36.6283 	 61.4671 	 
H 	 10.5252 	 35.6588 	 63.8935 	 
C 	 12.6031 	 37.7806 	 63.8333 	 
H 	 13.7062 	 37.9667 	 63.8296 	 
H 	 12.6228 	 37.2073 	 64.8022 	 
C 	 11.7438 	 39.1212 	 63.8822 	 
H 	 12.0743 	 39.7918 	 64.6371 	 
H 	 10.7299 	 38.7718 	 64.0852 	 
C 	 11.6576 	 39.9234 	 62.5783 	 
H 	 11.2671 	 40.9499 	 62.7063 	 
H 	 11.1321 	 39.3898 	 61.7358 	 
H 	 12.6164 	 40.1584 	 62.189 	 
H 	 16.3618 	 38.8522 	 58.9133 	 
H 	 9.79004 	 34.6118 	 61.6688 	 
*
