! wB97X-D3 SP def2-SVP
%pal
nprocs 16
end

* xyz 0 1
S 	 -71.9566 	 39.1609 	 117.652 	 
C 	 -71.6826 	 38.3048 	 116.202 	 
C 	 -70.9453 	 37.1245 	 116.358 	 
C 	 -70.6719 	 36.8647 	 117.766 	 
C 	 -71.3636 	 37.7172 	 118.634 	 
H 	 -70.1536 	 36.062 	 118.178 	 
C 	 -70.3359 	 36.2616 	 115.189 	 
H 	 -69.3911 	 36.6702 	 114.877 	 
H 	 -70.889 	 36.1488 	 114.269 	 
C 	 -69.9749 	 34.8703 	 115.54 	 
H 	 -69.1984 	 34.3919 	 114.84 	 
H 	 -69.4191 	 34.853 	 116.424 	 
C 	 -71.2253 	 33.9767 	 115.58 	 
H 	 -71.988 	 34.3304 	 116.316 	 
H 	 -71.6746 	 33.813 	 114.57 	 
H 	 -70.9983 	 32.9727 	 116.032 	 
S 	 -72.2876 	 38.8316 	 120.835 	 
C 	 -72.6324 	 37.9733 	 122.265 	 
C 	 -72.3716 	 36.6341 	 122.119 	 
C 	 -71.8464 	 36.3431 	 120.828 	 
C 	 -71.7401 	 37.4556 	 120.02 	 
H 	 -72.5536 	 35.9852 	 122.98 	 
C 	 -71.3872 	 34.9654 	 120.387 	 
H 	 -70.2963 	 35.061 	 120.222 	 
H 	 -71.8134 	 34.7449 	 119.43 	 
C 	 -71.6185 	 33.7521 	 121.433 	 
H 	 -72.6796 	 33.6528 	 121.644 	 
H 	 -71.271 	 34.024 	 122.376 	 
C 	 -70.9767 	 32.467 	 120.895 	 
H 	 -71.2642 	 32.2403 	 119.933 	 
H 	 -71.2663 	 31.6507 	 121.633 	 
H 	 -69.8687 	 32.4854 	 121.006 	 
H 	 -71.7803 	 38.8049 	 115.209 	 
H 	 -72.9191 	 38.4319 	 123.239 	 
*
