! wB97X-D3 SP def2-SVP
%pal
nprocs 16
end

* xyz 0 1
S 	 -37.3863 	 24.3467 	 82.4212 	 
C 	 -38.6298 	 23.2496 	 81.8973 	 
C 	 -38.0981 	 22.0167 	 81.542 	 
C 	 -36.6523 	 22.1516 	 81.4744 	 
C 	 -36.1391 	 23.3763 	 81.8314 	 
H 	 -36.0277 	 21.3696 	 81.0243 	 
C 	 -38.8195 	 20.6897 	 81.2466 	 
H 	 -38.7684 	 20.4279 	 80.1813 	 
H 	 -39.9244 	 20.9424 	 81.2912 	 
C 	 -38.4721 	 19.4198 	 82.0871 	 
H 	 -39.2984 	 18.7202 	 81.9374 	 
H 	 -37.653 	 18.9146 	 81.6337 	 
C 	 -38.2814 	 19.62 	 83.6153 	 
H 	 -37.556 	 20.4204 	 83.7747 	 
H 	 -39.2033 	 20.0057 	 84.0833 	 
H 	 -38.0783 	 18.755 	 84.1998 	 
S 	 -34.2708 	 23.9373 	 83.7627 	 
C 	 -32.6519 	 24.0496 	 83.2798 	 
C 	 -32.4129 	 23.7469 	 81.9649 	 
C 	 -33.6539 	 23.5574 	 81.2515 	 
C 	 -34.7456 	 23.6662 	 82.0463 	 
H 	 -31.4242 	 23.7982 	 81.4358 	 
C 	 -33.5865 	 23.49 	 79.7271 	 
H 	 -34.414 	 22.8245 	 79.4517 	 
H 	 -32.8411 	 22.7291 	 79.4122 	 
C 	 -33.4438 	 24.8496 	 78.8804 	 
H 	 -32.5159 	 25.2994 	 79.1531 	 
H 	 -34.2178 	 25.5678 	 79.2084 	 
C 	 -33.42 	 24.6041 	 77.3308 	 
H 	 -33.1273 	 25.4565 	 76.7339 	 
H 	 -34.3815 	 24.2554 	 76.9652 	 
H 	 -32.6335 	 23.8853 	 77.0786 	 
H 	 -39.6577 	 23.293 	 82.1843 	 
H 	 -31.9105 	 24.4703 	 83.887 	 
*
