! wB97X-D3 SP def2-SVP
%pal
nprocs 16
end

* xyz 0 1
S 	 0.333788 	 3.12701 	 80.4098 	 
C 	 1.4471 	 4.49341 	 80.1821 	 
C 	 0.85035 	 5.70213 	 80.2632 	 
C 	 -0.598607 	 5.54923 	 80.4419 	 
C 	 -1.03465 	 4.23815 	 80.59 	 
H 	 -1.22142 	 6.41165 	 80.5047 	 
C 	 1.496 	 6.98419 	 80.25 	 
H 	 2.41779 	 6.90351 	 80.7773 	 
H 	 1.17809 	 7.78586 	 80.888 	 
C 	 1.79169 	 7.5526 	 78.8039 	 
H 	 2.45268 	 6.88502 	 78.251 	 
H 	 0.791223 	 7.63474 	 78.3525 	 
C 	 2.50103 	 8.93108 	 78.8598 	 
H 	 2.64743 	 9.42199 	 77.9337 	 
H 	 1.84531 	 9.59538 	 79.3785 	 
H 	 3.44077 	 8.77759 	 79.2805 	 
S 	 -2.81777 	 2.35034 	 79.9906 	 
C 	 -4.45878 	 2.51279 	 80.3987 	 
C 	 -4.60214 	 3.58132 	 81.2383 	 
C 	 -3.465 	 4.38641 	 81.4658 	 
C 	 -2.40737 	 3.81888 	 80.7923 	 
H 	 -5.59719 	 3.77628 	 81.6507 	 
C 	 -3.42457 	 5.71109 	 82.2983 	 
H 	 -2.34866 	 5.90821 	 82.4308 	 
H 	 -3.88683 	 5.591 	 83.265 	 
C 	 -3.90486 	 7.04794 	 81.7097 	 
H 	 -5.00622 	 6.91161 	 81.7213 	 
H 	 -3.41927 	 7.15318 	 80.8019 	 
C 	 -3.54746 	 8.33889 	 82.4764 	 
H 	 -3.95362 	 8.28076 	 83.525 	 
H 	 -4.18108 	 9.13808 	 82.2252 	 
H 	 -2.496 	 8.66673 	 82.4209 	 
H 	 2.52757 	 4.41093 	 80.1195 	 
H 	 -5.25927 	 1.88652 	 80.0998 	 
*
