! wB97X-D3 SP def2-SVP
%pal
nprocs 16
end

* xyz 0 1
S 	 -42.7075 	 56.1358 	 100.308 	 
C 	 -42.2732 	 55.9086 	 102.014 	 
C 	 -43.1005 	 55.0383 	 102.653 	 
C 	 -44.1313 	 54.5302 	 101.756 	 
C 	 -44.1376 	 55.2085 	 100.533 	 
H 	 -44.9397 	 53.8009 	 101.838 	 
C 	 -42.8287 	 54.3747 	 103.993 	 
H 	 -43.869 	 54.2349 	 104.357 	 
H 	 -42.3415 	 55.1273 	 104.595 	 
C 	 -41.9509 	 53.0921 	 103.988 	 
H 	 -42.0766 	 52.6728 	 104.96 	 
H 	 -42.3359 	 52.4657 	 103.234 	 
C 	 -40.5172 	 53.3221 	 103.549 	 
H 	 -39.949 	 53.9146 	 104.319 	 
H 	 -39.8982 	 52.39 	 103.455 	 
H 	 -40.4173 	 53.8548 	 102.624 	 
S 	 -44.2645 	 54.3342 	 97.9333 	 
C 	 -45.8534 	 54.3827 	 97.1124 	 
C 	 -46.8473 	 54.7798 	 97.9335 	 
C 	 -46.4507 	 55.1747 	 99.2281 	 
C 	 -45.0294 	 55.0179 	 99.4066 	 
H 	 -47.9019 	 54.8179 	 97.6199 	 
C 	 -47.3589 	 55.7888 	 100.3 	 
H 	 -48.1152 	 56.5395 	 99.9902 	 
H 	 -46.6309 	 56.4055 	 100.833 	 
C 	 -47.9775 	 54.8331 	 101.298 	 
H 	 -47.1953 	 54.1131 	 101.652 	 
H 	 -48.7413 	 54.2221 	 100.761 	 
C 	 -48.3384 	 55.4379 	 102.669 	 
H 	 -48.4955 	 54.7459 	 103.481 	 
H 	 -49.1444 	 56.1018 	 102.601 	 
H 	 -47.5074 	 56.0942 	 102.989 	 
H 	 -41.4077 	 56.3475 	 102.434 	 
H 	 -46.111 	 53.7909 	 96.3064 	 
*
