! wB97X-D3 SP def2-SVP
%pal
nprocs 16
end

* xyz 0 1
S 	 -73.7053 	 48.2632 	 137.079 	 
C 	 -74.4225 	 49.8339 	 137.051 	 
C 	 -73.4975 	 50.8496 	 137.032 	 
C 	 -72.128 	 50.3387 	 136.978 	 
C 	 -72.0923 	 48.9728 	 136.976 	 
H 	 -71.2127 	 50.9513 	 136.982 	 
C 	 -73.703 	 52.3843 	 137.079 	 
H 	 -74.6814 	 52.4752 	 136.511 	 
H 	 -72.9685 	 52.9167 	 136.496 	 
C 	 -73.6694 	 52.9997 	 138.475 	 
H 	 -74.4292 	 52.3406 	 139.004 	 
H 	 -72.7289 	 53.0471 	 139.027 	 
C 	 -74.1857 	 54.4574 	 138.42 	 
H 	 -75.2629 	 54.4676 	 138.225 	 
H 	 -74.0766 	 54.8795 	 139.427 	 
H 	 -73.6794 	 55.007 	 137.641 	 
S 	 -70.9799 	 47.557 	 139.16 	 
C 	 -69.3082 	 47.1176 	 139.062 	 
C 	 -68.778 	 47.3492 	 137.719 	 
C 	 -69.7505 	 47.898 	 136.845 	 
C 	 -70.91 	 48.2209 	 137.495 	 
H 	 -67.7152 	 47.137 	 137.615 	 
C 	 -69.5068 	 48.1271 	 135.367 	 
H 	 -70.324 	 48.7868 	 134.976 	 
H 	 -69.4128 	 47.1291 	 134.898 	 
C 	 -68.1393 	 48.8283 	 135.117 	 
H 	 -67.3424 	 48.3238 	 135.589 	 
H 	 -68.1429 	 49.8101 	 135.513 	 
C 	 -67.839 	 48.9745 	 133.59 	 
H 	 -67.5226 	 48.0734 	 133.116 	 
H 	 -67.0799 	 49.7492 	 133.366 	 
H 	 -68.7534 	 49.3771 	 133.006 	 
H 	 -75.4575 	 50.1204 	 136.999 	 
H 	 -68.7442 	 46.8073 	 139.925 	 
*
