! wB97X-D3 SP def2-SVP
%pal
nprocs 16
end

* xyz 0 1
S 	 19.7192 	 3.75992 	 74.2399 	 
C 	 20.6298 	 3.34112 	 72.7987 	 
C 	 21.5755 	 4.30094 	 72.4764 	 
C 	 21.817 	 5.13434 	 73.602 	 
C 	 20.8756 	 5.06024 	 74.5875 	 
H 	 22.6344 	 5.83594 	 73.7069 	 
C 	 22.5391 	 4.232 	 71.3685 	 
H 	 22.4557 	 5.12645 	 70.6566 	 
H 	 22.1816 	 3.40205 	 70.7082 	 
C 	 24.0292 	 4.05545 	 71.7075 	 
H 	 24.573 	 4.12527 	 70.7923 	 
H 	 24.3753 	 4.79795 	 72.3565 	 
C 	 24.3298 	 2.69813 	 72.2996 	 
H 	 25.303 	 2.5739 	 72.8894 	 
H 	 23.522 	 2.49967 	 72.9724 	 
H 	 24.348 	 1.99301 	 71.5167 	 
S 	 20.7629 	 4.9832 	 77.3433 	 
C 	 21.0134 	 6.46175 	 78.2246 	 
C 	 21.0895 	 7.56492 	 77.3708 	 
C 	 21.1032 	 7.24313 	 75.9879 	 
C 	 20.8016 	 5.88701 	 75.7864 	 
H 	 21.2738 	 8.55633 	 77.8536 	 
C 	 21.281 	 8.16999 	 74.8338 	 
H 	 21.0275 	 7.59094 	 73.913 	 
H 	 22.3295 	 8.44493 	 74.8061 	 
C 	 20.4071 	 9.44549 	 74.8102 	 
H 	 19.3826 	 9.21681 	 74.5917 	 
H 	 20.6765 	 10.0697 	 73.9152 	 
C 	 20.567 	 10.4215 	 75.9809 	 
H 	 20.1706 	 10.1052 	 76.8825 	 
H 	 20.173 	 11.3937 	 75.7789 	 
H 	 21.562 	 10.6111 	 76.1784 	 
H 	 20.3513 	 2.49324 	 72.1129 	 
H 	 21.0434 	 6.42316 	 79.2883 	 
*
