! wB97X-D3 SP def2-SVP
%pal
nprocs 16
end

* xyz 0 1
S 	 -94.5631 	 51.2968 	 122.101 	 
C 	 -95.5924 	 49.9204 	 121.726 	 
C 	 -94.9701 	 49.1349 	 120.79 	 
C 	 -93.5897 	 49.497 	 120.54 	 
C 	 -93.2176 	 50.6653 	 121.157 	 
H 	 -92.8514 	 49.112 	 119.899 	 
C 	 -95.5761 	 47.8486 	 120.287 	 
H 	 -95.6285 	 47.9171 	 119.192 	 
H 	 -96.6205 	 47.729 	 120.621 	 
C 	 -94.7727 	 46.5939 	 120.512 	 
H 	 -95.0911 	 45.7751 	 119.872 	 
H 	 -93.8053 	 46.8592 	 120.205 	 
C 	 -94.7481 	 45.9675 	 121.928 	 
H 	 -95.7628 	 45.8783 	 122.243 	 
H 	 -94.3798 	 44.9402 	 121.9 	 
H 	 -94.2304 	 46.5591 	 122.711 	 
S 	 -91.8311 	 53.12 	 120.949 	 
C 	 -90.0286 	 53.0349 	 120.872 	 
C 	 -89.6363 	 51.7172 	 121.024 	 
C 	 -90.6954 	 50.8058 	 121.137 	 
C 	 -91.9402 	 51.3761 	 121.149 	 
H 	 -88.6092 	 51.4975 	 120.984 	 
C 	 -90.441 	 49.2772 	 121.326 	 
H 	 -90.4382 	 48.8418 	 120.345 	 
H 	 -91.2912 	 48.7496 	 121.836 	 
C 	 -89.0695 	 48.8612 	 122.046 	 
H 	 -89.0339 	 49.4202 	 122.959 	 
H 	 -88.2211 	 49.2668 	 121.525 	 
C 	 -88.908 	 47.3501 	 122.352 	 
H 	 -89.5295 	 46.936 	 123.124 	 
H 	 -87.9145 	 47.0421 	 122.594 	 
H 	 -89.0135 	 46.8865 	 121.34 	 
H 	 -96.6009 	 49.6274 	 122.044 	 
H 	 -89.3986 	 53.9033 	 120.655 	 
*
