! wB97X-D3 SP def2-SVP
%pal
nprocs 16
end

* xyz 0 1
S 	 -99.6166 	 42.6238 	 129.767 	 
C 	 -98.0687 	 42.0978 	 130.508 	 
C 	 -97.4102 	 41.2361 	 129.631 	 
C 	 -98.1505 	 40.9648 	 128.447 	 
C 	 -99.3463 	 41.5661 	 128.363 	 
H 	 -97.8194 	 40.3001 	 127.604 	 
C 	 -96.0367 	 40.6557 	 129.891 	 
H 	 -95.8638 	 39.6641 	 129.518 	 
H 	 -96.0011 	 40.5844 	 130.916 	 
C 	 -94.8871 	 41.5661 	 129.37 	 
H 	 -94.9065 	 41.5249 	 128.269 	 
H 	 -95.012 	 42.6016 	 129.678 	 
C 	 -93.6227 	 41.1302 	 129.964 	 
H 	 -93.5514 	 40.0827 	 129.872 	 
H 	 -92.7381 	 41.6034 	 129.452 	 
H 	 -93.6257 	 41.382 	 131.048 	 
S 	 -101.101 	 42.9349 	 126.895 	 
C 	 -101.817 	 42.2285 	 125.458 	 
C 	 -101.543 	 40.9247 	 125.373 	 
C 	 -100.631 	 40.4095 	 126.374 	 
C 	 -100.24 	 41.4339 	 127.254 	 
H 	 -101.829 	 40.4517 	 124.442 	 
C 	 -100.196 	 38.9694 	 126.384 	 
H 	 -99.3708 	 38.8847 	 127.197 	 
H 	 -99.7585 	 38.7115 	 125.395 	 
C 	 -101.366 	 38.0147 	 126.817 	 
H 	 -102.061 	 38.0932 	 126.021 	 
H 	 -101.761 	 38.1952 	 127.804 	 
C 	 -100.936 	 36.5324 	 126.841 	 
H 	 -100.466 	 36.2822 	 125.875 	 
H 	 -101.735 	 35.8599 	 127.08 	 
H 	 -100.186 	 36.3633 	 127.589 	 
H 	 -97.6555 	 42.4445 	 131.459 	 
H 	 -102.464 	 42.7698 	 124.824 	 
*
