! wB97X-D3 SP def2-SVP
%pal
nprocs 16
end

* xyz 0 1
S 	 -38.9584 	 51.4122 	 107.557 	 
C 	 -37.7891 	 50.6675 	 108.635 	 
C 	 -38.3821 	 49.5836 	 109.237 	 
C 	 -39.6641 	 49.2365 	 108.725 	 
C 	 -40.1331 	 50.1548 	 107.824 	 
H 	 -40.3028 	 48.4863 	 109.165 	 
C 	 -37.7777 	 48.7977 	 110.387 	 
H 	 -36.6878 	 48.9117 	 110.496 	 
H 	 -37.9149 	 47.7384 	 110.116 	 
C 	 -38.4403 	 49.1888 	 111.777 	 
H 	 -39.3626 	 48.6548 	 112.034 	 
H 	 -37.8478 	 48.8389 	 112.607 	 
C 	 -38.6211 	 50.7128 	 112.055 	 
H 	 -37.7711 	 51.4006 	 111.822 	 
H 	 -39.4601 	 51.1374 	 111.522 	 
H 	 -38.7471 	 50.9526 	 113.151 	 
S 	 -42.4374 	 51.6286 	 107.316 	 
C 	 -43.804 	 50.7986 	 106.717 	 
C 	 -43.4659 	 49.575 	 106.262 	 
C 	 -42.1113 	 49.1987 	 106.455 	 
C 	 -41.3916 	 50.192 	 107.1 	 
H 	 -44.2433 	 48.928 	 105.844 	 
C 	 -41.6226 	 47.6985 	 106.344 	 
H 	 -42.5042 	 47.0637 	 106.395 	 
H 	 -41.1669 	 47.487 	 107.329 	 
C 	 -40.8232 	 47.3192 	 105.192 	 
H 	 -40.0916 	 48.091 	 105.027 	 
H 	 -41.4712 	 47.3166 	 104.355 	 
C 	 -40.2547 	 45.8897 	 105.293 	 
H 	 -39.6744 	 45.5339 	 104.379 	 
H 	 -41.0617 	 45.2063 	 105.348 	 
H 	 -39.6434 	 45.8048 	 106.161 	 
H 	 -36.8585 	 51.1035 	 108.915 	 
H 	 -44.8411 	 51.2285 	 106.661 	 
*
