! wB97X-D3 SP def2-SVP
%pal
nprocs 16
end

* xyz 0 1
S 	 -42.3554 	 26.3689 	 84.1819 	 
C 	 -42.8858 	 24.9744 	 85.0736 	 
C 	 -43.4324 	 23.9635 	 84.3175 	 
C 	 -43.4752 	 24.3881 	 82.9522 	 
C 	 -42.9576 	 25.6365 	 82.717 	 
H 	 -43.9198 	 23.7796 	 82.1627 	 
C 	 -44.0576 	 22.695 	 84.825 	 
H 	 -44.9219 	 22.555 	 84.1524 	 
H 	 -44.2399 	 22.9685 	 85.8218 	 
C 	 -43.1072 	 21.4788 	 84.8597 	 
H 	 -43.7318 	 20.6154 	 85.0239 	 
H 	 -42.7024 	 21.4168 	 83.8521 	 
C 	 -41.9962 	 21.6428 	 85.8295 	 
H 	 -41.2484 	 20.8261 	 85.7824 	 
H 	 -41.4931 	 22.5918 	 85.7406 	 
H 	 -42.328 	 21.6654 	 86.8818 	 
S 	 -43.2759 	 28.2035 	 81.6198 	 
C 	 -43.0469 	 28.3499 	 79.9168 	 
C 	 -42.8128 	 27.2043 	 79.2135 	 
C 	 -42.7104 	 26.0431 	 80.0804 	 
C 	 -42.9879 	 26.3692 	 81.413 	 
H 	 -42.6698 	 27.1905 	 78.1236 	 
C 	 -42.5144 	 24.5636 	 79.576 	 
H 	 -41.951 	 24.1063 	 80.2885 	 
H 	 -41.7832 	 24.5745 	 78.7063 	 
C 	 -43.8949 	 23.853 	 79.3277 	 
H 	 -44.5136 	 23.7454 	 80.2211 	 
H 	 -43.7493 	 22.7753 	 79.0628 	 
C 	 -44.7677 	 24.702 	 78.3309 	 
H 	 -45.5514 	 23.968 	 77.9063 	 
H 	 -44.1616 	 25.007 	 77.5535 	 
H 	 -45.1984 	 25.522 	 78.8283 	 
H 	 -42.929 	 24.7886 	 86.0802 	 
H 	 -43.3768 	 29.2545 	 79.3538 	 
*
