! wB97X-D3 SP def2-SVP
%pal
nprocs 16
end

* xyz 0 1
S 	 14.7242 	 13.7985 	 86.1292 	 
C 	 16.0934 	 13.3954 	 85.1902 	 
C 	 15.7199 	 12.6678 	 84.0528 	 
C 	 14.2811 	 12.4051 	 84.0412 	 
C 	 13.5944 	 13.0586 	 85.0348 	 
H 	 13.7434 	 11.8481 	 83.2043 	 
C 	 16.6264 	 12.175 	 82.9319 	 
H 	 16.4044 	 11.0797 	 82.8046 	 
H 	 17.6841 	 12.0855 	 83.2582 	 
C 	 16.4717 	 12.8404 	 81.5968 	 
H 	 16.4774 	 13.9094 	 81.8055 	 
H 	 17.3623 	 12.7415 	 81.0431 	 
C 	 15.281 	 12.5231 	 80.7537 	 
H 	 14.4236 	 13.0612 	 81.1248 	 
H 	 15.4254 	 12.9024 	 79.7345 	 
H 	 15.097 	 11.4623 	 80.6628 	 
S 	 11.4336 	 14.7345 	 85.1081 	 
C 	 9.82115 	 14.1279 	 85.2407 	 
C 	 9.8232 	 12.7356 	 85.178 	 
C 	 11.1252 	 12.1579 	 85.1573 	 
C 	 12.1158 	 13.1339 	 85.2192 	 
H 	 8.91837 	 12.2553 	 85.0865 	 
C 	 11.4904 	 10.6691 	 85.1601 	 
H 	 11.6607 	 10.4678 	 86.1643 	 
H 	 12.441 	 10.6155 	 84.6342 	 
C 	 10.2976 	 9.82738 	 84.5907 	 
H 	 9.48576 	 10.0377 	 85.2667 	 
H 	 10.6749 	 8.78205 	 84.6454 	 
C 	 10.0133 	 10.0494 	 83.1439 	 
H 	 9.26145 	 9.36934 	 82.9067 	 
H 	 10.8948 	 9.9544 	 82.5282 	 
H 	 9.59639 	 11.0919 	 83.0594 	 
H 	 17.1515 	 13.6046 	 85.3496 	 
H 	 8.90009 	 14.6511 	 85.1652 	 
*
