! wB97X-D3 SP def2-SVP
%pal
nprocs 16
end

* xyz 0 1
S 	 9.28477 	 -8.06502 	 63.7023 	 
C 	 8.48835 	 -8.10747 	 65.1772 	 
C 	 8.78417 	 -9.28271 	 65.8976 	 
C 	 9.54366 	 -10.1865 	 65.0786 	 
C 	 9.77873 	 -9.67244 	 63.8271 	 
H 	 9.83156 	 -11.1903 	 65.3396 	 
C 	 8.30916 	 -9.59477 	 67.3229 	 
H 	 8.36171 	 -10.7072 	 67.407 	 
H 	 7.29136 	 -9.47167 	 67.3724 	 
C 	 8.9548 	 -8.93007 	 68.6074 	 
H 	 9.96966 	 -9.15234 	 68.474 	 
H 	 8.69862 	 -7.84204 	 68.5269 	 
C 	 8.28019 	 -9.39229 	 69.9217 	 
H 	 8.55806 	 -8.52933 	 70.6155 	 
H 	 7.20491 	 -9.35838 	 69.8795 	 
H 	 8.62905 	 -10.3426 	 70.3249 	 
S 	 11.271 	 -9.50062 	 61.5656 	 
C 	 11.3294 	 -10.7122 	 60.4384 	 
C 	 10.7449 	 -11.8517 	 60.9394 	 
C 	 10.0715 	 -11.6966 	 62.2 	 
C 	 10.2546 	 -10.3611 	 62.6754 	 
H 	 10.7918 	 -12.7591 	 60.2786 	 
C 	 9.22461 	 -12.7027 	 62.9667 	 
H 	 9.51245 	 -12.8294 	 63.9689 	 
H 	 9.40084 	 -13.6401 	 62.4781 	 
C 	 7.74237 	 -12.2958 	 62.9652 	 
H 	 7.43146 	 -12.1183 	 61.8861 	 
H 	 7.63585 	 -11.3454 	 63.5114 	 
C 	 6.86182 	 -13.373 	 63.6642 	 
H 	 5.91497 	 -13.2604 	 63.2126 	 
H 	 6.80262 	 -13.2476 	 64.7819 	 
H 	 7.11229 	 -14.4336 	 63.3986 	 
H 	 7.93874 	 -7.30931 	 65.6937 	 
H 	 11.8909 	 -10.555 	 59.5105 	 
*
