! wB97X-D3 SP def2-SVP
%pal
nprocs 16
end

* xyz 0 1
S 	 -15.371 	 33.0381 	 34.7522 	 
C 	 -13.9011 	 33.7818 	 34.2273 	 
C 	 -14.1416 	 35.1061 	 33.9009 	 
C 	 -15.5365 	 35.4927 	 34.0106 	 
C 	 -16.3685 	 34.4602 	 34.3978 	 
H 	 -15.9553 	 36.4304 	 33.6955 	 
C 	 -13.1287 	 36.1224 	 33.4085 	 
H 	 -13.5167 	 36.879 	 32.7391 	 
H 	 -12.3313 	 35.5813 	 32.8723 	 
C 	 -12.5539 	 37.005 	 34.5032 	 
H 	 -13.2924 	 37.7431 	 34.8705 	 
H 	 -12.3026 	 36.2951 	 35.371 	 
C 	 -11.3057 	 37.8321 	 34.0691 	 
H 	 -11.6855 	 38.4024 	 33.197 	 
H 	 -10.8949 	 38.5708 	 34.7475 	 
H 	 -10.5798 	 37.1066 	 33.7526 	 
S 	 -18.5355 	 35.3283 	 36.078 	 
C 	 -20.1391 	 34.7157 	 35.696 	 
C 	 -20.0743 	 33.7861 	 34.7008 	 
C 	 -18.8113 	 33.7478 	 33.968 	 
C 	 -17.8383 	 34.4533 	 34.6611 	 
H 	 -20.9563 	 33.2598 	 34.4121 	 
C 	 -18.6471 	 32.8171 	 32.7161 	 
H 	 -19.154 	 31.8661 	 32.7769 	 
H 	 -17.6096 	 32.5674 	 32.633 	 
C 	 -19.1092 	 33.4019 	 31.3036 	 
H 	 -20.1161 	 33.8298 	 31.2716 	 
H 	 -19.0145 	 32.6363 	 30.5887 	 
C 	 -18.0546 	 34.4511 	 30.8563 	 
H 	 -17.0469 	 34.014 	 30.7125 	 
H 	 -17.9167 	 35.268 	 31.5276 	 
H 	 -18.2948 	 34.817 	 29.8757 	 
H 	 -13.0087 	 33.3066 	 34.1166 	 
H 	 -21.0403 	 34.6867 	 36.3235 	 
*
