! wB97X-D3 SP def2-SVP
%pal
nprocs 16
end

* xyz 0 1
S 	 -39.294 	 68.4925 	 144.547 	 
C 	 -39.3798 	 68.0023 	 142.853 	 
C 	 -38.187 	 67.5911 	 142.299 	 
C 	 -37.1873 	 67.4384 	 143.321 	 
C 	 -37.6089 	 67.9172 	 144.582 	 
H 	 -36.2013 	 67.0263 	 143.204 	 
C 	 -38.0189 	 66.9808 	 140.9 	 
H 	 -37.0764 	 66.492 	 140.891 	 
H 	 -38.0256 	 67.8578 	 140.208 	 
C 	 -39.108 	 65.9744 	 140.505 	 
H 	 -40.0506 	 66.5289 	 140.424 	 
H 	 -38.7388 	 65.7904 	 139.46 	 
C 	 -39.2068 	 64.6127 	 141.332 	 
H 	 -39.8293 	 63.9652 	 140.618 	 
H 	 -38.237 	 64.1628 	 141.603 	 
H 	 -39.6979 	 64.7677 	 142.202 	 
S 	 -37.6828 	 68.0254 	 147.431 	 
C 	 -36.2807 	 68.1088 	 148.292 	 
C 	 -35.1571 	 68.2834 	 147.478 	 
C 	 -35.4711 	 68.1549 	 146.066 	 
C 	 -36.8324 	 68.0649 	 145.824 	 
H 	 -34.1843 	 68.4351 	 147.873 	 
C 	 -34.3324 	 68.0836 	 145.045 	 
H 	 -33.3787 	 68.5596 	 145.256 	 
H 	 -34.7868 	 68.4792 	 144.104 	 
C 	 -33.8487 	 66.7196 	 144.65 	 
H 	 -34.6677 	 65.957 	 144.709 	 
H 	 -33.2651 	 66.2772 	 145.449 	 
C 	 -32.9269 	 66.6948 	 143.418 	 
H 	 -32.3596 	 65.865 	 143.278 	 
H 	 -32.2213 	 67.5375 	 143.425 	 
H 	 -33.5865 	 66.8283 	 142.548 	 
H 	 -40.3356 	 67.9271 	 142.268 	 
H 	 -36.1351 	 68.4114 	 149.354 	 
*
