! wB97X-D3 SP def2-SVP
%pal
nprocs 16
end

* xyz 0 1
S 	 38.3605 	 27.8249 	 94.9888 	 
C 	 39.6334 	 28.9483 	 95.3353 	 
C 	 40.6331 	 28.3458 	 96.1642 	 
C 	 40.3943 	 26.9524 	 96.3001 	 
C 	 39.2988 	 26.482 	 95.5881 	 
H 	 41.0213 	 26.2676 	 96.8844 	 
C 	 41.9641 	 28.9313 	 96.7383 	 
H 	 42.682 	 28.0902 	 96.8575 	 
H 	 41.8045 	 29.5264 	 97.6776 	 
C 	 42.7694 	 29.8025 	 95.7459 	 
H 	 42.0175 	 30.4608 	 95.2633 	 
H 	 43.4595 	 30.3739 	 96.3489 	 
C 	 43.5458 	 28.9946 	 94.7713 	 
H 	 44.1535 	 28.168 	 95.1212 	 
H 	 42.9861 	 28.5438 	 93.96 	 
H 	 44.1173 	 29.6697 	 94.16 	 
S 	 37.1339 	 24.7208 	 95.7454 	 
C 	 37.4585 	 23.0172 	 95.7374 	 
C 	 38.7491 	 22.712 	 95.5198 	 
C 	 39.5184 	 23.8828 	 95.4146 	 
C 	 38.8647 	 25.1023 	 95.5428 	 
H 	 39.1662 	 21.6967 	 95.4773 	 
C 	 40.9694 	 23.8674 	 95.0389 	 
H 	 41.4626 	 23.0762 	 95.4629 	 
H 	 41.6046 	 24.761 	 95.3689 	 
C 	 41.22 	 23.881 	 93.6076 	 
H 	 42.2781 	 23.7237 	 93.3071 	 
H 	 40.7322 	 24.779 	 93.214 	 
C 	 40.5793 	 22.6993 	 92.8556 	 
H 	 39.5221 	 22.5951 	 93.0473 	 
H 	 40.9988 	 21.7508 	 93.0996 	 
H 	 40.5208 	 22.776 	 91.7095 	 
H 	 39.6632 	 30.0313 	 95.1393 	 
H 	 36.7069 	 22.2778 	 95.6437 	 
*
