! wB97X-D3 SP def2-SVP
%pal
nprocs 16
end

* xyz 0 1
S 	 -39.6062 	 27.7771 	 91.4082 	 
C 	 -39.4618 	 26.0596 	 91.203 	 
C 	 -40.3827 	 25.5044 	 90.3735 	 
C 	 -41.12 	 26.5349 	 89.7034 	 
C 	 -40.7297 	 27.8071 	 90.0473 	 
H 	 -41.8681 	 26.404 	 88.9568 	 
C 	 -40.6182 	 24.0107 	 90.073 	 
H 	 -39.8783 	 23.679 	 89.3378 	 
H 	 -41.5785 	 23.8503 	 89.6409 	 
C 	 -40.5958 	 23.1509 	 91.332 	 
H 	 -40.5987 	 22.1301 	 90.8953 	 
H 	 -39.692 	 23.3164 	 91.8053 	 
C 	 -41.8549 	 23.426 	 92.1746 	 
H 	 -42.053 	 24.4257 	 92.5256 	 
H 	 -42.711 	 23.0919 	 91.6603 	 
H 	 -41.8572 	 22.8778 	 93.1145 	 
S 	 -42.0176 	 30.1947 	 90.5809 	 
C 	 -42.5401 	 31.2482 	 89.261 	 
C 	 -42.1464 	 30.612 	 88.0949 	 
C 	 -41.4615 	 29.356 	 88.148 	 
C 	 -41.2713 	 29.0106 	 89.455 	 
H 	 -42.3966 	 31.1314 	 87.2119 	 
C 	 -40.9706 	 28.5506 	 86.9102 	 
H 	 -41.3921 	 29.0148 	 85.9838 	 
H 	 -41.4355 	 27.5154 	 86.8807 	 
C 	 -39.4387 	 28.3827 	 86.7702 	 
H 	 -39.3042 	 27.5611 	 86.1257 	 
H 	 -39.1006 	 28.0977 	 87.7418 	 
C 	 -38.6575 	 29.5816 	 86.2041 	 
H 	 -37.5985 	 29.3793 	 86.0887 	 
H 	 -38.6365 	 30.4887 	 86.761 	 
H 	 -39.0032 	 29.7894 	 85.1505 	 
H 	 -38.8662 	 25.532 	 91.8594 	 
H 	 -42.8498 	 32.2826 	 89.3854 	 
*
