! wB97X-D3 SP def2-SVP
%pal
nprocs 16
end

* xyz 0 1
S 	 12.7454 	 1.68289 	 62.9814 	 
C 	 11.8881 	 0.600234 	 61.8016 	 
C 	 12.7485 	 -0.488564 	 61.4895 	 
C 	 13.9747 	 -0.493176 	 62.2436 	 
C 	 14.1417 	 0.641474 	 63.0115 	 
H 	 14.7329 	 -1.26774 	 62.2442 	 
C 	 12.4845 	 -1.36699 	 60.3431 	 
H 	 11.4611 	 -1.20299 	 59.8673 	 
H 	 12.3814 	 -2.30903 	 60.8641 	 
C 	 13.5765 	 -1.49567 	 59.3052 	 
H 	 13.6385 	 -0.529573 	 58.719 	 
H 	 14.4693 	 -1.75366 	 59.7951 	 
C 	 13.3677 	 -2.70824 	 58.3836 	 
H 	 12.4272 	 -2.77445 	 57.7331 	 
H 	 14.1231 	 -2.79926 	 57.609 	 
H 	 13.4014 	 -3.65484 	 58.9758 	 
S 	 14.715 	 0.735666 	 65.726 	 
C 	 16.335 	 0.672963 	 66.2242 	 
C 	 17.2193 	 0.718677 	 65.1177 	 
C 	 16.55 	 0.704108 	 63.8968 	 
C 	 15.1637 	 0.761581 	 64.0353 	 
H 	 18.2589 	 0.776585 	 65.2686 	 
C 	 17.2638 	 0.34187 	 62.5888 	 
H 	 16.7409 	 -0.55513 	 62.1541 	 
H 	 18.284 	 0.0804238 	 62.8224 	 
C 	 17.2735 	 1.36997 	 61.4087 	 
H 	 16.3457 	 1.5455 	 60.9294 	 
H 	 17.893 	 0.878357 	 60.6052 	 
C 	 17.7873 	 2.82914 	 61.8537 	 
H 	 18.7252 	 2.67916 	 62.4854 	 
H 	 16.9684 	 3.25738 	 62.5245 	 
H 	 18.0034 	 3.50231 	 61.0008 	 
H 	 10.8944 	 0.755783 	 61.5106 	 
H 	 16.668 	 0.406105 	 67.2793 	 
*
