! wB97X-D3 SP def2-SVP
%pal
nprocs 16
end

* xyz 0 1
S 	 32.0595 	 3.47008 	 65.1757 	 
C 	 32.5436 	 4.80116 	 66.1978 	 
C 	 31.4697 	 5.678 	 66.5395 	 
C 	 30.2841 	 5.16862 	 65.8855 	 
C 	 30.4042 	 3.97673 	 65.1567 	 
H 	 29.3016 	 5.63484 	 65.9798 	 
C 	 31.4393 	 6.76067 	 67.6591 	 
H 	 32.5324 	 6.7394 	 68.0205 	 
H 	 30.867 	 6.45636 	 68.4949 	 
C 	 31.0302 	 8.15633 	 67.2066 	 
H 	 29.9464 	 8.09085 	 67.1602 	 
H 	 31.2868 	 8.94809 	 67.8944 	 
C 	 31.5868 	 8.69388 	 65.8647 	 
H 	 32.6678 	 8.76679 	 65.7626 	 
H 	 31.2568 	 8.07666 	 65.0175 	 
H 	 31.0948 	 9.66805 	 65.7339 	 
S 	 29.5378 	 3.41402 	 62.6022 	 
C 	 28.0164 	 2.62479 	 62.2784 	 
C 	 27.3758 	 2.32534 	 63.4773 	 
C 	 28.1451 	 2.67281 	 64.6033 	 
C 	 29.3245 	 3.33193 	 64.3531 	 
H 	 26.3268 	 1.96366 	 63.4788 	 
C 	 27.7005 	 2.41779 	 66.0174 	 
H 	 28.552 	 2.46952 	 66.6926 	 
H 	 27.1715 	 1.4456 	 66.1058 	 
C 	 26.6904 	 3.49019 	 66.5142 	 
H 	 25.8855 	 3.4888 	 65.8102 	 
H 	 27.1459 	 4.40437 	 66.3686 	 
C 	 26.2304 	 3.41055 	 67.8846 	 
H 	 25.6929 	 2.42596 	 67.9805 	 
H 	 25.6167 	 4.32797 	 68.003 	 
H 	 27.0698 	 3.42038 	 68.62 	 
H 	 33.5368 	 4.93837 	 66.5096 	 
H 	 27.5755 	 2.286 	 61.3425 	 
*
