! wB97X-D3 SP def2-SVP
%pal
nprocs 16
end

* xyz 0 1
S 	 -2.99404 	 75.8842 	 50.4573 	 
C 	 -1.70367 	 76.9977 	 50.0095 	 
C 	 -1.75615 	 78.0916 	 50.8192 	 
C 	 -2.81256 	 78.0873 	 51.7755 	 
C 	 -3.5788 	 76.9375 	 51.7087 	 
H 	 -3.065 	 78.8504 	 52.5268 	 
C 	 -0.653373 	 79.0963 	 50.7891 	 
H 	 -0.933252 	 79.9482 	 50.2619 	 
H 	 0.208906 	 78.6871 	 50.2146 	 
C 	 0.0353155 	 79.5646 	 52.0786 	 
H 	 0.804109 	 80.3054 	 51.8779 	 
H 	 -0.650882 	 80.1398 	 52.7089 	 
C 	 0.649773 	 78.4232 	 52.8729 	 
H 	 1.17685 	 78.7312 	 53.8324 	 
H 	 -0.111542 	 77.6646 	 53.0243 	 
H 	 1.37109 	 77.9254 	 52.2898 	 
S 	 -6.30459 	 76.5224 	 52.0662 	 
C 	 -7.0084 	 76.2467 	 53.6152 	 
C 	 -5.99436 	 76.3809 	 54.5927 	 
C 	 -4.71586 	 76.5959 	 54.0549 	 
C 	 -4.67076 	 76.5763 	 52.6452 	 
H 	 -6.32222 	 76.3865 	 55.6062 	 
C 	 -3.47584 	 76.8922 	 54.8675 	 
H 	 -3.69587 	 77.0919 	 55.982 	 
H 	 -2.97762 	 77.7645 	 54.3862 	 
C 	 -2.4657 	 75.8036 	 54.8843 	 
H 	 -1.57112 	 76.2208 	 55.3613 	 
H 	 -2.20302 	 75.4527 	 53.9029 	 
C 	 -3.09892 	 74.5923 	 55.5066 	 
H 	 -2.35537 	 73.7717 	 55.5308 	 
H 	 -3.96399 	 74.2722 	 54.927 	 
H 	 -3.52535 	 74.8516 	 56.4714 	 
H 	 -0.799086 	 76.7473 	 49.4202 	 
H 	 -8.09886 	 76.0267 	 53.7951 	 
*
