! wB97X-D3 SP def2-SVP
%pal
nprocs 16
end

* xyz 0 1
S 	 33.5954 	 26.1547 	 52.095 	 
C 	 34.8902 	 27.2613 	 52.0527 	 
C 	 36.1152 	 26.6458 	 52.3501 	 
C 	 35.9733 	 25.2597 	 52.7725 	 
C 	 34.6624 	 24.8504 	 52.6811 	 
H 	 36.7236 	 24.6363 	 53.1941 	 
C 	 37.5084 	 27.285 	 52.3058 	 
H 	 37.4513 	 28.1519 	 51.6168 	 
H 	 38.2721 	 26.6012 	 51.7991 	 
C 	 38.036 	 27.7466 	 53.6144 	 
H 	 37.9635 	 26.8587 	 54.2361 	 
H 	 39.1007 	 27.8929 	 53.6809 	 
C 	 37.2006 	 28.88 	 54.2451 	 
H 	 36.1141 	 28.6727 	 54.0866 	 
H 	 37.3925 	 28.8861 	 55.3074 	 
H 	 37.4009 	 29.8767 	 53.9446 	 
S 	 32.8063 	 23.7749 	 54.3505 	 
C 	 32.5891 	 22.0279 	 54.4222 	 
C 	 33.5603 	 21.3647 	 53.6826 	 
C 	 34.4536 	 22.2762 	 52.9313 	 
C 	 34.0633 	 23.633 	 53.1654 	 
H 	 33.6144 	 20.2777 	 53.6209 	 
C 	 35.5561 	 21.8898 	 52.0067 	 
H 	 36.16 	 21.1418 	 52.5113 	 
H 	 36.174 	 22.757 	 51.9258 	 
C 	 35.1677 	 21.173 	 50.6939 	 
H 	 34.7477 	 21.9596 	 50.0307 	 
H 	 34.4272 	 20.3343 	 50.7668 	 
C 	 36.3593 	 20.5919 	 50.0057 	 
H 	 36.0259 	 20.2454 	 49.0172 	 
H 	 36.7936 	 19.7898 	 50.5827 	 
H 	 37.1349 	 21.3097 	 49.9218 	 
H 	 34.7566 	 28.2277 	 51.8145 	 
H 	 31.8677 	 21.572 	 55.046 	 
*
