! wB97X-D3 SP def2-SVP
%pal
nprocs 16
end

* xyz 0 1
S 	 51.17 	 14.2694 	 82.7289 	 
C 	 50.774 	 13.5676 	 84.3351 	 
C 	 49.9098 	 14.4037 	 84.9974 	 
C 	 49.5139 	 15.5426 	 84.1985 	 
C 	 50.1585 	 15.631 	 82.9555 	 
H 	 48.7726 	 16.2982 	 84.5343 	 
C 	 49.2768 	 14.1252 	 86.4258 	 
H 	 49.5037 	 14.973 	 87.0474 	 
H 	 49.7486 	 13.2832 	 86.9274 	 
C 	 47.8047 	 13.75 	 86.2814 	 
H 	 47.3182 	 14.5789 	 85.8605 	 
H 	 47.6005 	 12.9488 	 85.6476 	 
C 	 47.024 	 13.4251 	 87.5302 	 
H 	 47.5947 	 12.8308 	 88.2456 	 
H 	 46.7751 	 14.3595 	 87.9568 	 
H 	 46.1649 	 12.7825 	 87.238 	 
S 	 49.5812 	 15.8684 	 80.3321 	 
C 	 49.1704 	 17.3554 	 79.6341 	 
C 	 49.2284 	 18.379 	 80.5508 	 
C 	 49.7699 	 17.9744 	 81.833 	 
C 	 49.9651 	 16.6069 	 81.903 	 
H 	 48.8495 	 19.3649 	 80.2826 	 
C 	 49.9301 	 18.8477 	 83.0475 	 
H 	 50.9561 	 19.2645 	 82.8495 	 
H 	 50.0215 	 18.3373 	 83.9531 	 
C 	 48.9202 	 19.9396 	 83.2551 	 
H 	 47.8644 	 19.5984 	 82.9873 	 
H 	 49.1256 	 20.6166 	 82.4206 	 
C 	 48.8512 	 20.7941 	 84.541 	 
H 	 49.8026 	 21.2407 	 84.7638 	 
H 	 48.3856 	 20.1522 	 85.3233 	 
H 	 48.2426 	 21.6018 	 84.3192 	 
H 	 51.1253 	 12.6033 	 84.762 	 
H 	 48.5369 	 17.4834 	 78.7344 	 
*
