! wB97X-D3 SP def2-SVP
%pal
nprocs 16
end

* xyz 0 1
S 	 -107.587 	 40.3581 	 129.596 	 
C 	 -106.187 	 40.5178 	 130.562 	 
C 	 -105.043 	 40.9204 	 129.809 	 
C 	 -105.311 	 40.8355 	 128.413 	 
C 	 -106.663 	 40.8734 	 128.169 	 
H 	 -104.557 	 40.9823 	 127.649 	 
C 	 -103.647 	 41.1295 	 130.367 	 
H 	 -103.477 	 42.181 	 130.106 	 
H 	 -102.99 	 40.5486 	 129.765 	 
C 	 -103.372 	 40.9568 	 131.847 	 
H 	 -103.995 	 41.7603 	 132.423 	 
H 	 -103.653 	 39.9434 	 132.018 	 
C 	 -101.952 	 41.0087 	 132.281 	 
H 	 -101.383 	 40.1991 	 131.948 	 
H 	 -101.562 	 41.9287 	 131.962 	 
H 	 -101.949 	 40.8664 	 133.327 	 
S 	 -107.972 	 39.7518 	 125.997 	 
C 	 -108.186 	 40.6175 	 124.508 	 
C 	 -107.814 	 41.9263 	 124.642 	 
C 	 -107.224 	 42.1122 	 125.951 	 
C 	 -107.26 	 41.1021 	 126.839 	 
H 	 -108.028 	 42.5866 	 123.793 	 
C 	 -106.559 	 43.4422 	 126.221 	 
H 	 -106.589 	 43.6513 	 127.249 	 
H 	 -107.326 	 44.1857 	 125.961 	 
C 	 -105.204 	 43.7175 	 125.65 	 
H 	 -104.993 	 43.2802 	 124.684 	 
H 	 -104.379 	 43.2808 	 126.214 	 
C 	 -104.929 	 45.2326 	 125.528 	 
H 	 -105.531 	 45.7043 	 124.748 	 
H 	 -103.865 	 45.2999 	 125.211 	 
H 	 -105.058 	 45.7526 	 126.419 	 
H 	 -106.201 	 40.4721 	 131.609 	 
H 	 -108.587 	 40.1681 	 123.652 	 
*
