! wB97X-D3 SP def2-SVP
%pal
nprocs 16
end

* xyz 0 1
S 	 -64.0698 	 39.5413 	 122.712 	 
C 	 -64.9494 	 39.9119 	 121.282 	 
C 	 -66.3368 	 40.1604 	 121.586 	 
C 	 -66.507 	 40.2069 	 123 	 
C 	 -65.3278 	 40.0755 	 123.759 	 
H 	 -67.4668 	 40.4956 	 123.475 	 
C 	 -67.5396 	 40.4791 	 120.716 	 
H 	 -67.2999 	 41.0386 	 119.855 	 
H 	 -68.3106 	 40.9879 	 121.294 	 
C 	 -68.1914 	 39.1588 	 120.19 	 
H 	 -67.4953 	 38.6229 	 119.496 	 
H 	 -68.4083 	 38.5067 	 120.961 	 
C 	 -69.5764 	 39.4248 	 119.488 	 
H 	 -69.7639 	 38.6338 	 118.651 	 
H 	 -70.3959 	 39.4144 	 120.22 	 
H 	 -69.6167 	 40.4432 	 119.091 	 
S 	 -63.9322 	 39.2667 	 126.009 	 
C 	 -64.3236 	 39.8463 	 127.566 	 
C 	 -65.2732 	 40.8481 	 127.384 	 
C 	 -65.6653 	 41.2072 	 126.047 	 
C 	 -65.0672 	 40.3445 	 125.168 	 
H 	 -65.6969 	 41.3862 	 128.209 	 
C 	 -66.7867 	 42.2134 	 125.758 	 
H 	 -66.7927 	 42.6276 	 124.727 	 
H 	 -66.5566 	 43.0724 	 126.413 	 
C 	 -68.2038 	 41.7163 	 125.95 	 
H 	 -68.4048 	 41.43 	 126.969 	 
H 	 -68.4573 	 40.8182 	 125.405 	 
C 	 -69.1957 	 42.7386 	 125.633 	 
H 	 -68.7969 	 43.7031 	 126.013 	 
H 	 -70.0973 	 42.5569 	 126.166 	 
H 	 -69.2976 	 42.7098 	 124.49 	 
H 	 -64.4948 	 39.665 	 120.319 	 
H 	 -63.8885 	 39.484 	 128.491 	 
*
