! wB97X-D3 SP def2-SVP
%pal
nprocs 16
end

* xyz 0 1
S 	 -15.9241 	 32.8514 	 35.6559 	 
C 	 -17.5349 	 32.1752 	 36.1168 	 
C 	 -18.5677 	 33.1025 	 35.9555 	 
C 	 -18.0082 	 34.3908 	 35.7182 	 
C 	 -16.6503 	 34.4106 	 35.5605 	 
H 	 -18.4671 	 35.2799 	 35.5651 	 
C 	 -20.0161 	 32.8152 	 35.9651 	 
H 	 -20.2668 	 32.0774 	 36.6755 	 
H 	 -20.0227 	 32.3188 	 35.0454 	 
C 	 -21.0326 	 33.9362 	 35.9867 	 
H 	 -20.7358 	 34.7592 	 35.332 	 
H 	 -21.9528 	 33.5502 	 35.6292 	 
C 	 -21.0933 	 34.5336 	 37.3891 	 
H 	 -20.2603 	 35.2134 	 37.6515 	 
H 	 -21.999 	 35.2304 	 37.4403 	 
H 	 -21.2715 	 33.7905 	 38.1447 	 
S 	 -15.7753 	 36.2417 	 33.7794 	 
C 	 -14.4984 	 37.3336 	 34.2641 	 
C 	 -14.1716 	 37.1795 	 35.5805 	 
C 	 -14.9912 	 36.1628 	 36.2259 	 
C 	 -15.7989 	 35.5004 	 35.3216 	 
H 	 -13.5377 	 37.8659 	 36.08 	 
C 	 -14.9053 	 35.7924 	 37.6985 	 
H 	 -13.9941 	 36.2136 	 38.1728 	 
H 	 -14.8168 	 34.7731 	 37.7869 	 
C 	 -16.1961 	 36.2274 	 38.4412 	 
H 	 -16.3439 	 35.5242 	 39.2557 	 
H 	 -17.0335 	 36.1064 	 37.747 	 
C 	 -16.2325 	 37.652 	 38.9397 	 
H 	 -17.2835 	 37.9665 	 39.1179 	 
H 	 -15.878 	 38.3478 	 38.2289 	 
H 	 -15.7637 	 37.6875 	 39.8758 	 
H 	 -17.8384 	 31.1349 	 36.4291 	 
H 	 -14.131 	 38.1508 	 33.6995 	 
*
