! wB97X-D3 SP def2-SVP
%pal
nprocs 16
end

* xyz 0 1
S 	 8.98234 	 24.4203 	 40.6293 	 
C 	 7.63796 	 24.752 	 39.7358 	 
C 	 7.0179 	 23.6022 	 39.2653 	 
C 	 7.69328 	 22.4232 	 39.6477 	 
C 	 8.87336 	 22.7165 	 40.2216 	 
H 	 7.54603 	 21.398 	 39.368 	 
C 	 5.83285 	 23.5313 	 38.3133 	 
H 	 5.63723 	 22.5087 	 37.9259 	 
H 	 5.98549 	 24.2408 	 37.4337 	 
C 	 4.42781 	 23.8715 	 39.0126 	 
H 	 3.60684 	 23.7814 	 38.3319 	 
H 	 4.37493 	 23.1142 	 39.7147 	 
C 	 4.33097 	 25.1536 	 39.7271 	 
H 	 4.6675 	 26.0558 	 39.1035 	 
H 	 3.24259 	 25.3022 	 40.034 	 
H 	 4.85409 	 25.2196 	 40.686 	 
S 	 11.5385 	 22.0641 	 40.0449 	 
C 	 12.1286 	 20.4167 	 40.3126 	 
C 	 11.0354 	 19.6442 	 40.6065 	 
C 	 9.79589 	 20.3328 	 40.7296 	 
C 	 9.90934 	 21.6897 	 40.5336 	 
H 	 11.1334 	 18.5626 	 40.8584 	 
C 	 8.50485 	 19.6521 	 41.1679 	 
H 	 7.84928 	 19.5306 	 40.3653 	 
H 	 8.09224 	 20.3862 	 41.8835 	 
C 	 8.57609 	 18.1931 	 41.8775 	 
H 	 9.22903 	 18.3969 	 42.7278 	 
H 	 9.23999 	 17.5485 	 41.2985 	 
C 	 7.14745 	 17.6342 	 42.0834 	 
H 	 6.48729 	 18.3518 	 42.5813 	 
H 	 7.36477 	 16.7491 	 42.7321 	 
H 	 6.64947 	 17.38 	 41.1075 	 
H 	 7.12422 	 25.6777 	 39.4741 	 
H 	 13.091 	 19.945 	 40.1106 	 
*
