! wB97X-D3 SP def2-SVP
%pal
nprocs 16
end

* xyz 0 1
S 	 64.9854 	 18.1142 	 73.2639 	 
C 	 65.4389 	 17.1188 	 71.9199 	 
C 	 66.6839 	 16.536 	 72.1223 	 
C 	 67.1847 	 16.7206 	 73.4609 	 
C 	 66.4729 	 17.633 	 74.2112 	 
H 	 68.0888 	 16.2817 	 73.7676 	 
C 	 67.2484 	 15.5146 	 71.1115 	 
H 	 67.0355 	 15.8573 	 70.1148 	 
H 	 66.6453 	 14.618 	 71.2495 	 
C 	 68.7502 	 15.2165 	 71.2759 	 
H 	 68.8003 	 14.5992 	 72.154 	 
H 	 68.9517 	 14.5954 	 70.3939 	 
C 	 69.8236 	 16.4112 	 71.3088 	 
H 	 70.7765 	 15.9794 	 71.2622 	 
H 	 69.6156 	 17.1566 	 70.4916 	 
H 	 69.7909 	 17.0207 	 72.2014 	 
S 	 65.2316 	 17.4807 	 76.5907 	 
C 	 65.986 	 18.1266 	 78.1019 	 
C 	 67.2973 	 18.5475 	 77.8177 	 
C 	 67.6325 	 18.4093 	 76.4149 	 
C 	 66.5895 	 18.0585 	 75.614 	 
H 	 67.769 	 18.971 	 78.682 	 
C 	 69.0535 	 18.7359 	 75.9955 	 
H 	 69.3929 	 19.5547 	 76.6864 	 
H 	 69.0101 	 19.2276 	 75.0342 	 
C 	 70.0827 	 17.5718 	 75.9231 	 
H 	 69.7119 	 16.6681 	 75.4868 	 
H 	 70.1344 	 17.2082 	 76.8743 	 
C 	 71.5127 	 17.9034 	 75.4505 	 
H 	 72.3351 	 17.2921 	 75.9039 	 
H 	 71.7327 	 18.8819 	 75.7744 	 
H 	 71.5797 	 17.8168 	 74.4105 	 
H 	 64.8838 	 16.8638 	 71.0436 	 
H 	 65.4729 	 18.2927 	 79.032 	 
*
