! wB97X-D3 SP def2-SVP
%pal
nprocs 16
end

* xyz 0 1
S 	 35.2124 	 10.0196 	 89.7097 	 
C 	 34.0712 	 10.2315 	 88.4058 	 
C 	 34.2965 	 9.41183 	 87.3063 	 
C 	 35.5785 	 8.77771 	 87.3807 	 
C 	 36.2185 	 9.01174 	 88.6145 	 
H 	 36.0414 	 8.14522 	 86.714 	 
C 	 33.2884 	 9.35443 	 86.2206 	 
H 	 32.3667 	 9.63004 	 86.6266 	 
H 	 33.1599 	 8.32269 	 85.9217 	 
C 	 33.5189 	 10.2846 	 84.9835 	 
H 	 34.5327 	 10.2367 	 84.6567 	 
H 	 32.8104 	 10.0353 	 84.1245 	 
C 	 33.157 	 11.739 	 85.3202 	 
H 	 33.2452 	 12.3821 	 84.4216 	 
H 	 32.0792 	 11.8426 	 85.557 	 
H 	 33.716 	 12.1574 	 86.114 	 
S 	 37.5441 	 7.93701 	 90.71 	 
C 	 39.1165 	 7.06929 	 90.3869 	 
C 	 39.478 	 7.21875 	 89.0757 	 
C 	 38.5752 	 8.05993 	 88.2909 	 
C 	 37.4386 	 8.35244 	 89.0417 	 
H 	 40.4463 	 6.87377 	 88.7588 	 
C 	 38.8541 	 8.50414 	 86.9246 	 
H 	 39.8759 	 8.83214 	 86.9127 	 
H 	 38.1873 	 9.35984 	 86.6362 	 
C 	 38.8218 	 7.53332 	 85.7983 	 
H 	 37.8763 	 7.09676 	 85.8381 	 
H 	 39.4915 	 6.73882 	 85.9886 	 
C 	 39.0679 	 8.14916 	 84.3542 	 
H 	 38.1022 	 8.58988 	 83.9587 	 
H 	 39.2739 	 7.34174 	 83.7291 	 
H 	 39.9051 	 8.79698 	 84.268 	 
H 	 33.15 	 10.8171 	 88.4526 	 
H 	 39.7569 	 6.68352 	 91.1313 	 
*
