! wB97X-D3 SP def2-SVP
%pal
nprocs 16
end

* xyz 0 1
S 	 -71.6463 	 48.8365 	 123.654 	 
C 	 -70.6319 	 47.8141 	 122.57 	 
C 	 -69.3964 	 47.5752 	 123.07 	 
C 	 -69.2138 	 48.0473 	 124.385 	 
C 	 -70.4164 	 48.5281 	 124.96 	 
H 	 -68.3543 	 48.0245 	 124.962 	 
C 	 -68.2813 	 47.0666 	 122.152 	 
H 	 -68.045 	 47.8517 	 121.385 	 
H 	 -68.7432 	 46.1961 	 121.744 	 
C 	 -66.9672 	 46.6537 	 122.809 	 
H 	 -66.6019 	 47.5248 	 123.318 	 
H 	 -67.2295 	 45.9751 	 123.613 	 
C 	 -66.0032 	 45.9406 	 121.84 	 
H 	 -65.1539 	 45.526 	 122.291 	 
H 	 -66.4782 	 45.1734 	 121.216 	 
H 	 -65.7675 	 46.7475 	 121.095 	 
S 	 -71.2265 	 50.5927 	 126.645 	 
C 	 -71.1584 	 50.3239 	 128.411 	 
C 	 -70.6814 	 49.049 	 128.677 	 
C 	 -70.3986 	 48.3345 	 127.471 	 
C 	 -70.5768 	 49.0307 	 126.338 	 
H 	 -70.4426 	 48.8408 	 129.681 	 
C 	 -70.0136 	 46.8088 	 127.643 	 
H 	 -69.1013 	 46.942 	 128.262 	 
H 	 -69.6437 	 46.2984 	 126.726 	 
C 	 -71.0578 	 45.8714 	 128.359 	 
H 	 -71.1055 	 46.2464 	 129.392 	 
H 	 -70.7348 	 44.8244 	 128.434 	 
C 	 -72.4053 	 46.0375 	 127.692 	 
H 	 -72.4997 	 45.6267 	 126.692 	 
H 	 -72.6562 	 47.0676 	 127.605 	 
H 	 -73.1861 	 45.4927 	 128.278 	 
H 	 -70.9456 	 47.4863 	 121.605 	 
H 	 -71.5237 	 51.0228 	 129.077 	 
*
