! wB97X-D3 SP def2-SVP
%pal
nprocs 16
end

* xyz 0 1
S 	 3.37419 	 -14.3427 	 61.9124 	 
C 	 2.82187 	 -13.7389 	 63.4337 	 
C 	 1.65122 	 -14.345 	 63.8047 	 
C 	 1.11931 	 -15.2511 	 62.7605 	 
C 	 1.93477 	 -15.2862 	 61.6344 	 
H 	 0.142974 	 -15.7026 	 62.82 	 
C 	 0.784353 	 -14.0141 	 64.9853 	 
H 	 0.538403 	 -14.9756 	 65.4168 	 
H 	 -0.0848218 	 -13.5897 	 64.5146 	 
C 	 1.43331 	 -13.1257 	 66.0955 	 
H 	 2.40023 	 -13.4163 	 66.5518 	 
H 	 1.63647 	 -12.0963 	 65.7274 	 
C 	 0.441329 	 -12.9777 	 67.2365 	 
H 	 -0.340428 	 -12.393 	 66.8139 	 
H 	 0.0259361 	 -13.9358 	 67.5506 	 
H 	 0.912465 	 -12.4542 	 68.0672 	 
S 	 2.209 	 -14.7415 	 58.9092 	 
C 	 1.64455 	 -15.8713 	 57.6989 	 
C 	 1.27608 	 -17.0266 	 58.326 	 
C 	 1.14719 	 -16.9626 	 59.775 	 
C 	 1.71632 	 -15.7862 	 60.3098 	 
H 	 1.04505 	 -17.8307 	 57.6834 	 
C 	 0.668924 	 -18.2268 	 60.4478 	 
H 	 0.0779577 	 -18.7457 	 59.6879 	 
H 	 -0.0708889 	 -18.0415 	 61.3083 	 
C 	 1.88984 	 -19.106 	 60.925 	 
H 	 2.43993 	 -18.4531 	 61.6352 	 
H 	 2.49365 	 -19.2406 	 60.0188 	 
C 	 1.59342 	 -20.4264 	 61.6444 	 
H 	 1.16969 	 -21.1137 	 60.911 	 
H 	 0.881965 	 -20.3865 	 62.4334 	 
H 	 2.46352 	 -21.0348 	 61.8754 	 
H 	 3.35641 	 -13.309 	 64.2672 	 
H 	 1.61976 	 -15.6438 	 56.6422 	 
*
