! wB97X-D3 SP def2-SVP
%pal
nprocs 16
end

* xyz 0 1
S 	 -42.3133 	 49.6934 	 102.485 	 
C 	 -41.7459 	 51.2059 	 103.236 	 
C 	 -41.1989 	 50.9552 	 104.468 	 
C 	 -41.1986 	 49.5902 	 104.813 	 
C 	 -41.7334 	 48.7755 	 103.866 	 
H 	 -40.6953 	 49.1992 	 105.75 	 
C 	 -40.5812 	 51.9617 	 105.47 	 
H 	 -40.4514 	 52.8362 	 104.864 	 
H 	 -39.6223 	 51.4448 	 105.738 	 
C 	 -41.2891 	 52.3899 	 106.781 	 
H 	 -41.2555 	 51.5763 	 107.525 	 
H 	 -40.8645 	 53.2668 	 107.245 	 
C 	 -42.8293 	 52.5477 	 106.615 	 
H 	 -43.0881 	 53.2628 	 105.818 	 
H 	 -43.1712 	 51.5116 	 106.39 	 
H 	 -43.331 	 52.9131 	 107.471 	 
S 	 -42.7948 	 46.3808 	 103.103 	 
C 	 -41.8374 	 44.9886 	 103.35 	 
C 	 -40.5831 	 45.249 	 103.795 	 
C 	 -40.371 	 46.6093 	 104.051 	 
C 	 -41.4911 	 47.3834 	 103.741 	 
H 	 -39.9266 	 44.4078 	 103.85 	 
C 	 -38.9994 	 47.0691 	 104.432 	 
H 	 -38.4111 	 46.2435 	 104.845 	 
H 	 -39.1118 	 47.7578 	 105.276 	 
C 	 -38.1635 	 47.798 	 103.383 	 
H 	 -38.8053 	 48.6885 	 103.04 	 
H 	 -37.9527 	 47.1955 	 102.478 	 
C 	 -36.9539 	 48.3478 	 103.94 	 
H 	 -36.4375 	 48.99 	 103.229 	 
H 	 -36.1747 	 47.6829 	 104.106 	 
H 	 -36.9982 	 49.0204 	 104.792 	 
H 	 -41.9252 	 52.2245 	 102.866 	 
H 	 -42.1965 	 43.8884 	 103.222 	 
*
