! wB97X-D3 SP def2-SVP
%pal
nprocs 16
end

* xyz 0 1
S 	 41.9995 	 21.7763 	 46.7625 	 
C 	 40.4587 	 21.0133 	 46.4319 	 
C 	 39.582 	 21.1673 	 47.4697 	 
C 	 40.2375 	 21.6534 	 48.6672 	 
C 	 41.5394 	 22.091 	 48.4185 	 
H 	 39.8731 	 21.8554 	 49.7202 	 
C 	 38.1771 	 20.6377 	 47.4709 	 
H 	 37.9339 	 20.3346 	 46.4168 	 
H 	 37.4927 	 21.441 	 47.6904 	 
C 	 37.934 	 19.4174 	 48.3541 	 
H 	 38.028 	 19.8112 	 49.3403 	 
H 	 36.9246 	 19.1848 	 48.2819 	 
C 	 38.8186 	 18.2081 	 48.032 	 
H 	 38.4959 	 17.281 	 48.5622 	 
H 	 38.6082 	 17.7773 	 47.07 	 
H 	 39.9482 	 18.2983 	 48.1023 	 
S 	 43.1631 	 24.2927 	 48.4999 	 
C 	 43.9976 	 24.7494 	 49.9702 	 
C 	 43.6721 	 23.8445 	 50.9903 	 
C 	 42.7834 	 22.773 	 50.5645 	 
C 	 42.4986 	 22.8666 	 49.1935 	 
H 	 44.1622 	 23.905 	 51.9248 	 
C 	 42.2812 	 21.6477 	 51.4797 	 
H 	 42.382 	 20.726 	 50.8665 	 
H 	 41.2239 	 21.7908 	 51.795 	 
C 	 43.1477 	 21.3613 	 52.6871 	 
H 	 43.1157 	 22.324 	 53.2328 	 
H 	 44.1766 	 21.1192 	 52.4067 	 
C 	 42.5403 	 20.3469 	 53.5495 	 
H 	 43.225 	 19.9795 	 54.3197 	 
H 	 42.2777 	 19.4627 	 52.9513 	 
H 	 41.5374 	 20.6525 	 53.9114 	 
H 	 40.2099 	 20.8018 	 45.3571 	 
H 	 44.6075 	 25.6333 	 50.061 	 
*
