! wB97X-D3 SP def2-SVP
%pal
nprocs 16
end

* xyz 0 1
S 	 6.75291 	 -27.8044 	 82.091 	 
C 	 7.6463 	 -28.4638 	 83.4552 	 
C 	 8.45351 	 -27.4841 	 83.9721 	 
C 	 8.34975 	 -26.1759 	 83.3394 	 
C 	 7.47151 	 -26.1768 	 82.307 	 
H 	 8.8095 	 -25.2461 	 83.7224 	 
C 	 9.11161 	 -27.6987 	 85.3065 	 
H 	 9.84475 	 -26.8665 	 85.4349 	 
H 	 9.64532 	 -28.6077 	 85.3768 	 
C 	 8.18701 	 -27.5096 	 86.4975 	 
H 	 7.46398 	 -26.7085 	 86.4205 	 
H 	 7.44843 	 -28.2799 	 86.6962 	 
C 	 8.97229 	 -27.3107 	 87.8584 	 
H 	 8.34371 	 -27.112 	 88.692 	 
H 	 9.63105 	 -28.1583 	 88.1923 	 
H 	 9.57421 	 -26.34 	 87.7403 	 
S 	 5.62306 	 -24.4752 	 81.5671 	 
C 	 6.12657 	 -23.0968 	 80.4855 	 
C 	 7.41068 	 -23.2026 	 80.053 	 
C 	 8.09674 	 -24.3829 	 80.568 	 
C 	 7.21666 	 -25.1012 	 81.4117 	 
H 	 7.85954 	 -22.4793 	 79.3776 	 
C 	 9.58072 	 -24.7571 	 80.3571 	 
H 	 9.7791 	 -24.5521 	 79.3235 	 
H 	 9.66532 	 -25.8153 	 80.3885 	 
C 	 10.7178 	 -24.0717 	 81.1832 	 
H 	 10.6094 	 -24.5674 	 82.1046 	 
H 	 10.4787 	 -23.0519 	 81.2963 	 
C 	 12.1468 	 -24.2186 	 80.6004 	 
H 	 12.3473 	 -23.5046 	 79.7853 	 
H 	 12.3002 	 -25.2464 	 80.2321 	 
H 	 12.8919 	 -24.0813 	 81.3961 	 
H 	 7.492 	 -29.433 	 83.941 	 
H 	 5.40577 	 -22.3101 	 80.0651 	 
*
