! wB97X-D3 SP def2-SVP
%pal
nprocs 16
end

* xyz 0 1
S 	 -69.3247 	 36.2288 	 119.26 	 
C 	 -68.2446 	 36.6183 	 117.938 	 
C 	 -68.8313 	 36.3827 	 116.726 	 
C 	 -70.1753 	 35.9716 	 116.831 	 
C 	 -70.61 	 35.8338 	 118.151 	 
H 	 -70.7904 	 35.7362 	 116.053 	 
C 	 -68.1294 	 36.536 	 115.373 	 
H 	 -68.6035 	 35.8769 	 114.627 	 
H 	 -67.0102 	 36.3249 	 115.465 	 
C 	 -68.2758 	 37.92 	 114.764 	 
H 	 -67.6452 	 38.0922 	 113.955 	 
H 	 -69.2496 	 38.0061 	 114.394 	 
C 	 -68.0456 	 39.0901 	 115.722 	 
H 	 -68.4195 	 39.9896 	 115.326 	 
H 	 -68.7284 	 39.0438 	 116.582 	 
H 	 -66.9933 	 39.1824 	 115.944 	 
S 	 -73.2194 	 36.3913 	 117.536 	 
C 	 -74.3906 	 35.9143 	 118.735 	 
C 	 -73.8494 	 35.2171 	 119.755 	 
C 	 -72.4456 	 35.062 	 119.691 	 
C 	 -71.95 	 35.6498 	 118.513 	 
H 	 -74.3958 	 34.9999 	 120.654 	 
C 	 -71.6793 	 34.2142 	 120.758 	 
H 	 -71.3443 	 35.0437 	 121.394 	 
H 	 -70.9232 	 33.7355 	 120.227 	 
C 	 -72.4623 	 33.1651 	 121.487 	 
H 	 -72.6934 	 32.2552 	 120.837 	 
H 	 -73.3472 	 33.5492 	 121.96 	 
C 	 -71.6143 	 32.2816 	 122.531 	 
H 	 -70.5956 	 32.4216 	 122.31 	 
H 	 -71.8703 	 31.2233 	 122.396 	 
H 	 -71.8088 	 32.5354 	 123.584 	 
H 	 -67.2432 	 37.0652 	 117.942 	 
H 	 -75.3946 	 36.2312 	 118.651 	 
*
