! wB97X-D3 SP def2-SVP
%pal
nprocs 16
end

* xyz 0 1
S 	 -38.6134 	 43.8036 	 97.162 	 
C 	 -39.7535 	 44.264 	 98.4048 	 
C 	 -39.4447 	 43.6719 	 99.5853 	 
C 	 -38.2524 	 42.8908 	 99.4763 	 
C 	 -37.6625 	 42.8994 	 98.2488 	 
H 	 -37.8118 	 42.2379 	 100.21 	 
C 	 -40.2987 	 43.6152 	 100.862 	 
H 	 -39.831 	 42.7754 	 101.464 	 
H 	 -41.3476 	 43.3571 	 100.545 	 
C 	 -40.2656 	 44.9983 	 101.551 	 
H 	 -39.2477 	 45.3389 	 101.631 	 
H 	 -40.7524 	 45.8082 	 100.999 	 
C 	 -40.9312 	 44.8478 	 102.953 	 
H 	 -41.9354 	 44.4696 	 102.995 	 
H 	 -40.3207 	 44.1939 	 103.567 	 
H 	 -41.0712 	 45.8595 	 103.36 	 
S 	 -35.0416 	 43.2956 	 97.6525 	 
C 	 -33.9462 	 41.8911 	 97.4669 	 
C 	 -34.735 	 40.7458 	 97.2467 	 
C 	 -36.0911 	 40.9237 	 97.664 	 
C 	 -36.4799 	 42.2682 	 97.8091 	 
H 	 -34.3235 	 39.8193 	 96.8699 	 
C 	 -37.0259 	 39.7707 	 97.8112 	 
H 	 -38.0783 	 40.1411 	 98.0318 	 
H 	 -36.8663 	 39.2845 	 98.7322 	 
C 	 -37.0239 	 38.8385 	 96.5653 	 
H 	 -36.1859 	 38.2086 	 96.6478 	 
H 	 -37.1043 	 39.3878 	 95.6314 	 
C 	 -38.2494 	 37.8986 	 96.4383 	 
H 	 -38.125 	 37.2881 	 95.5071 	 
H 	 -39.222 	 38.4044 	 96.3497 	 
H 	 -38.1887 	 37.182 	 97.2603 	 
H 	 -40.5799 	 44.9387 	 98.3293 	 
H 	 -32.9007 	 41.9949 	 97.3163 	 
*
