! wB97X-D3 SP def2-SVP
%pal
nprocs 16
end

* xyz 0 1
S 	 47.5436 	 21.3275 	 88.6923 	 
C 	 48.305 	 22.4157 	 89.818 	 
C 	 48.6055 	 21.7552 	 91.0074 	 
C 	 48.167 	 20.3756 	 91.0002 	 
C 	 47.484 	 20.0015 	 89.8775 	 
H 	 48.1878 	 19.637 	 91.7929 	 
C 	 49.2353 	 22.4262 	 92.1708 	 
H 	 48.3209 	 22.7227 	 92.6387 	 
H 	 49.7956 	 23.2838 	 91.8097 	 
C 	 50.1846 	 21.6413 	 93.0047 	 
H 	 49.6075 	 20.8507 	 93.4714 	 
H 	 50.9189 	 21.1711 	 92.3738 	 
C 	 50.8294 	 22.4637 	 94.135 	 
H 	 49.9589 	 22.91 	 94.7274 	 
H 	 51.4023 	 21.8192 	 94.7836 	 
H 	 51.4496 	 23.2615 	 93.8677 	 
S 	 45.2659 	 18.3953 	 90.3346 	 
C 	 45.0983 	 16.9928 	 89.233 	 
C 	 46.3461 	 16.5967 	 88.7175 	 
C 	 47.3152 	 17.64 	 88.7943 	 
C 	 46.8071 	 18.7512 	 89.5447 	 
H 	 46.4552 	 15.5814 	 88.259 	 
C 	 48.6936 	 17.6067 	 88.2215 	 
H 	 49.1712 	 18.4702 	 88.5962 	 
H 	 48.7618 	 17.5469 	 87.1407 	 
C 	 49.518 	 16.498 	 88.8974 	 
H 	 50.5076 	 16.4722 	 88.4264 	 
H 	 49.2012 	 15.4493 	 88.7582 	 
C 	 49.7763 	 16.8781 	 90.2824 	 
H 	 48.8481 	 17.0661 	 90.7782 	 
H 	 50.3636 	 17.8157 	 90.3863 	 
H 	 50.3481 	 16.1893 	 90.8637 	 
H 	 48.6678 	 23.405 	 89.595 	 
H 	 44.2655 	 16.3175 	 89.2701 	 
*
