! wB97X-D3 SP def2-SVP
%pal
nprocs 16
end

* xyz 0 1
S 	 45.9813 	 15.4404 	 82.7141 	 
C 	 45.6631 	 17.0887 	 83.0942 	 
C 	 46.8295 	 17.7092 	 83.5461 	 
C 	 47.8999 	 16.7892 	 83.6113 	 
C 	 47.6207 	 15.4556 	 83.3049 	 
H 	 48.8721 	 17.0288 	 83.986 	 
C 	 46.9244 	 19.2398 	 83.7254 	 
H 	 46.9428 	 19.6698 	 82.6867 	 
H 	 47.9414 	 19.5288 	 84.0266 	 
C 	 45.9732 	 19.9434 	 84.791 	 
H 	 46.1796 	 19.5299 	 85.752 	 
H 	 46.2579 	 20.9749 	 84.8455 	 
C 	 44.4518 	 19.8297 	 84.6209 	 
H 	 44.1459 	 19.8049 	 83.5606 	 
H 	 44.0844 	 18.8582 	 84.8942 	 
H 	 43.7892 	 20.575 	 85.0505 	 
S 	 47.8661 	 13.028 	 84.5598 	 
C 	 49.1547 	 11.9179 	 84.1454 	 
C 	 50.1597 	 12.6079 	 83.5218 	 
C 	 49.7859 	 13.9439 	 83.138 	 
C 	 48.492 	 14.2431 	 83.4389 	 
H 	 51.0305 	 12.0015 	 83.3529 	 
C 	 50.7976 	 14.7805 	 82.35 	 
H 	 50.3713 	 15.7807 	 82.4122 	 
H 	 50.7513 	 14.4263 	 81.3132 	 
C 	 52.2082 	 14.7072 	 82.7569 	 
H 	 52.8729 	 15.1997 	 81.9592 	 
H 	 52.5741 	 13.6628 	 82.8585 	 
C 	 52.5096 	 15.3606 	 84.1173 	 
H 	 51.9617 	 14.7939 	 84.8915 	 
H 	 52.2744 	 16.4637 	 84.2043 	 
H 	 53.5456 	 15.4059 	 84.4118 	 
H 	 44.6799 	 17.5715 	 82.7968 	 
H 	 49.2548 	 10.8337 	 84.323 	 
*
