! wB97X-D3 SP def2-SVP
%pal
nprocs 16
end

* xyz 0 1
S 	 -40.8978 	 14.5874 	 80.1656 	 
C 	 -39.3715 	 14.8235 	 79.2292 	 
C 	 -39.5696 	 14.373 	 77.9848 	 
C 	 -40.8578 	 13.8495 	 77.7611 	 
C 	 -41.7301 	 13.8246 	 78.7694 	 
H 	 -41.2602 	 13.4567 	 76.8106 	 
C 	 -38.5024 	 14.5068 	 76.9185 	 
H 	 -38.9667 	 14.0238 	 76.0648 	 
H 	 -37.664 	 13.8986 	 77.2492 	 
C 	 -37.9216 	 15.8888 	 76.5937 	 
H 	 -37.3769 	 16.3168 	 77.4441 	 
H 	 -37.2281 	 15.6922 	 75.7676 	 
C 	 -39.0168 	 16.8749 	 76.0313 	 
H 	 -39.4654 	 16.5478 	 75.0686 	 
H 	 -39.8157 	 17.0072 	 76.6982 	 
H 	 -38.5169 	 17.8485 	 75.8889 	 
S 	 -44.2742 	 14.4947 	 79.7772 	 
C 	 -45.5937 	 13.4083 	 79.6366 	 
C 	 -45.2469 	 12.3813 	 78.8277 	 
C 	 -43.8716 	 12.3 	 78.3824 	 
C 	 -43.1202 	 13.3694 	 78.9099 	 
H 	 -46.0608 	 11.6755 	 78.6513 	 
C 	 -43.3281 	 11.233 	 77.4783 	 
H 	 -43.2003 	 10.4025 	 78.179 	 
H 	 -42.2842 	 11.4977 	 77.1905 	 
C 	 -44.1186 	 10.663 	 76.382 	 
H 	 -45.1559 	 10.3543 	 76.6995 	 
H 	 -43.6312 	 9.72657 	 76.0217 	 
C 	 -44.4096 	 11.7167 	 75.2632 	 
H 	 -43.4216 	 11.9683 	 74.8185 	 
H 	 -44.905 	 12.6447 	 75.5923 	 
H 	 -44.9404 	 11.1299 	 74.4608 	 
H 	 -38.4545 	 15.3417 	 79.5607 	 
H 	 -46.4055 	 13.36 	 80.3556 	 
*
