! wB97X-D3 SP def2-SVP
%pal
nprocs 16
end

* xyz 0 1
S 	 9.26592 	 23.8916 	 68.8056 	 
C 	 8.33096 	 22.9849 	 67.6391 	 
C 	 8.13392 	 23.7383 	 66.4745 	 
C 	 8.62901 	 25.0787 	 66.6152 	 
C 	 9.34549 	 25.2852 	 67.7867 	 
H 	 8.57006 	 25.8673 	 65.8974 	 
C 	 7.35731 	 23.2883 	 65.2388 	 
H 	 8.02587 	 23.1703 	 64.3606 	 
H 	 6.77269 	 24.2475 	 64.9378 	 
C 	 6.30418 	 22.2186 	 65.4061 	 
H 	 6.10118 	 21.7496 	 64.4096 	 
H 	 6.76396 	 21.311 	 65.9009 	 
C 	 5.0463 	 22.6643 	 66.2135 	 
H 	 4.52949 	 23.3996 	 65.6336 	 
H 	 4.40404 	 21.7639 	 66.3412 	 
H 	 5.23944 	 23.2071 	 67.1598 	 
S 	 10.2591 	 26.9724 	 69.7329 	 
C 	 11.0437 	 28.4648 	 69.2839 	 
C 	 11.5317 	 28.365 	 68.013 	 
C 	 10.9887 	 27.2553 	 67.2856 	 
C 	 10.2066 	 26.4212 	 68.1066 	 
H 	 12.16 	 29.1373 	 67.6004 	 
C 	 11.3597 	 27.074 	 65.8495 	 
H 	 11.856 	 27.9023 	 65.4079 	 
H 	 10.4215 	 27.0941 	 65.2446 	 
C 	 12.1315 	 25.8396 	 65.4167 	 
H 	 11.8268 	 25.6544 	 64.3584 	 
H 	 11.8441 	 25.0515 	 66.165 	 
C 	 13.6597 	 26.056 	 65.5199 	 
H 	 14.0471 	 26.7626 	 64.8335 	 
H 	 14.2064 	 25.1091 	 65.2745 	 
H 	 13.9423 	 26.335 	 66.5508 	 
H 	 7.96256 	 21.9242 	 67.7836 	 
H 	 11.3019 	 29.1972 	 70.0391 	 
*
