! wB97X-D3 SP def2-SVP
%pal
nprocs 16
end

* xyz 0 1
S 	 -114.927 	 50.6839 	 130.655 	 
C 	 -113.813 	 52.047 	 130.433 	 
C 	 -112.863 	 52.0511 	 131.457 	 
C 	 -113.065 	 51.039 	 132.38 	 
C 	 -114.18 	 50.2333 	 132.168 	 
H 	 -112.504 	 50.876 	 133.302 	 
C 	 -111.788 	 53.0664 	 131.719 	 
H 	 -111.222 	 53.32 	 130.801 	 
H 	 -111.036 	 52.685 	 132.433 	 
C 	 -112.265 	 54.4519 	 132.288 	 
H 	 -113.237 	 54.6687 	 131.676 	 
H 	 -112.513 	 54.4572 	 133.326 	 
C 	 -111.083 	 55.4754 	 132.32 	 
H 	 -110.163 	 55.1901 	 132.881 	 
H 	 -110.842 	 55.7288 	 131.33 	 
H 	 -111.589 	 56.3399 	 132.758 	 
S 	 -114.821 	 47.5175 	 132.504 	 
C 	 -115.485 	 47.0195 	 133.997 	 
C 	 -115.621 	 48.0824 	 134.859 	 
C 	 -115.185 	 49.2983 	 134.33 	 
C 	 -114.697 	 49.2356 	 133.03 	 
H 	 -115.977 	 47.9251 	 135.899 	 
C 	 -115.434 	 50.6056 	 135.115 	 
H 	 -114.988 	 51.4828 	 134.637 	 
H 	 -114.769 	 50.346 	 135.97 	 
C 	 -116.846 	 50.9666 	 135.472 	 
H 	 -117.253 	 50.1796 	 136.147 	 
H 	 -117.57 	 50.9886 	 134.676 	 
C 	 -116.833 	 52.2003 	 136.37 	 
H 	 -116.923 	 53.0689 	 135.734 	 
H 	 -115.893 	 52.3312 	 136.962 	 
H 	 -117.705 	 52.1967 	 137.014 	 
H 	 -113.904 	 52.8947 	 129.819 	 
H 	 -115.59 	 46.02 	 134.401 	 
*
