! wB97X-D3 SP def2-SVP
%pal
nprocs 16
end

* xyz 0 1
S 	 -3.81017 	 9.17305 	 84.4671 	 
C 	 -3.24428 	 7.48705 	 84.3983 	 
C 	 -3.99386 	 6.83734 	 83.4466 	 
C 	 -4.50728 	 7.737 	 82.4639 	 
C 	 -4.42501 	 9.02652 	 82.8778 	 
H 	 -5.05988 	 7.57708 	 81.5748 	 
C 	 -4.08007 	 5.30953 	 83.3308 	 
H 	 -4.77052 	 5.07419 	 82.5592 	 
H 	 -4.66639 	 5.09938 	 84.2229 	 
C 	 -2.78028 	 4.51327 	 83.0886 	 
H 	 -2.26089 	 5.01652 	 82.3307 	 
H 	 -2.24762 	 4.38855 	 83.9685 	 
C 	 -3.06084 	 3.07742 	 82.7598 	 
H 	 -3.50777 	 3.04093 	 81.7416 	 
H 	 -2.16805 	 2.45932 	 82.763 	 
H 	 -3.71747 	 2.63729 	 83.5155 	 
S 	 -6.05302 	 11.1799 	 83.2498 	 
C 	 -6.44434 	 12.2309 	 81.9231 	 
C 	 -5.76355 	 11.8165 	 80.8202 	 
C 	 -5.06079 	 10.6156 	 80.9374 	 
C 	 -5.04673 	 10.1761 	 82.2437 	 
H 	 -5.86207 	 12.3754 	 79.9651 	 
C 	 -4.27966 	 9.93863 	 79.8501 	 
H 	 -5.00033 	 9.8386 	 79.0968 	 
H 	 -3.88823 	 8.99546 	 80.1617 	 
C 	 -3.1032 	 10.7388 	 79.2451 	 
H 	 -3.58337 	 11.3951 	 78.5178 	 
H 	 -2.64522 	 10.093 	 78.5884 	 
C 	 -2.08012 	 11.4624 	 80.0974 	 
H 	 -1.29304 	 11.9003 	 79.5415 	 
H 	 -1.69163 	 10.6543 	 80.7654 	 
H 	 -2.53664 	 12.2088 	 80.7492 	 
H 	 -2.82219 	 7.03303 	 85.1949 	 
H 	 -6.97105 	 13.1889 	 82.1042 	 
*
