! wB97X-D3 SP def2-SVP
%pal
nprocs 16
end

* xyz 0 1
S 	 -28.3545 	 57.4754 	 117.153 	 
C 	 -29.9968 	 57.2511 	 116.893 	 
C 	 -30.6546 	 58.4192 	 116.992 	 
C 	 -29.7798 	 59.5707 	 116.958 	 
C 	 -28.4598 	 59.2186 	 117.252 	 
H 	 -30.1231 	 60.6193 	 116.935 	 
C 	 -32.1394 	 58.5395 	 116.932 	 
H 	 -32.4851 	 59.3467 	 117.524 	 
H 	 -32.5744 	 57.6029 	 117.41 	 
C 	 -32.8452 	 58.7277 	 115.582 	 
H 	 -33.9121 	 58.6497 	 115.689 	 
H 	 -32.5839 	 59.7422 	 115.282 	 
C 	 -32.3307 	 57.7322 	 114.548 	 
H 	 -32.8652 	 56.8227 	 114.749 	 
H 	 -32.5542 	 57.9774 	 113.532 	 
H 	 -31.2236 	 57.4705 	 114.587 	 
S 	 -25.9778 	 59.8681 	 116.18 	 
C 	 -25.0295 	 61.0992 	 117.011 	 
C 	 -25.7436 	 61.6299 	 118.05 	 
C 	 -27.1326 	 61.2101 	 118.099 	 
C 	 -27.3371 	 60.1545 	 117.215 	 
H 	 -25.2536 	 62.4011 	 118.715 	 
C 	 -28.1883 	 61.6835 	 119.088 	 
H 	 -29.2037 	 61.5089 	 118.701 	 
H 	 -28.1495 	 62.7154 	 119.215 	 
C 	 -28.1539 	 60.9557 	 120.465 	 
H 	 -27.3377 	 61.42 	 121.015 	 
H 	 -27.8956 	 59.8585 	 120.39 	 
C 	 -29.5874 	 60.9773 	 121.157 	 
H 	 -30.4256 	 60.6538 	 120.556 	 
H 	 -29.76 	 61.9367 	 121.64 	 
H 	 -29.5786 	 60.1821 	 121.902 	 
H 	 -30.4772 	 56.2677 	 116.901 	 
H 	 -24.024 	 61.4108 	 116.801 	 
*
