! wB97X-D3 SP def2-SVP
%pal
nprocs 16
end

* xyz 0 1
S 	 35.5643 	 -1.11885 	 74.0719 	 
C 	 35.7236 	 -0.730004 	 72.4089 	 
C 	 35.0098 	 0.472222 	 72.1466 	 
C 	 34.1748 	 0.958467 	 73.1946 	 
C 	 34.3006 	 0.1444 	 74.3293 	 
H 	 33.4231 	 1.71026 	 73.1775 	 
C 	 34.9809 	 1.2146 	 70.7864 	 
H 	 34.7054 	 2.30627 	 70.8303 	 
H 	 34.2625 	 0.718159 	 70.1711 	 
C 	 36.4009 	 1.31395 	 70.1241 	 
H 	 36.7962 	 0.366984 	 69.9123 	 
H 	 36.2951 	 1.85392 	 69.1623 	 
C 	 37.3525 	 2.18806 	 70.8201 	 
H 	 37.1191 	 3.24935 	 70.8634 	 
H 	 37.4504 	 1.94485 	 71.8663 	 
H 	 38.3455 	 2.1268 	 70.3364 	 
S 	 32.7782 	 -1.4436 	 75.9197 	 
C 	 32.0194 	 -0.682775 	 77.371 	 
C 	 31.9966 	 0.703829 	 77.3065 	 
C 	 32.6544 	 1.13765 	 76.1357 	 
C 	 33.377 	 0.146526 	 75.4505 	 
H 	 31.4263 	 1.28001 	 78.021 	 
C 	 32.7379 	 2.58883 	 75.9029 	 
H 	 31.7468 	 3.02408 	 75.8439 	 
H 	 33.2725 	 2.74036 	 74.8925 	 
C 	 33.5582 	 3.48978 	 76.9082 	 
H 	 33.5461 	 4.46558 	 76.5646 	 
H 	 34.6454 	 3.20873 	 76.9654 	 
C 	 33.158 	 3.26197 	 78.3426 	 
H 	 32.157 	 3.53519 	 78.6349 	 
H 	 33.6916 	 3.87469 	 79.0793 	 
H 	 33.5656 	 2.25191 	 78.548 	 
H 	 36.2926 	 -1.34111 	 71.6777 	 
H 	 31.6772 	 -1.31986 	 78.2213 	 
*
