! wB97X-D3 SP def2-SVP
%pal
nprocs 16
end

* xyz 0 1
S 	 -96.1169 	 51.3186 	 123.777 	 
C 	 -94.6488 	 50.3389 	 123.698 	 
C 	 -94.9157 	 48.9811 	 123.738 	 
C 	 -96.3165 	 48.7183 	 123.882 	 
C 	 -97.0937 	 49.8806 	 123.836 	 
H 	 -96.7444 	 47.744 	 123.853 	 
C 	 -93.8569 	 47.822 	 123.666 	 
H 	 -94.3132 	 46.925 	 124.14 	 
H 	 -93.0535 	 48.1722 	 124.323 	 
C 	 -93.4627 	 47.3638 	 122.181 	 
H 	 -92.7348 	 48.0076 	 121.831 	 
H 	 -92.9415 	 46.3944 	 122.279 	 
C 	 -94.6662 	 47.1984 	 121.195 	 
H 	 -95.2634 	 48.0999 	 121.007 	 
H 	 -94.0857 	 46.9459 	 120.299 	 
H 	 -95.3133 	 46.3058 	 121.268 	 
S 	 -99.5413 	 50.0129 	 125.174 	 
C 	 -100.972 	 50.3598 	 124.192 	 
C 	 -100.681 	 50.6018 	 122.892 	 
C 	 -99.3047 	 50.2942 	 122.601 	 
C 	 -98.5111 	 50.0109 	 123.73 	 
H 	 -101.524 	 50.8088 	 122.2 	 
C 	 -98.8147 	 50.4503 	 121.179 	 
H 	 -98.9064 	 49.5212 	 120.807 	 
H 	 -97.7272 	 50.6338 	 121.314 	 
C 	 -99.4131 	 51.4778 	 120.152 	 
H 	 -99.2245 	 52.5389 	 120.464 	 
H 	 -100.515 	 51.2477 	 120.073 	 
C 	 -98.7743 	 51.4912 	 118.725 	 
H 	 -98.8601 	 50.5571 	 118.148 	 
H 	 -97.6536 	 51.7838 	 118.687 	 
H 	 -99.3499 	 52.1586 	 118.155 	 
H 	 -93.6212 	 50.7201 	 123.508 	 
H 	 -101.886 	 50.6282 	 124.661 	 
*
