! wB97X-D3 SP def2-SVP
%pal
nprocs 16
end

* xyz 0 1
S 	 -45.8357 	 16.9227 	 75.847 	 
C 	 -44.2941 	 17.6318 	 75.3402 	 
C 	 -43.2567 	 16.7142 	 75.1872 	 
C 	 -43.7515 	 15.3854 	 75.5199 	 
C 	 -45.0663 	 15.2939 	 75.9233 	 
H 	 -43.1704 	 14.4597 	 75.43 	 
C 	 -41.8467 	 17.0896 	 74.8677 	 
H 	 -41.6453 	 18.0774 	 75.1843 	 
H 	 -41.835 	 17.0841 	 73.8015 	 
C 	 -40.7536 	 16.1558 	 75.5534 	 
H 	 -41.0156 	 16.1421 	 76.6461 	 
H 	 -40.7078 	 15.2277 	 75.0867 	 
C 	 -39.2956 	 16.7629 	 75.4461 	 
H 	 -39.2202 	 17.8593 	 75.7747 	 
H 	 -38.697 	 16.1908 	 76.1082 	 
H 	 -38.8816 	 16.6556 	 74.4241 	 
S 	 -47.0578 	 13.5601 	 75.2408 	 
C 	 -47.5288 	 12.2907 	 76.3566 	 
C 	 -46.4435 	 12.0026 	 77.2004 	 
C 	 -45.3868 	 12.9772 	 77.0777 	 
C 	 -45.6751 	 13.9775 	 76.1445 	 
H 	 -46.5216 	 11.1998 	 77.9199 	 
C 	 -44.3772 	 12.9555 	 78.2713 	 
H 	 -44.9014 	 12.7151 	 79.1512 	 
H 	 -44.0825 	 13.9645 	 78.4959 	 
C 	 -43.0978 	 12.0716 	 78.2176 	 
H 	 -42.7041 	 12.0457 	 77.1854 	 
H 	 -43.2613 	 11.0121 	 78.4673 	 
C 	 -42.0162 	 12.6835 	 79.1327 	 
H 	 -42.3629 	 12.6623 	 80.2074 	 
H 	 -41.7045 	 13.6595 	 78.8347 	 
H 	 -41.1017 	 12.0602 	 79.0427 	 
H 	 -44.2339 	 18.6952 	 75.0867 	 
H 	 -48.408 	 11.6126 	 76.2896 	 
*
