! wB97X-D3 SP def2-SVP
%pal
nprocs 16
end

* xyz 0 1
S 	 -29.707 	 31.2907 	 45.2731 	 
C 	 -28.8395 	 30.1183 	 46.182 	 
C 	 -29.2993 	 30.0627 	 47.5189 	 
C 	 -30.4829 	 30.8476 	 47.6653 	 
C 	 -30.8521 	 31.5136 	 46.5154 	 
H 	 -31.0487 	 30.9339 	 48.6211 	 
C 	 -28.5921 	 29.2829 	 48.5867 	 
H 	 -27.5129 	 29.3321 	 48.3833 	 
H 	 -28.9053 	 28.3329 	 48.4342 	 
C 	 -28.8609 	 29.6295 	 49.9786 	 
H 	 -29.9534 	 29.6139 	 49.9939 	 
H 	 -28.5391 	 28.865 	 50.6739 	 
C 	 -28.4103 	 31.0612 	 50.326 	 
H 	 -27.3987 	 31.0606 	 50.6102 	 
H 	 -28.6479 	 31.6609 	 49.5157 	 
H 	 -28.9243 	 31.4269 	 51.2629 	 
S 	 -31.5785 	 34.1429 	 45.9027 	 
C 	 -33.2788 	 34.574 	 45.6767 	 
C 	 -34.0198 	 33.4781 	 46.0925 	 
C 	 -33.3304 	 32.3216 	 46.5488 	 
C 	 -31.9712 	 32.4796 	 46.3955 	 
H 	 -35.0357 	 33.4869 	 46.0564 	 
C 	 -34.0093 	 31.0525 	 47.1324 	 
H 	 -35.0775 	 31.1966 	 47.1276 	 
H 	 -33.7006 	 30.8616 	 48.1593 	 
C 	 -33.7533 	 29.7897 	 46.2901 	 
H 	 -32.753 	 29.5592 	 46.4558 	 
H 	 -33.8421 	 30.0898 	 45.2001 	 
C 	 -34.6923 	 28.6845 	 46.6299 	 
H 	 -34.7241 	 27.8018 	 45.9393 	 
H 	 -35.6295 	 29.1197 	 46.4369 	 
H 	 -34.6425 	 28.3595 	 47.6053 	 
H 	 -27.9463 	 29.6433 	 45.8083 	 
H 	 -33.6113 	 35.4019 	 45.2215 	 
*
