! wB97X-D3 SP def2-SVP
%pal
nprocs 16
end

* xyz 0 1
S 	 -10.7319 	 -10.0573 	 87.976 	 
C 	 -12.1339 	 -9.26556 	 87.1938 	 
C 	 -13.3315 	 -9.50881 	 87.7577 	 
C 	 -13.1558 	 -10.4217 	 88.863 	 
C 	 -11.809 	 -10.8089 	 89.1408 	 
H 	 -13.8684 	 -10.8307 	 89.5411 	 
C 	 -14.6985 	 -8.88513 	 87.2913 	 
H 	 -15.3605 	 -9.69206 	 87.122 	 
H 	 -14.594 	 -8.46078 	 86.2582 	 
C 	 -15.2439 	 -7.97101 	 88.3479 	 
H 	 -15.1803 	 -8.3565 	 89.3863 	 
H 	 -14.6174 	 -7.08778 	 88.3461 	 
C 	 -16.5636 	 -7.20988 	 88.0574 	 
H 	 -17.3907 	 -7.90472 	 87.748 	 
H 	 -16.9504 	 -6.61166 	 88.911 	 
H 	 -16.4704 	 -6.43918 	 87.1798 	 
S 	 -10.1955 	 -10.344 	 91.3977 	 
C 	 -10.392 	 -11.3921 	 92.7768 	 
C 	 -11.1804 	 -12.4551 	 92.4245 	 
C 	 -11.7644 	 -12.4379 	 91.0997 	 
C 	 -11.3754 	 -11.3045 	 90.4558 	 
H 	 -11.2482 	 -13.2015 	 93.278 	 
C 	 -12.6265 	 -13.6197 	 90.6088 	 
H 	 -13.3003 	 -13.2464 	 89.8291 	 
H 	 -13.2706 	 -13.8603 	 91.4186 	 
C 	 -11.886 	 -14.846 	 90.0583 	 
H 	 -11.1953 	 -14.4181 	 89.3087 	 
H 	 -12.6144 	 -15.5301 	 89.6279 	 
C 	 -11.266 	 -15.6691 	 91.1153 	 
H 	 -10.5203 	 -15.1022 	 91.6549 	 
H 	 -10.6631 	 -16.5045 	 90.8091 	 
H 	 -11.8999 	 -16.0791 	 91.9009 	 
H 	 -11.9387 	 -8.59035 	 86.3288 	 
H 	 -9.89655 	 -11.3101 	 93.7476 	 
*
