! wB97X-D3 SP def2-SVP
%pal
nprocs 16
end

* xyz 0 1
S 	 19.9576 	 -0.172249 	 84.2307 	 
C 	 20.1481 	 0.57158 	 82.5906 	 
C 	 19.2308 	 1.54364 	 82.2126 	 
C 	 18.237 	 1.54354 	 83.3038 	 
C 	 18.4606 	 0.754667 	 84.4207 	 
H 	 17.4468 	 2.19029 	 83.2953 	 
C 	 19.0669 	 2.23163 	 80.8257 	 
H 	 18.0742 	 2.54688 	 80.7816 	 
H 	 19.2612 	 1.52419 	 79.9247 	 
C 	 19.8102 	 3.54224 	 80.7133 	 
H 	 19.6332 	 4.15533 	 81.6071 	 
H 	 20.8676 	 3.33032 	 80.7549 	 
C 	 19.4919 	 4.46061 	 79.5006 	 
H 	 18.5698 	 4.96404 	 79.632 	 
H 	 20.1609 	 5.27487 	 79.4599 	 
H 	 19.5528 	 4.05741 	 78.488 	 
S 	 18.3365 	 1.34525 	 87.1618 	 
C 	 16.811 	 1.28591 	 87.987 	 
C 	 15.899 	 0.765949 	 87.1065 	 
C 	 16.3569 	 0.368405 	 85.781 	 
C 	 17.6824 	 0.706813 	 85.6123 	 
H 	 14.9027 	 0.679958 	 87.4272 	 
C 	 15.4073 	 -0.106751 	 84.7659 	 
H 	 15.8633 	 -0.384828 	 83.7906 	 
H 	 14.6842 	 0.625765 	 84.4113 	 
C 	 14.699 	 -1.4192 	 85.1288 	 
H 	 14.2007 	 -1.10593 	 86.0216 	 
H 	 15.3448 	 -2.22687 	 85.4626 	 
C 	 13.731 	 -1.93299 	 84.0623 	 
H 	 13.148 	 -1.18613 	 83.5939 	 
H 	 13.0105 	 -2.62813 	 84.6751 	 
H 	 14.2057 	 -2.53621 	 83.3177 	 
H 	 21.0365 	 0.366702 	 82.0053 	 
H 	 16.3954 	 1.64477 	 88.9233 	 
*
