! wB97X-D3 SP def2-SVP
%pal
nprocs 16
end

* xyz 0 1
S 	 9.53991 	 21.9547 	 42.4097 	 
C 	 9.16789 	 23.3488 	 41.3336 	 
C 	 8.15336 	 23.113 	 40.4027 	 
C 	 7.70341 	 21.7961 	 40.5871 	 
C 	 8.3471 	 21.0352 	 41.5752 	 
H 	 6.82304 	 21.357 	 40.0334 	 
C 	 7.67509 	 24.0161 	 39.2388 	 
H 	 8.20109 	 24.9166 	 39.4929 	 
H 	 6.63838 	 24.2798 	 39.3861 	 
C 	 8.11581 	 23.6643 	 37.8139 	 
H 	 9.20327 	 23.8919 	 37.6563 	 
H 	 7.91226 	 22.5907 	 37.715 	 
C 	 7.42867 	 24.5402 	 36.777 	 
H 	 6.40716 	 24.3208 	 36.8554 	 
H 	 7.66193 	 25.6398 	 36.9221 	 
H 	 7.56296 	 24.1824 	 35.7539 	 
S 	 6.9106 	 19.2186 	 43.0965 	 
C 	 7.23623 	 17.4813 	 42.7749 	 
C 	 8.30542 	 17.303 	 41.9494 	 
C 	 8.6997 	 18.5215 	 41.3732 	 
C 	 8.09435 	 19.6476 	 41.8862 	 
H 	 8.70171 	 16.3078 	 41.7609 	 
C 	 9.81035 	 18.3923 	 40.3278 	 
H 	 10.6708 	 17.9715 	 40.8332 	 
H 	 10.2034 	 19.3918 	 40.2304 	 
C 	 9.31636 	 17.6036 	 39.0393 	 
H 	 8.62633 	 18.2058 	 38.3853 	 
H 	 8.73137 	 16.7738 	 39.2295 	 
C 	 10.5765 	 17.1754 	 38.2646 	 
H 	 11.2336 	 16.5538 	 38.8038 	 
H 	 11.0493 	 17.9827 	 37.6233 	 
H 	 10.2711 	 16.4652 	 37.4688 	 
H 	 9.81526 	 24.2404 	 41.3378 	 
H 	 6.68262 	 16.6639 	 43.237 	 
*
