! wB97X-D3 SP def2-SVP
%pal
nprocs 16
end

* xyz 0 1
S 	 -8.74208 	 34.2374 	 53.7822 	 
C 	 -7.66592 	 33.4789 	 54.9828 	 
C 	 -6.74206 	 32.667 	 54.3694 	 
C 	 -6.75547 	 32.8692 	 52.9749 	 
C 	 -7.71621 	 33.736 	 52.5101 	 
H 	 -6.06942 	 32.3926 	 52.2992 	 
C 	 -5.82896 	 31.6912 	 55.0337 	 
H 	 -5.73418 	 30.7784 	 54.4271 	 
H 	 -6.37049 	 31.3202 	 55.887 	 
C 	 -4.42005 	 32.2125 	 55.5338 	 
H 	 -3.89943 	 31.41 	 56.1028 	 
H 	 -3.86661 	 32.6082 	 54.6826 	 
C 	 -4.56107 	 33.3291 	 56.6057 	 
H 	 -4.88706 	 32.8586 	 57.5249 	 
H 	 -3.55382 	 33.7319 	 56.77 	 
H 	 -5.28026 	 34.0777 	 56.3136 	 
S 	 -7.96227 	 35.9591 	 50.8952 	 
C 	 -8.383 	 35.7977 	 49.2546 	 
C 	 -8.38074 	 34.4513 	 48.9578 	 
C 	 -7.84446 	 33.575 	 49.9425 	 
C 	 -7.87583 	 34.2445 	 51.1782 	 
H 	 -8.64901 	 34.1693 	 47.9452 	 
C 	 -7.6238 	 32.1279 	 49.7195 	 
H 	 -8.39369 	 31.4905 	 50.2464 	 
H 	 -6.61851 	 31.9351 	 50.172 	 
C 	 -7.51851 	 31.5634 	 48.3294 	 
H 	 -7.10016 	 32.3557 	 47.6847 	 
H 	 -8.62684 	 31.3091 	 48.1156 	 
C 	 -6.53559 	 30.2862 	 48.2944 	 
H 	 -6.90757 	 29.4554 	 48.839 	 
H 	 -5.52779 	 30.447 	 48.7712 	 
H 	 -6.36509 	 29.9018 	 47.2843 	 
H 	 -7.90032 	 33.3797 	 56.0882 	 
H 	 -8.76697 	 36.601 	 48.6075 	 
*
