! wB97X-D3 SP def2-SVP
%pal
nprocs 16
end

* xyz 0 1
S 	 -106.661 	 52.4982 	 114.723 	 
C 	 -107.766 	 51.895 	 116.049 	 
C 	 -107.847 	 52.7105 	 117.189 	 
C 	 -107.091 	 53.9046 	 116.917 	 
C 	 -106.496 	 53.9876 	 115.688 	 
H 	 -106.816 	 54.6836 	 117.611 	 
C 	 -108.756 	 52.503 	 118.415 	 
H 	 -108.404 	 52.9259 	 119.311 	 
H 	 -108.832 	 51.4605 	 118.603 	 
C 	 -110.215 	 52.8961 	 118.274 	 
H 	 -110.669 	 52.2608 	 117.54 	 
H 	 -110.716 	 52.6184 	 119.221 	 
C 	 -110.546 	 54.3997 	 118.104 	 
H 	 -111.568 	 54.5987 	 117.896 	 
H 	 -110.28 	 55.0984 	 118.911 	 
H 	 -110.006 	 54.7042 	 117.153 	 
S 	 -103.786 	 54.5456 	 115.282 	 
C 	 -103.252 	 56.1881 	 115.005 	 
C 	 -104.296 	 57.0864 	 115.172 	 
C 	 -105.597 	 56.4096 	 115.253 	 
C 	 -105.507 	 54.9905 	 115.25 	 
H 	 -104.201 	 58.1811 	 115.087 	 
C 	 -106.865 	 57.2088 	 115.543 	 
H 	 -106.872 	 57.4892 	 116.604 	 
H 	 -107.71 	 56.5177 	 115.431 	 
C 	 -107.044 	 58.5207 	 114.685 	 
H 	 -106.273 	 59.2988 	 114.84 	 
H 	 -108.018 	 59.0926 	 114.948 	 
C 	 -107.132 	 58.2122 	 113.202 	 
H 	 -107.585 	 57.2936 	 112.924 	 
H 	 -106.163 	 58.2318 	 112.761 	 
H 	 -107.82 	 58.9929 	 112.697 	 
H 	 -108.191 	 50.7918 	 116.077 	 
H 	 -102.219 	 56.5224 	 114.925 	 
*
