! wB97X-D3 SP def2-SVP
%pal
nprocs 16
end

* xyz 0 1
S 	 3.89709 	 -14.8756 	 86.3854 	 
C 	 3.156 	 -13.4928 	 85.5352 	 
C 	 3.87374 	 -13.3091 	 84.3889 	 
C 	 5.1452 	 -13.9624 	 84.4364 	 
C 	 5.4417 	 -14.7483 	 85.5467 	 
H 	 5.87642 	 -13.9527 	 83.6021 	 
C 	 3.44479 	 -12.5004 	 83.1286 	 
H 	 4.35672 	 -11.9641 	 82.9098 	 
H 	 2.67557 	 -11.827 	 83.3634 	 
C 	 3.11268 	 -13.2357 	 81.8464 	 
H 	 2.65702 	 -12.5249 	 81.1835 	 
H 	 4.09847 	 -13.6712 	 81.4851 	 
C 	 1.99674 	 -14.2455 	 82.0448 	 
H 	 2.11562 	 -15.1219 	 81.4192 	 
H 	 1.91753 	 -14.6175 	 83.0626 	 
H 	 0.989411 	 -13.8208 	 81.7543 	 
S 	 6.41989 	 -16.8622 	 87.0102 	 
C 	 8.148 	 -17.2182 	 86.9878 	 
C 	 8.91472 	 -16.2993 	 86.3045 	 
C 	 8.02965 	 -15.2644 	 85.7479 	 
C 	 6.63016 	 -15.4479 	 85.9807 	 
H 	 9.96998 	 -16.4351 	 86.2915 	 
C 	 8.59661 	 -14.0452 	 84.9545 	 
H 	 9.58408 	 -13.7864 	 85.309 	 
H 	 8.01404 	 -13.2002 	 85.2363 	 
C 	 8.67877 	 -14.3331 	 83.4687 	 
H 	 7.84923 	 -14.9954 	 83.1743 	 
H 	 9.64029 	 -14.8886 	 83.2957 	 
C 	 8.81619 	 -12.9465 	 82.6754 	 
H 	 8.8805 	 -13.3133 	 81.5582 	 
H 	 9.74912 	 -12.3738 	 82.8283 	 
H 	 7.99409 	 -12.2559 	 82.7541 	 
H 	 2.14847 	 -13.2161 	 85.7051 	 
H 	 8.63897 	 -18.0614 	 87.433 	 
*
