! wB97X-D3 SP def2-SVP
%pal
nprocs 16
end

* xyz 0 1
S 	 13.542 	 26.3004 	 47.7282 	 
C 	 14.1662 	 24.7425 	 47.805 	 
C 	 13.201 	 23.7571 	 47.8567 	 
C 	 11.9264 	 24.3964 	 47.5945 	 
C 	 11.9352 	 25.7585 	 47.4919 	 
H 	 11.0604 	 23.8193 	 47.4522 	 
C 	 13.3498 	 22.2847 	 48.1081 	 
H 	 14.337 	 22.1043 	 48.3956 	 
H 	 13.1254 	 21.7762 	 47.1725 	 
C 	 12.4583 	 21.7448 	 49.1744 	 
H 	 12.6725 	 22.2202 	 50.1332 	 
H 	 11.4398 	 21.9897 	 48.845 	 
C 	 12.3443 	 20.2471 	 49.3259 	 
H 	 13.2434 	 19.8232 	 49.7127 	 
H 	 11.4693 	 19.9964 	 49.956 	 
H 	 12.1216 	 19.8838 	 48.3243 	 
S 	 10.9745 	 28.1743 	 46.7545 	 
C 	 9.32511 	 28.5691 	 47.0599 	 
C 	 8.75492 	 27.5824 	 47.8072 	 
C 	 9.56264 	 26.4109 	 47.9995 	 
C 	 10.7785 	 26.578 	 47.3581 	 
H 	 7.74707 	 27.7953 	 48.1639 	 
C 	 9.1073 	 25.1753 	 48.9222 	 
H 	 8.55371 	 25.5712 	 49.7318 	 
H 	 10.0274 	 24.7213 	 49.4167 	 
C 	 8.32107 	 24.0625 	 48.1557 	 
H 	 9.03171 	 23.3287 	 47.6883 	 
H 	 7.72496 	 24.4381 	 47.3313 	 
C 	 7.4569 	 23.3292 	 49.1004 	 
H 	 7.912 	 23.0354 	 50.0619 	 
H 	 7.02662 	 22.3834 	 48.7296 	 
H 	 6.57696 	 23.9695 	 49.277 	 
H 	 15.1872 	 24.5243 	 48.0534 	 
H 	 8.88694 	 29.5797 	 46.8933 	 
*
