! wB97X-D3 SP def2-SVP
%pal
nprocs 16
end

* xyz 0 1
S 	 -42.1352 	 -0.97435 	 94.5239 	 
C 	 -42.0769 	 -2.66575 	 94.3322 	 
C 	 -40.9223 	 -3.15242 	 94.9911 	 
C 	 -40.1907 	 -2.15713 	 95.7255 	 
C 	 -40.6717 	 -0.890783 	 95.4559 	 
H 	 -39.3653 	 -2.26593 	 96.4405 	 
C 	 -40.4081 	 -4.62353 	 94.8782 	 
H 	 -41.0945 	 -5.28576 	 94.3608 	 
H 	 -40.1908 	 -4.89786 	 95.9855 	 
C 	 -39.0077 	 -4.90441 	 94.2475 	 
H 	 -38.3257 	 -4.12215 	 94.4915 	 
H 	 -38.6453 	 -5.79018 	 94.772 	 
C 	 -39.0789 	 -4.9964 	 92.7408 	 
H 	 -39.9834 	 -5.49282 	 92.2852 	 
H 	 -39.0074 	 -3.92857 	 92.4294 	 
H 	 -38.1897 	 -5.54742 	 92.4552 	 
S 	 -41.5131 	 1.4598 	 96.6637 	 
C 	 -40.3155 	 2.58851 	 97.2496 	 
C 	 -39.06 	 2.18865 	 96.901 	 
C 	 -38.9676 	 0.934645 	 96.1588 	 
C 	 -40.2498 	 0.432181 	 95.9841 	 
H 	 -38.1742 	 2.70107 	 97.2691 	 
C 	 -37.7244 	 0.243742 	 95.6364 	 
H 	 -37.1948 	 0.863548 	 94.9014 	 
H 	 -37.8854 	 -0.482014 	 94.9015 	 
C 	 -36.7135 	 -0.351384 	 96.6306 	 
H 	 -37.1604 	 -1.18462 	 97.1227 	 
H 	 -36.5049 	 0.413035 	 97.3743 	 
C 	 -35.3877 	 -0.715584 	 96.1254 	 
H 	 -35.3543 	 -1.56452 	 95.367 	 
H 	 -34.6818 	 -1.07827 	 96.878 	 
H 	 -34.787 	 0.0923552 	 95.6337 	 
H 	 -42.8284 	 -3.17869 	 93.6627 	 
H 	 -40.567 	 3.30862 	 97.9424 	 
*
