! wB97X-D3 SP def2-SVP
%pal
nprocs 16
end

* xyz 0 1
S 	 44.7408 	 9.68228 	 52.2072 	 
C 	 44.9012 	 8.98732 	 50.6812 	 
C 	 46.1071 	 9.28471 	 50.103 	 
C 	 46.7942 	 10.3972 	 50.7977 	 
C 	 46.148 	 10.706 	 51.9473 	 
H 	 47.7757 	 10.8052 	 50.5986 	 
C 	 46.6579 	 8.75214 	 48.7744 	 
H 	 46.226 	 7.71116 	 48.7042 	 
H 	 47.7178 	 8.60985 	 48.8929 	 
C 	 46.3122 	 9.55753 	 47.511 	 
H 	 46.8951 	 10.4322 	 47.5408 	 
H 	 46.7168 	 8.94985 	 46.6909 	 
C 	 44.8574 	 9.92271 	 47.2686 	 
H 	 44.3818 	 10.4192 	 48.1063 	 
H 	 44.7412 	 10.571 	 46.4274 	 
H 	 44.3287 	 9.05692 	 47.0895 	 
S 	 46.8097 	 11.0399 	 54.5634 	 
C 	 47.4278 	 12.6131 	 55.0499 	 
C 	 47.5001 	 13.499 	 54.028 	 
C 	 47.0542 	 12.9176 	 52.7765 	 
C 	 46.6522 	 11.5998 	 52.9273 	 
H 	 47.722 	 14.4928 	 54.2941 	 
C 	 46.9645 	 13.7434 	 51.5071 	 
H 	 46.9455 	 13.015 	 50.7127 	 
H 	 47.8934 	 14.292 	 51.3364 	 
C 	 45.7685 	 14.6566 	 51.344 	 
H 	 45.5371 	 15.2298 	 52.2422 	 
H 	 44.8718 	 14.0631 	 51.1009 	 
C 	 45.9512 	 15.7388 	 50.2365 	 
H 	 45.0848 	 16.3326 	 50.1281 	 
H 	 46.031 	 15.2213 	 49.2428 	 
H 	 46.8341 	 16.2657 	 50.5696 	 
H 	 44.1504 	 8.35288 	 50.2713 	 
H 	 47.836 	 12.6986 	 56.0734 	 
*
