! wB97X-D3 SP def2-SVP
%pal
nprocs 16
end

* xyz 0 1
S 	 5.60713 	 -5.02928 	 97.5121 	 
C 	 5.29465 	 -6.73649 	 97.479 	 
C 	 6.23728 	 -7.34938 	 96.6305 	 
C 	 7.20136 	 -6.5024 	 96.153 	 
C 	 7.08921 	 -5.22743 	 96.5874 	 
H 	 8.00815 	 -6.82805 	 95.4252 	 
C 	 6.36036 	 -8.84202 	 96.3821 	 
H 	 6.39366 	 -8.96525 	 95.3251 	 
H 	 5.37248 	 -9.28841 	 96.5486 	 
C 	 7.46434 	 -9.66523 	 97.0506 	 
H 	 7.48738 	 -10.672 	 96.6277 	 
H 	 8.4118 	 -9.18121 	 96.742 	 
C 	 7.50913 	 -9.64907 	 98.6166 	 
H 	 7.59084 	 -8.66749 	 99.0037 	 
H 	 6.46811 	 -9.95982 	 98.8719 	 
H 	 8.14895 	 -10.3355 	 99.1443 	 
S 	 8.51268 	 -3.04192 	 97.5456 	 
C 	 9.27572 	 -1.90018 	 96.3806 	 
C 	 9.23165 	 -2.45463 	 95.1298 	 
C 	 8.39558 	 -3.61816 	 95.0057 	 
C 	 7.90635 	 -4.0504 	 96.2522 	 
H 	 9.77388 	 -1.98568 	 94.3614 	 
C 	 7.98964 	 -4.24252 	 93.7127 	 
H 	 6.93825 	 -4.5251 	 93.8389 	 
H 	 8.62585 	 -5.12746 	 93.4659 	 
C 	 7.9611 	 -3.42976 	 92.4094 	 
H 	 8.91666 	 -3.26046 	 91.9333 	 
H 	 7.51388 	 -2.45596 	 92.6133 	 
C 	 7.05983 	 -4.10884 	 91.4541 	 
H 	 6.74891 	 -3.28433 	 90.719 	 
H 	 6.1055 	 -4.37336 	 91.8723 	 
H 	 7.47337 	 -4.97506 	 90.9492 	 
H 	 4.43313 	 -7.11555 	 98.0381 	 
H 	 9.88849 	 -1.0699 	 96.716 	 
*
