! wB97X-D3 SP def2-SVP
%pal
nprocs 16
end

* xyz 0 1
S 	 -32.7015 	 3.90919 	 100.857 	 
C 	 -32.9927 	 2.33089 	 100.158 	 
C 	 -31.801 	 1.59868 	 100.003 	 
C 	 -30.6376 	 2.40505 	 100.233 	 
C 	 -30.9124 	 3.70518 	 100.674 	 
H 	 -29.6114 	 2.20474 	 99.9823 	 
C 	 -31.7461 	 0.183339 	 99.3795 	 
H 	 -30.7032 	 -0.0875895 	 99.0916 	 
H 	 -32.3897 	 0.206081 	 98.5554 	 
C 	 -32.2676 	 -0.958543 	 100.226 	 
H 	 -33.3257 	 -0.673044 	 100.458 	 
H 	 -32.2371 	 -1.85162 	 99.5794 	 
C 	 -31.6208 	 -1.16468 	 101.55 	 
H 	 -30.6114 	 -1.52005 	 101.39 	 
H 	 -31.4632 	 -0.261262 	 102.138 	 
H 	 -32.215 	 -1.90412 	 102.087 	 
S 	 -29.7272 	 6.09952 	 100.27 	 
C 	 -28.4293 	 6.59438 	 101.33 	 
C 	 -28.2322 	 5.70913 	 102.417 	 
C 	 -29.252 	 4.6602 	 102.483 	 
C 	 -29.9192 	 4.63092 	 101.251 	 
H 	 -27.5191 	 5.98713 	 103.184 	 
C 	 -29.4122 	 3.44602 	 103.466 	 
H 	 -29.3813 	 2.49342 	 102.874 	 
H 	 -30.3904 	 3.54921 	 103.863 	 
C 	 -28.4334 	 3.38497 	 104.618 	 
H 	 -28.4596 	 4.45495 	 104.969 	 
H 	 -27.416 	 3.27781 	 104.357 	 
C 	 -28.7907 	 2.58493 	 105.831 	 
H 	 -28.6913 	 1.49286 	 105.606 	 
H 	 -29.7525 	 2.83569 	 106.266 	 
H 	 -28.0586 	 2.84258 	 106.526 	 
H 	 -33.9778 	 1.85789 	 100.043 	 
H 	 -27.976 	 7.57217 	 101.369 	 
*
