! wB97X-D3 SP def2-SVP
%pal
nprocs 16
end

* xyz 0 1
S 	 -116.908 	 45.1369 	 134.453 	 
C 	 -117.835 	 46.6195 	 134.449 	 
C 	 -117.227 	 47.6559 	 135.135 	 
C 	 -116.031 	 47.1309 	 135.769 	 
C 	 -115.736 	 45.8057 	 135.551 	 
H 	 -115.407 	 47.7825 	 136.383 	 
C 	 -117.784 	 49.0686 	 135.245 	 
H 	 -117.344 	 49.3585 	 136.214 	 
H 	 -118.85 	 48.9949 	 135.549 	 
C 	 -117.331 	 50.1991 	 134.207 	 
H 	 -117.439 	 51.1413 	 134.717 	 
H 	 -116.269 	 49.9924 	 134.099 	 
C 	 -118.146 	 50.2446 	 132.907 	 
H 	 -119.23 	 50.2065 	 133.058 	 
H 	 -117.917 	 51.0985 	 132.291 	 
H 	 -117.989 	 49.2361 	 132.41 	 
S 	 -114.711 	 44.6684 	 137.738 	 
C 	 -113.044 	 44.0471 	 137.826 	 
C 	 -112.471 	 44.1723 	 136.569 	 
C 	 -113.349 	 44.7733 	 135.596 	 
C 	 -114.568 	 45.1273 	 136.106 	 
H 	 -111.471 	 43.764 	 136.35 	 
C 	 -112.894 	 44.9659 	 134.139 	 
H 	 -111.828 	 45.2269 	 134.059 	 
H 	 -113.529 	 45.7953 	 133.733 	 
C 	 -113.314 	 43.7941 	 133.202 	 
H 	 -114.341 	 43.5502 	 133.207 	 
H 	 -112.746 	 42.8716 	 133.441 	 
C 	 -112.816 	 44.1887 	 131.803 	 
H 	 -112.934 	 43.426 	 131.074 	 
H 	 -111.761 	 44.2141 	 131.89 	 
H 	 -113.188 	 45.2155 	 131.493 	 
H 	 -118.62 	 46.7246 	 133.805 	 
H 	 -112.543 	 43.515 	 138.62 	 
*
