! wB97X-D3 SP def2-SVP
%pal
nprocs 16
end

* xyz 0 1
S 	 7.79805 	 -9.50516 	 64.6508 	 
C 	 6.49513 	 -9.26161 	 65.7925 	 
C 	 5.92728 	 -10.4387 	 66.1689 	 
C 	 6.53993 	 -11.5926 	 65.5622 	 
C 	 7.63245 	 -11.238 	 64.8011 	 
H 	 6.25214 	 -12.6472 	 65.7434 	 
C 	 4.77242 	 -10.3583 	 67.13 	 
H 	 3.88986 	 -9.86909 	 66.6058 	 
H 	 5.01614 	 -9.55362 	 67.8534 	 
C 	 4.2493 	 -11.7867 	 67.7618 	 
H 	 3.34976 	 -11.5338 	 68.2959 	 
H 	 3.91806 	 -12.5653 	 67.1001 	 
C 	 5.17881 	 -12.4897 	 68.8031 	 
H 	 6.0934 	 -12.7515 	 68.3274 	 
H 	 5.38192 	 -11.8587 	 69.5477 	 
H 	 4.76595 	 -13.3821 	 69.1765 	 
S 	 10.1497 	 -11.5479 	 63.8656 	 
C 	 10.6855 	 -13.0138 	 63.0983 	 
C 	 9.69441 	 -13.9471 	 63.0755 	 
C 	 8.4882 	 -13.5148 	 63.7077 	 
C 	 8.54866 	 -12.1846 	 64.1653 	 
H 	 9.89309 	 -14.9027 	 62.5815 	 
C 	 7.26096 	 -14.3898 	 63.8105 	 
H 	 7.34281 	 -15.1269 	 62.8787 	 
H 	 6.43483 	 -13.6774 	 63.7914 	 
C 	 7.2453 	 -15.2876 	 65.0736 	 
H 	 7.69823 	 -14.6844 	 65.8034 	 
H 	 7.79545 	 -16.1762 	 64.8835 	 
C 	 5.76791 	 -15.6402 	 65.5362 	 
H 	 5.25771 	 -16.1512 	 64.7922 	 
H 	 5.16732 	 -14.7951 	 65.6862 	 
H 	 5.73423 	 -16.2281 	 66.4731 	 
H 	 6.15905 	 -8.25609 	 66.0585 	 
H 	 11.6111 	 -13.173 	 62.5483 	 
*
