! wB97X-D3 SP def2-SVP
%pal
nprocs 16
end

* xyz 0 1
S 	 -13.9022 	 -3.3459 	 77.4097 	 
C 	 -12.4423 	 -2.42202 	 77.3713 	 
C 	 -11.3285 	 -3.13464 	 77.861 	 
C 	 -11.6914 	 -4.45805 	 78.2624 	 
C 	 -13.021 	 -4.75696 	 77.9858 	 
H 	 -11.0688 	 -5.24292 	 78.6233 	 
C 	 -9.88882 	 -2.5551 	 77.9669 	 
H 	 -9.8541 	 -2.3259 	 79.0314 	 
H 	 -10.0129 	 -1.70152 	 77.3597 	 
C 	 -8.79002 	 -3.49336 	 77.6114 	 
H 	 -8.61975 	 -4.32487 	 78.3009 	 
H 	 -8.91491 	 -4.01249 	 76.6163 	 
C 	 -7.39373 	 -2.78823 	 77.5444 	 
H 	 -7.28253 	 -2.20344 	 76.6189 	 
H 	 -7.39245 	 -1.95994 	 78.2541 	 
H 	 -6.53088 	 -3.48307 	 77.5936 	 
S 	 -15.4157 	 -6.07629 	 78.6178 	 
C 	 -15.4837 	 -7.77974 	 78.4817 	 
C 	 -14.2641 	 -8.30175 	 78.1388 	 
C 	 -13.2191 	 -7.35536 	 77.964 	 
C 	 -13.6957 	 -6.04682 	 78.107 	 
H 	 -14.2497 	 -9.33139 	 78.0864 	 
C 	 -11.8143 	 -7.77898 	 77.5283 	 
H 	 -11.3145 	 -6.85991 	 77.2005 	 
H 	 -12.019 	 -8.31451 	 76.6053 	 
C 	 -10.9578 	 -8.76379 	 78.3681 	 
H 	 -10.1429 	 -9.25312 	 77.7752 	 
H 	 -11.6195 	 -9.62795 	 78.5295 	 
C 	 -10.459 	 -8.18769 	 79.7184 	 
H 	 -10.0269 	 -8.88027 	 80.4396 	 
H 	 -11.3074 	 -7.82634 	 80.3165 	 
H 	 -9.90384 	 -7.28532 	 79.7632 	 
H 	 -12.3924 	 -1.33493 	 76.9704 	 
H 	 -16.3461 	 -8.3431 	 78.7319 	 
*
