! wB97X-D3 SP def2-SVP
%pal
nprocs 16
end

* xyz 0 1
S 	 -106.041 	 46.8513 	 124.656 	 
C 	 -104.407 	 47.1579 	 125.316 	 
C 	 -103.427 	 46.3317 	 124.817 	 
C 	 -103.944 	 45.3478 	 123.966 	 
C 	 -105.31 	 45.5303 	 123.733 	 
H 	 -103.325 	 44.5393 	 123.575 	 
C 	 -101.984 	 46.3402 	 125.256 	 
H 	 -101.776 	 45.3323 	 125.605 	 
H 	 -101.769 	 46.8973 	 126.098 	 
C 	 -101.015 	 46.4678 	 124.114 	 
H 	 -100.062 	 46.0935 	 124.453 	 
H 	 -101.443 	 45.9349 	 123.286 	 
C 	 -100.698 	 47.9276 	 123.652 	 
H 	 -100.54 	 48.549 	 124.576 	 
H 	 -99.8199 	 47.7989 	 123.024 	 
H 	 -101.431 	 48.3362 	 122.971 	 
S 	 -107.397 	 43.6472 	 123.992 	 
C 	 -107.952 	 42.9133 	 122.52 	 
C 	 -106.955 	 42.9555 	 121.518 	 
C 	 -105.952 	 43.9005 	 121.784 	 
C 	 -106.145 	 44.525 	 123.065 	 
H 	 -107.024 	 42.3513 	 120.641 	 
C 	 -104.825 	 44.2749 	 120.793 	 
H 	 -104.518 	 45.3903 	 120.933 	 
H 	 -105.389 	 44.239 	 119.849 	 
C 	 -103.695 	 43.2824 	 120.771 	 
H 	 -104.002 	 42.2676 	 120.7 	 
H 	 -103.152 	 43.3537 	 121.721 	 
C 	 -102.741 	 43.5679 	 119.539 	 
H 	 -101.804 	 43.0193 	 119.539 	 
H 	 -102.549 	 44.6717 	 119.369 	 
H 	 -103.259 	 43.367 	 118.618 	 
H 	 -104.153 	 47.794 	 126.16 	 
H 	 -108.732 	 42.1958 	 122.471 	 
*
