! wB97X-D3 SP def2-SVP
%pal
nprocs 16
end

* xyz 0 1
S 	 13.413 	 -12.5978 	 79.3547 	 
C 	 13.0106 	 -14.0793 	 80.1904 	 
C 	 12.1112 	 -14.9464 	 79.4781 	 
C 	 12.0946 	 -14.51 	 78.1485 	 
C 	 12.6695 	 -13.2673 	 77.9329 	 
H 	 11.6165 	 -15.1012 	 77.3797 	 
C 	 11.4975 	 -16.2579 	 79.9638 	 
H 	 10.541 	 -16.3281 	 79.4432 	 
H 	 11.2195 	 -16.103 	 81.079 	 
C 	 12.2193 	 -17.5455 	 79.6863 	 
H 	 12.8419 	 -17.4079 	 78.7513 	 
H 	 12.9911 	 -17.6591 	 80.5241 	 
C 	 11.2876 	 -18.7905 	 79.6831 	 
H 	 10.2987 	 -18.6534 	 79.2794 	 
H 	 11.7054 	 -19.738 	 79.2251 	 
H 	 10.9927 	 -19.0745 	 80.7042 	 
S 	 12.5883 	 -10.7536 	 76.6732 	 
C 	 12.6109 	 -10.6631 	 74.9063 	 
C 	 12.8343 	 -11.9571 	 74.432 	 
C 	 12.8018 	 -13.0436 	 75.3873 	 
C 	 12.7563 	 -12.5417 	 76.658 	 
H 	 13.1812 	 -12.1615 	 73.425 	 
C 	 13.0988 	 -14.4559 	 74.9073 	 
H 	 13.3272 	 -15.1364 	 75.7124 	 
H 	 13.9868 	 -14.3564 	 74.3119 	 
C 	 11.9695 	 -15.1099 	 74.0567 	 
H 	 11.5389 	 -14.3802 	 73.422 	 
H 	 11.1697 	 -15.4833 	 74.7766 	 
C 	 12.5788 	 -16.2282 	 73.1976 	 
H 	 13.2378 	 -15.7518 	 72.433 	 
H 	 11.7437 	 -16.7844 	 72.8098 	 
H 	 13.2517 	 -16.9335 	 73.6431 	 
H 	 13.3326 	 -14.3586 	 81.159 	 
H 	 12.5076 	 -9.7559 	 74.3603 	 
*
