! wB97X-D3 SP def2-SVP
%pal
nprocs 16
end

* xyz 0 1
S 	 53.933 	 5.39611 	 82.1661 	 
C 	 54.0921 	 3.78315 	 81.4695 	 
C 	 53.5323 	 2.7503 	 82.1808 	 
C 	 53.0412 	 3.2773 	 83.4509 	 
C 	 53.2718 	 4.64943 	 83.6428 	 
H 	 52.3803 	 2.72608 	 84.1029 	 
C 	 53.1904 	 1.32509 	 81.6399 	 
H 	 53.5434 	 1.22823 	 80.6677 	 
H 	 52.073 	 1.18272 	 81.6965 	 
C 	 53.8866 	 0.27707 	 82.4545 	 
H 	 54.996 	 0.442632 	 82.3999 	 
H 	 53.5637 	 0.336803 	 83.5166 	 
C 	 53.7076 	 -1.2077 	 82.0444 	 
H 	 54.2864 	 -1.42672 	 81.1946 	 
H 	 54.1692 	 -1.87376 	 82.7756 	 
H 	 52.6695 	 -1.58404 	 81.8204 	 
S 	 52.3647 	 7.09682 	 84.4202 	 
C 	 52.1547 	 7.48103 	 86.0904 	 
C 	 52.437 	 6.34694 	 86.9054 	 
C 	 52.9459 	 5.24016 	 86.149 	 
C 	 52.9919 	 5.48034 	 84.7666 	 
H 	 52.3106 	 6.34312 	 88.0533 	 
C 	 53.4291 	 3.9873 	 86.7976 	 
H 	 54.2673 	 4.20045 	 87.4092 	 
H 	 53.8069 	 3.34572 	 86.0521 	 
C 	 52.3373 	 3.36425 	 87.6339 	 
H 	 51.5018 	 3.09307 	 86.9834 	 
H 	 51.9274 	 4.03159 	 88.3037 	 
C 	 52.8742 	 2.11176 	 88.3091 	 
H 	 52.8344 	 1.28549 	 87.6689 	 
H 	 52.199 	 2.0214 	 89.1781 	 
H 	 53.8236 	 2.38902 	 88.7622 	 
H 	 54.4707 	 3.49229 	 80.4719 	 
H 	 51.8371 	 8.44346 	 86.4123 	 
*
