! wB97X-D3 SP def2-SVP
%pal
nprocs 16
end

* xyz 0 1
S 	 -70.9106 	 39.2254 	 140.67 	 
C 	 -71.941 	 38.0018 	 140.077 	 
C 	 -71.3851 	 36.7841 	 140.101 	 
C 	 -70.0638 	 36.7879 	 140.636 	 
C 	 -69.7072 	 38.0826 	 141.036 	 
H 	 -69.2807 	 36.0057 	 140.767 	 
C 	 -72.0345 	 35.4866 	 139.694 	 
H 	 -71.3042 	 34.884 	 139.222 	 
H 	 -72.6726 	 35.6972 	 138.874 	 
C 	 -72.7927 	 34.7165 	 140.813 	 
H 	 -72.3032 	 34.6436 	 141.788 	 
H 	 -73.7062 	 35.2372 	 141.067 	 
C 	 -73.1584 	 33.2995 	 140.355 	 
H 	 -73.6895 	 32.6057 	 140.983 	 
H 	 -73.7796 	 33.4445 	 139.445 	 
H 	 -72.2508 	 32.7841 	 140.099 	 
S 	 -67.7552 	 37.4747 	 142.95 	 
C 	 -66.2283 	 38.3138 	 142.845 	 
C 	 -66.2576 	 39.2536 	 141.906 	 
C 	 -67.4226 	 39.3497 	 141.137 	 
C 	 -68.4043 	 38.4487 	 141.57 	 
H 	 -65.4602 	 39.9763 	 141.689 	 
C 	 -67.5267 	 40.2402 	 139.908 	 
H 	 -68.519 	 40.642 	 139.904 	 
H 	 -67.424 	 39.6909 	 139.01 	 
C 	 -66.5787 	 41.486 	 139.901 	 
H 	 -66.7863 	 41.9648 	 138.935 	 
H 	 -65.5196 	 41.1939 	 139.8 	 
C 	 -66.9432 	 42.503 	 140.992 	 
H 	 -66.6114 	 42.1917 	 142.008 	 
H 	 -67.9891 	 42.7408 	 141.114 	 
H 	 -66.4472 	 43.4915 	 140.814 	 
H 	 -72.9406 	 38.0492 	 139.706 	 
H 	 -65.4518 	 38.3184 	 143.61 	 
*
