! wB97X-D3 SP def2-SVP
%pal
nprocs 16
end

* xyz 0 1
S 	 -36.065 	 -0.4728 	 102.871 	 
C 	 -36.24 	 -2.22532 	 103.213 	 
C 	 -35.7557 	 -3.03876 	 102.212 	 
C 	 -35.1487 	 -2.19234 	 101.195 	 
C 	 -35.1683 	 -0.800847 	 101.418 	 
H 	 -34.7039 	 -2.53247 	 100.301 	 
C 	 -35.8529 	 -4.54273 	 102.024 	 
H 	 -35.874 	 -4.88515 	 103.031 	 
H 	 -34.9893 	 -5.02178 	 101.618 	 
C 	 -37.0629 	 -4.97919 	 101.193 	 
H 	 -37.1167 	 -4.34082 	 100.304 	 
H 	 -37.0593 	 -6.00674 	 100.914 	 
C 	 -38.4191 	 -4.83034 	 101.902 	 
H 	 -38.6298 	 -3.77024 	 102.04 	 
H 	 -39.2046 	 -5.29073 	 101.289 	 
H 	 -38.3155 	 -5.36864 	 102.812 	 
S 	 -33.2059 	 1.06802 	 101.038 	 
C 	 -32.8286 	 1.58885 	 99.449 	 
C 	 -33.8605 	 1.2483 	 98.6362 	 
C 	 -34.8435 	 0.321514 	 99.1653 	 
C 	 -34.6168 	 0.192644 	 100.556 	 
H 	 -33.8999 	 1.56961 	 97.6255 	 
C 	 -35.9987 	 -0.33131 	 98.3614 	 
H 	 -36.4047 	 0.400757 	 97.6387 	 
H 	 -36.8228 	 -0.565127 	 99.0721 	 
C 	 -35.6045 	 -1.571 	 97.5761 	 
H 	 -36.471 	 -2.19904 	 97.3405 	 
H 	 -35.1304 	 -2.23578 	 98.3061 	 
C 	 -34.7328 	 -1.51019 	 96.2697 	 
H 	 -33.7366 	 -1.04926 	 96.4293 	 
H 	 -35.3369 	 -1.11369 	 95.4901 	 
H 	 -34.4991 	 -2.55544 	 95.8488 	 
H 	 -36.5581 	 -2.67358 	 104.114 	 
H 	 -31.9578 	 2.25462 	 99.1343 	 
*
