! wB97X-D3 SP def2-SVP
%pal
nprocs 16
end

* xyz 0 1
S 	 46.4593 	 13.1531 	 49.4528 	 
C 	 46.471 	 13.0949 	 47.7703 	 
C 	 46.8204 	 14.3213 	 47.2166 	 
C 	 46.9839 	 15.2927 	 48.2435 	 
C 	 46.7924 	 14.8512 	 49.5287 	 
H 	 47.1317 	 16.3889 	 48.0365 	 
C 	 46.8808 	 14.5318 	 45.7792 	 
H 	 47.2168 	 13.6906 	 45.2213 	 
H 	 47.6171 	 15.2638 	 45.5601 	 
C 	 45.5908 	 14.9562 	 45.0867 	 
H 	 45.1207 	 15.7628 	 45.6618 	 
H 	 45.9896 	 15.3066 	 44.1037 	 
C 	 44.661 	 13.7627 	 44.8764 	 
H 	 44.4252 	 13.3088 	 45.8507 	 
H 	 43.6943 	 14.1637 	 44.5003 	 
H 	 45.0793 	 12.9649 	 44.3131 	 
S 	 48.1001 	 14.4644 	 51.9634 	 
C 	 48.4475 	 15.8421 	 52.9168 	 
C 	 47.581 	 16.8976 	 52.5888 	 
C 	 46.9153 	 16.6668 	 51.3201 	 
C 	 47.1789 	 15.4174 	 50.7519 	 
H 	 47.4597 	 17.8027 	 53.1201 	 
C 	 46.0513 	 17.7901 	 50.7323 	 
H 	 45.4876 	 17.3718 	 49.9779 	 
H 	 46.6548 	 18.4837 	 50.1862 	 
C 	 44.9734 	 18.5363 	 51.6192 	 
H 	 45.5126 	 19.1967 	 52.3206 	 
H 	 44.4168 	 17.8148 	 52.1416 	 
C 	 43.9496 	 19.3139 	 50.7358 	 
H 	 43.3767 	 18.6787 	 50.0297 	 
H 	 44.4875 	 20.0642 	 50.1017 	 
H 	 43.3095 	 19.8658 	 51.4635 	 
H 	 46.4381 	 12.2561 	 47.2351 	 
H 	 49.0135 	 15.6501 	 53.8289 	 
*
