! wB97X-D3 SP def2-SVP
%pal
nprocs 16
end

* xyz 0 1
S 	 -2.58497 	 30.6361 	 53.5324 	 
C 	 -0.896754 	 30.4092 	 53.788 	 
C 	 -0.421681 	 29.4677 	 52.9426 	 
C 	 -1.2814 	 29.1397 	 51.8734 	 
C 	 -2.50738 	 29.7701 	 51.9763 	 
H 	 -1.16682 	 28.5091 	 51.0692 	 
C 	 0.985378 	 28.8199 	 53.1131 	 
H 	 1.81494 	 29.5572 	 53.3295 	 
H 	 1.26053 	 28.4397 	 52.1001 	 
C 	 0.90609 	 27.7596 	 54.1771 	 
H 	 1.86064 	 27.2936 	 54.3269 	 
H 	 0.675567 	 28.183 	 55.161 	 
C 	 -0.117179 	 26.62 	 53.7763 	 
H 	 -1.15233 	 27.0171 	 53.5749 	 
H 	 0.0838809 	 26.2773 	 52.7798 	 
H 	 -0.109254 	 25.8494 	 54.4977 	 
S 	 -5.2303 	 29.6228 	 52.0791 	 
C 	 -6.10272 	 29.4561 	 50.5747 	 
C 	 -5.33529 	 29.381 	 49.4668 	 
C 	 -3.95582 	 29.4233 	 49.809 	 
C 	 -3.73253 	 29.5728 	 51.2038 	 
H 	 -5.85599 	 29.3193 	 48.5012 	 
C 	 -2.82316 	 29.3146 	 48.7132 	 
H 	 -2.40493 	 28.4103 	 48.9749 	 
H 	 -2.10769 	 30.0927 	 49.008 	 
C 	 -3.22016 	 29.2665 	 47.2107 	 
H 	 -3.75691 	 28.3507 	 46.9658 	 
H 	 -2.21073 	 29.3076 	 46.7472 	 
C 	 -3.95455 	 30.4702 	 46.5174 	 
H 	 -4.10682 	 30.1034 	 45.51 	 
H 	 -3.32259 	 31.3793 	 46.4458 	 
H 	 -4.88903 	 30.6167 	 47.0194 	 
H 	 -0.460626 	 30.7111 	 54.7625 	 
H 	 -7.20275 	 29.5776 	 50.3924 	 
*
