! wB97X-D3 SP def2-SVP
%pal
nprocs 16
end

* xyz 0 1
S 	 -0.745482 	 78.197 	 50.864 	 
C 	 0.733375 	 78.6672 	 50.0875 	 
C 	 1.44894 	 77.6128 	 49.632 	 
C 	 0.700998 	 76.3706 	 49.7648 	 
C 	 -0.514605 	 76.5491 	 50.4248 	 
H 	 1.15899 	 75.3958 	 49.6837 	 
C 	 2.93265 	 77.7029 	 49.2245 	 
H 	 2.87564 	 78.5734 	 48.5581 	 
H 	 3.28346 	 76.8006 	 48.6095 	 
C 	 3.90129 	 78.0149 	 50.3719 	 
H 	 3.68303 	 78.9603 	 50.8393 	 
H 	 3.61083 	 77.3256 	 51.153 	 
C 	 5.40247 	 77.8226 	 50.0327 	 
H 	 5.54271 	 78.6168 	 49.3654 	 
H 	 5.99314 	 78.1597 	 50.815 	 
H 	 5.67331 	 76.9102 	 49.5784 	 
S 	 -2.40767 	 76.0938 	 52.3943 	 
C 	 -3.21602 	 74.5796 	 52.5105 	 
C 	 -2.88738 	 73.7705 	 51.4045 	 
C 	 -1.79371 	 74.2641 	 50.6207 	 
C 	 -1.40912 	 75.5739 	 51.0502 	 
H 	 -3.53805 	 72.8191 	 51.3159 	 
C 	 -1.23683 	 73.4283 	 49.4636 	 
H 	 -0.749356 	 74.0376 	 48.6779 	 
H 	 -2.18248 	 73.1182 	 49.0219 	 
C 	 -0.354531 	 72.1915 	 49.8471 	 
H 	 -0.127177 	 71.6425 	 48.9625 	 
H 	 -1.00799 	 71.5718 	 50.5214 	 
C 	 0.923261 	 72.607 	 50.4971 	 
H 	 1.57889 	 73.0658 	 49.7594 	 
H 	 1.43442 	 71.8344 	 50.9947 	 
H 	 0.737469 	 73.3133 	 51.2557 	 
H 	 1.06563 	 79.6266 	 50.2084 	 
H 	 -3.92109 	 74.3018 	 53.2498 	 
*
