! wB97X-D3 SP def2-SVP
%pal
nprocs 16
end

* xyz 0 1
S 	 -29.7243 	 62.9001 	 108.309 	 
C 	 -29.1466 	 64.529 	 107.942 	 
C 	 -29.7985 	 65.0485 	 106.831 	 
C 	 -30.9132 	 64.1925 	 106.435 	 
C 	 -30.7987 	 62.9234 	 106.959 	 
H 	 -31.5816 	 64.354 	 105.593 	 
C 	 -29.5782 	 66.5319 	 106.408 	 
H 	 -28.7746 	 66.9366 	 106.987 	 
H 	 -30.4603 	 67.0922 	 106.602 	 
C 	 -29.1889 	 66.7267 	 104.886 	 
H 	 -28.2074 	 66.3844 	 104.675 	 
H 	 -30.0417 	 66.3333 	 104.327 	 
C 	 -29.038 	 68.212 	 104.62 	 
H 	 -28.1195 	 68.6294 	 105.005 	 
H 	 -28.9514 	 68.4065 	 103.583 	 
H 	 -29.9204 	 68.6914 	 104.99 	 
S 	 -32.9713 	 61.357 	 107.749 	 
C 	 -33.4967 	 60.0564 	 106.659 	 
C 	 -32.8731 	 60.1284 	 105.484 	 
C 	 -31.8708 	 61.0895 	 105.435 	 
C 	 -31.6728 	 61.7841 	 106.64 	 
H 	 -33.1555 	 59.3657 	 104.696 	 
C 	 -30.9259 	 61.2429 	 104.277 	 
H 	 -29.981 	 60.7945 	 104.494 	 
H 	 -30.6511 	 62.291 	 104.08 	 
C 	 -31.2978 	 60.6885 	 102.898 	 
H 	 -32.2495 	 61.1786 	 102.555 	 
H 	 -31.644 	 59.6636 	 102.867 	 
C 	 -30.2001 	 60.7412 	 101.858 	 
H 	 -30.0844 	 61.7638 	 101.496 	 
H 	 -30.3365 	 60.0649 	 101.026 	 
H 	 -29.1203 	 60.5121 	 102.211 	 
H 	 -28.3013 	 65.0842 	 108.49 	 
H 	 -34.1794 	 59.2802 	 106.846 	 
*
