! wB97X-D3 SP def2-SVP
%pal
nprocs 16
end

* xyz 0 1
S 	 9.48705 	 -14.5324 	 101.757 	 
C 	 10.6928 	 -14.8712 	 102.96 	 
C 	 10.3193 	 -14.5986 	 104.242 	 
C 	 8.95367 	 -14.1657 	 104.303 	 
C 	 8.42605 	 -14.0097 	 103.029 	 
H 	 8.40948 	 -13.8372 	 105.185 	 
C 	 11.1016 	 -14.9369 	 105.462 	 
H 	 11.3638 	 -14.1191 	 106.198 	 
H 	 12.1132 	 -15.281 	 105.293 	 
C 	 10.5455 	 -16.0951 	 106.325 	 
H 	 11.0945 	 -16.1545 	 107.231 	 
H 	 9.56639 	 -15.8735 	 106.824 	 
C 	 10.4704 	 -17.4965 	 105.726 	 
H 	 10.8969 	 -18.2417 	 106.356 	 
H 	 9.41585 	 -17.8445 	 105.429 	 
H 	 11.1151 	 -17.5562 	 104.823 	 
S 	 6.85914 	 -12.4313 	 101.425 	 
C 	 5.1477 	 -12.4715 	 101.64 	 
C 	 4.76603 	 -13.2876 	 102.686 	 
C 	 5.85385 	 -13.9542 	 103.339 	 
C 	 7.04849 	 -13.6159 	 102.738 	 
H 	 3.70349 	 -13.4261 	 102.994 	 
C 	 5.56358 	 -15.0932 	 104.313 	 
H 	 4.55958 	 -15.1862 	 104.516 	 
H 	 6.03741 	 -14.714 	 105.225 	 
C 	 6.11487 	 -16.4449 	 103.968 	 
H 	 7.18062 	 -16.2845 	 103.675 	 
H 	 5.67743 	 -16.8918 	 103.109 	 
C 	 6.03108 	 -17.2075 	 105.334 	 
H 	 6.35461 	 -18.2274 	 105.167 	 
H 	 5.09293 	 -17.1469 	 105.972 	 
H 	 6.74903 	 -16.737 	 106.04 	 
H 	 11.6235 	 -15.0736 	 102.544 	 
H 	 4.42311 	 -11.85 	 101.067 	 
*
