! wB97X-D3 SP def2-SVP
%pal
nprocs 16
end

* xyz 0 1
S 	 -94.6448 	 51.4944 	 123.46 	 
C 	 -96.3811 	 51.4185 	 122.995 	 
C 	 -97.1004 	 50.6194 	 123.857 	 
C 	 -96.4004 	 50.4955 	 125.108 	 
C 	 -95.1101 	 51.028 	 125.062 	 
H 	 -96.8538 	 50.1289 	 125.941 	 
C 	 -98.5499 	 50.182 	 123.729 	 
H 	 -98.7491 	 49.1912 	 124.076 	 
H 	 -98.8294 	 50.2871 	 122.62 	 
C 	 -99.5869 	 51.045 	 124.601 	 
H 	 -100.561 	 50.6314 	 124.472 	 
H 	 -99.3855 	 51.0054 	 125.7 	 
C 	 -99.53 	 52.5362 	 124.2 	 
H 	 -98.696 	 53.0104 	 124.722 	 
H 	 -99.417 	 52.7118 	 123.127 	 
H 	 -100.525 	 52.9942 	 124.495 	 
S 	 -92.531 	 50.8573 	 126.042 	 
C 	 -92.0947 	 51.0635 	 127.702 	 
C 	 -93.2549 	 51.5084 	 128.339 	 
C 	 -94.4641 	 51.5703 	 127.54 	 
C 	 -94.2366 	 51.1604 	 126.202 	 
H 	 -93.2807 	 51.8873 	 129.388 	 
C 	 -95.6967 	 52.0608 	 128.163 	 
H 	 -96.4037 	 52.3968 	 127.445 	 
H 	 -95.4035 	 52.9591 	 128.719 	 
C 	 -96.5843 	 51.1597 	 129.074 	 
H 	 -96.0015 	 50.7174 	 129.867 	 
H 	 -96.9082 	 50.4182 	 128.374 	 
C 	 -97.7529 	 51.8429 	 129.725 	 
H 	 -98.3083 	 51.1853 	 130.431 	 
H 	 -98.3403 	 52.2564 	 128.924 	 
H 	 -97.4035 	 52.6468 	 130.304 	 
H 	 -96.7156 	 51.776 	 122.084 	 
H 	 -91.1562 	 51.1551 	 128.108 	 
*
