! wB97X-D3 SP def2-SVP
%pal
nprocs 16
end

* xyz 0 1
S 	 -28.2031 	 55.1161 	 111.496 	 
C 	 -29.0138 	 55.9398 	 110.189 	 
C 	 -29.6368 	 55.0534 	 109.3 	 
C 	 -29.3778 	 53.706 	 109.696 	 
C 	 -28.7655 	 53.5315 	 110.884 	 
H 	 -29.7507 	 52.7237 	 109.295 	 
C 	 -30.5579 	 55.3924 	 108.176 	 
H 	 -30.4349 	 54.7953 	 107.309 	 
H 	 -30.1911 	 56.379 	 107.873 	 
C 	 -32.0132 	 55.471 	 108.586 	 
H 	 -32.3896 	 54.4742 	 108.926 	 
H 	 -32.0262 	 56.0186 	 109.477 	 
C 	 -33.0126 	 56.2527 	 107.617 	 
H 	 -32.9524 	 55.7894 	 106.626 	 
H 	 -34.0926 	 56.3023 	 107.857 	 
H 	 -32.6211 	 57.2773 	 107.492 	 
S 	 -29.1712 	 52.4138 	 113.371 	 
C 	 -28.6217 	 50.9146 	 113.717 	 
C 	 -28.0832 	 50.2499 	 112.623 	 
C 	 -28.1186 	 51.0471 	 111.44 	 
C 	 -28.6714 	 52.2949 	 111.676 	 
H 	 -27.6193 	 49.2832 	 112.765 	 
C 	 -27.5652 	 50.5835 	 110.069 	 
H 	 -27.0233 	 51.4443 	 109.739 	 
H 	 -28.2989 	 50.5256 	 109.287 	 
C 	 -26.6231 	 49.2849 	 110.112 	 
H 	 -27.205 	 48.3718 	 110.276 	 
H 	 -25.8255 	 49.4678 	 110.839 	 
C 	 -25.7769 	 49.0441 	 108.863 	 
H 	 -26.4214 	 48.7228 	 108.033 	 
H 	 -25.0107 	 48.3244 	 109.022 	 
H 	 -25.2623 	 49.9658 	 108.573 	 
H 	 -28.9687 	 57.0422 	 109.952 	 
H 	 -28.7089 	 50.5482 	 114.649 	 
*
