! wB97X-D3 SP def2-SVP
%pal
nprocs 16
end

* xyz 0 1
S 	 -36.925 	 23.6584 	 81.6154 	 
C 	 -37.4994 	 22.1042 	 82.0766 	 
C 	 -37.1867 	 21.1791 	 81.0629 	 
C 	 -36.658 	 21.8072 	 79.8983 	 
C 	 -36.517 	 23.1411 	 80.0062 	 
H 	 -36.4372 	 21.36 	 78.9695 	 
C 	 -37.5859 	 19.7054 	 81.0181 	 
H 	 -38.4279 	 19.8405 	 80.3959 	 
H 	 -38.023 	 19.4748 	 82.0155 	 
C 	 -36.4843 	 18.8454 	 80.4911 	 
H 	 -36.8551 	 17.8453 	 80.6532 	 
H 	 -36.2594 	 18.8568 	 79.4511 	 
C 	 -35.1147 	 18.9416 	 81.2279 	 
H 	 -34.7075 	 19.926 	 81.4878 	 
H 	 -35.1783 	 18.485 	 82.1618 	 
H 	 -34.3416 	 18.4457 	 80.6489 	 
S 	 -34.6025 	 25.0784 	 79.762 	 
C 	 -34.3224 	 25.9873 	 78.251 	 
C 	 -35.1907 	 25.5781 	 77.3136 	 
C 	 -36.1045 	 24.516 	 77.742 	 
C 	 -35.8869 	 24.1074 	 79.0741 	 
H 	 -35.267 	 26.0956 	 76.401 	 
C 	 -37.1187 	 23.9407 	 76.8118 	 
H 	 -37.1794 	 22.8154 	 76.9522 	 
H 	 -36.7724 	 24.0741 	 75.7896 	 
C 	 -38.4886 	 24.656 	 76.9445 	 
H 	 -38.2623 	 25.6065 	 76.5543 	 
H 	 -38.7745 	 24.6983 	 77.9501 	 
C 	 -39.4809 	 23.7675 	 76.1647 	 
H 	 -40.3743 	 24.2504 	 75.895 	 
H 	 -39.7228 	 22.9334 	 76.8187 	 
H 	 -38.9846 	 23.4738 	 75.2562 	 
H 	 -37.923 	 21.8972 	 82.9849 	 
H 	 -33.676 	 26.9184 	 78.094 	 
*
