! wB97X-D3 SP def2-SVP
%pal
nprocs 16
end

* xyz 0 1
S 	 -17.2388 	 40.4053 	 56.5465 	 
C 	 -16.3101 	 41.7173 	 55.8227 	 
C 	 -16.8981 	 42.957 	 55.991 	 
C 	 -18.1641 	 42.8418 	 56.6829 	 
C 	 -18.5934 	 41.525 	 56.9448 	 
H 	 -18.7282 	 43.6784 	 57.125 	 
C 	 -16.4463 	 44.2196 	 55.2962 	 
H 	 -17.3101 	 44.5027 	 54.6667 	 
H 	 -15.7 	 44.0987 	 54.577 	 
C 	 -16.0532 	 45.4514 	 56.1318 	 
H 	 -15.7562 	 46.2474 	 55.5015 	 
H 	 -17.0334 	 45.873 	 56.5003 	 
C 	 -14.9281 	 45.2326 	 57.2049 	 
H 	 -14.0585 	 44.7591 	 56.7089 	 
H 	 -14.6434 	 46.2109 	 57.6122 	 
H 	 -15.3059 	 44.5912 	 58.0046 	 
S 	 -19.8853 	 40.1312 	 58.8383 	 
C 	 -21.6617 	 40.2217 	 58.8578 	 
C 	 -22.2583 	 41.0082 	 57.8647 	 
C 	 -21.2287 	 41.5088 	 57.0271 	 
C 	 -19.9127 	 41.1239 	 57.3908 	 
H 	 -23.3537 	 41.1745 	 57.8584 	 
C 	 -21.5807 	 42.4119 	 55.9038 	 
H 	 -20.6417 	 42.8156 	 55.5328 	 
H 	 -22.0363 	 43.3289 	 56.2654 	 
C 	 -22.51 	 41.7264 	 54.8499 	 
H 	 -23.3747 	 41.2196 	 55.2171 	 
H 	 -21.9703 	 40.9056 	 54.4159 	 
C 	 -23.0172 	 42.6508 	 53.7118 	 
H 	 -23.3892 	 42.0316 	 52.9098 	 
H 	 -22.2861 	 43.3183 	 53.2663 	 
H 	 -23.8029 	 43.3914 	 53.8966 	 
H 	 -15.4254 	 41.5999 	 55.2504 	 
H 	 -22.2969 	 39.9289 	 59.6103 	 
*
