! wB97X-D3 SP def2-SVP
%pal
nprocs 16
end

* xyz 0 1
S 	 37.4983 	 3.09162 	 74.9795 	 
C 	 37.8482 	 3.01327 	 73.2696 	 
C 	 37.0793 	 2.0087 	 72.629 	 
C 	 36.1466 	 1.39684 	 73.5271 	 
C 	 36.2068 	 1.90111 	 74.8121 	 
H 	 35.4178 	 0.709334 	 73.1758 	 
C 	 37.0936 	 1.70205 	 71.1294 	 
H 	 36.3792 	 0.856331 	 70.9666 	 
H 	 38.1104 	 1.39779 	 70.9331 	 
C 	 36.6938 	 2.92136 	 70.1804 	 
H 	 37.4579 	 3.68708 	 70.2368 	 
H 	 36.6714 	 2.61994 	 69.0993 	 
C 	 35.2285 	 3.35228 	 70.5132 	 
H 	 34.56 	 2.49551 	 70.5038 	 
H 	 35.0582 	 3.8854 	 71.4486 	 
H 	 34.8245 	 4.04997 	 69.7155 	 
S 	 36.1906 	 0.734837 	 77.2517 	 
C 	 34.6816 	 0.247854 	 77.8732 	 
C 	 33.5997 	 0.549778 	 77.0805 	 
C 	 33.9801 	 1.28104 	 75.9236 	 
C 	 35.3469 	 1.49397 	 75.895 	 
H 	 32.594 	 0.212252 	 77.3664 	 
C 	 33.1121 	 1.81177 	 74.8104 	 
H 	 32.188 	 1.38673 	 74.9819 	 
H 	 33.4964 	 1.43739 	 73.8084 	 
C 	 32.8364 	 3.3084 	 74.8393 	 
H 	 32.2046 	 3.61339 	 73.944 	 
H 	 33.8659 	 3.70434 	 74.7424 	 
C 	 32.0336 	 3.89624 	 76.0545 	 
H 	 32.5452 	 3.74718 	 76.9865 	 
H 	 30.9906 	 3.54295 	 76.1692 	 
H 	 31.9713 	 4.97244 	 75.8752 	 
H 	 38.695 	 3.47314 	 72.7381 	 
H 	 34.5945 	 -0.453232 	 78.6838 	 
*
