! wB97X-D3 SP def2-SVP
%pal
nprocs 16
end

* xyz 0 1
S 	 -40.6247 	 23.4145 	 93.2336 	 
C 	 -41.1663 	 22.1432 	 92.1535 	 
C 	 -40.9661 	 22.4756 	 90.7638 	 
C 	 -40.4489 	 23.7928 	 90.6347 	 
C 	 -40.2792 	 24.4222 	 91.8661 	 
H 	 -40.3642 	 24.2317 	 89.7402 	 
C 	 -41.1892 	 21.5861 	 89.5326 	 
H 	 -40.4366 	 20.8705 	 89.615 	 
H 	 -41.0644 	 22.2109 	 88.6527 	 
C 	 -42.5195 	 20.935 	 89.6212 	 
H 	 -42.379 	 20.1142 	 88.9056 	 
H 	 -42.7336 	 20.4399 	 90.5381 	 
C 	 -43.7904 	 21.7649 	 89.1504 	 
H 	 -44.5419 	 21.1074 	 88.9066 	 
H 	 -44.0319 	 22.4669 	 89.8836 	 
H 	 -43.5327 	 22.3038 	 88.2512 	 
S 	 -40.7782 	 27.1808 	 92.1253 	 
C 	 -39.408 	 28.2617 	 92.02 	 
C 	 -38.2375 	 27.6291 	 92.0818 	 
C 	 -38.3554 	 26.1864 	 91.9483 	 
C 	 -39.6827 	 25.7676 	 92.0329 	 
H 	 -37.3554 	 28.1642 	 92.2114 	 
C 	 -37.1959 	 25.2655 	 91.6697 	 
H 	 -37.4544 	 24.207 	 91.8459 	 
H 	 -36.5741 	 25.5664 	 92.4902 	 
C 	 -36.5284 	 25.4798 	 90.3372 	 
H 	 -35.5562 	 25.022 	 90.5041 	 
H 	 -36.2999 	 26.5394 	 90.0699 	 
C 	 -37.3062 	 24.8557 	 89.1883 	 
H 	 -36.7458 	 24.933 	 88.212 	 
H 	 -38.243 	 25.4269 	 89.0252 	 
H 	 -37.4828 	 23.7506 	 89.2384 	 
H 	 -41.5782 	 21.1932 	 92.4465 	 
H 	 -39.4734 	 29.2967 	 92.0465 	 
*
