! wB97X-D3 SP def2-SVP
%pal
nprocs 16
end

* xyz 0 1
S 	 0.93267 	 76.1701 	 46.7826 	 
C 	 1.21129 	 77.609 	 47.6918 	 
C 	 1.47771 	 77.3301 	 49.0121 	 
C 	 1.30478 	 75.9295 	 49.3442 	 
C 	 0.958117 	 75.1807 	 48.2581 	 
H 	 1.52361 	 75.4752 	 50.3602 	 
C 	 1.83828 	 78.4151 	 50.0573 	 
H 	 2.43161 	 79.2421 	 49.6483 	 
H 	 2.5677 	 78.0267 	 50.7397 	 
C 	 0.692388 	 79.0392 	 50.8635 	 
H 	 1.06442 	 79.7781 	 51.5892 	 
H 	 0.0677587 	 79.6413 	 50.2214 	 
C 	 -0.208972 	 78.066 	 51.5601 	 
H 	 0.332717 	 77.4972 	 52.3018 	 
H 	 -1.02474 	 78.5972 	 51.9907 	 
H 	 -0.77383 	 77.366 	 50.8114 	 
S 	 2.31291 	 72.7276 	 48.0017 	 
C 	 1.37226 	 71.2374 	 48.09 	 
C 	 0.0534276 	 71.5184 	 48.2318 	 
C 	 -0.276191 	 72.9082 	 48.3386 	 
C 	 0.855036 	 73.6988 	 48.1739 	 
H 	 -0.624104 	 70.678 	 48.2663 	 
C 	 -1.69343 	 73.4583 	 48.4292 	 
H 	 -2.38437 	 72.8405 	 47.9085 	 
H 	 -1.60298 	 74.4932 	 47.9632 	 
C 	 -2.26035 	 73.6616 	 49.9109 	 
H 	 -2.86082 	 72.7831 	 50.1554 	 
H 	 -2.91738 	 74.5481 	 49.9535 	 
C 	 -1.21385 	 73.9063 	 51.0073 	 
H 	 -1.71319 	 74.2156 	 52.0408 	 
H 	 -0.504677 	 74.6358 	 50.703 	 
H 	 -0.693742 	 72.9704 	 51.3166 	 
H 	 1.38099 	 78.6436 	 47.2781 	 
H 	 1.64238 	 70.1717 	 47.9682 	 
*
