! wB97X-D3 SP def2-SVP
%pal
nprocs 16
end

* xyz 0 1
S 	 -52.4113 	 39.9365 	 109.75 	 
C 	 -51.8999 	 39.2593 	 108.187 	 
C 	 -52.423 	 37.9799 	 107.895 	 
C 	 -53.1991 	 37.5301 	 109.02 	 
C 	 -53.3116 	 38.4162 	 110.06 	 
H 	 -53.7288 	 36.5797 	 109.081 	 
C 	 -52.3154 	 37.2484 	 106.584 	 
H 	 -52.2178 	 38.0732 	 105.835 	 
H 	 -53.254 	 36.7604 	 106.289 	 
C 	 -51.1244 	 36.2102 	 106.451 	 
H 	 -50.2158 	 36.683 	 106.265 	 
H 	 -51.1191 	 35.6914 	 107.446 	 
C 	 -51.349 	 35.1381 	 105.435 	 
H 	 -52.3612 	 35.1453 	 105.004 	 
H 	 -50.7506 	 35.4648 	 104.554 	 
H 	 -51.061 	 34.2065 	 105.847 	 
S 	 -53.5445 	 38.9352 	 112.726 	 
C 	 -54.6864 	 38.302 	 113.812 	 
C 	 -55.5486 	 37.5533 	 113.057 	 
C 	 -55.2708 	 37.5106 	 111.61 	 
C 	 -54.0839 	 38.1795 	 111.299 	 
H 	 -56.3663 	 37.0396 	 113.529 	 
C 	 -56.2152 	 36.7258 	 110.735 	 
H 	 -56.0917 	 37.0155 	 109.686 	 
H 	 -57.2438 	 37.0091 	 110.995 	 
C 	 -56.0619 	 35.2071 	 110.91 	 
H 	 -56.4643 	 34.813 	 111.836 	 
H 	 -54.9627 	 35.0532 	 110.906 	 
C 	 -56.7114 	 34.3721 	 109.765 	 
H 	 -56.3198 	 33.3791 	 109.945 	 
H 	 -56.4973 	 34.8099 	 108.861 	 
H 	 -57.7643 	 34.2442 	 109.84 	 
H 	 -51.4346 	 39.7629 	 107.339 	 
H 	 -54.7595 	 38.5729 	 114.871 	 
*
