! wB97X-D3 SP def2-SVP
%pal
nprocs 16
end

* xyz 0 1
S 	 -63.5492 	 57.3596 	 128.006 	 
C 	 -64.946 	 56.7336 	 128.866 	 
C 	 -64.758 	 55.4402 	 129.302 	 
C 	 -63.458 	 54.8996 	 128.963 	 
C 	 -62.6907 	 55.7554 	 128.203 	 
H 	 -63.0353 	 53.9517 	 129.221 	 
C 	 -65.7165 	 54.6034 	 130.256 	 
H 	 -66.612 	 55.283 	 130.572 	 
H 	 -65.1417 	 54.3961 	 131.174 	 
C 	 -66.2251 	 53.2233 	 129.879 	 
H 	 -66.967 	 53.2707 	 129.057 	 
H 	 -65.3031 	 52.6967 	 129.754 	 
C 	 -66.7763 	 52.4982 	 131.165 	 
H 	 -67.8445 	 52.7744 	 131.465 	 
H 	 -66.8411 	 51.507 	 131.105 	 
H 	 -66.2458 	 52.7218 	 132.115 	 
S 	 -59.9841 	 55.4983 	 128.69 	 
C 	 -58.9812 	 54.9338 	 127.369 	 
C 	 -59.6233 	 54.9273 	 126.182 	 
C 	 -61.0386 	 55.2832 	 126.279 	 
C 	 -61.4095 	 55.4622 	 127.587 	 
H 	 -59.0501 	 54.7213 	 125.301 	 
C 	 -61.9597 	 55.214 	 125.123 	 
H 	 -62.7775 	 54.6125 	 125.427 	 
H 	 -61.4773 	 54.6586 	 124.323 	 
C 	 -62.477 	 56.5994 	 124.649 	 
H 	 -61.5185 	 57.307 	 124.593 	 
H 	 -63.1911 	 57.0878 	 125.346 	 
C 	 -63.2552 	 56.474 	 123.302 	 
H 	 -63.4082 	 57.507 	 122.961 	 
H 	 -64.2064 	 55.9848 	 123.397 	 
H 	 -62.7537 	 55.9665 	 122.5 	 
H 	 -65.7566 	 57.4256 	 129.109 	 
H 	 -57.9543 	 54.7585 	 127.437 	 
*
