! wB97X-D3 SP def2-SVP
%pal
nprocs 16
end

* xyz 0 1
S 	 -15.3746 	 48.8237 	 32.856 	 
C 	 -13.9405 	 49.1321 	 31.8962 	 
C 	 -13.0577 	 48.0969 	 32.0709 	 
C 	 -13.6056 	 46.9578 	 32.8039 	 
C 	 -14.9002 	 47.185 	 33.3135 	 
H 	 -13.0959 	 46.0359 	 32.9896 	 
C 	 -11.6897 	 47.9656 	 31.4015 	 
H 	 -10.9619 	 47.3316 	 31.9491 	 
H 	 -11.3585 	 49.025 	 31.5829 	 
C 	 -11.7125 	 47.3707 	 30.0145 	 
H 	 -12.4474 	 47.8591 	 29.4107 	 
H 	 -10.8162 	 47.5679 	 29.445 	 
C 	 -12.1237 	 45.9022 	 29.8581 	 
H 	 -11.4737 	 45.2957 	 30.4762 	 
H 	 -13.0699 	 45.6666 	 30.1357 	 
H 	 -12.2315 	 45.6017 	 28.8117 	 
S 	 -16.3034 	 46.941 	 35.5655 	 
C 	 -16.8278 	 45.3476 	 36.1589 	 
C 	 -16.6406 	 44.419 	 35.2031 	 
C 	 -16.0367 	 44.9012 	 34.0579 	 
C 	 -15.7077 	 46.3023 	 34.1407 	 
H 	 -17.2748 	 43.5929 	 35.3723 	 
C 	 -15.6554 	 44.0694 	 32.8799 	 
H 	 -15.0281 	 43.2858 	 33.2777 	 
H 	 -14.9948 	 44.615 	 32.2312 	 
C 	 -16.808 	 43.6316 	 31.9916 	 
H 	 -17.5235 	 44.4596 	 31.8084 	 
H 	 -17.4732 	 42.9535 	 32.5312 	 
C 	 -16.3232 	 43.0244 	 30.6893 	 
H 	 -17.2513 	 42.7305 	 30.2019 	 
H 	 -15.7851 	 42.1344 	 30.9364 	 
H 	 -15.6161 	 43.5027 	 29.9976 	 
H 	 -13.6917 	 50.0918 	 31.4789 	 
H 	 -17.3694 	 45.2062 	 37.1011 	 
*
