! wB97X-D3 SP def2-SVP
%pal
nprocs 16
end

* xyz 0 1
S 	 55.3066 	 18.0663 	 48.1006 	 
C 	 53.7105 	 18.1125 	 48.825 	 
C 	 52.728 	 17.9968 	 47.8661 	 
C 	 53.2611 	 17.6251 	 46.5958 	 
C 	 54.5845 	 17.3661 	 46.6722 	 
H 	 52.7313 	 17.4703 	 45.6517 	 
C 	 51.2355 	 18.0411 	 48.1988 	 
H 	 50.8005 	 18.6728 	 47.3441 	 
H 	 51.1536 	 18.6062 	 49.1042 	 
C 	 50.4389 	 16.6871 	 48.3382 	 
H 	 50.651 	 16.0967 	 47.383 	 
H 	 50.8948 	 16.117 	 49.0885 	 
C 	 49.0037 	 16.9298 	 48.5975 	 
H 	 48.487 	 15.9503 	 48.4393 	 
H 	 48.8987 	 17.2627 	 49.6483 	 
H 	 48.6558 	 17.7316 	 47.9684 	 
S 	 56.719 	 17.5962 	 44.7641 	 
C 	 57.1059 	 16.1331 	 43.845 	 
C 	 56.3408 	 15.0525 	 44.2884 	 
C 	 55.4162 	 15.3348 	 45.3726 	 
C 	 55.4278 	 16.688 	 45.7002 	 
H 	 56.5148 	 14.088 	 43.8617 	 
C 	 54.4674 	 14.3256 	 46.0087 	 
H 	 54.1694 	 14.6905 	 46.9728 	 
H 	 55.0503 	 13.4089 	 46.2322 	 
C 	 53.2698 	 13.9387 	 45.1706 	 
H 	 53.7293 	 13.5185 	 44.2872 	 
H 	 52.6282 	 14.7514 	 44.9055 	 
C 	 52.3846 	 12.9034 	 45.894 	 
H 	 53.0528 	 12.2213 	 46.4635 	 
H 	 51.7222 	 12.4106 	 45.2047 	 
H 	 51.7927 	 13.4679 	 46.6186 	 
H 	 53.4095 	 18.3578 	 49.8763 	 
H 	 57.7042 	 16.1985 	 42.9805 	 
*
