! wB97X-D3 SP def2-SVP
%pal
nprocs 16
end

* xyz 0 1
S 	 -63.6358 	 38.6803 	 117.45 	 
C 	 -64.8988 	 38.3095 	 118.56 	 
C 	 -66.0263 	 37.9445 	 117.882 	 
C 	 -66.0064 	 38.321 	 116.481 	 
C 	 -64.7967 	 38.8464 	 116.163 	 
H 	 -66.8479 	 38.2894 	 115.793 	 
C 	 -67.2189 	 37.3602 	 118.518 	 
H 	 -68.1101 	 37.5547 	 118.027 	 
H 	 -67.5589 	 37.9323 	 119.385 	 
C 	 -67.175 	 35.8833 	 118.697 	 
H 	 -67.9881 	 35.4219 	 119.187 	 
H 	 -67.0204 	 35.3892 	 117.706 	 
C 	 -65.987 	 35.5153 	 119.595 	 
H 	 -65.1212 	 35.9797 	 119.142 	 
H 	 -66.1043 	 35.8945 	 120.674 	 
H 	 -65.8534 	 34.492 	 119.672 	 
S 	 -63.8951 	 41.1079 	 114.986 	 
C 	 -64.0586 	 41.2751 	 113.28 	 
C 	 -64.3104 	 40.1002 	 112.637 	 
C 	 -64.6033 	 39.0697 	 113.535 	 
C 	 -64.4402 	 39.4429 	 114.885 	 
H 	 -64.4331 	 40.0601 	 111.545 	 
C 	 -65.0337 	 37.6538 	 113.032 	 
H 	 -65.9005 	 37.7667 	 112.296 	 
H 	 -65.5044 	 37.1233 	 113.903 	 
C 	 -63.8335 	 36.8276 	 112.476 	 
H 	 -63.3114 	 37.1996 	 111.63 	 
H 	 -64.2413 	 35.9364 	 111.991 	 
C 	 -62.9601 	 36.3211 	 113.604 	 
H 	 -63.372 	 35.6021 	 114.389 	 
H 	 -62.2958 	 37.0563 	 113.921 	 
H 	 -62.2629 	 35.7631 	 113.009 	 
H 	 -64.7092 	 38.1614 	 119.613 	 
H 	 -63.7783 	 42.2152 	 112.768 	 
*
