! wB97X-D3 SP def2-SVP
%pal
nprocs 16
end

* xyz 0 1
S 	 3.74664 	 78.5541 	 46.7213 	 
C 	 3.50822 	 79.8412 	 47.8621 	 
C 	 3.12179 	 79.4918 	 49.1231 	 
C 	 2.97685 	 78.0644 	 49.1276 	 
C 	 3.1629 	 77.4335 	 47.9253 	 
H 	 2.7493 	 77.4986 	 50.0413 	 
C 	 3.00618 	 80.3936 	 50.2979 	 
H 	 3.66379 	 81.345 	 50.1798 	 
H 	 3.46249 	 79.9151 	 51.2656 	 
C 	 1.59217 	 80.8356 	 50.6473 	 
H 	 1.61033 	 81.6514 	 51.3723 	 
H 	 1.18272 	 81.1717 	 49.7254 	 
C 	 0.855364 	 79.6231 	 51.2216 	 
H 	 -0.154564 	 79.8701 	 51.3787 	 
H 	 0.750188 	 78.7164 	 50.5532 	 
H 	 1.34111 	 79.4252 	 52.2049 	 
S 	 4.69098 	 75.3208 	 47.0004 	 
C 	 4.06238 	 73.7296 	 47.2451 	 
C 	 2.77673 	 73.6924 	 47.6741 	 
C 	 2.31 	 74.9871 	 48.0751 	 
C 	 3.22266 	 75.9725 	 47.6891 	 
H 	 2.23332 	 72.7961 	 47.8059 	 
C 	 0.895749 	 75.2052 	 48.6332 	 
H 	 0.30273 	 74.9979 	 47.8099 	 
H 	 0.810225 	 76.2579 	 48.8667 	 
C 	 0.594931 	 74.3908 	 49.9512 	 
H 	 0.806378 	 73.34 	 49.8759 	 
H 	 -0.517565 	 74.425 	 50.171 	 
C 	 1.5526 	 74.9696 	 51.1318 	 
H 	 1.5888 	 74.3537 	 52.0506 	 
H 	 1.19318 	 75.965 	 51.4288 	 
H 	 2.60187 	 75.0553 	 50.744 	 
H 	 3.82539 	 80.8468 	 47.5261 	 
H 	 4.51921 	 72.78 	 46.982 	 
*
