! wB97X-D3 SP def2-SVP
%pal
nprocs 16
end

* xyz 0 1
S 	 35.558 	 27.4256 	 53.5283 	 
C 	 34.3435 	 28.6066 	 53.0211 	 
C 	 33.0619 	 28.201 	 53.3278 	 
C 	 33.0187 	 26.9328 	 53.9791 	 
C 	 34.2538 	 26.3354 	 54.0728 	 
H 	 32.1434 	 26.3772 	 54.3392 	 
C 	 31.8513 	 29.0383 	 52.9955 	 
H 	 31.1699 	 28.3214 	 52.6002 	 
H 	 32.028 	 29.8182 	 52.1964 	 
C 	 31.1402 	 29.6526 	 54.1852 	 
H 	 30.7974 	 28.8246 	 54.7714 	 
H 	 31.9597 	 30.1037 	 54.749 	 
C 	 30.0085 	 30.5467 	 53.9346 	 
H 	 29.24 	 30.0636 	 53.3962 	 
H 	 29.5954 	 30.9212 	 54.874 	 
H 	 30.3782 	 31.326 	 53.2743 	 
S 	 34.1357 	 24.347 	 55.9688 	 
C 	 34.8461 	 22.8113 	 55.6821 	 
C 	 35.1119 	 22.62 	 54.3593 	 
C 	 34.9731 	 23.8227 	 53.5919 	 
C 	 34.531 	 24.8644 	 54.3773 	 
H 	 35.4406 	 21.6671 	 53.9927 	 
C 	 35.0499 	 23.8369 	 52.0758 	 
H 	 36.1211 	 23.8073 	 51.809 	 
H 	 34.5734 	 24.822 	 51.8714 	 
C 	 34.3151 	 22.6666 	 51.3929 	 
H 	 33.2693 	 22.8765 	 51.1654 	 
H 	 34.3347 	 21.7767 	 52.0888 	 
C 	 34.9137 	 22.2569 	 50.0461 	 
H 	 35.9519 	 21.804 	 50.1486 	 
H 	 35.2175 	 22.9961 	 49.3759 	 
H 	 34.4177 	 21.4716 	 49.4909 	 
H 	 34.5541 	 29.536 	 52.5234 	 
H 	 35.068 	 22.0851 	 56.4718 	 
*
