! wB97X-D3 SP def2-SVP
%pal
nprocs 16
end

* xyz 0 1
S 	 55.7466 	 7.1333 	 64.9594 	 
C 	 55.5522 	 8.97251 	 65.1486 	 
C 	 54.2133 	 9.34151 	 65.3 	 
C 	 53.3179 	 8.29438 	 64.9895 	 
C 	 53.9345 	 7.10822 	 64.6201 	 
H 	 52.222 	 8.43611 	 65.0322 	 
C 	 53.6001 	 10.6857 	 65.7601 	 
H 	 52.6065 	 10.7481 	 65.2336 	 
H 	 54.2256 	 11.4841 	 65.3698 	 
C 	 53.4796 	 10.8005 	 67.3001 	 
H 	 52.5861 	 10.2505 	 67.5763 	 
H 	 54.3609 	 10.4204 	 67.884 	 
C 	 53.4617 	 12.3422 	 67.6805 	 
H 	 54.2555 	 12.8616 	 67.2342 	 
H 	 52.5061 	 12.7735 	 67.41 	 
H 	 53.4804 	 12.4266 	 68.7481 	 
S 	 53.905 	 4.37299 	 64.5439 	 
C 	 52.9992 	 3.54051 	 63.3405 	 
C 	 52.2352 	 4.39135 	 62.5822 	 
C 	 52.4321 	 5.74987 	 62.9082 	 
C 	 53.3061 	 5.92586 	 64.0019 	 
H 	 51.6838 	 3.9528 	 61.7772 	 
C 	 51.7703 	 6.91846 	 62.1419 	 
H 	 51.2156 	 7.44346 	 62.9532 	 
H 	 50.9292 	 6.53789 	 61.5578 	 
C 	 52.6211 	 7.93959 	 61.445 	 
H 	 53.1396 	 7.35823 	 60.6865 	 
H 	 53.4319 	 8.28942 	 62.1139 	 
C 	 51.8471 	 9.07881 	 60.8399 	 
H 	 52.3793 	 9.63737 	 60.1192 	 
H 	 51.4405 	 9.7559 	 61.6095 	 
H 	 50.935 	 8.74116 	 60.2327 	 
H 	 56.3732 	 9.59859 	 65.4897 	 
H 	 52.9415 	 2.47253 	 63.4291 	 
*
