! wB97X-D3 SP def2-SVP
%pal
nprocs 16
end

* xyz 0 1
S 	 -14.6499 	 -10.3105 	 85.2273 	 
C 	 -15.8226 	 -10.4013 	 86.4937 	 
C 	 -15.2738 	 -10.4159 	 87.7537 	 
C 	 -13.8208 	 -10.3991 	 87.7064 	 
C 	 -13.3325 	 -10.255 	 86.4073 	 
H 	 -13.0619 	 -10.4073 	 88.4582 	 
C 	 -16.02 	 -10.6374 	 89.0267 	 
H 	 -17.0366 	 -10.8465 	 88.7307 	 
H 	 -15.9968 	 -9.75695 	 89.5564 	 
C 	 -15.5322 	 -11.7363 	 90.0547 	 
H 	 -15.2247 	 -12.6778 	 89.5478 	 
H 	 -14.6531 	 -11.4064 	 90.6513 	 
C 	 -16.6688 	 -11.9109 	 91.1319 	 
H 	 -17.4909 	 -12.1584 	 90.5877 	 
H 	 -16.5807 	 -12.8349 	 91.8378 	 
H 	 -16.8093 	 -10.9824 	 91.766 	 
S 	 -11.6461 	 -11.7467 	 84.8929 	 
C 	 -9.98387 	 -11.2277 	 84.7246 	 
C 	 -9.66865 	 -10.1545 	 85.5355 	 
C 	 -10.7577 	 -9.74191 	 86.2982 	 
C 	 -11.9292 	 -10.3553 	 85.9383 	 
H 	 -8.65232 	 -9.69708 	 85.5887 	 
C 	 -10.66 	 -8.63031 	 87.2966 	 
H 	 -10.8243 	 -9.00451 	 88.3275 	 
H 	 -11.3851 	 -7.97306 	 87.0239 	 
C 	 -9.31378 	 -7.82525 	 87.2903 	 
H 	 -9.50647 	 -6.84551 	 87.7927 	 
H 	 -8.99725 	 -7.61098 	 86.3225 	 
C 	 -8.23047 	 -8.47754 	 88.058 	 
H 	 -7.45514 	 -7.72092 	 88.2651 	 
H 	 -7.71383 	 -9.30997 	 87.4969 	 
H 	 -8.4863 	 -8.94828 	 88.9975 	 
H 	 -16.8664 	 -10.3689 	 86.477 	 
H 	 -9.08914 	 -11.6614 	 84.1626 	 
*
