! wB97X-D3 SP def2-SVP
%pal
nprocs 16
end

* xyz 0 1
S 	 -38.9372 	 -0.656095 	 97.2018 	 
C 	 -40.3739 	 -1.54031 	 97.4722 	 
C 	 -40.1182 	 -2.52021 	 98.4079 	 
C 	 -38.7986 	 -2.44034 	 99.0383 	 
C 	 -38.0315 	 -1.50412 	 98.4251 	 
H 	 -38.4081 	 -3.07248 	 99.7935 	 
C 	 -41.0445 	 -3.63322 	 98.7774 	 
H 	 -42.0064 	 -3.60185 	 98.274 	 
H 	 -41.3916 	 -3.32963 	 99.749 	 
C 	 -40.4527 	 -5.05355 	 98.8489 	 
H 	 -39.7041 	 -5.20669 	 99.6202 	 
H 	 -41.426 	 -5.60397 	 99.1559 	 
C 	 -39.9046 	 -5.73295 	 97.5959 	 
H 	 -38.991 	 -5.16756 	 97.3678 	 
H 	 -39.4328 	 -6.68287 	 97.8291 	 
H 	 -40.6605 	 -5.82234 	 96.7792 	 
S 	 -35.9143 	 -1.66053 	 100.127 	 
C 	 -34.367 	 -1.01027 	 99.643 	 
C 	 -34.4598 	 -0.525892 	 98.3747 	 
C 	 -35.7285 	 -0.671065 	 97.7012 	 
C 	 -36.6571 	 -1.22616 	 98.6153 	 
H 	 -33.5209 	 -0.227919 	 97.927 	 
C 	 -35.9344 	 -0.354054 	 96.183 	 
H 	 -36.6177 	 0.460666 	 96.2599 	 
H 	 -36.4048 	 -1.264 	 95.7912 	 
C 	 -34.6996 	 -0.101416 	 95.3267 	 
H 	 -34.1439 	 -0.961559 	 95.5384 	 
H 	 -34.0368 	 0.619202 	 95.7264 	 
C 	 -34.879 	 0.108947 	 93.8307 	 
H 	 -34.0017 	 0.471168 	 93.3283 	 
H 	 -35.7103 	 0.810089 	 93.6776 	 
H 	 -35.2559 	 -0.854369 	 93.3953 	 
H 	 -41.2212 	 -1.50153 	 96.8607 	 
H 	 -33.3665 	 -1.23691 	 100.105 	 
*
