! wB97X-D3 SP def2-SVP
%pal
nprocs 16
end

* xyz 0 1
S 	 10.4203 	 -7.24727 	 73.4211 	 
C 	 9.91514 	 -6.13797 	 74.6967 	 
C 	 9.77145 	 -4.86532 	 74.2042 	 
C 	 9.77711 	 -4.83862 	 72.7716 	 
C 	 9.94819 	 -6.11216 	 72.2514 	 
H 	 9.51088 	 -3.98311 	 72.1512 	 
C 	 9.38586 	 -3.66322 	 75.0175 	 
H 	 8.36066 	 -3.79753 	 75.2475 	 
H 	 9.48635 	 -2.72807 	 74.5057 	 
C 	 10.1907 	 -3.50718 	 76.327 	 
H 	 9.94687 	 -4.34776 	 77.0495 	 
H 	 11.2274 	 -3.67504 	 76.0884 	 
C 	 10.0165 	 -2.17608 	 77.0701 	 
H 	 10.766 	 -1.43211 	 76.7014 	 
H 	 8.96638 	 -1.92321 	 77.0728 	 
H 	 10.154 	 -2.36301 	 78.1313 	 
S 	 11.5515 	 -7.17863 	 70.2858 	 
C 	 11.0657 	 -7.07109 	 68.6326 	 
C 	 9.84077 	 -6.37499 	 68.5064 	 
C 	 9.26743 	 -6.03083 	 69.7885 	 
C 	 10.0917 	 -6.3422 	 70.8297 	 
H 	 9.40303 	 -6.16406 	 67.5002 	 
C 	 7.8867 	 -5.47414 	 70.0002 	 
H 	 7.51595 	 -5.13476 	 69.015 	 
H 	 7.91123 	 -4.51141 	 70.511 	 
C 	 6.8722 	 -6.46187 	 70.6191 	 
H 	 7.09199 	 -6.68642 	 71.6911 	 
H 	 6.884 	 -7.41581 	 70.1095 	 
C 	 5.44012 	 -5.93168 	 70.5862 	 
H 	 5.10203 	 -5.7876 	 69.5727 	 
H 	 5.24409 	 -4.93311 	 71.0717 	 
H 	 4.71143 	 -6.67709 	 70.9001 	 
H 	 9.94941 	 -6.32122 	 75.7645 	 
H 	 11.4959 	 -7.4953 	 67.7432 	 
*
