! wB97X-D3 SP def2-SVP
%pal
nprocs 16
end

* xyz 0 1
S 	 -101.241 	 40.9177 	 124.461 	 
C 	 -99.9559 	 39.8496 	 125.109 	 
C 	 -98.9655 	 40.613 	 125.728 	 
C 	 -99.3247 	 41.9757 	 125.909 	 
C 	 -100.561 	 42.3369 	 125.363 	 
H 	 -98.7083 	 42.6742 	 126.451 	 
C 	 -97.7633 	 40.0973 	 126.327 	 
H 	 -98.0814 	 39.5456 	 127.191 	 
H 	 -97.1453 	 40.9261 	 126.568 	 
C 	 -96.9048 	 39.219 	 125.419 	 
H 	 -97.4811 	 38.4089 	 124.983 	 
H 	 -96.6843 	 39.8814 	 124.56 	 
C 	 -95.566 	 38.7875 	 125.905 	 
H 	 -95.4942 	 37.9293 	 126.589 	 
H 	 -94.9852 	 38.4891 	 125.042 	 
H 	 -95.0413 	 39.6569 	 126.354 	 
S 	 -102.832 	 43.6064 	 125.928 	 
C 	 -102.943 	 45.3345 	 125.826 	 
C 	 -101.739 	 45.9365 	 125.355 	 
C 	 -100.747 	 44.9108 	 125.182 	 
C 	 -101.184 	 43.6619 	 125.355 	 
H 	 -101.737 	 47.0147 	 125.098 	 
C 	 -99.2833 	 45.2524 	 124.744 	 
H 	 -98.5319 	 44.6686 	 125.309 	 
H 	 -99.0185 	 46.27 	 124.729 	 
C 	 -99.0558 	 44.8114 	 123.335 	 
H 	 -99.6578 	 45.2374 	 122.58 	 
H 	 -99.1063 	 43.7415 	 123.334 	 
C 	 -97.71 	 45.2202 	 122.805 	 
H 	 -96.824 	 44.7797 	 123.361 	 
H 	 -97.4752 	 46.311 	 122.739 	 
H 	 -97.6891 	 44.7751 	 121.784 	 
H 	 -99.8846 	 38.8048 	 124.854 	 
H 	 -103.822 	 45.9493 	 125.91 	 
*
