! wB97X-D3 SP def2-SVP
%pal
nprocs 16
end

* xyz 0 1
S 	 4.22798 	 15.8818 	 48.0679 	 
C 	 3.45514 	 14.4051 	 48.7154 	 
C 	 2.76118 	 14.6395 	 49.8496 	 
C 	 2.53675 	 16.0555 	 50.0783 	 
C 	 3.36521 	 16.8146 	 49.2731 	 
H 	 1.93669 	 16.6457 	 50.8296 	 
C 	 1.92879 	 13.5926 	 50.6268 	 
H 	 1.63557 	 12.7672 	 49.9799 	 
H 	 1.05703 	 14.1076 	 50.9846 	 
C 	 2.54815 	 12.9828 	 51.8667 	 
H 	 3.58405 	 12.6345 	 51.6495 	 
H 	 2.84548 	 13.6991 	 52.4677 	 
C 	 1.59552 	 11.9517 	 52.6116 	 
H 	 1.65122 	 11.049 	 51.9267 	 
H 	 1.959 	 11.7692 	 53.6224 	 
H 	 0.578744 	 12.4302 	 52.6724 	 
S 	 4.09389 	 18.8992 	 50.9257 	 
C 	 4.15063 	 20.5322 	 50.3729 	 
C 	 4.00687 	 20.5508 	 48.9847 	 
C 	 3.7552 	 19.2832 	 48.3837 	 
C 	 3.60669 	 18.2697 	 49.352 	 
H 	 3.97445 	 21.4215 	 48.3898 	 
C 	 3.40836 	 19.2398 	 46.9136 	 
H 	 2.34829 	 19.1364 	 46.8724 	 
H 	 3.62281 	 18.2068 	 46.7204 	 
C 	 4.01263 	 20.1418 	 45.8178 	 
H 	 3.79522 	 21.1695 	 46.0195 	 
H 	 3.33185 	 19.999 	 44.9832 	 
C 	 5.55491 	 20.0633 	 45.6348 	 
H 	 5.989 	 20.6277 	 44.8056 	 
H 	 5.82115 	 18.9939 	 45.3145 	 
H 	 6.09514 	 20.3282 	 46.5447 	 
H 	 3.31961 	 13.452 	 48.2109 	 
H 	 4.21604 	 21.4429 	 50.8991 	 
*
