! wB97X-D3 SP def2-SVP
%pal
nprocs 16
end

* xyz 0 1
S 	 40.6953 	 31.2003 	 53.6732 	 
C 	 41.0097 	 32.9294 	 53.9629 	 
C 	 39.9307 	 33.6724 	 53.5709 	 
C 	 38.948 	 32.8863 	 52.9287 	 
C 	 39.1604 	 31.5084 	 52.8442 	 
H 	 38.0191 	 33.3254 	 52.5583 	 
C 	 39.8253 	 35.2241 	 53.5793 	 
H 	 40.0202 	 35.6532 	 54.5669 	 
H 	 38.853 	 35.4773 	 53.1933 	 
C 	 40.7656 	 35.9398 	 52.5779 	 
H 	 40.5821 	 36.993 	 52.4913 	 
H 	 41.8075 	 35.974 	 52.7977 	 
C 	 40.6901 	 35.391 	 51.1456 	 
H 	 39.82 	 35.7193 	 50.6374 	 
H 	 41.5494 	 35.7042 	 50.533 	 
H 	 40.6046 	 34.2747 	 51.0985 	 
S 	 39.1244 	 29.219 	 51.4516 	 
C 	 37.6351 	 28.7711 	 50.6619 	 
C 	 36.5624 	 29.5719 	 51.0183 	 
C 	 36.9194 	 30.6068 	 51.8706 	 
C 	 38.3167 	 30.5697 	 52.1246 	 
H 	 35.5738 	 29.2968 	 50.6991 	 
C 	 35.7613 	 31.5314 	 52.3181 	 
H 	 35.8875 	 32.5357 	 51.8529 	 
H 	 35.817 	 31.4913 	 53.4744 	 
C 	 34.3464 	 31.2097 	 51.6935 	 
H 	 33.9508 	 30.2225 	 52.0022 	 
H 	 34.4098 	 31.1708 	 50.6038 	 
C 	 33.2113 	 32.1792 	 52.0985 	 
H 	 32.3383 	 31.7639 	 51.6212 	 
H 	 33.4414 	 33.2018 	 51.7175 	 
H 	 33.0782 	 32.2329 	 53.1162 	 
H 	 41.8487 	 33.2804 	 54.4581 	 
H 	 37.6443 	 27.8838 	 49.9953 	 
*
