! wB97X-D3 SP def2-SVP
%pal
nprocs 16
end

* xyz 0 1
S 	 -37.5563 	 61.8195 	 110.874 	 
C 	 -36.2028 	 61.7909 	 111.873 	 
C 	 -35.0332 	 61.6712 	 111.177 	 
C 	 -35.2419 	 61.7947 	 109.741 	 
C 	 -36.6292 	 61.7954 	 109.443 	 
H 	 -34.4426 	 61.7323 	 109.028 	 
C 	 -33.6474 	 61.7079 	 111.914 	 
H 	 -32.8735 	 61.6375 	 111.209 	 
H 	 -33.5879 	 60.8164 	 112.488 	 
C 	 -33.274 	 63.061 	 112.645 	 
H 	 -33.9879 	 63.297 	 113.44 	 
H 	 -32.375 	 62.9138 	 113.252 	 
C 	 -33.2845 	 64.2544 	 111.705 	 
H 	 -32.9059 	 65.1055 	 112.218 	 
H 	 -32.7179 	 64.1142 	 110.812 	 
H 	 -34.2649 	 64.5526 	 111.425 	 
S 	 -36.0598 	 61.6811 	 106.854 	 
C 	 -37.0925 	 62.2998 	 105.585 	 
C 	 -38.3189 	 62.5733 	 106.136 	 
C 	 -38.4198 	 62.4226 	 107.571 	 
C 	 -37.1718 	 62.0416 	 108.122 	 
H 	 -39.0245 	 62.9211 	 105.479 	 
C 	 -39.7433 	 62.7504 	 108.234 	 
H 	 -40.044 	 63.7445 	 107.948 	 
H 	 -39.6181 	 62.6541 	 109.305 	 
C 	 -40.8342 	 61.8793 	 107.644 	 
H 	 -40.633 	 60.7932 	 107.734 	 
H 	 -40.8061 	 62.0249 	 106.553 	 
C 	 -42.3129 	 62.3272 	 108.076 	 
H 	 -42.3134 	 63.3311 	 107.883 	 
H 	 -42.3558 	 62.1265 	 109.138 	 
H 	 -43.0425 	 61.6619 	 107.589 	 
H 	 -36.1117 	 61.8134 	 112.953 	 
H 	 -36.9043 	 62.4923 	 104.502 	 
*
