! wB97X-D3 SP def2-SVP
%pal
nprocs 16
end

* xyz 0 1
S 	 43.3292 	 10.0314 	 88.0539 	 
C 	 44.9084 	 10.5559 	 88.484 	 
C 	 45.5339 	 9.58067 	 89.1958 	 
C 	 44.8122 	 8.38034 	 89.3411 	 
C 	 43.5349 	 8.41265 	 88.7559 	 
H 	 45.087 	 7.48672 	 89.9102 	 
C 	 46.9842 	 9.69791 	 89.679 	 
H 	 47.072 	 8.89657 	 90.4411 	 
H 	 46.9772 	 10.6726 	 90.1901 	 
C 	 48.0666 	 9.55283 	 88.6366 	 
H 	 48.0584 	 10.4432 	 87.9443 	 
H 	 48.9453 	 9.65259 	 89.2164 	 
C 	 48.2242 	 8.19081 	 87.9139 	 
H 	 47.3582 	 7.70853 	 87.5397 	 
H 	 48.9345 	 8.29983 	 87.0974 	 
H 	 48.6227 	 7.41824 	 88.573 	 
S 	 41.0148 	 8.11855 	 89.5658 	 
C 	 40.3311 	 6.44552 	 89.8305 	 
C 	 41.2486 	 5.47048 	 89.2981 	 
C 	 42.469 	 6.04579 	 88.8113 	 
C 	 42.4805 	 7.44065 	 88.8843 	 
H 	 40.9027 	 4.41233 	 89.2883 	 
C 	 43.481 	 5.1652 	 88.1184 	 
H 	 43.4799 	 4.15967 	 88.4687 	 
H 	 44.5109 	 5.53682 	 88.3082 	 
C 	 43.2757 	 5.08891 	 86.6012 	 
H 	 43.2502 	 6.11011 	 86.2424 	 
H 	 42.3081 	 4.71455 	 86.2552 	 
C 	 44.3887 	 4.40647 	 85.7415 	 
H 	 44.1051 	 4.50877 	 84.7212 	 
H 	 44.4646 	 3.39738 	 86.0664 	 
H 	 45.336 	 4.71585 	 86.0034 	 
H 	 45.2898 	 11.5814 	 88.434 	 
H 	 39.3575 	 6.23442 	 90.1675 	 
*
