! wB97X-D3 SP def2-SVP
%pal
nprocs 16
end

* xyz 0 1
S 	 5.49957 	 21.5593 	 40.5684 	 
C 	 5.79309 	 20.0352 	 39.8187 	 
C 	 6.79682 	 20.0971 	 38.9058 	 
C 	 7.23152 	 21.4412 	 38.7593 	 
C 	 6.6438 	 22.3755 	 39.6114 	 
H 	 7.99774 	 21.7184 	 38.1376 	 
C 	 7.44069 	 18.9293 	 38.0953 	 
H 	 6.79691 	 17.9871 	 38.1855 	 
H 	 8.34812 	 18.8234 	 38.6225 	 
C 	 7.71789 	 19.2112 	 36.6034 	 
H 	 6.82688 	 19.3788 	 36.0778 	 
H 	 8.35438 	 20.0594 	 36.4904 	 
C 	 8.26337 	 17.9874 	 35.8517 	 
H 	 8.48754 	 18.3482 	 34.8296 	 
H 	 9.23326 	 17.5542 	 36.3313 	 
H 	 7.54663 	 17.2371 	 35.5936 	 
S 	 7.40493 	 24.3819 	 41.2943 	 
C 	 8.06431 	 25.9174 	 40.6852 	 
C 	 7.85147 	 26.0163 	 39.2885 	 
C 	 7.24715 	 24.8327 	 38.744 	 
C 	 6.98757 	 23.8301 	 39.685 	 
H 	 8.32807 	 26.9063 	 38.7339 	 
C 	 7.12921 	 24.6661 	 37.1775 	 
H 	 6.60098 	 25.5049 	 36.7343 	 
H 	 6.47069 	 23.7734 	 37.0107 	 
C 	 8.47565 	 24.424 	 36.4979 	 
H 	 8.83293 	 23.4276 	 36.7993 	 
H 	 9.13447 	 25.1888 	 36.8098 	 
C 	 8.41753 	 24.3419 	 34.9746 	 
H 	 7.54442 	 23.7604 	 34.6211 	 
H 	 9.34342 	 23.8435 	 34.6167 	 
H 	 8.44204 	 25.335 	 34.5411 	 
H 	 5.37083 	 19.0992 	 40.1838 	 
H 	 8.45752 	 26.7653 	 41.2357 	 
*
