! wB97X-D3 SP def2-SVP
%pal
nprocs 16
end

* xyz 0 1
S 	 -37.0498 	 2.6714 	 98.2326 	 
C 	 -35.3172 	 3.02728 	 98.1305 	 
C 	 -34.84 	 2.59699 	 96.8743 	 
C 	 -35.8727 	 2.18973 	 96.0183 	 
C 	 -37.1443 	 2.02926 	 96.5972 	 
H 	 -35.8105 	 1.93138 	 94.9887 	 
C 	 -33.4306 	 2.97244 	 96.37 	 
H 	 -32.9809 	 2.08582 	 95.8256 	 
H 	 -32.7779 	 3.15323 	 97.2444 	 
C 	 -33.5488 	 4.2312 	 95.486 	 
H 	 -34.4516 	 4.23839 	 94.9435 	 
H 	 -33.7405 	 5.15719 	 96.0845 	 
C 	 -32.2856 	 4.30308 	 94.5456 	 
H 	 -31.3076 	 4.0195 	 95.1252 	 
H 	 -32.3838 	 3.63155 	 93.7341 	 
H 	 -32.2182 	 5.36909 	 94.1767 	 
S 	 -39.8236 	 1.73335 	 96.8579 	 
C 	 -40.6623 	 0.314381 	 96.3104 	 
C 	 -39.8568 	 -0.366569 	 95.4173 	 
C 	 -38.4681 	 -0.000644909 	 95.4488 	 
C 	 -38.281 	 1.15461 	 96.2538 	 
H 	 -40.2623 	 -1.26655 	 94.9777 	 
C 	 -37.4681 	 -0.590969 	 94.507 	 
H 	 -36.4881 	 -0.201186 	 94.6361 	 
H 	 -37.7895 	 -0.418787 	 93.5126 	 
C 	 -37.3602 	 -2.07275 	 94.7465 	 
H 	 -36.7836 	 -2.45834 	 93.9254 	 
H 	 -38.2938 	 -2.55963 	 94.6978 	 
C 	 -36.7 	 -2.52248 	 96.0807 	 
H 	 -37.4227 	 -2.40264 	 96.9013 	 
H 	 -35.8082 	 -1.92481 	 96.1843 	 
H 	 -36.3547 	 -3.57543 	 95.9808 	 
H 	 -34.6322 	 3.61204 	 98.7676 	 
H 	 -41.6086 	 -0.0564209 	 96.7054 	 
*
