! wB97X-D3 SP def2-SVP
%pal
nprocs 16
end

* xyz 0 1
S 	 16.1474 	 29.4202 	 64.7344 	 
C 	 16.6837 	 30.6125 	 63.6137 	 
C 	 17.4621 	 31.5621 	 64.2362 	 
C 	 17.7448 	 31.253 	 65.5888 	 
C 	 17.0436 	 30.1638 	 66.0551 	 
H 	 18.2907 	 31.8739 	 66.3292 	 
C 	 18.2699 	 32.7237 	 63.5345 	 
H 	 18.3682 	 32.4978 	 62.5358 	 
H 	 19.2622 	 32.64 	 63.973 	 
C 	 17.6619 	 34.0973 	 63.8362 	 
H 	 16.5846 	 34.0644 	 63.73 	 
H 	 17.75 	 34.235 	 64.9009 	 
C 	 18.2359 	 35.1978 	 63.0851 	 
H 	 18.1285 	 36.1698 	 63.5739 	 
H 	 19.3327 	 35.0536 	 62.9713 	 
H 	 17.7981 	 35.2085 	 62.0526 	 
S 	 15.4692 	 29.8736 	 68.2091 	 
C 	 16.0698 	 29.1431 	 69.6184 	 
C 	 17.4058 	 28.9337 	 69.581 	 
C 	 17.9756 	 29.3308 	 68.2814 	 
C 	 16.9712 	 29.6219 	 67.4041 	 
H 	 18.0054 	 28.5909 	 70.387 	 
C 	 19.4944 	 29.0493 	 67.9888 	 
H 	 19.7172 	 29.2495 	 67.0052 	 
H 	 19.5513 	 27.9563 	 68.0924 	 
C 	 20.4872 	 29.7766 	 68.9226 	 
H 	 21.4367 	 29.3135 	 68.7055 	 
H 	 20.2716 	 29.7182 	 69.9731 	 
C 	 20.6089 	 31.2547 	 68.565 	 
H 	 20.8823 	 31.4755 	 67.5501 	 
H 	 21.4489 	 31.5734 	 69.1572 	 
H 	 19.7687 	 31.8858 	 68.7788 	 
H 	 16.3365 	 30.5127 	 62.5653 	 
H 	 15.4772 	 29.044 	 70.5205 	 
*
