! wB97X-D3 SP def2-SVP
%pal
nprocs 16
end

* xyz 0 1
S 	 -10.6154 	 48.2332 	 40.6773 	 
C 	 -11.7479 	 48.6981 	 41.9092 	 
C 	 -11.0829 	 49.2559 	 42.9701 	 
C 	 -9.69214 	 49.1185 	 42.9003 	 
C 	 -9.25888 	 48.7016 	 41.6751 	 
H 	 -8.94934 	 49.4846 	 43.6589 	 
C 	 -11.768 	 49.8151 	 44.2076 	 
H 	 -11.4989 	 49.1083 	 45.0199 	 
H 	 -12.8107 	 49.468 	 44.1464 	 
C 	 -11.5961 	 51.3025 	 44.469 	 
H 	 -11.8539 	 51.5688 	 45.4777 	 
H 	 -10.5303 	 51.5306 	 44.2645 	 
C 	 -12.5554 	 52.0944 	 43.619 	 
H 	 -12.317 	 51.911 	 42.5696 	 
H 	 -13.5895 	 51.9017 	 43.8521 	 
H 	 -12.4273 	 53.1751 	 43.8143 	 
S 	 -7.04185 	 47.3019 	 42.1271 	 
C 	 -5.60393 	 47.5467 	 41.1656 	 
C 	 -5.91639 	 48.4151 	 40.1612 	 
C 	 -7.19464 	 49.0917 	 40.2878 	 
C 	 -7.94742 	 48.4668 	 41.2635 	 
H 	 -5.11995 	 48.4787 	 39.3843 	 
C 	 -7.696 	 50.2594 	 39.3884 	 
H 	 -6.90141 	 51.0419 	 39.2638 	 
H 	 -8.56383 	 50.6963 	 39.988 	 
C 	 -8.24535 	 49.8207 	 38.0258 	 
H 	 -9.10491 	 49.2083 	 38.1445 	 
H 	 -7.41023 	 49.333 	 37.5098 	 
C 	 -8.67301 	 50.9931 	 37.1456 	 
H 	 -9.4875 	 51.5351 	 37.61 	 
H 	 -9.08499 	 50.7134 	 36.1111 	 
H 	 -7.80203 	 51.6662 	 37.0714 	 
H 	 -12.8428 	 48.6018 	 41.8885 	 
H 	 -4.69457 	 47.0242 	 41.2297 	 
*
