! wB97X-D3 SP def2-SVP
%pal
nprocs 16
end

* xyz 0 1
S 	 -3.61658 	 31.1042 	 37.8784 	 
C 	 -2.82277 	 30.1557 	 36.601 	 
C 	 -1.70389 	 29.5096 	 37.0392 	 
C 	 -1.46349 	 29.8155 	 38.4319 	 
C 	 -2.32057 	 30.7499 	 38.9878 	 
H 	 -0.625409 	 29.4858 	 38.9275 	 
C 	 -0.798325 	 28.607 	 36.2766 	 
H 	 -0.134591 	 28.1097 	 36.9152 	 
H 	 -0.226121 	 29.2688 	 35.6597 	 
C 	 -1.53643 	 27.562 	 35.4521 	 
H 	 -1.75394 	 26.6834 	 36.1404 	 
H 	 -2.48754 	 27.9485 	 35.0017 	 
C 	 -0.733524 	 27.0904 	 34.2479 	 
H 	 0.284497 	 26.8074 	 34.5035 	 
H 	 -1.28771 	 26.3129 	 33.7977 	 
H 	 -0.616557 	 27.9887 	 33.6018 	 
S 	 -2.41863 	 30.1039 	 41.6097 	 
C 	 -2.01223 	 31.2615 	 42.8182 	 
C 	 -1.73939 	 32.5273 	 42.304 	 
C 	 -1.93585 	 32.5316 	 40.8489 	 
C 	 -2.28067 	 31.2495 	 40.3543 	 
H 	 -1.47174 	 33.3532 	 42.855 	 
C 	 -1.79399 	 33.7972 	 40.0028 	 
H 	 -2.73054 	 34.1268 	 39.5121 	 
H 	 -1.11238 	 33.614 	 39.093 	 
C 	 -1.09452 	 34.9531 	 40.7653 	 
H 	 -0.141536 	 34.6809 	 41.0595 	 
H 	 -1.50977 	 35.0016 	 41.6916 	 
C 	 -1.1718 	 36.369 	 40.1516 	 
H 	 -2.22407 	 36.6554 	 39.9699 	 
H 	 -0.603954 	 36.4998 	 39.2307 	 
H 	 -0.854957 	 37.1236 	 40.8196 	 
H 	 -3.34188 	 29.928 	 35.7187 	 
H 	 -1.81541 	 31.0446 	 43.897 	 
*
