! wB97X-D3 SP def2-SVP
%pal
nprocs 16
end

* xyz 0 1
S 	 -44.2241 	 28.2513 	 76.1917 	 
C 	 -44.8674 	 29.4709 	 75.1245 	 
C 	 -45.0946 	 30.66 	 75.7544 	 
C 	 -44.9135 	 30.5045 	 77.2081 	 
C 	 -44.5379 	 29.2723 	 77.6815 	 
H 	 -44.9956 	 31.2594 	 77.9978 	 
C 	 -45.5987 	 31.9485 	 75.12 	 
H 	 -44.7011 	 32.2556 	 74.4641 	 
H 	 -45.6685 	 32.6014 	 76.0443 	 
C 	 -46.9035 	 32.0585 	 74.3403 	 
H 	 -46.9022 	 31.2046 	 73.6147 	 
H 	 -47.7322 	 31.7312 	 74.9399 	 
C 	 -47.1042 	 33.3591 	 73.6072 	 
H 	 -47.8823 	 33.48 	 72.863 	 
H 	 -47.4634 	 33.9985 	 74.3757 	 
H 	 -46.177 	 33.8054 	 73.1427 	 
S 	 -42.8355 	 29.6322 	 79.7388 	 
C 	 -43.0202 	 28.5729 	 81.1392 	 
C 	 -44.072 	 27.6728 	 81.0829 	 
C 	 -44.7221 	 27.7236 	 79.7861 	 
C 	 -44.1959 	 28.7644 	 78.9979 	 
H 	 -44.3736 	 27.016 	 81.8428 	 
C 	 -45.8952 	 26.8205 	 79.3857 	 
H 	 -45.59 	 25.8857 	 79.728 	 
H 	 -45.9145 	 26.7772 	 78.2589 	 
C 	 -47.2233 	 27.1732 	 79.9287 	 
H 	 -47.4765 	 28.2365 	 79.763 	 
H 	 -47.0547 	 27.0219 	 80.9958 	 
C 	 -48.3384 	 26.2306 	 79.4377 	 
H 	 -48.0471 	 25.1728 	 79.7387 	 
H 	 -48.4999 	 26.1306 	 78.3375 	 
H 	 -49.3443 	 26.4153 	 79.829 	 
H 	 -44.9858 	 29.2461 	 74.1107 	 
H 	 -42.4595 	 28.6109 	 82.0715 	 
*
