! wB97X-D3 SP def2-SVP
%pal
nprocs 16
end

* xyz 0 1
S 	 -22.4579 	 34.6831 	 37.8406 	 
C 	 -20.826 	 33.9011 	 37.7611 	 
C 	 -20.7138 	 32.8232 	 38.6919 	 
C 	 -21.7612 	 32.7763 	 39.6206 	 
C 	 -22.7494 	 33.6912 	 39.3007 	 
H 	 -21.7776 	 32.2642 	 40.5834 	 
C 	 -19.5688 	 31.8809 	 38.9195 	 
H 	 -19.6875 	 31.4329 	 39.9635 	 
H 	 -18.7084 	 32.5252 	 38.9648 	 
C 	 -19.4911 	 30.6761 	 37.993 	 
H 	 -20.3461 	 29.972 	 38.0778 	 
H 	 -19.4892 	 31.0332 	 36.95 	 
C 	 -18.3048 	 29.8262 	 38.4084 	 
H 	 -18.3281 	 29.7087 	 39.4596 	 
H 	 -18.2086 	 28.8518 	 37.9104 	 
H 	 -17.3844 	 30.3167 	 38.0444 	 
S 	 -25.483 	 34.0509 	 39.0794 	 
C 	 -26.3857 	 34.3999 	 40.5015 	 
C 	 -25.6042 	 34.2771 	 41.6422 	 
C 	 -24.252 	 34.0403 	 41.3586 	 
C 	 -23.9665 	 33.9493 	 40.0353 	 
H 	 -26.0752 	 34.5271 	 42.5812 	 
C 	 -23.2445 	 34.0055 	 42.4808 	 
H 	 -23.4259 	 34.9744 	 43.0379 	 
H 	 -22.2064 	 34.0911 	 42.0542 	 
C 	 -23.4231 	 32.8583 	 43.5103 	 
H 	 -23.4433 	 31.8914 	 43.0352 	 
H 	 -24.4557 	 33.0206 	 43.9851 	 
C 	 -22.4189 	 32.922 	 44.6507 	 
H 	 -21.3937 	 32.7687 	 44.3466 	 
H 	 -22.6106 	 32.1298 	 45.3696 	 
H 	 -22.4317 	 33.8465 	 45.2919 	 
H 	 -20.0157 	 34.1677 	 37.1277 	 
H 	 -27.4165 	 34.6771 	 40.6016 	 
*
