! wB97X-D3 SP def2-SVP
%pal
nprocs 16
end

* xyz 0 1
S 	 48.3444 	 11.0382 	 51.7811 	 
C 	 47.5327 	 9.9763 	 50.6201 	 
C 	 47.6357 	 10.5044 	 49.3244 	 
C 	 48.5445 	 11.6007 	 49.268 	 
C 	 49.0445 	 11.9131 	 50.4822 	 
H 	 48.8204 	 12.1366 	 48.3421 	 
C 	 46.8024 	 10.1103 	 48.1631 	 
H 	 46.4703 	 9.12987 	 48.3906 	 
H 	 47.3821 	 10.1761 	 47.2209 	 
C 	 45.6776 	 10.9567 	 47.7951 	 
H 	 45.9858 	 12.0495 	 47.8823 	 
H 	 45.4262 	 10.7989 	 46.7562 	 
C 	 44.3203 	 10.695 	 48.5917 	 
H 	 44.4756 	 10.2602 	 49.5868 	 
H 	 43.8471 	 11.6796 	 48.6281 	 
H 	 43.6346 	 9.95299 	 48.0752 	 
S 	 51.3476 	 13.0232 	 51.3994 	 
C 	 51.6441 	 14.7301 	 51.3351 	 
C 	 50.5519 	 15.4401 	 50.9242 	 
C 	 49.5122 	 14.5519 	 50.5073 	 
C 	 49.7497 	 13.21 	 50.7279 	 
H 	 50.6005 	 16.508 	 50.924 	 
C 	 48.2918 	 15.2131 	 49.9531 	 
H 	 48.0727 	 14.6514 	 48.9652 	 
H 	 48.6132 	 16.1636 	 49.6293 	 
C 	 47.0828 	 15.4865 	 50.8662 	 
H 	 46.3208 	 16.0311 	 50.3069 	 
H 	 47.4464 	 16.0986 	 51.6589 	 
C 	 46.3758 	 14.1996 	 51.397 	 
H 	 45.563 	 14.4031 	 52.0873 	 
H 	 47.1573 	 13.5682 	 51.8096 	 
H 	 45.8968 	 13.6528 	 50.6311 	 
H 	 46.7227 	 9.31108 	 50.8545 	 
H 	 52.5965 	 15.1752 	 51.7199 	 
*
