! wB97X-D3 SP def2-SVP
%pal
nprocs 16
end

* xyz 0 1
S 	 -86.9829 	 47.1318 	 129.758 	 
C 	 -85.8812 	 46.1055 	 130.708 	 
C 	 -84.9652 	 45.4896 	 129.857 	 
C 	 -84.9283 	 46.0895 	 128.582 	 
C 	 -85.8386 	 47.1131 	 128.453 	 
H 	 -84.2055 	 45.8399 	 127.841 	 
C 	 -83.8019 	 44.5574 	 130.268 	 
H 	 -83.0714 	 44.813 	 129.509 	 
H 	 -84.1832 	 43.5917 	 129.984 	 
C 	 -83.3179 	 44.6857 	 131.677 	 
H 	 -84.1328 	 44.3235 	 132.349 	 
H 	 -82.5981 	 43.9221 	 131.94 	 
C 	 -82.7785 	 46.034 	 131.936 	 
H 	 -83.0414 	 46.0166 	 133 	 
H 	 -81.7018 	 46.2141 	 131.656 	 
H 	 -83.4577 	 46.8569 	 131.759 	 
S 	 -85.3594 	 49.7489 	 128.231 	 
C 	 -85.8185 	 50.5329 	 126.741 	 
C 	 -86 	 49.6391 	 125.708 	 
C 	 -86.0001 	 48.2755 	 126.127 	 
C 	 -85.8614 	 48.1869 	 127.495 	 
H 	 -86.2329 	 50.1021 	 124.744 	 
C 	 -86.174 	 47.0688 	 125.207 	 
H 	 -85.7171 	 46.1955 	 125.761 	 
H 	 -85.5565 	 47.2891 	 124.35 	 
C 	 -87.6294 	 46.691 	 124.83 	 
H 	 -87.6616 	 45.8191 	 124.155 	 
H 	 -88.0669 	 47.4726 	 124.247 	 
C 	 -88.5077 	 46.249 	 126.015 	 
H 	 -88.5457 	 47.117 	 126.653 	 
H 	 -88.0422 	 45.464 	 126.651 	 
H 	 -89.505 	 45.9993 	 125.708 	 
H 	 -85.9718 	 45.7301 	 131.655 	 
H 	 -86.0027 	 51.6515 	 126.647 	 
*
