! wB97X-D3 SP def2-SVP
%pal
nprocs 16
end

* xyz 0 1
S 	 -32.4627 	 60.963 	 107.931 	 
C 	 -33.1932 	 60.1199 	 109.291 	 
C 	 -34.0144 	 59.0768 	 108.889 	 
C 	 -34.1877 	 59.1187 	 107.437 	 
C 	 -33.4708 	 60.0844 	 106.764 	 
H 	 -34.6897 	 58.4239 	 106.78 	 
C 	 -34.5699 	 57.996 	 109.801 	 
H 	 -35.1086 	 57.2576 	 109.209 	 
H 	 -35.2622 	 58.4841 	 110.389 	 
C 	 -33.5968 	 57.1781 	 110.635 	 
H 	 -33.024 	 57.7902 	 111.262 	 
H 	 -34.2247 	 56.4583 	 111.298 	 
C 	 -32.5407 	 56.3944 	 109.834 	 
H 	 -31.9673 	 55.7638 	 110.535 	 
H 	 -33.0378 	 55.6388 	 109.167 	 
H 	 -31.8155 	 57.0054 	 109.2 	 
S 	 -31.8681 	 60.3419 	 104.642 	 
C 	 -32.5232 	 60.5239 	 103.032 	 
C 	 -33.9001 	 60.5904 	 103.048 	 
C 	 -34.4559 	 60.4342 	 104.355 	 
C 	 -33.425 	 60.3462 	 105.326 	 
H 	 -34.3726 	 60.706 	 102.075 	 
C 	 -35.9141 	 60.5861 	 104.633 	 
H 	 -36.1033 	 60.1904 	 105.632 	 
H 	 -36.5796 	 60.1316 	 103.934 	 
C 	 -36.2682 	 62.05 	 104.619 	 
H 	 -35.9173 	 62.4483 	 103.69 	 
H 	 -35.5567 	 62.4883 	 105.318 	 
C 	 -37.7757 	 62.3726 	 104.954 	 
H 	 -38.0385 	 61.851 	 105.821 	 
H 	 -38.4523 	 62.1247 	 104.135 	 
H 	 -37.9232 	 63.4184 	 105.231 	 
H 	 -32.8074 	 60.1777 	 110.291 	 
H 	 -32.0248 	 60.5359 	 102.088 	 
*
