! wB97X-D3 SP def2-SVP
%pal
nprocs 16
end

* xyz 0 1
S 	 35.2204 	 9.19935 	 85.1981 	 
C 	 36.097 	 8.23556 	 83.9966 	 
C 	 37.4155 	 8.54395 	 83.9011 	 
C 	 37.7974 	 9.38675 	 84.9906 	 
C 	 36.759 	 9.76109 	 85.8113 	 
H 	 38.8186 	 9.73867 	 85.1595 	 
C 	 38.3611 	 7.84408 	 82.9428 	 
H 	 39.1653 	 7.27102 	 83.538 	 
H 	 38.7947 	 8.6811 	 82.4392 	 
C 	 37.8417 	 6.73373 	 81.99 	 
H 	 37.5602 	 5.88845 	 82.6506 	 
H 	 36.9618 	 7.1057 	 81.4493 	 
C 	 38.9784 	 6.25662 	 81.0585 	 
H 	 38.7057 	 5.3609 	 80.5153 	 
H 	 39.3121 	 7.1013 	 80.3771 	 
H 	 39.8428 	 5.97257 	 81.6192 	 
S 	 36.0272 	 10.0423 	 88.5225 	 
C 	 36.6187 	 11.3867 	 89.3982 	 
C 	 37.4783 	 12.1666 	 88.7245 	 
C 	 37.6459 	 11.6937 	 87.3777 	 
C 	 36.9062 	 10.4808 	 87.107 	 
H 	 37.7664 	 13.1304 	 89.1741 	 
C 	 38.5834 	 12.3501 	 86.3809 	 
H 	 39.3296 	 11.6099 	 86.1243 	 
H 	 39.129 	 13.0802 	 86.9057 	 
C 	 37.9014 	 13.0782 	 85.3061 	 
H 	 37.1254 	 13.6828 	 85.5412 	 
H 	 37.4035 	 12.311 	 84.7211 	 
C 	 38.9381 	 13.8755 	 84.4817 	 
H 	 39.0653 	 14.8454 	 84.9851 	 
H 	 38.4652 	 14.2314 	 83.5481 	 
H 	 39.9192 	 13.386 	 84.2566 	 
H 	 35.6728 	 7.40148 	 83.4981 	 
H 	 36.1483 	 11.743 	 90.3181 	 
*
