! wB97X-D3 SP def2-SVP
%pal
nprocs 16
end

* xyz 0 1
S 	 65.4483 	 18.2275 	 73.8603 	 
C 	 66.1442 	 17.74 	 72.398 	 
C 	 67.3623 	 17.1571 	 72.6427 	 
C 	 67.6961 	 17.0042 	 74.0492 	 
C 	 66.804 	 17.7038 	 74.8452 	 
H 	 68.5975 	 16.6067 	 74.5301 	 
C 	 68.306 	 16.6491 	 71.5378 	 
H 	 67.7109 	 16.6515 	 70.5458 	 
H 	 68.5251 	 15.6464 	 71.8865 	 
C 	 69.6224 	 17.5016 	 71.4656 	 
H 	 70.1317 	 17.1975 	 72.2589 	 
H 	 70.2317 	 17.1245 	 70.6374 	 
C 	 69.53 	 19.0321 	 71.3193 	 
H 	 69.4701 	 19.3617 	 70.2647 	 
H 	 68.7256 	 19.4211 	 71.9463 	 
H 	 70.3315 	 19.6491 	 71.7858 	 
S 	 65.2948 	 17.8406 	 77.218 	 
C 	 66.1154 	 17.9368 	 78.7289 	 
C 	 67.4569 	 17.9205 	 78.5522 	 
C 	 67.8427 	 17.7859 	 77.1973 	 
C 	 66.8158 	 17.8605 	 76.2977 	 
H 	 68.2196 	 18.0268 	 79.35 	 
C 	 69.3464 	 17.9798 	 76.8427 	 
H 	 69.7066 	 18.7053 	 77.5267 	 
H 	 69.4218 	 18.5506 	 75.8748 	 
C 	 70.2634 	 16.727 	 76.8401 	 
H 	 69.8106 	 15.9493 	 76.2215 	 
H 	 70.229 	 16.2159 	 77.7701 	 
C 	 71.6689 	 17.1124 	 76.3228 	 
H 	 71.6985 	 17.129 	 75.2945 	 
H 	 72.4592 	 16.3677 	 76.5091 	 
H 	 72.1555 	 17.9532 	 76.7317 	 
H 	 65.846 	 18.0718 	 71.3661 	 
H 	 65.5865 	 17.8694 	 79.6684 	 
*
