! wB97X-D3 SP def2-SVP
%pal
nprocs 16
end

* xyz 0 1
S 	 -18.9089 	 -0.187437 	 77.2261 	 
C 	 -17.3768 	 0.171025 	 76.6235 	 
C 	 -16.3377 	 -0.100031 	 77.5078 	 
C 	 -16.8173 	 -0.798831 	 78.6645 	 
C 	 -18.1593 	 -1.07594 	 78.6151 	 
H 	 -16.2364 	 -1.16209 	 79.4151 	 
C 	 -14.8696 	 0.294776 	 77.2575 	 
H 	 -14.8156 	 0.759391 	 76.2515 	 
H 	 -14.3494 	 -0.711262 	 77.2899 	 
C 	 -14.2759 	 1.23952 	 78.2717 	 
H 	 -14.5827 	 2.31031 	 78.1227 	 
H 	 -14.633 	 0.994888 	 79.2519 	 
C 	 -12.7201 	 1.1823 	 78.2899 	 
H 	 -12.4069 	 0.171182 	 78.4781 	 
H 	 -12.3577 	 1.42198 	 77.352 	 
H 	 -12.1789 	 1.86618 	 78.9527 	 
S 	 -20.4969 	 -1.14892 	 80.138 	 
C 	 -20.7344 	 -2.52634 	 81.1794 	 
C 	 -19.7661 	 -3.46564 	 81.0051 	 
C 	 -18.7395 	 -3.11996 	 80.0875 	 
C 	 -19.0402 	 -1.89269 	 79.4948 	 
H 	 -19.8227 	 -4.34893 	 81.6475 	 
C 	 -17.6482 	 -4.08729 	 79.683 	 
H 	 -16.8401 	 -4.14135 	 80.3518 	 
H 	 -17.3038 	 -3.47838 	 78.8436 	 
C 	 -18.1898 	 -5.47277 	 79.2416 	 
H 	 -19.0399 	 -5.46222 	 78.541 	 
H 	 -18.4663 	 -5.88853 	 80.1923 	 
C 	 -17.047 	 -6.17172 	 78.5879 	 
H 	 -17.1107 	 -7.29852 	 78.7145 	 
H 	 -16.1234 	 -5.93516 	 79.0052 	 
H 	 -16.9751 	 -5.97499 	 77.4448 	 
H 	 -17.2353 	 0.698729 	 75.6765 	 
H 	 -21.6363 	 -2.85331 	 81.7433 	 
*
