! wB97X-D3 SP def2-SVP
%pal
nprocs 16
end

* xyz 0 1
S 	 52.076 	 4.98177 	 80.8294 	 
C 	 53.1429 	 3.54366 	 80.8653 	 
C 	 53.1022 	 2.94913 	 82.1354 	 
C 	 52.1828 	 3.61855 	 83.0125 	 
C 	 51.4626 	 4.68419 	 82.4519 	 
H 	 51.9786 	 3.28237 	 83.9251 	 
C 	 53.7916 	 1.59633 	 82.4226 	 
H 	 53.5305 	 1.39465 	 83.438 	 
H 	 54.8567 	 1.7503 	 82.3658 	 
C 	 53.6327 	 0.41275 	 81.4402 	 
H 	 52.5664 	 0.012674 	 81.3962 	 
H 	 53.9373 	 0.733298 	 80.4543 	 
C 	 54.3658 	 -0.931925 	 81.7721 	 
H 	 55.4167 	 -0.663745 	 81.8086 	 
H 	 54.0364 	 -1.45052 	 82.7199 	 
H 	 54.2689 	 -1.65799 	 80.9779 	 
S 	 50.6755 	 5.81617 	 84.8045 	 
C 	 49.0852 	 6.51808 	 84.907 	 
C 	 48.4102 	 6.60904 	 83.6647 	 
C 	 49.1623 	 5.94392 	 82.5627 	 
C 	 50.3565 	 5.37507 	 83.1249 	 
H 	 47.468 	 7.17672 	 83.5977 	 
C 	 48.7514 	 5.9614 	 81.1304 	 
H 	 47.6828 	 5.70044 	 81.0542 	 
H 	 49.2123 	 5.17388 	 80.6193 	 
C 	 48.9792 	 7.31175 	 80.4678 	 
H 	 50.015 	 7.65277 	 80.5154 	 
H 	 48.3213 	 8.08109 	 80.945 	 
C 	 48.6483 	 7.24326 	 78.9918 	 
H 	 47.5817 	 7.2307 	 78.8374 	 
H 	 49.1373 	 6.42587 	 78.4919 	 
H 	 48.9438 	 8.13778 	 78.5197 	 
H 	 53.7135 	 3.18831 	 80.0871 	 
H 	 48.6476 	 7.01236 	 85.8375 	 
*
