! wB97X-D3 SP def2-SVP
%pal
nprocs 16
end

* xyz 0 1
S 	 -68.4349 	 53.0711 	 137.419 	 
C 	 -68.8046 	 54.0214 	 138.811 	 
C 	 -70.2179 	 54.1853 	 138.985 	 
C 	 -70.9696 	 53.6937 	 137.91 	 
C 	 -70.1695 	 53.0528 	 136.947 	 
H 	 -72.0375 	 53.7373 	 137.714 	 
C 	 -70.8189 	 54.9688 	 140.093 	 
H 	 -71.8681 	 55.0338 	 140.037 	 
H 	 -70.4286 	 55.9614 	 139.99 	 
C 	 -70.5383 	 54.366 	 141.519 	 
H 	 -71.4232 	 53.7514 	 141.691 	 
H 	 -69.6945 	 53.763 	 141.605 	 
C 	 -70.4709 	 55.4515 	 142.672 	 
H 	 -70.552 	 54.8894 	 143.59 	 
H 	 -69.5892 	 56.0035 	 142.551 	 
H 	 -71.3447 	 56.0728 	 142.585 	 
S 	 -69.5104 	 52.1487 	 134.45 	 
C 	 -70.7521 	 51.7108 	 133.301 	 
C 	 -71.9917 	 51.8026 	 133.82 	 
C 	 -72.0254 	 52.4143 	 135.137 	 
C 	 -70.7147 	 52.5681 	 135.675 	 
H 	 -72.752 	 51.4974 	 133.175 	 
C 	 -73.3725 	 52.6497 	 135.771 	 
H 	 -74.1362 	 52.8655 	 135.038 	 
H 	 -73.4409 	 53.6787 	 136.134 	 
C 	 -73.9422 	 51.6046 	 136.682 	 
H 	 -75.0255 	 51.8668 	 136.954 	 
H 	 -73.3742 	 51.521 	 137.645 	 
C 	 -73.8689 	 50.1982 	 136.053 	 
H 	 -74.3412 	 50.0791 	 135.044 	 
H 	 -74.2586 	 49.4003 	 136.734 	 
H 	 -72.8615 	 49.8414 	 135.908 	 
H 	 -68.1254 	 54.442 	 139.475 	 
H 	 -70.6362 	 51.3494 	 132.341 	 
*
