! wB97X-D3 SP def2-SVP
%pal
nprocs 16
end

* xyz 0 1
S 	 61.2941 	 -8.90107 	 87.425 	 
C 	 60.9697 	 -7.50615 	 88.3773 	 
C 	 59.9079 	 -6.79512 	 87.9205 	 
C 	 59.2938 	 -7.45253 	 86.8051 	 
C 	 59.9035 	 -8.60537 	 86.3752 	 
H 	 58.423 	 -7.16454 	 86.2081 	 
C 	 59.5173 	 -5.44519 	 88.3353 	 
H 	 59.804 	 -4.76072 	 87.5116 	 
H 	 60.1607 	 -5.19858 	 89.1298 	 
C 	 57.9857 	 -5.11948 	 88.4852 	 
H 	 57.8965 	 -4.1103 	 88.112 	 
H 	 57.33 	 -5.66134 	 87.7687 	 
C 	 57.4346 	 -5.32054 	 89.9072 	 
H 	 56.4361 	 -4.93823 	 90.0341 	 
H 	 57.6267 	 -6.32564 	 90.1599 	 
H 	 58.0391 	 -4.71249 	 90.5931 	 
S 	 59.3206 	 -11.1485 	 85.6655 	 
C 	 58.3422 	 -11.4975 	 84.2266 	 
C 	 58.3719 	 -10.4417 	 83.3768 	 
C 	 59.07 	 -9.31975 	 83.9415 	 
C 	 59.4692 	 -9.46967 	 85.2849 	 
H 	 57.9375 	 -10.4397 	 82.3965 	 
C 	 59.1384 	 -7.96362 	 83.1972 	 
H 	 59.8636 	 -7.30717 	 83.6761 	 
H 	 58.157 	 -7.46098 	 83.1298 	 
C 	 59.6057 	 -7.91086 	 81.7031 	 
H 	 59.4119 	 -6.87139 	 81.3051 	 
H 	 58.9876 	 -8.69734 	 81.2275 	 
C 	 61.1745 	 -8.12791 	 81.6114 	 
H 	 61.7969 	 -7.34335 	 82.1446 	 
H 	 61.5649 	 -8.32538 	 80.6193 	 
H 	 61.3825 	 -9.0487 	 82.1615 	 
H 	 61.6751 	 -7.18952 	 89.1272 	 
H 	 57.905 	 -12.4748 	 83.9546 	 
*
