! wB97X-D3 SP def2-SVP
%pal
nprocs 16
end

* xyz 0 1
S 	 22.9921 	 3.48873 	 78.952 	 
C 	 24.0969 	 3.87649 	 80.2626 	 
C 	 23.3788 	 4.24936 	 81.4172 	 
C 	 21.941 	 4.19465 	 81.2052 	 
C 	 21.5834 	 3.85804 	 79.9056 	 
H 	 21.1787 	 4.38416 	 82.0142 	 
C 	 23.9176 	 4.64171 	 82.8191 	 
H 	 23.8091 	 3.73052 	 83.3622 	 
H 	 23.34 	 5.45083 	 83.2605 	 
C 	 25.4486 	 4.95485 	 82.866 	 
H 	 25.9166 	 3.9708 	 82.6818 	 
H 	 25.7368 	 5.656 	 81.9524 	 
C 	 26.0508 	 5.53795 	 84.154 	 
H 	 27.1532 	 5.43434 	 83.9871 	 
H 	 25.7488 	 6.58678 	 84.3987 	 
H 	 25.9809 	 4.83509 	 84.9502 	 
S 	 19.853 	 1.96467 	 78.9003 	 
C 	 18.2057 	 2.3614 	 78.5505 	 
C 	 17.8593 	 3.50508 	 79.2264 	 
C 	 19.0333 	 4.20839 	 79.7735 	 
C 	 20.211 	 3.51024 	 79.5826 	 
H 	 16.862 	 3.71098 	 79.4589 	 
C 	 19.006 	 5.61671 	 80.4301 	 
H 	 19.9175 	 6.18063 	 80.2527 	 
H 	 19.1313 	 5.45582 	 81.4945 	 
C 	 17.8129 	 6.49184 	 80.1067 	 
H 	 16.8801 	 6.22408 	 80.6084 	 
H 	 17.6888 	 6.56717 	 79.0472 	 
C 	 17.9511 	 7.80158 	 80.762 	 
H 	 18.1848 	 7.69908 	 81.7811 	 
H 	 17.0845 	 8.39524 	 80.6885 	 
H 	 18.8735 	 8.2809 	 80.4604 	 
H 	 25.13 	 3.73224 	 80.2324 	 
H 	 17.6108 	 1.5868 	 78.1279 	 
*
