! wB97X-D3 SP def2-SVP
%pal
nprocs 16
end

* xyz 0 1
S 	 -46.6954 	 67.4254 	 128.158 	 
C 	 -46.159 	 65.779 	 128.039 	 
C 	 -45.7919 	 65.2404 	 129.286 	 
C 	 -45.7392 	 66.2643 	 130.29 	 
C 	 -46.2451 	 67.4535 	 129.857 	 
H 	 -45.3903 	 66.1744 	 131.312 	 
C 	 -45.3468 	 63.827 	 129.619 	 
H 	 -45.9758 	 63.2171 	 128.957 	 
H 	 -45.4712 	 63.6384 	 130.665 	 
C 	 -43.9506 	 63.4608 	 129.145 	 
H 	 -43.9571 	 62.3427 	 129.234 	 
H 	 -43.8392 	 63.6676 	 128.048 	 
C 	 -42.8481 	 64.0594 	 130.099 	 
H 	 -42.7737 	 63.7753 	 131.103 	 
H 	 -41.8648 	 63.9252 	 129.641 	 
H 	 -43.0469 	 65.1251 	 130.248 	 
S 	 -45.9858 	 70.1733 	 129.896 	 
C 	 -46.1729 	 71.1271 	 131.324 	 
C 	 -46.2771 	 70.2548 	 132.39 	 
C 	 -46.4041 	 68.8794 	 132.062 	 
C 	 -46.3864 	 68.66 	 130.693 	 
H 	 -46.2456 	 70.7739 	 133.351 	 
C 	 -46.7441 	 67.8298 	 133.07 	 
H 	 -45.7964 	 67.5326 	 133.642 	 
H 	 -47.1984 	 66.9347 	 132.621 	 
C 	 -47.556 	 68.1942 	 134.299 	 
H 	 -48.3636 	 68.6966 	 133.851 	 
H 	 -47.0349 	 69.0139 	 134.836 	 
C 	 -48.1816 	 67.0542 	 135.226 	 
H 	 -48.834 	 67.4066 	 136.007 	 
H 	 -47.4993 	 66.545 	 135.855 	 
H 	 -48.8181 	 66.3702 	 134.62 	 
H 	 -46.244 	 65.1986 	 127.188 	 
H 	 -45.8203 	 72.1606 	 131.391 	 
*
