! wB97X-D3 SP def2-SVP
%pal
nprocs 16
end

* xyz 0 1
S 	 -57.5839 	 53.3581 	 136.448 	 
C 	 -55.9916 	 53.9231 	 135.969 	 
C 	 -55.2837 	 52.9943 	 135.227 	 
C 	 -55.8517 	 51.6719 	 135.35 	 
C 	 -56.9888 	 51.6555 	 136.176 	 
H 	 -55.5293 	 50.7452 	 134.948 	 
C 	 -53.9686 	 53.1711 	 134.581 	 
H 	 -53.7389 	 52.2471 	 134.064 	 
H 	 -53.2942 	 53.2692 	 135.412 	 
C 	 -53.8209 	 54.4704 	 133.62 	 
H 	 -54.3726 	 55.2653 	 134.036 	 
H 	 -52.7233 	 54.7134 	 133.566 	 
C 	 -54.3155 	 54.3843 	 132.227 	 
H 	 -55.2841 	 54.0383 	 132.145 	 
H 	 -54.3652 	 55.4397 	 131.772 	 
H 	 -53.6944 	 53.8622 	 131.521 	 
S 	 -57.9359 	 49.1604 	 135.545 	 
C 	 -58.6655 	 48.2766 	 136.848 	 
C 	 -58.7721 	 48.9799 	 138.017 	 
C 	 -58.182 	 50.2731 	 137.925 	 
C 	 -57.6753 	 50.484 	 136.675 	 
H 	 -59.1013 	 48.4746 	 138.956 	 
C 	 -57.9642 	 51.1562 	 139.102 	 
H 	 -58.7228 	 50.9831 	 139.881 	 
H 	 -58.2033 	 52.1833 	 138.762 	 
C 	 -56.5083 	 50.9907 	 139.706 	 
H 	 -55.788 	 50.8094 	 138.886 	 
H 	 -56.4597 	 50.0151 	 140.214 	 
C 	 -56.1441 	 52.1656 	 140.644 	 
H 	 -56.1426 	 53.0599 	 140.068 	 
H 	 -55.0986 	 52.0893 	 140.884 	 
H 	 -56.8719 	 52.4771 	 141.452 	 
H 	 -55.6146 	 54.9872 	 136.16 	 
H 	 -59.1355 	 47.269 	 136.827 	 
*
