! wB97X-D3 SP def2-SVP
%pal
nprocs 16
end

* xyz 0 1
S 	 -23.0007 	 -8.03082 	 84.0748 	 
C 	 -22.9837 	 -9.52872 	 84.8962 	 
C 	 -21.6879 	 -9.93424 	 85.0271 	 
C 	 -20.7312 	 -8.9462 	 84.6318 	 
C 	 -21.2674 	 -7.76535 	 84.1805 	 
H 	 -19.6386 	 -8.91479 	 84.6619 	 
C 	 -21.3126 	 -11.3605 	 85.4794 	 
H 	 -20.1999 	 -11.3721 	 85.3878 	 
H 	 -21.5326 	 -12.0988 	 84.7314 	 
C 	 -21.8515 	 -11.7951 	 86.8292 	 
H 	 -22.9299 	 -11.6817 	 86.8027 	 
H 	 -21.6224 	 -12.8335 	 86.9582 	 
C 	 -21.486 	 -10.9251 	 88.0606 	 
H 	 -20.4694 	 -10.6857 	 88.1173 	 
H 	 -22.0127 	 -9.96536 	 88.116 	 
H 	 -21.6975 	 -11.5745 	 88.9263 	 
S 	 -19.5513 	 -5.78918 	 85.0321 	 
C 	 -19.3067 	 -4.35821 	 84.1162 	 
C 	 -20.0971 	 -4.30383 	 83.0416 	 
C 	 -20.8093 	 -5.56041 	 82.8182 	 
C 	 -20.6373 	 -6.4439 	 83.8405 	 
H 	 -19.9754 	 -3.37547 	 82.4273 	 
C 	 -21.6915 	 -5.85719 	 81.6469 	 
H 	 -22.7053 	 -5.44037 	 81.6677 	 
H 	 -21.8807 	 -6.95771 	 81.6427 	 
C 	 -20.9801 	 -5.39283 	 80.3691 	 
H 	 -19.8911 	 -5.67809 	 80.3346 	 
H 	 -21.0293 	 -4.30925 	 80.3426 	 
C 	 -21.706 	 -5.96853 	 79.1055 	 
H 	 -21.7674 	 -7.00104 	 79.085 	 
H 	 -21.1961 	 -5.69098 	 78.2035 	 
H 	 -22.7406 	 -5.64192 	 79.0721 	 
H 	 -23.8157 	 -10.1448 	 85.1497 	 
H 	 -18.5777 	 -3.53582 	 84.3414 	 
*
