! wB97X-D3 SP def2-SVP
%pal
nprocs 16
end

* xyz 0 1
S 	 -61.3912 	 57.0726 	 126.113 	 
C 	 -63.0732 	 57.0198 	 126.772 	 
C 	 -63.849 	 56.2027 	 126.026 	 
C 	 -63.0833 	 55.612 	 124.956 	 
C 	 -61.7008 	 55.8782 	 124.88 	 
H 	 -63.5361 	 54.9713 	 124.193 	 
C 	 -65.298 	 55.8486 	 126.267 	 
H 	 -65.7608 	 55.3564 	 125.38 	 
H 	 -65.6872 	 56.7997 	 126.238 	 
C 	 -65.6955 	 55.1419 	 127.573 	 
H 	 -65.1752 	 54.1989 	 127.821 	 
H 	 -65.5347 	 55.7894 	 128.409 	 
C 	 -67.1943 	 54.8198 	 127.511 	 
H 	 -67.5092 	 54.4827 	 126.506 	 
H 	 -67.6411 	 54.0614 	 128.213 	 
H 	 -67.7452 	 55.7309 	 127.727 	 
S 	 -60.2017 	 56.5582 	 122.831 	 
C 	 -59.213 	 55.3716 	 121.916 	 
C 	 -59.0788 	 54.2337 	 122.615 	 
C 	 -60.0189 	 54.1459 	 123.673 	 
C 	 -60.6976 	 55.3534 	 123.948 	 
H 	 -58.4871 	 53.3974 	 122.27 	 
C 	 -60.1793 	 52.835 	 124.357 	 
H 	 -59.862 	 53.0844 	 125.356 	 
H 	 -59.4724 	 52.0475 	 124.197 	 
C 	 -61.5808 	 52.2198 	 124.341 	 
H 	 -62.0516 	 52.3516 	 123.386 	 
H 	 -62.2204 	 52.6657 	 125.104 	 
C 	 -61.6349 	 50.6645 	 124.654 	 
H 	 -60.9925 	 49.9877 	 124.093 	 
H 	 -62.6824 	 50.3704 	 124.46 	 
H 	 -61.464 	 50.493 	 125.71 	 
H 	 -63.4525 	 57.431 	 127.661 	 
H 	 -58.5783 	 55.6411 	 121.115 	 
*
