! wB97X-D3 SP def2-SVP
%pal
nprocs 16
end

* xyz 0 1
S 	 -8.82079 	 42.3318 	 36.4137 	 
C 	 -9.52227 	 40.7973 	 36.0309 	 
C 	 -8.95873 	 39.7678 	 36.8145 	 
C 	 -8.00493 	 40.3226 	 37.7783 	 
C 	 -7.84647 	 41.6904 	 37.7381 	 
H 	 -7.50183 	 39.7877 	 38.5395 	 
C 	 -9.44745 	 38.3052 	 36.844 	 
H 	 -9.59361 	 37.9786 	 35.808 	 
H 	 -10.4135 	 38.4354 	 37.3998 	 
C 	 -8.49973 	 37.1986 	 37.5207 	 
H 	 -7.6046 	 36.9954 	 36.981 	 
H 	 -8.29105 	 37.24 	 38.6143 	 
C 	 -9.34673 	 35.9181 	 37.4902 	 
H 	 -9.80876 	 35.8523 	 36.4939 	 
H 	 -8.86374 	 34.9743 	 37.7648 	 
H 	 -10.1437 	 36.0631 	 38.2772 	 
S 	 -6.75026 	 42.3879 	 40.2639 	 
C 	 -5.49775 	 43.5838 	 40.4183 	 
C 	 -5.42895 	 44.2145 	 39.168 	 
C 	 -6.1369 	 43.5431 	 38.0695 	 
C 	 -6.95408 	 42.5471 	 38.4712 	 
H 	 -4.77201 	 45.051 	 39.1557 	 
C 	 -5.8997 	 43.9756 	 36.6606 	 
H 	 -6.72006 	 44.0845 	 36.0208 	 
H 	 -5.26881 	 43.1543 	 36.2855 	 
C 	 -5.26414 	 45.3887 	 36.4439 	 
H 	 -4.23264 	 45.3834 	 36.7952 	 
H 	 -5.73616 	 46.1101 	 37.1239 	 
C 	 -5.38749 	 45.9723 	 35.025 	 
H 	 -6.41496 	 46.3816 	 34.9683 	 
H 	 -5.0042 	 45.3617 	 34.2576 	 
H 	 -4.79154 	 46.9045 	 35.0407 	 
H 	 -10.3663 	 40.6591 	 35.3819 	 
H 	 -5.20497 	 43.917 	 41.3292 	 
*
