! wB97X-D3 SP def2-SVP
%pal
nprocs 16
end

* xyz 0 1
S 	 15.9557 	 -9.31947 	 79.8848 	 
C 	 15.2402 	 -10.1469 	 81.2449 	 
C 	 16.1307 	 -10.9749 	 81.8778 	 
C 	 17.3619 	 -11.0808 	 81.1259 	 
C 	 17.4395 	 -10.2914 	 80.0549 	 
H 	 18.2777 	 -11.6669 	 81.4006 	 
C 	 16.0575 	 -11.6624 	 83.2003 	 
H 	 15.12 	 -11.5734 	 83.7401 	 
H 	 16.8188 	 -11.2885 	 83.8682 	 
C 	 16.4639 	 -13.1913 	 83.2198 	 
H 	 17.28 	 -13.3353 	 82.5608 	 
H 	 16.5989 	 -13.6568 	 84.1434 	 
C 	 15.3886 	 -13.9876 	 82.5303 	 
H 	 15.5499 	 -15.1162 	 82.6887 	 
H 	 14.4359 	 -13.7426 	 83.0235 	 
H 	 15.2776 	 -13.7768 	 81.4814 	 
S 	 18.8938 	 -8.415 	 78.7659 	 
C 	 19.905 	 -8.85118 	 77.4272 	 
C 	 20.2534 	 -10.2263 	 77.5933 	 
C 	 19.4603 	 -10.9526 	 78.5219 	 
C 	 18.6154 	 -10.0997 	 79.2435 	 
H 	 21.0097 	 -10.5735 	 76.9329 	 
C 	 19.4873 	 -12.4873 	 78.4641 	 
H 	 18.4088 	 -12.7145 	 78.4103 	 
H 	 19.804 	 -12.9816 	 79.4859 	 
C 	 20.3662 	 -13.2098 	 77.3865 	 
H 	 21.3765 	 -12.9427 	 77.5831 	 
H 	 20.011 	 -12.9128 	 76.3341 	 
C 	 20.3231 	 -14.709 	 77.4286 	 
H 	 21.0723 	 -15.1924 	 76.8022 	 
H 	 19.3565 	 -15.0357 	 76.941 	 
H 	 20.4804 	 -15.1178 	 78.3874 	 
H 	 14.3403 	 -9.82814 	 81.7197 	 
H 	 20.4418 	 -8.22354 	 76.8262 	 
*
