! wB97X-D3 SP def2-SVP
%pal
nprocs 16
end

* xyz 0 1
S 	 -36.731 	 58.6563 	 112.733 	 
C 	 -37.6327 	 60.1281 	 112.635 	 
C 	 -37.9392 	 60.6017 	 113.918 	 
C 	 -37.405 	 59.7242 	 114.914 	 
C 	 -36.7437 	 58.6117 	 114.476 	 
H 	 -37.6937 	 59.8307 	 115.929 	 
C 	 -38.6837 	 61.8479 	 114.246 	 
H 	 -39.6129 	 61.8912 	 113.772 	 
H 	 -38.1215 	 62.5904 	 113.684 	 
C 	 -38.6031 	 62.284 	 115.751 	 
H 	 -39.1854 	 61.7121 	 116.408 	 
H 	 -37.5096 	 62.1809 	 116.072 	 
C 	 -38.9735 	 63.7416 	 116 	 
H 	 -40.0726 	 63.7623 	 115.732 	 
H 	 -39.0428 	 64.0197 	 117.048 	 
H 	 -38.6592 	 64.5497 	 115.257 	 
S 	 -36.1927 	 55.9864 	 114.273 	 
C 	 -35.6139 	 55.1018 	 115.672 	 
C 	 -35.5239 	 55.9022 	 116.785 	 
C 	 -35.9399 	 57.2596 	 116.519 	 
C 	 -36.2377 	 57.4621 	 115.168 	 
H 	 -35.2152 	 55.4131 	 117.719 	 
C 	 -36.1147 	 58.2211 	 117.696 	 
H 	 -37.0667 	 58.0979 	 118.179 	 
H 	 -36.0548 	 59.2679 	 117.351 	 
C 	 -35.1608 	 58.0258 	 118.851 	 
H 	 -34.1451 	 58.0252 	 118.425 	 
H 	 -35.2933 	 57.0299 	 119.258 	 
C 	 -35.3183 	 59.0745 	 119.909 	 
H 	 -36.3662 	 59.0759 	 120.278 	 
H 	 -35.0534 	 60.0411 	 119.514 	 
H 	 -34.6314 	 58.9813 	 120.739 	 
H 	 -37.8986 	 60.5742 	 111.632 	 
H 	 -35.1855 	 54.0931 	 115.67 	 
*
