! wB97X-D3 SP def2-SVP
%pal
nprocs 16
end

* xyz 0 1
S 	 8.35435 	 -9.11473 	 97.0216 	 
C 	 9.54538 	 -8.01579 	 97.7827 	 
C 	 10.3008 	 -7.32589 	 96.8366 	 
C 	 9.80713 	 -7.62328 	 95.4765 	 
C 	 8.67788 	 -8.43569 	 95.4013 	 
H 	 10.1103 	 -7.39548 	 94.5312 	 
C 	 11.3845 	 -6.3432 	 97.1567 	 
H 	 12.1058 	 -6.28333 	 96.2937 	 
H 	 12.0458 	 -6.67622 	 97.9953 	 
C 	 10.9121 	 -4.85052 	 97.3355 	 
H 	 11.8033 	 -4.26677 	 97.3317 	 
H 	 10.3492 	 -4.60346 	 96.4696 	 
C 	 10.0064 	 -4.57467 	 98.5537 	 
H 	 10.5183 	 -4.85174 	 99.4105 	 
H 	 9.83803 	 -3.49287 	 98.4764 	 
H 	 9.12722 	 -5.2874 	 98.4445 	 
S 	 9.06674 	 -9.67264 	 92.95 	 
C 	 7.69501 	 -10.2437 	 92.0399 	 
C 	 6.60545 	 -9.5849 	 92.5201 	 
C 	 6.80651 	 -8.79209 	 93.7193 	 
C 	 8.03509 	 -9.00191 	 94.2433 	 
H 	 5.63795 	 -9.80858 	 92.0282 	 
C 	 5.7873 	 -7.97703 	 94.5808 	 
H 	 5.51849 	 -7.16548 	 93.9626 	 
H 	 6.19364 	 -7.63437 	 95.5394 	 
C 	 4.56292 	 -8.77517 	 94.9332 	 
H 	 4.1445 	 -9.12205 	 94.014 	 
H 	 3.80339 	 -8.14042 	 95.3504 	 
C 	 4.83532 	 -9.91444 	 95.9061 	 
H 	 5.52173 	 -10.5617 	 95.2927 	 
H 	 3.9651 	 -10.5115 	 96.1028 	 
H 	 5.23582 	 -9.57632 	 96.8555 	 
H 	 9.59541 	 -7.85806 	 98.8374 	 
H 	 7.64449 	 -10.883 	 91.1811 	 
*
