! wB97X-D3 SP def2-SVP
%pal
nprocs 16
end

* xyz 0 1
S 	 -36.2067 	 58.7764 	 111.666 	 
C 	 -34.5395 	 59.3674 	 111.639 	 
C 	 -33.7367 	 58.626 	 112.489 	 
C 	 -34.4412 	 57.4091 	 112.965 	 
C 	 -35.7975 	 57.4109 	 112.663 	 
H 	 -33.9807 	 56.6379 	 113.479 	 
C 	 -32.3074 	 58.8669 	 112.613 	 
H 	 -31.8901 	 58.5068 	 113.588 	 
H 	 -32.1823 	 59.9462 	 112.606 	 
C 	 -31.4448 	 58.3692 	 111.433 	 
H 	 -31.8091 	 58.758 	 110.474 	 
H 	 -30.4033 	 58.8174 	 111.538 	 
C 	 -31.268 	 56.8203 	 111.346 	 
H 	 -32.1739 	 56.3006 	 111.068 	 
H 	 -30.5355 	 56.5383 	 110.604 	 
H 	 -30.901 	 56.5163 	 112.348 	 
S 	 -38.0075 	 56.762 	 114.161 	 
C 	 -38.7276 	 55.2331 	 114.018 	 
C 	 -38.049 	 54.4374 	 113.159 	 
C 	 -36.9577 	 55.0866 	 112.511 	 
C 	 -36.7919 	 56.3768 	 113.001 	 
H 	 -38.325 	 53.3426 	 112.987 	 
C 	 -36.1841 	 54.2996 	 111.438 	 
H 	 -36.505 	 53.2188 	 111.394 	 
H 	 -35.13 	 54.3197 	 111.89 	 
C 	 -36.2983 	 54.918 	 110.035 	 
H 	 -35.4757 	 54.4896 	 109.379 	 
H 	 -36.1503 	 55.9984 	 110.031 	 
C 	 -37.6531 	 54.6196 	 109.418 	 
H 	 -37.7533 	 55.3734 	 108.572 	 
H 	 -38.5031 	 54.7986 	 110.112 	 
H 	 -37.6938 	 53.5934 	 109.024 	 
H 	 -34.2139 	 60.2448 	 111.124 	 
H 	 -39.6795 	 54.8909 	 114.469 	 
*
