! wB97X-D3 SP def2-SVP
%pal
nprocs 16
end

* xyz 0 1
S 	 -55.3863 	 31.9226 	 95.2569 	 
C 	 -56.4966 	 31.6679 	 93.9578 	 
C 	 -56.7126 	 32.8281 	 93.2018 	 
C 	 -55.8687 	 33.8917 	 93.7211 	 
C 	 -55.0687 	 33.5352 	 94.7421 	 
H 	 -55.8786 	 34.8579 	 93.2863 	 
C 	 -57.7079 	 33.0613 	 92.0989 	 
H 	 -58.7083 	 33.0045 	 92.5661 	 
H 	 -57.3935 	 32.4312 	 91.2834 	 
C 	 -57.7071 	 34.5356 	 91.4973 	 
H 	 -58.1127 	 35.1094 	 92.3416 	 
H 	 -56.7465 	 34.904 	 91.2694 	 
C 	 -58.5176 	 34.621 	 90.2476 	 
H 	 -58.3299 	 35.6461 	 89.9026 	 
H 	 -58.0914 	 33.9918 	 89.4464 	 
H 	 -59.6174 	 34.5177 	 90.3151 	 
S 	 -54.1739 	 34.1185 	 97.145 	 
C 	 -52.7361 	 35.074 	 97.34 	 
C 	 -52.5193 	 35.8244 	 96.1898 	 
C 	 -53.3086 	 35.4204 	 95.0736 	 
C 	 -54.0696 	 34.336 	 95.4179 	 
H 	 -51.7987 	 36.6334 	 96.243 	 
C 	 -53.1045 	 35.8847 	 93.6219 	 
H 	 -53.2771 	 35.1558 	 92.8484 	 
H 	 -52.017 	 36.0415 	 93.5616 	 
C 	 -53.8274 	 37.1758 	 93.233 	 
H 	 -53.6852 	 37.9318 	 94.0128 	 
H 	 -54.8896 	 36.9374 	 93.1261 	 
C 	 -53.2247 	 37.6636 	 91.8453 	 
H 	 -52.9942 	 36.8569 	 91.1734 	 
H 	 -52.3584 	 38.3057 	 92.0289 	 
H 	 -53.9537 	 38.2976 	 91.3544 	 
H 	 -56.9851 	 30.7597 	 93.7808 	 
H 	 -52.2792 	 35.261 	 98.2766 	 
*
