! wB97X-D3 SP def2-SVP
%pal
nprocs 16
end

* xyz 0 1
S 	 -33.8632 	 45.8261 	 99.4923 	 
C 	 -35.2875 	 44.948 	 98.9053 	 
C 	 -35.478 	 45.1095 	 97.5662 	 
C 	 -34.4085 	 45.8367 	 96.9414 	 
C 	 -33.5659 	 46.4385 	 97.8686 	 
H 	 -34.1894 	 45.8874 	 95.8984 	 
C 	 -36.5836 	 44.3947 	 96.7981 	 
H 	 -37.0957 	 45.218 	 96.448 	 
H 	 -37.1883 	 43.983 	 97.5518 	 
C 	 -36.1503 	 43.2897 	 95.9273 	 
H 	 -35.2464 	 43.5492 	 95.3798 	 
H 	 -36.0233 	 42.3731 	 96.5277 	 
C 	 -37.1456 	 42.9158 	 94.829 	 
H 	 -37.3414 	 43.7499 	 94.2577 	 
H 	 -36.7089 	 42.1342 	 94.2314 	 
H 	 -38.0827 	 42.5554 	 95.2051 	 
S 	 -31.7285 	 48.341 	 98.6606 	 
C 	 -30.4059 	 48.7896 	 97.616 	 
C 	 -30.5228 	 48.1712 	 96.3883 	 
C 	 -31.568 	 47.2078 	 96.3157 	 
C 	 -32.3192 	 47.1166 	 97.5484 	 
H 	 -29.8751 	 48.4288 	 95.5835 	 
C 	 -31.6638 	 46.3643 	 95.1067 	 
H 	 -30.9544 	 46.7992 	 94.3208 	 
H 	 -32.6641 	 46.4034 	 94.6135 	 
C 	 -31.3934 	 44.8359 	 95.3743 	 
H 	 -31.3988 	 44.2543 	 94.3968 	 
H 	 -32.2175 	 44.5099 	 95.9441 	 
C 	 -30.0896 	 44.5553 	 96.2179 	 
H 	 -29.94 	 45.2225 	 97.1287 	 
H 	 -29.2749 	 44.9748 	 95.6609 	 
H 	 -29.86 	 43.5196 	 96.5053 	 
H 	 -36.0222 	 44.3862 	 99.4504 	 
H 	 -29.6966 	 49.5513 	 97.8251 	 
*
