! wB97X-D3 SP def2-SVP
%pal
nprocs 16
end

* xyz 0 1
S 	 -2.06367 	 -10.8751 	 86.6383 	 
C 	 -2.4024 	 -12.4833 	 87.1031 	 
C 	 -3.64193 	 -12.6773 	 87.6634 	 
C 	 -4.31363 	 -11.411 	 87.6797 	 
C 	 -3.70286 	 -10.3534 	 87.0699 	 
H 	 -5.2964 	 -11.266 	 88.0658 	 
C 	 -4.33599 	 -14.0003 	 88.0544 	 
H 	 -3.93842 	 -14.895 	 87.5912 	 
H 	 -5.3381 	 -13.9151 	 87.6338 	 
C 	 -4.3386 	 -14.2255 	 89.5275 	 
H 	 -3.27447 	 -14.2909 	 89.8051 	 
H 	 -4.64006 	 -13.3223 	 90.0474 	 
C 	 -5.15717 	 -15.5334 	 89.85 	 
H 	 -4.61236 	 -16.4954 	 89.7375 	 
H 	 -5.74755 	 -15.5067 	 90.8262 	 
H 	 -5.94031 	 -15.6035 	 89.1116 	 
S 	 -4.34485 	 -7.61439 	 86.9751 	 
C 	 -5.17627 	 -6.94818 	 85.6344 	 
C 	 -5.56608 	 -7.95572 	 84.765 	 
C 	 -5.16986 	 -9.29431 	 85.1805 	 
C 	 -4.4177 	 -9.28414 	 86.3536 	 
H 	 -6.02502 	 -7.60434 	 83.8542 	 
C 	 -5.33087 	 -10.5265 	 84.36 	 
H 	 -6.10529 	 -10.3468 	 83.7049 	 
H 	 -5.64271 	 -11.3479 	 85.0881 	 
C 	 -4.16294 	 -11.067 	 83.5952 	 
H 	 -3.21327 	 -10.7897 	 84.0457 	 
H 	 -4.11199 	 -10.5566 	 82.5345 	 
C 	 -4.32478 	 -12.5947 	 83.3758 	 
H 	 -3.346 	 -12.9996 	 82.918 	 
H 	 -5.17479 	 -12.8514 	 82.7223 	 
H 	 -4.41305 	 -12.9749 	 84.3772 	 
H 	 -1.77037 	 -13.2857 	 86.92 	 
H 	 -5.55477 	 -5.94779 	 85.5628 	 
*
