! wB97X-D3 SP def2-SVP
%pal
nprocs 16
end

* xyz 0 1
S 	 -8.39813 	 59.8459 	 54.2753 	 
C 	 -7.14456 	 59.0697 	 55.1793 	 
C 	 -7.47259 	 58.8468 	 56.493 	 
C 	 -8.83985 	 59.258 	 56.7821 	 
C 	 -9.42627 	 59.9435 	 55.7378 	 
H 	 -9.38386 	 59.1101 	 57.7365 	 
C 	 -6.51588 	 58.3249 	 57.542 	 
H 	 -7.09626 	 58.0856 	 58.3795 	 
H 	 -5.89589 	 59.1527 	 57.7828 	 
C 	 -5.62941 	 57.0948 	 57.3998 	 
H 	 -4.89452 	 56.8353 	 58.1837 	 
H 	 -6.19352 	 56.1644 	 57.3179 	 
C 	 -4.96954 	 56.9219 	 56.0557 	 
H 	 -5.76079 	 57.06 	 55.3374 	 
H 	 -4.27956 	 57.7508 	 55.9214 	 
H 	 -4.46261 	 55.8867 	 55.8556 	 
S 	 -12.079 	 59.7323 	 56.1344 	 
C 	 -13.1518 	 61.1031 	 55.667 	 
C 	 -12.3581 	 62.2847 	 55.403 	 
C 	 -10.9371 	 61.9956 	 55.3052 	 
C 	 -10.6722 	 60.633 	 55.7091 	 
H 	 -12.8998 	 63.2053 	 55.2399 	 
C 	 -10.0214 	 63.105 	 54.9113 	 
H 	 -10.5036 	 63.5979 	 54.012 	 
H 	 -9.07249 	 62.6684 	 54.5629 	 
C 	 -10.014 	 64.2474 	 56.0179 	 
H 	 -11.0315 	 64.6444 	 56.1332 	 
H 	 -9.34331 	 65.0223 	 55.5715 	 
C 	 -9.22353 	 63.744 	 57.2908 	 
H 	 -8.65844 	 64.5842 	 57.7829 	 
H 	 -8.41838 	 63.07 	 56.8957 	 
H 	 -9.93063 	 63.3765 	 58.0581 	 
H 	 -6.14982 	 59.009 	 54.7903 	 
H 	 -14.223 	 61.062 	 55.7755 	 
*
