! wB97X-D3 SP def2-SVP
%pal
nprocs 16
end

* xyz 0 1
S 	 -105.805 	 45.5992 	 120.646 	 
C 	 -106.306 	 46.6293 	 121.925 	 
C 	 -105.328 	 46.7099 	 122.892 	 
C 	 -104.269 	 45.7168 	 122.731 	 
C 	 -104.477 	 44.9767 	 121.557 	 
H 	 -103.427 	 45.5144 	 123.438 	 
C 	 -105.364 	 47.6844 	 124.076 	 
H 	 -105.389 	 47.0119 	 124.921 	 
H 	 -106.293 	 48.3164 	 124.064 	 
C 	 -104.192 	 48.7065 	 124.07 	 
H 	 -104.141 	 49.3868 	 124.94 	 
H 	 -103.17 	 48.3037 	 124.121 	 
C 	 -104.235 	 49.558 	 122.771 	 
H 	 -103.679 	 50.4699 	 122.896 	 
H 	 -103.696 	 49.0222 	 121.986 	 
H 	 -105.237 	 49.7943 	 122.424 	 
S 	 -104.578 	 42.7529 	 119.932 	 
C 	 -103.156 	 41.8217 	 119.688 	 
C 	 -102.054 	 42.3142 	 120.292 	 
C 	 -102.316 	 43.4311 	 121.159 	 
C 	 -103.639 	 43.8726 	 120.953 	 
H 	 -101.16 	 41.7678 	 120.114 	 
C 	 -101.216 	 44.0679 	 121.945 	 
H 	 -101.315 	 45.098 	 121.977 	 
H 	 -100.252 	 44.0163 	 121.412 	 
C 	 -100.998 	 43.5856 	 123.379 	 
H 	 -100.764 	 42.5082 	 123.303 	 
H 	 -101.867 	 43.6423 	 124.025 	 
C 	 -99.9457 	 44.4207 	 124.14 	 
H 	 -100.352 	 45.4553 	 124.283 	 
H 	 -99.0334 	 44.4857 	 123.567 	 
H 	 -99.8755 	 44.1082 	 125.135 	 
H 	 -107.029 	 47.4472 	 121.879 	 
H 	 -103.123 	 41.0998 	 118.88 	 
*
