! wB97X-D3 SP def2-SVP
%pal
nprocs 16
end

* xyz 0 1
S 	 -97.4879 	 44.4144 	 125.254 	 
C 	 -98.3435 	 43.1313 	 126.079 	 
C 	 -97.5616 	 42.0263 	 126.067 	 
C 	 -96.4516 	 42.0563 	 125.185 	 
C 	 -96.2874 	 43.2761 	 124.704 	 
H 	 -95.7095 	 41.2874 	 124.975 	 
C 	 -97.927 	 40.7609 	 126.804 	 
H 	 -98.0717 	 39.9691 	 126.085 	 
H 	 -98.7966 	 40.8798 	 127.554 	 
C 	 -96.7684 	 40.4067 	 127.668 	 
H 	 -95.8734 	 40.2433 	 127.033 	 
H 	 -96.4967 	 41.2048 	 128.257 	 
C 	 -97.0152 	 39.1967 	 128.606 	 
H 	 -97.3168 	 38.2662 	 128.013 	 
H 	 -96.0976 	 38.8343 	 129.177 	 
H 	 -97.843 	 39.4448 	 129.283 	 
S 	 -95.2165 	 43.9663 	 122.311 	 
C 	 -93.5481 	 44.4094 	 122.248 	 
C 	 -92.8782 	 44.3725 	 123.437 	 
C 	 -93.7504 	 44.01 	 124.57 	 
C 	 -95.0636 	 43.702 	 124.062 	 
H 	 -91.8157 	 44.5541 	 123.525 	 
C 	 -93.4045 	 43.9518 	 126.066 	 
H 	 -92.3687 	 43.6918 	 126.191 	 
H 	 -93.9212 	 43.1115 	 126.483 	 
C 	 -93.7911 	 45.1823 	 126.894 	 
H 	 -94.7855 	 45.4334 	 126.646 	 
H 	 -93.0934 	 45.9965 	 126.532 	 
C 	 -93.5955 	 45.0792 	 128.416 	 
H 	 -93.5076 	 46.1387 	 128.852 	 
H 	 -92.6504 	 44.5359 	 128.621 	 
H 	 -94.4039 	 44.5272 	 128.982 	 
H 	 -99.2012 	 43.2805 	 126.769 	 
H 	 -93.1892 	 44.5452 	 121.253 	 
*
