! wB97X-D3 SP def2-SVP
%pal
nprocs 16
end

* xyz 0 1
S 	 10.7529 	 -12.6701 	 91.7568 	 
C 	 11.2669 	 -10.9946 	 91.5362 	 
C 	 10.192 	 -10.2487 	 91.0013 	 
C 	 9.02141 	 -11.0674 	 90.7092 	 
C 	 9.12976 	 -12.3544 	 91.2015 	 
H 	 8.0285 	 -10.7454 	 90.3821 	 
C 	 10.2324 	 -8.78055 	 90.6621 	 
H 	 9.84637 	 -8.76636 	 89.6461 	 
H 	 11.2002 	 -8.24531 	 90.5814 	 
C 	 9.36606 	 -7.92292 	 91.5757 	 
H 	 9.31317 	 -6.8815 	 91.2635 	 
H 	 8.32074 	 -8.32351 	 91.5446 	 
C 	 9.87016 	 -8.06179 	 93.0518 	 
H 	 9.5848 	 -9.02518 	 93.5728 	 
H 	 10.8869 	 -7.94204 	 93.1039 	 
H 	 9.40116 	 -7.27402 	 93.5562 	 
S 	 7.85372 	 -14.0128 	 89.5778 	 
C 	 6.48967 	 -14.8419 	 90.1911 	 
C 	 6.15895 	 -14.5504 	 91.4649 	 
C 	 6.99155 	 -13.6378 	 92.0347 	 
C 	 8.05143 	 -13.3292 	 91.183 	 
H 	 5.40152 	 -15.1406 	 91.9554 	 
C 	 6.88397 	 -13.2469 	 93.4886 	 
H 	 7.6761 	 -13.767 	 93.9749 	 
H 	 6.03777 	 -13.6924 	 94.0051 	 
C 	 6.87867 	 -11.6575 	 93.7343 	 
H 	 6.55968 	 -11.1856 	 92.7958 	 
H 	 7.90828 	 -11.2237 	 93.8761 	 
C 	 6.04648 	 -11.1888 	 94.8623 	 
H 	 5.94024 	 -10.1464 	 94.8648 	 
H 	 6.52546 	 -11.5314 	 95.8644 	 
H 	 4.98111 	 -11.4923 	 94.8374 	 
H 	 12.2176 	 -10.6402 	 91.848 	 
H 	 5.8106 	 -15.5377 	 89.6282 	 
*
