! wB97X-D3 SP def2-SVP
%pal
nprocs 16
end

* xyz 0 1
S 	 -29.7914 	 68.6744 	 101.687 	 
C 	 -28.6379 	 67.3777 	 101.883 	 
C 	 -27.6871 	 67.715 	 102.829 	 
C 	 -27.9725 	 69.019 	 103.42 	 
C 	 -29.0558 	 69.6758 	 102.879 	 
H 	 -27.3889 	 69.6402 	 104.08 	 
C 	 -26.534 	 66.8367 	 103.108 	 
H 	 -26.6563 	 65.9617 	 102.444 	 
H 	 -26.7786 	 66.4244 	 104.168 	 
C 	 -25.1079 	 67.4032 	 103.091 	 
H 	 -25.1141 	 68.2143 	 103.786 	 
H 	 -24.3652 	 66.7191 	 103.438 	 
C 	 -24.5617 	 67.9692 	 101.8 	 
H 	 -24.6158 	 67.3597 	 100.958 	 
H 	 -25.1925 	 68.8661 	 101.522 	 
H 	 -23.5559 	 68.3631 	 101.791 	 
S 	 -30.7343 	 71.2571 	 104.321 	 
C 	 -30.3102 	 72.9631 	 104.52 	 
C 	 -29.2912 	 73.3809 	 103.662 	 
C 	 -28.7776 	 72.3047 	 102.853 	 
C 	 -29.3601 	 71.1065 	 103.142 	 
H 	 -29.144 	 74.4049 	 103.658 	 
C 	 -27.6826 	 72.5322 	 101.845 	 
H 	 -27.1478 	 71.6204 	 101.724 	 
H 	 -27.016 	 73.2332 	 102.353 	 
C 	 -28.0526 	 73.3536 	 100.62 	 
H 	 -27.1603 	 73.9216 	 100.327 	 
H 	 -28.7827 	 74.0754 	 100.943 	 
C 	 -28.4818 	 72.5155 	 99.3699 	 
H 	 -27.6619 	 71.7854 	 99.1484 	 
H 	 -28.6138 	 73.2664 	 98.5801 	 
H 	 -29.3563 	 71.8694 	 99.6511 	 
H 	 -28.6541 	 66.5428 	 101.323 	 
H 	 -30.8689 	 73.6384 	 105.172 	 
*
