! wB97X-D3 SP def2-SVP
%pal
nprocs 16
end

* xyz 0 1
S 	 48.8433 	 11.9524 	 85.1098 	 
C 	 47.6974 	 11.8178 	 83.728 	 
C 	 48.4079 	 11.7186 	 82.5258 	 
C 	 49.7926 	 11.6788 	 82.685 	 
C 	 50.2107 	 11.73 	 83.999 	 
H 	 50.5164 	 11.5751 	 81.8871 	 
C 	 47.7952 	 11.7469 	 81.1539 	 
H 	 46.7497 	 11.574 	 81.3037 	 
H 	 48.2394 	 10.8828 	 80.7056 	 
C 	 47.852 	 13.0355 	 80.2965 	 
H 	 48.8624 	 13.4529 	 80.125 	 
H 	 47.4573 	 12.7621 	 79.3121 	 
C 	 46.9421 	 14.0865 	 80.9355 	 
H 	 46.5586 	 14.8276 	 80.2754 	 
H 	 46.1826 	 13.5562 	 81.4032 	 
H 	 47.5642 	 14.5792 	 81.7508 	 
S 	 52.8046 	 12.4918 	 84.1596 	 
C 	 53.9752 	 11.4244 	 85.0716 	 
C 	 53.3105 	 10.3513 	 85.6505 	 
C 	 51.9383 	 10.3022 	 85.3215 	 
C 	 51.5382 	 11.3838 	 84.5118 	 
H 	 53.868 	 9.5705 	 86.161 	 
C 	 50.9483 	 9.21883 	 85.68 	 
H 	 49.8988 	 9.56437 	 85.5583 	 
H 	 50.98 	 9.17023 	 86.7936 	 
C 	 50.9481 	 7.82344 	 85 	 
H 	 50.1585 	 7.25107 	 85.4019 	 
H 	 51.8905 	 7.34923 	 85.1119 	 
C 	 50.6522 	 8.0572 	 83.4719 	 
H 	 51.3793 	 8.74007 	 82.9967 	 
H 	 49.7106 	 8.45575 	 83.3471 	 
H 	 50.5513 	 7.1685 	 82.8131 	 
H 	 46.5786 	 11.7872 	 83.7821 	 
H 	 54.984 	 11.7815 	 85.2752 	 
*
