! wB97X-D3 SP def2-SVP
%pal
nprocs 16
end

* xyz 0 1
S 	 -17.1223 	 -3.29393 	 82.2365 	 
C 	 -16.7359 	 -4.79743 	 81.4654 	 
C 	 -17.394 	 -5.90808 	 81.9885 	 
C 	 -18.2598 	 -5.51561 	 83.0755 	 
C 	 -18.4068 	 -4.0961 	 83.1417 	 
H 	 -18.8204 	 -6.21481 	 83.7058 	 
C 	 -17.2064 	 -7.31377 	 81.412 	 
H 	 -17.0934 	 -8.05481 	 82.1906 	 
H 	 -16.3652 	 -7.27532 	 80.794 	 
C 	 -18.4191 	 -7.76819 	 80.5194 	 
H 	 -19.3724 	 -7.95946 	 80.9737 	 
H 	 -18.655 	 -6.84096 	 79.9698 	 
C 	 -18.1358 	 -8.98693 	 79.617 	 
H 	 -17.1925 	 -9.04953 	 79.1025 	 
H 	 -18.1575 	 -9.87982 	 80.1454 	 
H 	 -18.8609 	 -9.13515 	 78.7929 	 
S 	 -20.9943 	 -3.90012 	 84.0462 	 
C 	 -21.3958 	 -2.74635 	 85.285 	 
C 	 -20.3058 	 -1.98932 	 85.6225 	 
C 	 -19.0866 	 -2.48542 	 85.0469 	 
C 	 -19.2973 	 -3.46442 	 84.0739 	 
H 	 -20.4336 	 -1.27127 	 86.4147 	 
C 	 -17.789 	 -1.8006 	 85.4196 	 
H 	 -16.9325 	 -2.48786 	 85.6314 	 
H 	 -17.9628 	 -1.37666 	 86.4123 	 
C 	 -17.3788 	 -0.593478 	 84.4259 	 
H 	 -18.3109 	 -0.0498822 	 84.181 	 
H 	 -17.016 	 -0.978632 	 83.5314 	 
C 	 -16.3931 	 0.408762 	 84.9544 	 
H 	 -16.8407 	 0.99182 	 85.7763 	 
H 	 -16.0968 	 1.0878 	 84.1529 	 
H 	 -15.412 	 -0.018505 	 85.2704 	 
H 	 -15.9743 	 -4.87348 	 80.6557 	 
H 	 -22.3933 	 -2.54321 	 85.6788 	 
*
