! wB97X-D3 SP def2-SVP
%pal
nprocs 16
end

* xyz 0 1
S 	 -0.141205 	 -14.4869 	 77.4347 	 
C 	 0.954644 	 -14.1147 	 76.1993 	 
C 	 0.921154 	 -12.7517 	 75.9407 	 
C 	 -0.149337 	 -12.1156 	 76.5787 	 
C 	 -0.758782 	 -12.8773 	 77.5435 	 
H 	 -0.531156 	 -11.1017 	 76.5214 	 
C 	 1.76619 	 -12.1258 	 74.9505 	 
H 	 1.39514 	 -12.5472 	 73.9711 	 
H 	 2.74945 	 -12.5976 	 75.1327 	 
C 	 1.82725 	 -10.6148 	 74.9352 	 
H 	 0.893945 	 -10.1575 	 74.6967 	 
H 	 2.14973 	 -10.2765 	 75.9281 	 
C 	 2.80652 	 -10.0535 	 73.8563 	 
H 	 2.44225 	 -10.2596 	 72.8505 	 
H 	 2.91667 	 -9.04342 	 74.0201 	 
H 	 3.79249 	 -10.4651 	 73.9687 	 
S 	 -3.52234 	 -12.6899 	 77.3423 	 
C 	 -4.3055 	 -11.6775 	 78.5549 	 
C 	 -3.52776 	 -11.4196 	 79.6381 	 
C 	 -2.23886 	 -11.9768 	 79.5283 	 
C 	 -2.01706 	 -12.575 	 78.2401 	 
H 	 -3.8478 	 -10.7408 	 80.3982 	 
C 	 -1.18634 	 -11.8926 	 80.6335 	 
H 	 -0.215629 	 -12.2592 	 80.3393 	 
H 	 -1.53151 	 -12.3858 	 81.5018 	 
C 	 -0.987059 	 -10.4518 	 81.1051 	 
H 	 -1.95938 	 -10.0283 	 81.3584 	 
H 	 -0.474787 	 -9.82533 	 80.3229 	 
C 	 -0.0409867 	 -10.4359 	 82.3026 	 
H 	 0.776325 	 -11.0711 	 81.9669 	 
H 	 -0.499611 	 -10.8632 	 83.1925 	 
H 	 0.381183 	 -9.43881 	 82.6585 	 
H 	 1.58291 	 -14.9202 	 75.7974 	 
H 	 -5.27038 	 -11.1227 	 78.4981 	 
*
