! wB97X-D3 SP def2-SVP
%pal
nprocs 16
end

* xyz 0 1
S 	 -38.179 	 50.2146 	 102.849 	 
C 	 -36.4499 	 50.2722 	 102.779 	 
C 	 -35.9683 	 51.4059 	 102.153 	 
C 	 -37.0306 	 52.315 	 101.755 	 
C 	 -38.2983 	 51.8664 	 102.179 	 
H 	 -36.9212 	 53.2103 	 101.24 	 
C 	 -34.4876 	 51.6757 	 101.846 	 
H 	 -33.9604 	 51.0556 	 102.531 	 
H 	 -34.3521 	 52.7114 	 102.167 	 
C 	 -34.0491 	 51.5052 	 100.458 	 
H 	 -32.9744 	 51.4518 	 100.547 	 
H 	 -34.4144 	 50.5457 	 100.185 	 
C 	 -34.5513 	 52.6494 	 99.5167 	 
H 	 -34.378 	 53.7255 	 99.8384 	 
H 	 -34.1941 	 52.6062 	 98.4782 	 
H 	 -35.6283 	 52.6864 	 99.3758 	 
S 	 -40.7265 	 52.6877 	 103.286 	 
C 	 -41.9761 	 53.323 	 102.249 	 
C 	 -41.4793 	 53.646 	 101.012 	 
C 	 -40.0865 	 53.2646 	 100.875 	 
C 	 -39.5725 	 52.5773 	 101.981 	 
H 	 -42.13 	 54.1893 	 100.3 	 
C 	 -39.4511 	 53.3841 	 99.5103 	 
H 	 -38.4237 	 53.6604 	 99.6649 	 
H 	 -39.832 	 54.266 	 98.9716 	 
C 	 -39.5793 	 52.1752 	 98.5297 	 
H 	 -39.308 	 51.2146 	 99.0036 	 
H 	 -38.8522 	 52.362 	 97.7464 	 
C 	 -40.9407 	 52.1733 	 97.837 	 
H 	 -41.1342 	 51.2114 	 97.3505 	 
H 	 -41.0141 	 52.9953 	 97.1184 	 
H 	 -41.8113 	 52.3362 	 98.5203 	 
H 	 -35.7973 	 49.5122 	 103.253 	 
H 	 -42.9676 	 53.6708 	 102.616 	 
*
