! wB97X-D3 SP def2-SVP
%pal
nprocs 16
end

* xyz 0 1
S 	 -33.8604 	 71.7291 	 143.465 	 
C 	 -32.8433 	 71.9872 	 144.939 	 
C 	 -32.793 	 70.8009 	 145.659 	 
C 	 -33.6462 	 69.8276 	 145.111 	 
C 	 -34.166 	 70.1177 	 143.86 	 
H 	 -33.9008 	 68.8187 	 145.546 	 
C 	 -31.9962 	 70.5858 	 146.926 	 
H 	 -31.1032 	 71.2122 	 146.919 	 
H 	 -31.5277 	 69.659 	 146.884 	 
C 	 -32.7326 	 70.8315 	 148.285 	 
H 	 -33.6569 	 70.3081 	 148.298 	 
H 	 -32.1368 	 70.2892 	 149.045 	 
C 	 -32.9849 	 72.3506 	 148.65 	 
H 	 -32.2839 	 73.0836 	 148.358 	 
H 	 -33.837 	 72.628 	 148.012 	 
H 	 -33.1844 	 72.498 	 149.73 	 
S 	 -36.7906 	 69.9017 	 143.246 	 
C 	 -37.3005 	 68.5259 	 142.324 	 
C 	 -36.2329 	 67.7754 	 141.912 	 
C 	 -34.9592 	 68.2526 	 142.266 	 
C 	 -35.1231 	 69.376 	 143.069 	 
H 	 -36.3861 	 66.9118 	 141.28 	 
C 	 -33.7248 	 67.4447 	 141.952 	 
H 	 -32.9144 	 68.1118 	 141.725 	 
H 	 -33.9401 	 66.8431 	 141.077 	 
C 	 -33.2935 	 66.4778 	 143.039 	 
H 	 -34.1442 	 65.8387 	 143.241 	 
H 	 -33.2409 	 67.0943 	 143.965 	 
C 	 -31.9847 	 65.6769 	 142.738 	 
H 	 -31.8056 	 64.9402 	 143.524 	 
H 	 -31.167 	 66.389 	 142.713 	 
H 	 -31.9804 	 65.1664 	 141.817 	 
H 	 -32.3948 	 72.82 	 145.372 	 
H 	 -38.3491 	 68.3396 	 142.301 	 
*
