! wB97X-D3 SP def2-SVP
%pal
nprocs 16
end

* xyz 0 1
S 	 -41.9491 	 37.9876 	 77.4147 	 
C 	 -41.8376 	 39.004 	 78.8815 	 
C 	 -40.4968 	 39.0736 	 79.2234 	 
C 	 -39.6074 	 38.4776 	 78.2753 	 
C 	 -40.1891 	 37.8303 	 77.2414 	 
H 	 -38.5142 	 38.5481 	 78.3419 	 
C 	 -40.0304 	 39.6166 	 80.579 	 
H 	 -40.8283 	 40.3488 	 80.7337 	 
H 	 -39.1499 	 40.1988 	 80.4235 	 
C 	 -39.956 	 38.5797 	 81.7286 	 
H 	 -40.5518 	 37.7151 	 81.3961 	 
H 	 -38.91 	 38.2957 	 81.8681 	 
C 	 -40.5242 	 38.9669 	 83.1135 	 
H 	 -40.4925 	 38.2654 	 83.9416 	 
H 	 -39.8185 	 39.7199 	 83.4154 	 
H 	 -41.5607 	 39.2871 	 82.988 	 
S 	 -38.3881 	 38.4819 	 75.3047 	 
C 	 -38.029 	 37.348 	 74.1318 	 
C 	 -38.7033 	 36.1506 	 74.3355 	 
C 	 -39.6816 	 36.2448 	 75.3334 	 
C 	 -39.5199 	 37.3344 	 76.0837 	 
H 	 -38.5666 	 35.3452 	 73.6495 	 
C 	 -40.633 	 35.1067 	 75.5343 	 
H 	 -40.9347 	 34.9914 	 76.5242 	 
H 	 -40.0949 	 34.2153 	 75.2594 	 
C 	 -41.8751 	 35.2182 	 74.6814 	 
H 	 -42.266 	 36.2143 	 74.7366 	 
H 	 -42.656 	 34.5562 	 75.1567 	 
C 	 -41.6457 	 34.7002 	 73.2602 	 
H 	 -41.1027 	 33.7353 	 73.388 	 
H 	 -40.9874 	 35.3097 	 72.6971 	 
H 	 -42.5973 	 34.6254 	 72.699 	 
H 	 -42.5683 	 39.3338 	 79.5853 	 
H 	 -37.1858 	 37.4185 	 73.4753 	 
*
