! wB97X-D3 SP def2-SVP
%pal
nprocs 16
end

* xyz 0 1
S 	 -100.237 	 42.4511 	 123.297 	 
C 	 -100.532 	 42.0361 	 124.987 	 
C 	 -99.3022 	 41.8388 	 125.614 	 
C 	 -98.1778 	 41.8866 	 124.703 	 
C 	 -98.5386 	 42.1307 	 123.4 	 
H 	 -97.1542 	 41.7311 	 124.915 	 
C 	 -99.1374 	 41.4751 	 127.113 	 
H 	 -100.112 	 41.6305 	 127.541 	 
H 	 -98.4311 	 42.2246 	 127.575 	 
C 	 -98.6217 	 40.0329 	 127.358 	 
H 	 -97.5931 	 40.0825 	 126.951 	 
H 	 -98.5255 	 39.7235 	 128.432 	 
C 	 -99.569 	 38.9601 	 126.642 	 
H 	 -99.284 	 37.9277 	 126.828 	 
H 	 -100.588 	 38.9712 	 127.069 	 
H 	 -99.6858 	 39.1795 	 125.553 	 
S 	 -96.3966 	 40.8623 	 122.298 	 
C 	 -95.7718 	 41.3772 	 120.716 	 
C 	 -96.4261 	 42.5005 	 120.276 	 
C 	 -97.5638 	 42.8581 	 121.074 	 
C 	 -97.6775 	 42.0659 	 122.227 	 
H 	 -95.9786 	 43.0678 	 119.492 	 
C 	 -98.2988 	 44.1653 	 120.838 	 
H 	 -99.02 	 44.5695 	 121.625 	 
H 	 -98.8674 	 44.044 	 119.92 	 
C 	 -97.3566 	 45.3863 	 120.51 	 
H 	 -97.9499 	 46.3793 	 120.669 	 
H 	 -97.1298 	 45.3015 	 119.441 	 
C 	 -96.0636 	 45.5674 	 121.349 	 
H 	 -96.2672 	 45.2765 	 122.362 	 
H 	 -95.6659 	 46.5304 	 121.198 	 
H 	 -95.3132 	 44.7845 	 121.052 	 
H 	 -101.539 	 42.0187 	 125.392 	 
H 	 -94.7518 	 41.1309 	 120.276 	 
*
