! wB97X-D3 SP def2-SVP
%pal
nprocs 16
end

* xyz 0 1
S 	 -99.6823 	 38.4735 	 128.063 	 
C 	 -99.7966 	 37.7939 	 129.581 	 
C 	 -98.5281 	 37.76 	 130.209 	 
C 	 -97.5473 	 38.4816 	 129.409 	 
C 	 -98.0279 	 38.9947 	 128.23 	 
H 	 -96.4314 	 38.5267 	 129.581 	 
C 	 -98.1183 	 37.126 	 131.49 	 
H 	 -98.8857 	 37.3397 	 132.23 	 
H 	 -97.2264 	 37.5583 	 131.839 	 
C 	 -97.959 	 35.6036 	 131.344 	 
H 	 -98.7612 	 35.282 	 130.733 	 
H 	 -97.1318 	 35.467 	 130.665 	 
C 	 -97.7172 	 34.9089 	 132.734 	 
H 	 -98.7005 	 34.7797 	 133.122 	 
H 	 -97.0661 	 33.9755 	 132.718 	 
H 	 -97.2927 	 35.6035 	 133.417 	 
S 	 -95.8865 	 38.9692 	 126.452 	 
C 	 -95.7829 	 40.2102 	 125.281 	 
C 	 -96.7737 	 41.211 	 125.482 	 
C 	 -97.6793 	 40.9107 	 126.52 	 
C 	 -97.3591 	 39.696 	 127.139 	 
H 	 -96.772 	 42.051 	 124.787 	 
C 	 -98.925 	 41.7608 	 126.945 	 
H 	 -98.687 	 42.1615 	 127.912 	 
H 	 -99.7056 	 41.0689 	 127.062 	 
C 	 -99.3702 	 42.9381 	 126.01 	 
H 	 -98.6436 	 43.6925 	 125.737 	 
H 	 -100.101 	 43.5131 	 126.639 	 
C 	 -100.101 	 42.4388 	 124.719 	 
H 	 -99.4776 	 42.0077 	 123.945 	 
H 	 -100.501 	 43.3852 	 124.371 	 
H 	 -100.868 	 41.6442 	 124.962 	 
H 	 -100.651 	 37.5234 	 130.09 	 
H 	 -95.0671 	 40.3487 	 124.531 	 
*
