! wB97X-D3 SP def2-SVP
%pal
nprocs 16
end

* xyz 0 1
S 	 45.8746 	 21.5663 	 92.7173 	 
C 	 46.5244 	 22.9836 	 93.5859 	 
C 	 46.0266 	 24.2208 	 93.1455 	 
C 	 45.2658 	 23.9686 	 91.9362 	 
C 	 45.0392 	 22.6719 	 91.5937 	 
H 	 44.8495 	 24.7605 	 91.3648 	 
C 	 46.2924 	 25.5849 	 93.669 	 
H 	 45.6762 	 25.4648 	 94.5298 	 
H 	 45.9408 	 26.4027 	 93.0124 	 
C 	 47.72 	 25.915 	 94.0184 	 
H 	 48.0881 	 25.303 	 94.7661 	 
H 	 48.5093 	 25.5786 	 93.3223 	 
C 	 47.7783 	 27.4044 	 94.387 	 
H 	 47.3065 	 28.0805 	 93.6656 	 
H 	 47.3584 	 27.6833 	 95.4198 	 
H 	 48.8434 	 27.6906 	 94.3943 	 
S 	 44.7321 	 21.0549 	 89.3333 	 
C 	 43.1996 	 21.064 	 88.4244 	 
C 	 42.4146 	 22.0443 	 88.9269 	 
C 	 42.9033 	 22.7516 	 90.129 	 
C 	 44.1626 	 22.2577 	 90.4848 	 
H 	 41.4676 	 22.2233 	 88.467 	 
C 	 42.03 	 23.6354 	 90.9105 	 
H 	 41.7652 	 24.3304 	 90.2011 	 
H 	 42.5605 	 24.3794 	 91.4759 	 
C 	 40.8593 	 23.0039 	 91.6489 	 
H 	 41.2562 	 22.5258 	 92.5334 	 
H 	 40.3896 	 22.3534 	 90.9739 	 
C 	 39.761 	 23.9803 	 92.0874 	 
H 	 39.2221 	 23.5697 	 92.8692 	 
H 	 39.1372 	 24.3432 	 91.2549 	 
H 	 40.1998 	 24.9108 	 92.5725 	 
H 	 47.1077 	 22.7714 	 94.4581 	 
H 	 42.9895 	 20.3799 	 87.6747 	 
*
