! wB97X-D3 SP def2-SVP
%pal
nprocs 16
end

* xyz 0 1
S 	 2.86305 	 77.3019 	 47.1296 	 
C 	 3.38054 	 75.9865 	 48.215 	 
C 	 4.51212 	 76.2327 	 48.8907 	 
C 	 5.0596 	 77.4839 	 48.5412 	 
C 	 4.24917 	 78.2485 	 47.7665 	 
H 	 6.12605 	 77.8892 	 48.7405 	 
C 	 5.08494 	 75.273 	 49.8937 	 
H 	 5.10409 	 74.316 	 49.4394 	 
H 	 4.31148 	 75.3017 	 50.6745 	 
C 	 6.57424 	 75.5634 	 50.368 	 
H 	 7.02794 	 74.6282 	 50.8466 	 
H 	 7.27001 	 75.8071 	 49.5664 	 
C 	 6.59323 	 76.5579 	 51.5687 	 
H 	 7.5685 	 76.9422 	 51.8563 	 
H 	 5.92071 	 77.3516 	 51.4317 	 
H 	 6.26327 	 76.1291 	 52.4971 	 
S 	 5.89801 	 79.9135 	 46.0631 	 
C 	 5.67237 	 81.6188 	 46.2599 	 
C 	 4.6167 	 81.9412 	 47.0026 	 
C 	 3.98619 	 80.8052 	 47.5943 	 
C 	 4.58067 	 79.612 	 47.2053 	 
H 	 4.14689 	 82.8826 	 47.1016 	 
C 	 2.89789 	 80.9688 	 48.5333 	 
H 	 2.58222 	 80.0614 	 48.9237 	 
H 	 2.00064 	 81.3783 	 48.0884 	 
C 	 3.18857 	 81.9417 	 49.7241 	 
H 	 2.22653 	 82.257 	 50.1761 	 
H 	 3.62484 	 82.9109 	 49.449 	 
C 	 4.09027 	 81.3645 	 50.7854 	 
H 	 3.5408 	 80.5401 	 51.3229 	 
H 	 4.34199 	 82.1364 	 51.5575 	 
H 	 4.91479 	 80.971 	 50.2367 	 
H 	 2.82482 	 75.0975 	 48.383 	 
H 	 6.15615 	 82.3702 	 45.6216 	 
*
