! wB97X-D3 SP def2-SVP
%pal
nprocs 16
end

* xyz 0 1
S 	 19.2863 	 -8.40387 	 78.4902 	 
C 	 18.0217 	 -8.5022 	 77.2683 	 
C 	 16.7678 	 -8.50476 	 77.909 	 
C 	 16.8518 	 -8.80496 	 79.3565 	 
C 	 18.1822 	 -8.9809 	 79.7818 	 
H 	 16.0283 	 -8.91853 	 80.0648 	 
C 	 15.438 	 -8.27204 	 77.2179 	 
H 	 14.6312 	 -8.71605 	 77.7971 	 
H 	 15.4652 	 -9.02483 	 76.3876 	 
C 	 15.0988 	 -6.86839 	 76.6627 	 
H 	 15.0031 	 -6.14151 	 77.4971 	 
H 	 15.9238 	 -6.42015 	 76.0243 	 
C 	 13.7228 	 -6.84959 	 75.97 	 
H 	 13.3612 	 -5.79222 	 75.9794 	 
H 	 13.7102 	 -7.3975 	 75.0229 	 
H 	 13.0277 	 -7.34339 	 76.6204 	 
S 	 19.4542 	 -7.90838 	 81.9226 	 
C 	 19.5171 	 -8.87344 	 83.4426 	 
C 	 19.1302 	 -10.15 	 83.2567 	 
C 	 18.7146 	 -10.3801 	 81.8762 	 
C 	 18.6833 	 -9.21336 	 81.1306 	 
H 	 19.0686 	 -10.8578 	 84.0939 	 
C 	 18.1642 	 -11.749 	 81.5409 	 
H 	 18.7541 	 -12.4886 	 82.2134 	 
H 	 18.4062 	 -11.8048 	 80.4326 	 
C 	 16.6965 	 -12.0425 	 81.853 	 
H 	 16.1479 	 -11.3978 	 81.2188 	 
H 	 16.429 	 -11.676 	 82.8717 	 
C 	 16.2418 	 -13.4927 	 81.5347 	 
H 	 16.5203 	 -13.7723 	 80.5284 	 
H 	 15.1406 	 -13.5226 	 81.5246 	 
H 	 16.5914 	 -14.1456 	 82.3677 	 
H 	 18.1512 	 -8.52298 	 76.19 	 
H 	 19.9299 	 -8.45658 	 84.3344 	 
*
