! wB97X-D3 SP def2-SVP
%pal
nprocs 16
end

* xyz 0 1
S 	 -90.9873 	 39.1292 	 125.649 	 
C 	 -90.1867 	 37.8349 	 124.807 	 
C 	 -90.8793 	 37.3394 	 123.733 	 
C 	 -92.0399 	 38.1097 	 123.559 	 
C 	 -92.2488 	 39.0941 	 124.496 	 
H 	 -92.7893 	 37.7394 	 122.948 	 
C 	 -90.4619 	 36.2021 	 122.823 	 
H 	 -90.3804 	 35.2948 	 123.347 	 
H 	 -89.444 	 36.354 	 122.496 	 
C 	 -91.3815 	 35.8422 	 121.609 	 
H 	 -90.9267 	 35.0402 	 121.046 	 
H 	 -92.329 	 35.4717 	 121.913 	 
C 	 -91.6053 	 36.8842 	 120.568 	 
H 	 -90.7644 	 37.5834 	 120.46 	 
H 	 -91.7446 	 36.5542 	 119.538 	 
H 	 -92.4603 	 37.5242 	 120.765 	 
S 	 -94.3298 	 39.8278 	 126.101 	 
C 	 -95.5821 	 40.8294 	 125.385 	 
C 	 -95.3743 	 41.1205 	 124.056 	 
C 	 -94.1932 	 40.4732 	 123.598 	 
C 	 -93.4397 	 39.8927 	 124.622 	 
H 	 -95.9396 	 41.8709 	 123.475 	 
C 	 -93.8292 	 40.5377 	 122.129 	 
H 	 -92.8008 	 40.0839 	 121.932 	 
H 	 -93.7336 	 41.5929 	 121.853 	 
C 	 -94.7579 	 39.7615 	 121.136 	 
H 	 -95.8081 	 40.0665 	 121.121 	 
H 	 -94.7724 	 38.6238 	 121.439 	 
C 	 -94.2489 	 39.9175 	 119.723 	 
H 	 -94.6021 	 39.204 	 118.968 	 
H 	 -93.1277 	 39.7802 	 119.613 	 
H 	 -94.5835 	 40.9092 	 119.362 	 
H 	 -89.142 	 37.5164 	 124.969 	 
H 	 -96.4834 	 41.2097 	 125.89 	 
*
