! wB97X-D3 SP def2-SVP
%pal
nprocs 16
end

* xyz 0 1
S 	 9.98207 	 21.5044 	 40.9761 	 
C 	 10.3482 	 22.6069 	 39.6196 	 
C 	 9.91412 	 22.0887 	 38.4318 	 
C 	 9.27263 	 20.8202 	 38.6036 	 
C 	 9.30005 	 20.3017 	 39.8825 	 
H 	 8.72009 	 20.3359 	 37.8491 	 
C 	 9.91891 	 22.8184 	 37.0931 	 
H 	 10.6533 	 22.285 	 36.4585 	 
H 	 10.1196 	 23.8568 	 37.2375 	 
C 	 8.66643 	 22.8318 	 36.1687 	 
H 	 8.79144 	 23.4283 	 35.2265 	 
H 	 8.51855 	 21.8648 	 35.7498 	 
C 	 7.32637 	 23.2734 	 36.863 	 
H 	 7.10894 	 22.4953 	 37.6534 	 
H 	 7.53555 	 24.1839 	 37.3943 	 
H 	 6.47257 	 23.3921 	 36.0928 	 
S 	 9.50579 	 17.5955 	 39.8998 	 
C 	 8.13552 	 16.7014 	 40.5051 	 
C 	 7.12408 	 17.4638 	 40.9833 	 
C 	 7.39548 	 18.8596 	 40.9361 	 
C 	 8.64827 	 19.0938 	 40.344 	 
H 	 6.1849 	 16.9571 	 41.2093 	 
C 	 6.36826 	 19.9203 	 41.1432 	 
H 	 6.98623 	 20.8306 	 40.9698 	 
H 	 6.0139 	 20.0078 	 42.1841 	 
C 	 5.23815 	 19.8837 	 40.1126 	 
H 	 4.6116 	 19.0797 	 40.4263 	 
H 	 5.5138 	 19.5941 	 39.1047 	 
C 	 4.33446 	 21.1705 	 40.0547 	 
H 	 3.48108 	 21.0817 	 39.3481 	 
H 	 4.9807 	 21.8567 	 39.6124 	 
H 	 3.97233 	 21.5152 	 41.0506 	 
H 	 11.0426 	 23.4005 	 39.696 	 
H 	 8.1308 	 15.6462 	 40.6522 	 
*
