! wB97X-D3 SP def2-SVP
%pal
nprocs 16
end

* xyz 0 1
S 	 55.5116 	 5.68714 	 84.4603 	 
C 	 56.618 	 4.3474 	 84.4499 	 
C 	 55.9304 	 3.09808 	 84.2857 	 
C 	 54.5238 	 3.28227 	 84.4246 	 
C 	 54.1696 	 4.61522 	 84.5109 	 
H 	 53.754 	 2.51546 	 84.4492 	 
C 	 56.588 	 1.74132 	 84.1731 	 
H 	 55.8799 	 1.05522 	 84.554 	 
H 	 57.4078 	 1.64422 	 84.9223 	 
C 	 57.0154 	 1.26054 	 82.7114 	 
H 	 56.1297 	 1.02621 	 82.0841 	 
H 	 57.5313 	 2.00505 	 82.0439 	 
C 	 57.9773 	 -0.0416492 	 82.6993 	 
H 	 57.5367 	 -0.834715 	 83.3092 	 
H 	 57.8635 	 -0.469484 	 81.6667 	 
H 	 58.9727 	 0.182409 	 83.0317 	 
S 	 51.816 	 4.97168 	 83.3309 	 
C 	 50.4473 	 5.35237 	 84.3305 	 
C 	 50.7538 	 5.48201 	 85.6454 	 
C 	 52.1535 	 5.30905 	 85.8704 	 
C 	 52.8223 	 5.13158 	 84.715 	 
H 	 49.9349 	 5.60521 	 86.3523 	 
C 	 52.768 	 5.09084 	 87.2636 	 
H 	 52.4839 	 5.89298 	 87.9332 	 
H 	 53.86 	 5.20304 	 87.0673 	 
C 	 52.4312 	 3.69962 	 87.9163 	 
H 	 52.5027 	 2.86541 	 87.2123 	 
H 	 51.4486 	 3.76914 	 88.3498 	 
C 	 53.4107 	 3.43952 	 89.0142 	 
H 	 54.2482 	 4.04845 	 89.0617 	 
H 	 53.8402 	 2.41952 	 89.1689 	 
H 	 52.7997 	 3.67636 	 89.8684 	 
H 	 57.6523 	 4.37898 	 84.5742 	 
H 	 49.4295 	 5.28274 	 83.9846 	 
*
