! wB97X-D3 SP def2-SVP
%pal
nprocs 16
end

* xyz 0 1
S 	 44.4824 	 4.9675 	 85.0506 	 
C 	 45.144 	 6.53558 	 84.5656 	 
C 	 45.0699 	 7.47402 	 85.6198 	 
C 	 44.2922 	 6.97944 	 86.7304 	 
C 	 43.9745 	 5.63938 	 86.6503 	 
H 	 44.1234 	 7.52251 	 87.6882 	 
C 	 45.7217 	 8.832 	 85.4992 	 
H 	 45.2611 	 9.4862 	 86.3212 	 
H 	 45.5259 	 9.44722 	 84.6174 	 
C 	 47.2033 	 8.7784 	 85.6713 	 
H 	 47.7964 	 8.12959 	 85.0023 	 
H 	 47.5407 	 9.72767 	 85.3021 	 
C 	 47.7132 	 8.39278 	 87.1021 	 
H 	 47.3425 	 9.06859 	 87.8933 	 
H 	 47.5058 	 7.32434 	 87.4419 	 
H 	 48.7957 	 8.57902 	 87.1716 	 
S 	 42.094 	 3.69165 	 87.3527 	 
C 	 42.1818 	 2.98714 	 88.9671 	 
C 	 43.0943 	 3.61783 	 89.7452 	 
C 	 43.8304 	 4.65207 	 89.0671 	 
C 	 43.4654 	 4.8001 	 87.7094 	 
H 	 43.3406 	 3.23397 	 90.7719 	 
C 	 44.8574 	 5.49242 	 89.7065 	 
H 	 45.5774 	 5.84333 	 88.9585 	 
H 	 45.4497 	 4.70456 	 90.2002 	 
C 	 44.5035 	 6.60442 	 90.7091 	 
H 	 44.1306 	 6.29572 	 91.7108 	 
H 	 43.5797 	 7.12119 	 90.2868 	 
C 	 45.7753 	 7.52338 	 90.7443 	 
H 	 46.7044 	 7.00828 	 90.8815 	 
H 	 45.6911 	 8.28999 	 91.5218 	 
H 	 45.9013 	 8.06847 	 89.8653 	 
H 	 45.7857 	 6.56806 	 83.6911 	 
H 	 41.6113 	 2.14223 	 89.2742 	 
*
