! wB97X-D3 SP def2-SVP
%pal
nprocs 16
end

* xyz 0 1
S 	 -45.05 	 25.5886 	 84.3625 	 
C 	 -46.0053 	 25.8099 	 85.8231 	 
C 	 -45.227 	 25.3309 	 86.8862 	 
C 	 -43.8974 	 25.0537 	 86.4441 	 
C 	 -43.5947 	 25.3849 	 85.1409 	 
H 	 -43.1113 	 24.5745 	 87.0559 	 
C 	 -45.8028 	 24.9731 	 88.2495 	 
H 	 -46.1603 	 23.9779 	 88.2047 	 
H 	 -46.7364 	 25.6771 	 88.3792 	 
C 	 -44.9785 	 25.2268 	 89.5242 	 
H 	 -45.5722 	 24.6475 	 90.2955 	 
H 	 -44.0705 	 24.696 	 89.6531 	 
C 	 -44.8672 	 26.6644 	 89.904 	 
H 	 -44.3465 	 27.225 	 89.0994 	 
H 	 -45.8209 	 27.1376 	 89.9141 	 
H 	 -44.3397 	 26.92 	 90.8392 	 
S 	 -42.3649 	 24.7442 	 82.8419 	 
C 	 -40.6594 	 24.7527 	 82.6181 	 
C 	 -39.9945 	 25.2536 	 83.7285 	 
C 	 -40.9365 	 25.4961 	 84.8194 	 
C 	 -42.2772 	 25.3032 	 84.4735 	 
H 	 -38.9663 	 25.4314 	 83.6619 	 
C 	 -40.4417 	 25.8483 	 86.2488 	 
H 	 -41.1004 	 26.6274 	 86.6963 	 
H 	 -39.5946 	 26.3821 	 86.1852 	 
C 	 -40.0661 	 24.6403 	 87.18 	 
H 	 -39.4121 	 24.0499 	 86.618 	 
H 	 -40.9926 	 24.039 	 87.3383 	 
C 	 -39.5479 	 25.1329 	 88.6089 	 
H 	 -38.8459 	 25.9873 	 88.5999 	 
H 	 -39.0709 	 24.2392 	 89.1864 	 
H 	 -40.3761 	 25.4352 	 89.2534 	 
H 	 -47.0552 	 26.0984 	 85.9274 	 
H 	 -40.1386 	 24.4385 	 81.7882 	 
*
