! wB97X-D3 SP def2-SVP
%pal
nprocs 16
end

* xyz 0 1
S 	 31.4776 	 10.7147 	 70.9463 	 
C 	 30.1923 	 11.5057 	 70.1318 	 
C 	 29.9072 	 10.8406 	 68.9307 	 
C 	 30.9084 	 9.89662 	 68.5577 	 
C 	 31.7848 	 9.61792 	 69.5947 	 
H 	 30.8388 	 9.33461 	 67.6204 	 
C 	 28.7668 	 11.3189 	 68.0248 	 
H 	 29.211 	 11.9889 	 67.2802 	 
H 	 28.1311 	 12.0147 	 68.5955 	 
C 	 27.895 	 10.1609 	 67.3749 	 
H 	 28.586 	 9.47151 	 66.8875 	 
H 	 27.4487 	 9.5544 	 68.1217 	 
C 	 26.745 	 10.7727 	 66.5324 	 
H 	 26.3588 	 10.0466 	 65.7981 	 
H 	 25.9096 	 11.0343 	 67.119 	 
H 	 27.1342 	 11.6822 	 65.9268 	 
S 	 34.5624 	 9.57251 	 69.5622 	 
C 	 35.2718 	 8.00874 	 69.6309 	 
C 	 34.4483 	 7.06922 	 69.0897 	 
C 	 33.0915 	 7.51469 	 68.9981 	 
C 	 32.9934 	 8.78342 	 69.5267 	 
H 	 34.8006 	 6.0676 	 68.8798 	 
C 	 31.9605 	 6.62644 	 68.5208 	 
H 	 31.1641 	 7.2111 	 68.2649 	 
H 	 31.5373 	 6.14582 	 69.4768 	 
C 	 32.2399 	 5.55991 	 67.4215 	 
H 	 33.0505 	 4.92599 	 67.7011 	 
H 	 32.5444 	 6.13985 	 66.5474 	 
C 	 30.9866 	 4.73725 	 67.0661 	 
H 	 30.467 	 4.25664 	 67.9018 	 
H 	 31.2406 	 3.9289 	 66.4181 	 
H 	 30.2226 	 5.4624 	 66.6008 	 
H 	 29.6074 	 12.3108 	 70.5029 	 
H 	 36.3123 	 7.86717 	 69.7675 	 
*
