! wB97X-D3 SP def2-SVP
%pal
nprocs 16
end

* xyz 0 1
S 	 -49.3886 	 65.0882 	 127.348 	 
C 	 -47.8245 	 65.6484 	 126.792 	 
C 	 -46.8402 	 64.771 	 127.165 	 
C 	 -47.3259 	 63.7793 	 128.034 	 
C 	 -48.7102 	 63.6924 	 128.195 	 
H 	 -46.7051 	 63.0519 	 128.486 	 
C 	 -45.3741 	 65.0572 	 127.025 	 
H 	 -45.2911 	 65.6735 	 126.148 	 
H 	 -44.9483 	 64.139 	 126.87 	 
C 	 -44.647 	 65.7581 	 128.253 	 
H 	 -45.3526 	 66.5024 	 128.541 	 
H 	 -44.6452 	 65.2121 	 129.148 	 
C 	 -43.2259 	 66.345 	 127.9 	 
H 	 -42.5897 	 65.5181 	 127.646 	 
H 	 -43.328 	 66.9045 	 126.999 	 
H 	 -42.8179 	 67.0036 	 128.613 	 
S 	 -51.1022 	 63.1308 	 129.535 	 
C 	 -51.3579 	 61.5594 	 130.247 	 
C 	 -50.3172 	 60.7864 	 130.072 	 
C 	 -49.1959 	 61.4411 	 129.426 	 
C 	 -49.519 	 62.6971 	 128.937 	 
H 	 -50.3804 	 59.7227 	 130.237 	 
C 	 -47.9605 	 60.6047 	 129.233 	 
H 	 -47.4694 	 60.8853 	 128.243 	 
H 	 -48.2454 	 59.5519 	 128.994 	 
C 	 -46.8467 	 60.7235 	 130.28 	 
H 	 -47.3047 	 60.4116 	 131.268 	 
H 	 -46.6736 	 61.8442 	 130.449 	 
C 	 -45.5745 	 59.8799 	 130.067 	 
H 	 -44.9191 	 60.2277 	 129.232 	 
H 	 -45.6369 	 58.7846 	 130.106 	 
H 	 -44.9666 	 60.1374 	 130.95 	 
H 	 -47.769 	 66.5726 	 126.312 	 
H 	 -52.3368 	 61.2955 	 130.643 	 
*
