! wB97X-D3 SP def2-SVP
%pal
nprocs 16
end

* xyz 0 1
S 	 -41.3291 	 27.7929 	 80.9997 	 
C 	 -41.8352 	 27.3376 	 79.3807 	 
C 	 -41.5993 	 25.959 	 79.1489 	 
C 	 -41.1483 	 25.3374 	 80.3662 	 
C 	 -40.9939 	 26.172 	 81.4568 	 
H 	 -40.9734 	 24.2894 	 80.4411 	 
C 	 -41.8811 	 25.1085 	 77.9305 	 
H 	 -41.1129 	 24.3278 	 77.9536 	 
H 	 -41.6137 	 25.7298 	 77.1142 	 
C 	 -43.3435 	 24.6291 	 77.8358 	 
H 	 -43.1127 	 23.8444 	 77.0394 	 
H 	 -43.5295 	 24.1275 	 78.7641 	 
C 	 -44.3445 	 25.7545 	 77.4405 	 
H 	 -44.139 	 26.7511 	 77.9873 	 
H 	 -44.2057 	 26.0134 	 76.3597 	 
H 	 -45.3793 	 25.4228 	 77.6341 	 
S 	 -41.5994 	 24.5564 	 83.5191 	 
C 	 -40.4535 	 24.2986 	 84.8424 	 
C 	 -39.5632 	 25.3829 	 84.8222 	 
C 	 -39.6377 	 26.2676 	 83.6873 	 
C 	 -40.5797 	 25.7504 	 82.7738 	 
H 	 -38.8891 	 25.5802 	 85.702 	 
C 	 -38.6268 	 27.4574 	 83.4561 	 
H 	 -38.9305 	 28.3682 	 84.0385 	 
H 	 -38.8324 	 27.6307 	 82.3542 	 
C 	 -37.1469 	 27.1157 	 83.7251 	 
H 	 -37.0683 	 26.7096 	 84.7268 	 
H 	 -36.4084 	 27.8999 	 83.6974 	 
C 	 -36.6273 	 25.9002 	 82.8897 	 
H 	 -36.4312 	 26.0231 	 81.8633 	 
H 	 -37.1811 	 24.935 	 83.1035 	 
H 	 -35.7142 	 25.6253 	 83.3945 	 
H 	 -42.1526 	 28.1207 	 78.6742 	 
H 	 -40.6542 	 23.7499 	 85.8259 	 
*
