! wB97X-D3 SP def2-SVP
%pal
nprocs 16
end

* xyz 0 1
S 	 -3.28375 	 -24.1389 	 84.7059 	 
C 	 -1.85092 	 -24.3357 	 83.7661 	 
C 	 -0.859929 	 -23.3772 	 84.0351 	 
C 	 -1.40687 	 -22.3532 	 84.8869 	 
C 	 -2.63118 	 -22.665 	 85.3679 	 
H 	 -0.93024 	 -21.439 	 85.305 	 
C 	 0.567286 	 -23.5194 	 83.6135 	 
H 	 0.575434 	 -23.3391 	 82.5431 	 
H 	 0.762456 	 -24.6023 	 83.6168 	 
C 	 1.59783 	 -22.7751 	 84.5591 	 
H 	 2.62682 	 -22.7129 	 84.1501 	 
H 	 1.15218 	 -21.7692 	 84.7252 	 
C 	 1.48454 	 -23.4283 	 85.9242 	 
H 	 2.27367 	 -22.9784 	 86.5506 	 
H 	 0.537761 	 -23.3235 	 86.432 	 
H 	 1.83551 	 -24.4752 	 85.7343 	 
S 	 -4.24638 	 -22.8672 	 87.6286 	 
C 	 -4.8441 	 -21.3587 	 88.2474 	 
C 	 -4.68065 	 -20.2368 	 87.4496 	 
C 	 -3.9266 	 -20.6386 	 86.2894 	 
C 	 -3.44681 	 -21.9399 	 86.346 	 
H 	 -5.2035 	 -19.298 	 87.754 	 
C 	 -3.51024 	 -19.6049 	 85.2762 	 
H 	 -2.50012 	 -19.6613 	 84.9264 	 
H 	 -3.42957 	 -18.7692 	 85.939 	 
C 	 -4.40599 	 -19.2825 	 84.1196 	 
H 	 -4.04104 	 -18.4302 	 83.58 	 
H 	 -5.50355 	 -19.2103 	 84.4967 	 
C 	 -4.41683 	 -20.4752 	 83.1563 	 
H 	 -5.25405 	 -20.3916 	 82.4524 	 
H 	 -4.47941 	 -21.4482 	 83.6328 	 
H 	 -3.53009 	 -20.5206 	 82.5621 	 
H 	 -1.81928 	 -25.1044 	 82.9808 	 
H 	 -5.5822 	 -21.3296 	 89.0837 	 
*
