! wB97X-D3 SP def2-SVP
%pal
nprocs 16
end

* xyz 0 1
S 	 -71.5552 	 37.141 	 114.473 	 
C 	 -71.5548 	 37.797 	 116.079 	 
C 	 -70.8734 	 36.8581 	 116.921 	 
C 	 -70.0818 	 35.8797 	 116.223 	 
C 	 -70.3079 	 35.9745 	 114.855 	 
H 	 -69.2721 	 35.2175 	 116.594 	 
C 	 -70.7378 	 36.9871 	 118.441 	 
H 	 -70.3093 	 38.0062 	 118.567 	 
H 	 -69.8187 	 36.3366 	 118.757 	 
C 	 -72.0141 	 36.6323 	 119.251 	 
H 	 -72.9346 	 37.1331 	 118.845 	 
H 	 -72.2665 	 35.542 	 119.203 	 
C 	 -71.8864 	 37.0316 	 120.686 	 
H 	 -70.8628 	 37.0502 	 120.986 	 
H 	 -72.2685 	 38.0544 	 120.695 	 
H 	 -72.4581 	 36.4109 	 121.408 	 
S 	 -70.7245 	 34.2448 	 112.741 	 
C 	 -69.3481 	 33.6055 	 111.839 	 
C 	 -68.1968 	 33.9724 	 112.506 	 
C 	 -68.4111 	 34.871 	 113.564 	 
C 	 -69.7007 	 35.1419 	 113.822 	 
H 	 -67.2573 	 33.6095 	 112.181 	 
C 	 -67.2249 	 35.5576 	 114.285 	 
H 	 -67.638 	 36.2281 	 115.015 	 
H 	 -66.6232 	 36.2155 	 113.686 	 
C 	 -66.1505 	 34.6283 	 114.879 	 
H 	 -65.7649 	 33.9871 	 114.056 	 
H 	 -66.5391 	 33.8033 	 115.486 	 
C 	 -64.9372 	 35.2976 	 115.603 	 
H 	 -64.163 	 34.5616 	 115.615 	 
H 	 -65.1333 	 35.5515 	 116.576 	 
H 	 -64.5074 	 36.1701 	 115.131 	 
H 	 -72.225 	 38.4993 	 116.43 	 
H 	 -69.4316 	 32.865 	 111.007 	 
*
