! wB97X-D3 SP def2-SVP
%pal
nprocs 16
end

* xyz 0 1
S 	 -89.7347 	 41.1988 	 113.293 	 
C 	 -88.8751 	 41.7171 	 114.749 	 
C 	 -89.6152 	 42.5378 	 115.536 	 
C 	 -90.8998 	 42.7127 	 114.981 	 
C 	 -91.1199 	 42.0909 	 113.762 	 
H 	 -91.6403 	 43.4191 	 115.307 	 
C 	 -89.207 	 43.3132 	 116.762 	 
H 	 -89.9684 	 44.0252 	 116.987 	 
H 	 -88.3357 	 43.8395 	 116.443 	 
C 	 -89.0798 	 42.4481 	 118.055 	 
H 	 -88.2813 	 41.6916 	 118.073 	 
H 	 -88.8201 	 43.2363 	 118.717 	 
C 	 -90.3459 	 41.705 	 118.474 	 
H 	 -90.6573 	 40.8933 	 117.798 	 
H 	 -90.1072 	 41.4406 	 119.498 	 
H 	 -91.192 	 42.2787 	 118.591 	 
S 	 -92.2083 	 42.3348 	 111.235 	 
C 	 -93.9241 	 42.005 	 111.042 	 
C 	 -94.5279 	 41.8756 	 112.254 	 
C 	 -93.6005 	 41.8151 	 113.32 	 
C 	 -92.3069 	 42.012 	 112.94 	 
H 	 -95.6055 	 41.8463 	 112.301 	 
C 	 -94.0821 	 41.5938 	 114.725 	 
H 	 -93.3114 	 42.0138 	 115.384 	 
H 	 -94.2767 	 40.5698 	 114.907 	 
C 	 -95.4773 	 42.1928 	 114.981 	 
H 	 -96.1943 	 41.6896 	 114.321 	 
H 	 -95.5084 	 43.1849 	 114.564 	 
C 	 -95.853 	 42.2107 	 116.439 	 
H 	 -95.56 	 43.1259 	 116.925 	 
H 	 -95.4736 	 41.3643 	 117.037 	 
H 	 -96.9202 	 42.0893 	 116.566 	 
H 	 -87.8385 	 41.5061 	 114.984 	 
H 	 -94.5034 	 42.1991 	 110.138 	 
*
