! wB97X-D3 SP def2-SVP
%pal
nprocs 16
end

* xyz 0 1
S 	 37.9975 	 13.7316 	 82.7616 	 
C 	 36.8233 	 14.8177 	 83.5223 	 
C 	 36.8713 	 14.7591 	 84.9121 	 
C 	 37.8524 	 13.8487 	 85.3888 	 
C 	 38.646 	 13.3209 	 84.3849 	 
H 	 38.0807 	 13.5796 	 86.3899 	 
C 	 36.238 	 15.729 	 85.8591 	 
H 	 35.8548 	 15.2476 	 86.7479 	 
H 	 35.3318 	 16.0484 	 85.3253 	 
C 	 37.2082 	 16.8256 	 86.2743 	 
H 	 37.6648 	 17.1522 	 85.3575 	 
H 	 36.5463 	 17.641 	 86.5971 	 
C 	 38.2251 	 16.4997 	 87.3347 	 
H 	 38.9452 	 15.8237 	 86.8831 	 
H 	 38.7118 	 17.3311 	 87.631 	 
H 	 37.9674 	 16.0057 	 88.2871 	 
S 	 40.2511 	 11.4592 	 83.1082 	 
C 	 41.7381 	 10.8831 	 83.8531 	 
C 	 41.788 	 11.3225 	 85.1367 	 
C 	 40.6832 	 12.1556 	 85.5775 	 
C 	 39.7925 	 12.406 	 84.5323 	 
H 	 42.6726 	 11.0657 	 85.6635 	 
C 	 40.7468 	 12.827 	 86.9221 	 
H 	 40.35 	 13.8481 	 86.7976 	 
H 	 41.7907 	 12.8209 	 87.2795 	 
C 	 39.8717 	 12.0493 	 87.9911 	 
H 	 38.8193 	 12.0449 	 87.7193 	 
H 	 39.9107 	 12.5531 	 88.9347 	 
C 	 40.2497 	 10.6036 	 88.2407 	 
H 	 41.3032 	 10.4295 	 88.354 	 
H 	 39.8261 	 9.93723 	 87.4608 	 
H 	 39.7654 	 10.2969 	 89.1819 	 
H 	 36.3355 	 15.6168 	 82.9597 	 
H 	 42.5239 	 10.2286 	 83.4692 	 
*
