! wB97X-D3 SP def2-SVP
%pal
nprocs 16
end

* xyz 0 1
S 	 8.45799 	 -8.10798 	 69.1217 	 
C 	 7.85819 	 -7.51453 	 67.5884 	 
C 	 6.92308 	 -6.5213 	 67.871 	 
C 	 6.84421 	 -6.13561 	 69.2132 	 
C 	 7.59073 	 -6.92238 	 70.065 	 
H 	 6.07533 	 -5.49986 	 69.5768 	 
C 	 6.07149 	 -5.83754 	 66.8301 	 
H 	 5.97104 	 -6.44722 	 65.9243 	 
H 	 6.48303 	 -4.90642 	 66.59 	 
C 	 4.61655 	 -5.47699 	 67.2029 	 
H 	 4.5688 	 -4.6416 	 67.9678 	 
H 	 4.24353 	 -5.00978 	 66.3163 	 
C 	 3.80883 	 -6.77752 	 67.3319 	 
H 	 3.93802 	 -7.29346 	 68.3458 	 
H 	 2.78809 	 -6.62073 	 67.129 	 
H 	 4.02761 	 -7.46544 	 66.5092 	 
S 	 8.33587 	 -8.41236 	 72.2257 	 
C 	 8.01835 	 -7.86675 	 73.8164 	 
C 	 7.77617 	 -6.5222 	 73.816 	 
C 	 7.47981 	 -5.99507 	 72.5397 	 
C 	 7.76026 	 -6.9058 	 71.5002 	 
H 	 7.79919 	 -5.94052 	 74.7266 	 
C 	 7.07394 	 -4.59707 	 72.3562 	 
H 	 6.88236 	 -4.33814 	 71.3029 	 
H 	 7.92777 	 -4.00167 	 72.7037 	 
C 	 5.85109 	 -4.14729 	 73.2233 	 
H 	 5.80319 	 -3.03768 	 72.9753 	 
H 	 5.88743 	 -4.28106 	 74.22 	 
C 	 4.59932 	 -4.76789 	 72.7855 	 
H 	 4.7437 	 -5.34054 	 71.8475 	 
H 	 3.75046 	 -4.08406 	 72.677 	 
H 	 4.24052 	 -5.61508 	 73.4197 	 
H 	 7.96198 	 -8.04219 	 66.6352 	 
H 	 8.14531 	 -8.47205 	 74.6685 	 
*
