! wB97X-D3 SP def2-SVP
%pal
nprocs 16
end

* xyz 0 1
S 	 16.6906 	 7.51913 	 85.8032 	 
C 	 18.0843 	 6.54459 	 85.7868 	 
C 	 18.0635 	 5.6181 	 86.8827 	 
C 	 16.7883 	 5.66752 	 87.5765 	 
C 	 15.9508 	 6.65072 	 87.1763 	 
H 	 16.4094 	 4.96383 	 88.372 	 
C 	 18.9837 	 4.42741 	 87.1288 	 
H 	 19.2 	 4.31814 	 88.0999 	 
H 	 19.9214 	 4.59366 	 86.7105 	 
C 	 18.4303 	 3.13594 	 86.4211 	 
H 	 17.4671 	 2.89268 	 86.864 	 
H 	 18.1571 	 3.41646 	 85.3814 	 
C 	 19.3293 	 1.95868 	 86.3769 	 
H 	 18.8544 	 1.00555 	 86.1363 	 
H 	 20.3381 	 2.06495 	 85.8891 	 
H 	 19.6428 	 1.80247 	 87.3739 	 
S 	 13.4129 	 7.17571 	 86.506 	 
C 	 12.3114 	 7.70075 	 87.6531 	 
C 	 12.9034 	 7.85803 	 88.8555 	 
C 	 14.2745 	 7.38466 	 88.9564 	 
C 	 14.7105 	 7.07184 	 87.6876 	 
H 	 12.3031 	 8.17804 	 89.6601 	 
C 	 15.032 	 7.43552 	 90.2902 	 
H 	 14.786 	 8.29777 	 90.8308 	 
H 	 16.1487 	 7.5399 	 90.0978 	 
C 	 14.7562 	 6.10635 	 91.0147 	 
H 	 15.0674 	 5.29297 	 90.3306 	 
H 	 13.7365 	 6.02722 	 91.4018 	 
C 	 15.6107 	 6.00272 	 92.2136 	 
H 	 16.6958 	 5.98271 	 91.8604 	 
H 	 15.5197 	 5.11099 	 92.6931 	 
H 	 15.4345 	 6.87754 	 92.821 	 
H 	 18.8753 	 6.40276 	 85.0785 	 
H 	 11.2426 	 7.77995 	 87.6122 	 
*
