! wB97X-D3 SP def2-SVP
%pal
nprocs 16
end

* xyz 0 1
S 	 -2.35495 	 -18.7629 	 83.7177 	 
C 	 -0.665306 	 -19.0083 	 83.3136 	 
C 	 0.141165 	 -17.9919 	 83.8397 	 
C 	 -0.598798 	 -17.0614 	 84.6202 	 
C 	 -1.98904 	 -17.3026 	 84.6404 	 
H 	 -0.247854 	 -16.3447 	 85.2864 	 
C 	 1.64295 	 -17.8055 	 83.5217 	 
H 	 1.77902 	 -18.2749 	 82.5628 	 
H 	 2.20156 	 -18.2608 	 84.3762 	 
C 	 2.12342 	 -16.3526 	 83.4002 	 
H 	 1.40681 	 -15.929 	 82.6306 	 
H 	 1.86251 	 -15.9114 	 84.3189 	 
C 	 3.59399 	 -16.2331 	 82.988 	 
H 	 3.83809 	 -15.3337 	 82.4841 	 
H 	 4.3259 	 -16.4274 	 83.8418 	 
H 	 3.95358 	 -17.0211 	 82.365 	 
S 	 -4.18089 	 -17.5584 	 86.2673 	 
C 	 -4.83814 	 -16.208 	 87.1522 	 
C 	 -4.33856 	 -15.0356 	 86.6039 	 
C 	 -3.24156 	 -15.2969 	 85.6924 	 
C 	 -3.00502 	 -16.6323 	 85.4894 	 
H 	 -4.64571 	 -14.1131 	 86.9832 	 
C 	 -2.46374 	 -14.1567 	 85.067 	 
H 	 -1.38588 	 -14.2338 	 85.19 	 
H 	 -2.59978 	 -13.248 	 85.6277 	 
C 	 -2.96579 	 -13.8646 	 83.6507 	 
H 	 -3.99647 	 -13.4694 	 83.6916 	 
H 	 -2.84663 	 -14.7676 	 83.0742 	 
C 	 -2.02929 	 -12.8393 	 83.0242 	 
H 	 -1.6578 	 -12.1321 	 83.7328 	 
H 	 -2.49552 	 -12.2217 	 82.2386 	 
H 	 -1.15519 	 -13.2356 	 82.5462 	 
H 	 -0.261565 	 -19.7673 	 82.5806 	 
H 	 -5.57399 	 -16.1784 	 87.9691 	 
*
