! wB97X-D3 SP def2-SVP
%pal
nprocs 16
end

* xyz 0 1
S 	 -72.8728 	 37.0564 	 116.847 	 
C 	 -71.9028 	 35.7056 	 116.265 	 
C 	 -71.4183 	 34.9677 	 117.282 	 
C 	 -71.6111 	 35.5029 	 118.596 	 
C 	 -72.4122 	 36.6447 	 118.56 	 
H 	 -71.4336 	 34.9206 	 119.439 	 
C 	 -70.9244 	 33.6067 	 117.141 	 
H 	 -70.1316 	 33.4854 	 117.927 	 
H 	 -70.404 	 33.5383 	 116.212 	 
C 	 -71.9518 	 32.4824 	 117.278 	 
H 	 -71.3561 	 31.5358 	 117.255 	 
H 	 -72.4572 	 32.5532 	 118.265 	 
C 	 -72.998 	 32.488 	 116.178 	 
H 	 -73.5435 	 33.4652 	 116.005 	 
H 	 -72.5022 	 32.3027 	 115.235 	 
H 	 -73.7636 	 31.8651 	 116.398 	 
S 	 -72.5079 	 39.0892 	 119.679 	 
C 	 -73.1129 	 39.2889 	 121.331 	 
C 	 -73.553 	 38.0921 	 121.847 	 
C 	 -73.4718 	 37.0128 	 120.912 	 
C 	 -72.9313 	 37.4095 	 119.673 	 
H 	 -73.816 	 38.0103 	 122.852 	 
C 	 -73.9576 	 35.6126 	 121.236 	 
H 	 -74.3745 	 35.0507 	 120.349 	 
H 	 -74.8674 	 35.6958 	 121.832 	 
C 	 -73.0388 	 34.5733 	 121.947 	 
H 	 -72.8913 	 34.8931 	 122.936 	 
H 	 -72.1277 	 34.5989 	 121.447 	 
C 	 -73.5399 	 33.1195 	 121.831 	 
H 	 -74.5161 	 32.9125 	 122.274 	 
H 	 -72.8928 	 32.2405 	 122.179 	 
H 	 -73.7228 	 33.0319 	 120.77 	 
H 	 -71.8992 	 35.2582 	 115.292 	 
H 	 -73.146 	 40.2735 	 121.827 	 
*
