! wB97X-D3 SP def2-SVP
%pal
nprocs 16
end

* xyz 0 1
S 	 52.5673 	 7.80007 	 95.2225 	 
C 	 53.0021 	 9.4775 	 95.4117 	 
C 	 51.9783 	 10.2927 	 94.9914 	 
C 	 50.8254 	 9.56554 	 94.6428 	 
C 	 50.9596 	 8.2228 	 94.6784 	 
H 	 49.8676 	 9.96799 	 94.3583 	 
C 	 52.0308 	 11.8004 	 95.0807 	 
H 	 52.0506 	 12.121 	 93.9588 	 
H 	 52.9762 	 12.2146 	 95.4832 	 
C 	 50.7447 	 12.5288 	 95.5459 	 
H 	 49.9126 	 12.2079 	 94.9652 	 
H 	 50.4785 	 12.3302 	 96.5307 	 
C 	 50.7773 	 14.0518 	 95.1756 	 
H 	 51.0429 	 14.3479 	 94.2013 	 
H 	 49.8198 	 14.601 	 95.4156 	 
H 	 51.6102 	 14.6382 	 95.7121 	 
S 	 50.3126 	 6.42608 	 92.6622 	 
C 	 48.9103 	 5.37258 	 92.9097 	 
C 	 48.2366 	 5.68183 	 94.0876 	 
C 	 48.8447 	 6.8162 	 94.8114 	 
C 	 50.0035 	 7.25433 	 94.186 	 
H 	 47.3773 	 5.17556 	 94.4219 	 
C 	 48.2477 	 7.4894 	 96.025 	 
H 	 47.2504 	 7.84314 	 95.8641 	 
H 	 48.7658 	 8.40205 	 96.24 	 
C 	 48.207 	 6.59725 	 97.2689 	 
H 	 47.6271 	 5.66574 	 97.254 	 
H 	 47.6355 	 7.18908 	 97.9924 	 
C 	 49.6313 	 6.36528 	 97.8164 	 
H 	 49.8368 	 5.30454 	 97.8014 	 
H 	 49.6921 	 6.80005 	 98.8011 	 
H 	 50.4168 	 6.88444 	 97.2802 	 
H 	 53.9548 	 9.85088 	 95.8734 	 
H 	 48.6036 	 4.74731 	 92.1579 	 
*
