! wB97X-D3 SP def2-SVP
%pal
nprocs 16
end

* xyz 0 1
S 	 6.92448 	 -14.7602 	 67.6839 	 
C 	 8.0418 	 -15.3794 	 68.873 	 
C 	 8.11052 	 -14.6208 	 70.0183 	 
C 	 7.2265 	 -13.5329 	 70.0322 	 
C 	 6.5696 	 -13.5019 	 68.8205 	 
H 	 7.04326 	 -12.8475 	 70.8965 	 
C 	 9.13013 	 -14.7595 	 71.1233 	 
H 	 9.81826 	 -15.559 	 70.8044 	 
H 	 8.58644 	 -15.1176 	 72.0381 	 
C 	 9.85786 	 -13.4254 	 71.4903 	 
H 	 9.21041 	 -12.6255 	 71.3768 	 
H 	 10.0827 	 -13.3266 	 72.5843 	 
C 	 11.0867 	 -13.0208 	 70.587 	 
H 	 11.5491 	 -13.9203 	 70.1686 	 
H 	 10.7054 	 -12.3213 	 69.8215 	 
H 	 11.8605 	 -12.516 	 71.1803 	 
S 	 3.96262 	 -12.5698 	 68.2326 	 
C 	 3.77465 	 -10.7994 	 68.0387 	 
C 	 4.98451 	 -10.1493 	 68.0983 	 
C 	 6.11446 	 -10.9983 	 68.404 	 
C 	 5.74504 	 -12.3635 	 68.3969 	 
H 	 5.04373 	 -9.02699 	 68.0882 	 
C 	 7.46691 	 -10.4617 	 68.7465 	 
H 	 8.23872 	 -11.2322 	 68.7333 	 
H 	 7.26325 	 -10.0496 	 69.7582 	 
C 	 7.96494 	 -9.3012 	 67.7732 	 
H 	 7.3232 	 -8.46569 	 67.6716 	 
H 	 7.92788 	 -9.78546 	 66.7843 	 
C 	 9.33543 	 -8.66128 	 68.1251 	 
H 	 10.1087 	 -9.44943 	 68.1654 	 
H 	 9.28582 	 -8.20036 	 69.0633 	 
H 	 9.57391 	 -7.81694 	 67.5089 	 
H 	 8.62013 	 -16.2842 	 68.6477 	 
H 	 2.74567 	 -10.3602 	 67.8974 	 
*
