! wB97X-D3 SP def2-SVP
%pal
nprocs 16
end

* xyz 0 1
S 	 9.80344 	 20.1369 	 60.6279 	 
C 	 10.2036 	 21.2117 	 59.3413 	 
C 	 9.16831 	 21.2045 	 58.3979 	 
C 	 7.9755 	 20.5754 	 58.9252 	 
C 	 8.09498 	 20.1113 	 60.2232 	 
H 	 6.95804 	 20.711 	 58.5786 	 
C 	 9.10313 	 22.0599 	 57.1952 	 
H 	 9.14765 	 23.0526 	 57.5931 	 
H 	 8.07626 	 21.967 	 56.7863 	 
C 	 10.1267 	 21.6971 	 56.1729 	 
H 	 10.2913 	 22.5521 	 55.5096 	 
H 	 11.1438 	 21.6199 	 56.6349 	 
C 	 9.77764 	 20.5775 	 55.1857 	 
H 	 8.87813 	 20.925 	 54.6278 	 
H 	 10.5331 	 20.1843 	 54.5088 	 
H 	 9.42935 	 19.686 	 55.801 	 
S 	 7.7116 	 18.5314 	 62.5438 	 
C 	 6.14073 	 18.65 	 63.3275 	 
C 	 5.28731 	 19.4263 	 62.633 	 
C 	 5.82145 	 20.0534 	 61.4607 	 
C 	 7.14707 	 19.7658 	 61.278 	 
H 	 4.31883 	 19.6175 	 63.074 	 
C 	 4.91769 	 20.8994 	 60.6157 	 
H 	 5.59732 	 21.5742 	 60.2067 	 
H 	 4.55086 	 21.5793 	 61.3525 	 
C 	 3.8158 	 20.3949 	 59.7202 	 
H 	 3.21911 	 21.305 	 59.4508 	 
H 	 3.09831 	 19.6879 	 60.2516 	 
C 	 4.33167 	 19.6795 	 58.5317 	 
H 	 5.1112 	 18.9828 	 58.8623 	 
H 	 4.84167 	 20.4263 	 57.8693 	 
H 	 3.41416 	 19.2494 	 58.008 	 
H 	 11.0844 	 21.8397 	 59.1895 	 
H 	 5.84506 	 18.1974 	 64.2518 	 
*
