! wB97X-D3 SP def2-SVP
%pal
nprocs 16
end

* xyz 0 1
S 	 -97.5317 	 44.5373 	 121.814 	 
C 	 -98.6713 	 44.6681 	 123.104 	 
C 	 -99.5544 	 45.723 	 122.845 	 
C 	 -99.3648 	 46.3653 	 121.584 	 
C 	 -98.2977 	 45.8756 	 120.902 	 
H 	 -99.9328 	 47.127 	 121.098 	 
C 	 -100.691 	 46.1613 	 123.754 	 
H 	 -100.763 	 45.4318 	 124.508 	 
H 	 -101.647 	 46.1447 	 123.236 	 
C 	 -100.536 	 47.5584 	 124.422 	 
H 	 -99.6227 	 47.4348 	 125.005 	 
H 	 -100.513 	 48.2819 	 123.671 	 
C 	 -101.635 	 47.8781 	 125.408 	 
H 	 -101.582 	 48.841 	 125.81 	 
H 	 -102.603 	 47.5686 	 125.123 	 
H 	 -101.61 	 47.1798 	 126.331 	 
S 	 -97.6432 	 44.6512 	 118.496 	 
C 	 -97.5955 	 45.715 	 117.068 	 
C 	 -97.752 	 47.0132 	 117.486 	 
C 	 -98.0352 	 47.2686 	 118.865 	 
C 	 -98.0206 	 46.0731 	 119.507 	 
H 	 -97.8763 	 47.7805 	 116.714 	 
C 	 -98.2683 	 48.7424 	 119.42 	 
H 	 -97.4832 	 49.2647 	 118.859 	 
H 	 -97.9467 	 48.8707 	 120.405 	 
C 	 -99.6749 	 49.2319 	 119.076 	 
H 	 -100.015 	 49.9731 	 119.789 	 
H 	 -100.375 	 48.5126 	 119.354 	 
C 	 -99.8717 	 49.8343 	 117.612 	 
H 	 -99.3973 	 50.7806 	 117.477 	 
H 	 -100.91 	 49.8359 	 117.352 	 
H 	 -99.4609 	 49.1256 	 116.923 	 
H 	 -98.6357 	 44.1008 	 123.999 	 
H 	 -97.4039 	 45.484 	 116.058 	 
*
