! wB97X-D3 SP def2-SVP
%pal
nprocs 16
end

* xyz 0 1
S 	 34.0271 	 24.0745 	 47.65 	 
C 	 33.1814 	 24.503 	 49.1691 	 
C 	 32.7805 	 23.4098 	 49.9193 	 
C 	 33.1054 	 22.1659 	 49.2188 	 
C 	 33.7763 	 22.3447 	 48.025 	 
H 	 32.8945 	 21.1555 	 49.5892 	 
C 	 31.9439 	 23.3869 	 51.1985 	 
H 	 32.1477 	 24.2737 	 51.7862 	 
H 	 32.4009 	 22.6611 	 51.8241 	 
C 	 30.4642 	 23.027 	 51.0324 	 
H 	 30.0032 	 23.779 	 50.4371 	 
H 	 30.4373 	 22.1125 	 50.5047 	 
C 	 29.7504 	 22.9659 	 52.4099 	 
H 	 30.2901 	 22.4633 	 53.1517 	 
H 	 29.5824 	 24.0236 	 52.7373 	 
H 	 28.8413 	 22.459 	 52.2737 	 
S 	 33.2722 	 19.8667 	 47.0712 	 
C 	 34.5451 	 19.0037 	 46.107 	 
C 	 35.6109 	 19.8698 	 45.9001 	 
C 	 35.4899 	 21.1334 	 46.5748 	 
C 	 34.2717 	 21.2638 	 47.2135 	 
H 	 36.4287 	 19.5862 	 45.1942 	 
C 	 36.7162 	 22.0589 	 46.5341 	 
H 	 36.3957 	 22.9361 	 47.0913 	 
H 	 37.0327 	 22.34 	 45.5884 	 
C 	 37.976 	 21.4115 	 47.2214 	 
H 	 38.2746 	 20.4287 	 46.8069 	 
H 	 37.8309 	 21.311 	 48.3064 	 
C 	 39.1726 	 22.4336 	 47.0678 	 
H 	 40.1106 	 21.9912 	 47.4444 	 
H 	 38.9076 	 23.375 	 47.5524 	 
H 	 39.2541 	 22.7988 	 46.0861 	 
H 	 33.3029 	 25.437 	 49.6217 	 
H 	 34.4316 	 18.0486 	 45.5175 	 
*
