! wB97X-D3 SP def2-SVP
%pal
nprocs 16
end

* xyz 0 1
S 	 67.6723 	 24.9915 	 72.8521 	 
C 	 68.5994 	 24.0854 	 71.7263 	 
C 	 69.8898 	 24.5714 	 71.5435 	 
C 	 70.0913 	 25.7124 	 72.3532 	 
C 	 68.9921 	 26.0446 	 73.1877 	 
H 	 71.0205 	 26.2793 	 72.4494 	 
C 	 70.9072 	 23.9096 	 70.6899 	 
H 	 70.3745 	 23.8224 	 69.684 	 
H 	 71.2184 	 22.9341 	 71.0157 	 
C 	 72.2127 	 24.6474 	 70.5044 	 
H 	 72.5997 	 24.7637 	 71.5288 	 
H 	 72.8946 	 23.9673 	 69.9605 	 
C 	 72.1681 	 25.9361 	 69.6692 	 
H 	 71.7789 	 26.8253 	 70.1972 	 
H 	 73.1321 	 26.1567 	 69.2642 	 
H 	 71.5895 	 25.8379 	 68.7682 	 
S 	 67.7704 	 28.4571 	 74.0418 	 
C 	 68.5408 	 29.3423 	 75.3435 	 
C 	 69.6443 	 28.7291 	 75.8811 	 
C 	 69.8323 	 27.4355 	 75.1896 	 
C 	 68.9463 	 27.179 	 74.1249 	 
H 	 70.1385 	 29.1153 	 76.7528 	 
C 	 70.8579 	 26.5243 	 75.7639 	 
H 	 70.8637 	 25.4853 	 75.2684 	 
H 	 70.5257 	 26.2867 	 76.7611 	 
C 	 72.3014 	 27.1475 	 75.8904 	 
H 	 72.9865 	 26.495 	 76.5617 	 
H 	 72.196 	 28.0862 	 76.4126 	 
C 	 72.8219 	 27.5817 	 74.4753 	 
H 	 72.0042 	 27.9511 	 73.8063 	 
H 	 73.3356 	 26.688 	 74.0194 	 
H 	 73.7092 	 28.1908 	 74.542 	 
H 	 68.1998 	 23.3486 	 71.1004 	 
H 	 68.3299 	 30.3325 	 75.6397 	 
*
