! wB97X-D3 SP def2-SVP
%pal
nprocs 16
end

* xyz 0 1
S 	 -46.4769 	 38.8317 	 79.1688 	 
C 	 -45.9033 	 38.6503 	 77.5591 	 
C 	 -46.0889 	 39.7746 	 76.7953 	 
C 	 -46.6374 	 40.8664 	 77.6098 	 
C 	 -47.0124 	 40.4901 	 78.8494 	 
H 	 -46.8364 	 41.8759 	 77.2595 	 
C 	 -45.6534 	 39.9064 	 75.3992 	 
H 	 -44.5994 	 39.9617 	 75.441 	 
H 	 -46.01 	 40.9107 	 75.11 	 
C 	 -46.0231 	 38.8776 	 74.3788 	 
H 	 -45.541 	 39.0695 	 73.4318 	 
H 	 -45.6389 	 37.9344 	 74.7191 	 
C 	 -47.545 	 38.7148 	 74.2328 	 
H 	 -47.7246 	 37.8436 	 73.6583 	 
H 	 -48.0688 	 38.5258 	 75.2186 	 
H 	 -47.9876 	 39.4777 	 73.6826 	 
S 	 -46.5423 	 41.491 	 81.3318 	 
C 	 -47.6714 	 42.7474 	 81.9699 	 
C 	 -48.8508 	 42.6414 	 81.2941 	 
C 	 -48.7599 	 41.9322 	 80.009 	 
C 	 -47.5483 	 41.2805 	 79.8866 	 
H 	 -49.7417 	 43.1163 	 81.738 	 
C 	 -49.889 	 41.8163 	 79.0124 	 
H 	 -49.4033 	 41.95 	 78.076 	 
H 	 -50.4693 	 42.7095 	 79.1158 	 
C 	 -50.7498 	 40.5423 	 79.1997 	 
H 	 -50.1442 	 39.6785 	 78.8886 	 
H 	 -51.6025 	 40.5968 	 78.5219 	 
C 	 -51.2983 	 40.3032 	 80.6479 	 
H 	 -50.3964 	 39.97 	 81.2094 	 
H 	 -52.2242 	 39.6122 	 80.6992 	 
H 	 -51.7331 	 41.1711 	 81.1 	 
H 	 -45.2686 	 37.8292 	 77.1203 	 
H 	 -47.6975 	 42.9927 	 82.9688 	 
*
