! wB97X-D3 SP def2-SVP
%pal
nprocs 16
end

* xyz 0 1
S 	 -94.1848 	 41.3547 	 121.367 	 
C 	 -93.0761 	 40.2452 	 120.558 	 
C 	 -93.6646 	 39.0368 	 120.286 	 
C 	 -95.0179 	 39.0368 	 120.719 	 
C 	 -95.5146 	 40.1822 	 121.338 	 
H 	 -95.6188 	 38.1595 	 120.633 	 
C 	 -93.0044 	 37.9156 	 119.541 	 
H 	 -93.6534 	 37.4645 	 118.838 	 
H 	 -92.629 	 37.203 	 120.368 	 
C 	 -91.7174 	 38.2565 	 118.719 	 
H 	 -91.9344 	 39.0884 	 118.059 	 
H 	 -91.0189 	 38.6469 	 119.468 	 
C 	 -90.998 	 37.1697 	 118.014 	 
H 	 -91.5954 	 36.9383 	 117.144 	 
H 	 -90.0168 	 37.4103 	 117.604 	 
H 	 -90.7711 	 36.2814 	 118.659 	 
S 	 -96.7877 	 40.2199 	 123.743 	 
C 	 -98.4658 	 40.5688 	 123.856 	 
C 	 -99.0775 	 40.556 	 122.683 	 
C 	 -98.1121 	 40.4249 	 121.594 	 
C 	 -96.8253 	 40.3277 	 122.043 	 
H 	 -100.127 	 40.6147 	 122.649 	 
C 	 -98.5149 	 40.2991 	 120.12 	 
H 	 -99.3571 	 39.5915 	 120.122 	 
H 	 -97.7842 	 39.8121 	 119.556 	 
C 	 -98.9459 	 41.6351 	 119.465 	 
H 	 -98.1924 	 42.4402 	 119.721 	 
H 	 -99.7812 	 42.0951 	 119.876 	 
C 	 -99.1291 	 41.5385 	 117.893 	 
H 	 -99.7032 	 40.7035 	 117.557 	 
H 	 -98.1354 	 41.5189 	 117.429 	 
H 	 -99.5134 	 42.5481 	 117.475 	 
H 	 -91.988 	 40.3518 	 120.526 	 
H 	 -99.0241 	 40.7595 	 124.788 	 
*
