! wB97X-D3 SP def2-SVP
%pal
nprocs 16
end

* xyz 0 1
S 	 38.2737 	 25.0612 	 93.6089 	 
C 	 39.8085 	 25.6621 	 94.3365 	 
C 	 40.1219 	 24.9079 	 95.4522 	 
C 	 39.0636 	 24.0064 	 95.7976 	 
C 	 37.9959 	 23.8697 	 94.9227 	 
H 	 38.9831 	 23.4543 	 96.7115 	 
C 	 41.3425 	 25.2521 	 96.3287 	 
H 	 40.9888 	 25.6612 	 97.2591 	 
H 	 41.8917 	 25.9763 	 95.7435 	 
C 	 42.3215 	 24.1216 	 96.5284 	 
H 	 42.4988 	 23.7529 	 95.5028 	 
H 	 43.2714 	 24.4277 	 96.876 	 
C 	 41.8785 	 22.9561 	 97.4481 	 
H 	 41.0739 	 22.3753 	 96.9898 	 
H 	 42.7444 	 22.292 	 97.3995 	 
H 	 41.6433 	 23.1991 	 98.4803 	 
S 	 35.6221 	 23.1164 	 95.9677 	 
C 	 34.7271 	 21.7979 	 95.3068 	 
C 	 35.316 	 21.2856 	 94.1559 	 
C 	 36.6264 	 21.7887 	 93.9913 	 
C 	 36.941 	 22.8406 	 94.8827 	 
H 	 34.85 	 20.5002 	 93.5299 	 
C 	 37.5227 	 21.3235 	 92.882 	 
H 	 37.9942 	 22.0865 	 92.3878 	 
H 	 36.8733 	 20.8908 	 92.1317 	 
C 	 38.6223 	 20.3455 	 93.2604 	 
H 	 39.049 	 20.1465 	 92.3441 	 
H 	 38.196 	 19.5041 	 93.7284 	 
C 	 39.7052 	 20.8323 	 94.1989 	 
H 	 40.5027 	 20.1779 	 94.3658 	 
H 	 39.2768 	 21.0881 	 95.1818 	 
H 	 40.0471 	 21.7695 	 93.9619 	 
H 	 40.3269 	 26.4941 	 93.9409 	 
H 	 33.7642 	 21.4583 	 95.5661 	 
*
