! wB97X-D3 SP def2-SVP
%pal
nprocs 16
end

* xyz 0 1
S 	 -46.4822 	 50.6375 	 100.999 	 
C 	 -45.3969 	 50.5116 	 99.6237 	 
C 	 -44.1824 	 51.1482 	 99.9031 	 
C 	 -44.1847 	 51.6291 	 101.279 	 
C 	 -45.3673 	 51.4467 	 102.028 	 
H 	 -43.3036 	 52.1836 	 101.685 	 
C 	 -43.0699 	 51.353 	 98.9782 	 
H 	 -42.9648 	 52.4147 	 98.8926 	 
H 	 -43.2719 	 51.0013 	 97.9641 	 
C 	 -41.7464 	 50.721 	 99.4797 	 
H 	 -41.0395 	 50.9102 	 98.6747 	 
H 	 -41.5405 	 51.2933 	 100.349 	 
C 	 -41.9181 	 49.2395 	 99.7404 	 
H 	 -40.9737 	 48.7227 	 100.03 	 
H 	 -42.69 	 49.0231 	 100.487 	 
H 	 -42.3391 	 48.814 	 98.8227 	 
S 	 -47.2126 	 52.5361 	 103.806 	 
C 	 -46.9195 	 52.5476 	 105.537 	 
C 	 -45.6613 	 51.9964 	 105.774 	 
C 	 -44.8982 	 51.6445 	 104.607 	 
C 	 -45.7116 	 51.6894 	 103.451 	 
H 	 -45.3217 	 52.0476 	 106.772 	 
C 	 -43.4931 	 51.194 	 104.704 	 
H 	 -43.1211 	 51.3401 	 105.762 	 
H 	 -42.9855 	 51.8737 	 103.987 	 
C 	 -43.3465 	 49.6267 	 104.424 	 
H 	 -43.984 	 49.3568 	 103.585 	 
H 	 -43.8171 	 49.1128 	 105.23 	 
C 	 -41.9326 	 49.1464 	 104.265 	 
H 	 -41.4454 	 49.6702 	 103.419 	 
H 	 -41.9864 	 48.0806 	 103.966 	 
H 	 -41.3002 	 49.2813 	 105.171 	 
H 	 -45.6165 	 50.0873 	 98.6583 	 
H 	 -47.6493 	 52.8469 	 106.283 	 
*
