! wB97X-D3 SP def2-SVP
%pal
nprocs 16
end

* xyz 0 1
S 	 -8.51778 	 51.1852 	 43.4995 	 
C 	 -9.965 	 51.2867 	 44.4704 	 
C 	 -10.1974 	 50.0381 	 45.0379 	 
C 	 -9.14752 	 49.1032 	 44.8704 	 
C 	 -8.11263 	 49.6048 	 44.1285 	 
H 	 -9.18441 	 48.0893 	 45.2359 	 
C 	 -11.4894 	 49.5712 	 45.7222 	 
H 	 -11.8307 	 48.7 	 45.1487 	 
H 	 -12.2708 	 50.35 	 45.5586 	 
C 	 -11.4069 	 49.2742 	 47.2393 	 
H 	 -12.2176 	 48.5879 	 47.5581 	 
H 	 -10.5329 	 48.79 	 47.4144 	 
C 	 -11.4232 	 50.5426 	 48.0585 	 
H 	 -12.174 	 51.2364 	 47.7644 	 
H 	 -11.4564 	 50.296 	 49.0672 	 
H 	 -10.5022 	 51.0891 	 47.8261 	 
S 	 -6.73085 	 48.8886 	 41.8128 	 
C 	 -5.11517 	 48.2512 	 42.0191 	 
C 	 -4.935 	 47.7484 	 43.3173 	 
C 	 -5.92879 	 48.2276 	 44.2223 	 
C 	 -6.97913 	 48.8661 	 43.588 	 
H 	 -4.06002 	 47.1859 	 43.4708 	 
C 	 -5.65468 	 48.1129 	 45.6655 	 
H 	 -4.6267 	 47.5866 	 45.817 	 
H 	 -6.49721 	 47.544 	 45.9818 	 
C 	 -5.56249 	 49.4725 	 46.3603 	 
H 	 -6.33513 	 50.1721 	 46.0269 	 
H 	 -4.73376 	 49.9933 	 45.8872 	 
C 	 -5.39283 	 49.4902 	 47.9311 	 
H 	 -4.60883 	 48.9523 	 48.3948 	 
H 	 -6.39753 	 49.2661 	 48.3847 	 
H 	 -5.28796 	 50.555 	 48.1237 	 
H 	 -10.5514 	 52.144 	 44.5991 	 
H 	 -4.42048 	 47.9319 	 41.2606 	 
*
