! wB97X-D3 SP def2-SVP
%pal
nprocs 16
end

* xyz 0 1
S 	 -77.6127 	 45.5463 	 124.168 	 
C 	 -79.3613 	 45.7118 	 124.101 	 
C 	 -80.0914 	 45.2915 	 125.198 	 
C 	 -79.1384 	 44.8221 	 126.148 	 
C 	 -77.8047 	 44.853 	 125.745 	 
H 	 -79.3338 	 44.5485 	 127.186 	 
C 	 -81.5354 	 45.6246 	 125.473 	 
H 	 -82.07 	 45.8923 	 124.55 	 
H 	 -81.4815 	 46.5871 	 126.013 	 
C 	 -82.2876 	 44.5916 	 126.282 	 
H 	 -81.849 	 44.3741 	 127.15 	 
H 	 -83.1608 	 45.0746 	 126.659 	 
C 	 -82.7832 	 43.3906 	 125.543 	 
H 	 -83.5398 	 43.5963 	 124.724 	 
H 	 -81.9616 	 42.7408 	 125.229 	 
H 	 -83.2963 	 42.7657 	 126.317 	 
S 	 -75.7749 	 45.8794 	 127.32 	 
C 	 -74.8985 	 44.8056 	 128.344 	 
C 	 -75.2556 	 43.5123 	 128.266 	 
C 	 -76.2191 	 43.3415 	 127.249 	 
C 	 -76.6918 	 44.5226 	 126.616 	 
H 	 -74.7915 	 42.8395 	 128.998 	 
C 	 -76.7885 	 42.0061 	 127.026 	 
H 	 -75.9077 	 41.4529 	 127.031 	 
H 	 -77.1706 	 41.7782 	 126.027 	 
C 	 -77.8478 	 41.4373 	 128.098 	 
H 	 -78.7269 	 42.1459 	 128.045 	 
H 	 -77.4685 	 41.5484 	 129.09 	 
C 	 -78.1576 	 39.9372 	 127.734 	 
H 	 -78.5685 	 39.821 	 126.729 	 
H 	 -78.9381 	 39.5736 	 128.34 	 
H 	 -77.2212 	 39.3021 	 127.732 	 
H 	 -79.9605 	 46.2779 	 123.369 	 
H 	 -74.2317 	 45.1209 	 129.181 	 
*
