! wB97X-D3 SP def2-SVP
%pal
nprocs 16
end

* xyz 0 1
S 	 22.9475 	 1.12408 	 81.7264 	 
C 	 24.0951 	 2.17949 	 80.9185 	 
C 	 23.5585 	 3.19579 	 80.0989 	 
C 	 22.1577 	 3.09781 	 80.1022 	 
C 	 21.713 	 1.98911 	 80.8541 	 
H 	 21.3986 	 3.73582 	 79.5465 	 
C 	 24.3931 	 4.2201 	 79.3043 	 
H 	 24.0806 	 4.27399 	 78.2345 	 
H 	 25.4502 	 3.9283 	 79.472 	 
C 	 24.4295 	 5.58659 	 79.8512 	 
H 	 23.3952 	 5.89289 	 79.6347 	 
H 	 24.51 	 5.65715 	 80.9182 	 
C 	 25.4451 	 6.45408 	 79.1259 	 
H 	 25.3252 	 6.43681 	 78.0535 	 
H 	 25.3518 	 7.45234 	 79.4188 	 
H 	 26.4435 	 6.01845 	 79.276 	 
S 	 19.6213 	 1.88617 	 82.6993 	 
C 	 18.0817 	 1.30699 	 82.1883 	 
C 	 18.0457 	 1.0066 	 80.867 	 
C 	 19.2909 	 1.33152 	 80.1574 	 
C 	 20.2795 	 1.71162 	 81.1157 	 
H 	 17.1532 	 0.672338 	 80.4693 	 
C 	 19.4394 	 1.21598 	 78.6254 	 
H 	 19.2 	 0.308429 	 78.2245 	 
H 	 20.5112 	 1.13693 	 78.5122 	 
C 	 18.8366 	 2.39379 	 77.8126 	 
H 	 19.3883 	 3.35086 	 77.9886 	 
H 	 17.7847 	 2.63736 	 78.1389 	 
C 	 18.56 	 2.11931 	 76.2969 	 
H 	 19.44 	 1.88704 	 75.7109 	 
H 	 18.1861 	 3.04784 	 75.9045 	 
H 	 17.9217 	 1.27757 	 76.0163 	 
H 	 25.1469 	 2.05722 	 80.7925 	 
H 	 17.2168 	 1.29465 	 82.7966 	 
*
