! wB97X-D3 SP def2-SVP
%pal
nprocs 16
end

* xyz 0 1
S 	 -44.355 	 26.2522 	 89.0693 	 
C 	 -45.5544 	 27.536 	 88.5945 	 
C 	 -44.9178 	 28.579 	 87.9225 	 
C 	 -43.5416 	 28.2854 	 87.6769 	 
C 	 -43.1265 	 27.0652 	 88.0821 	 
H 	 -42.8418 	 28.8852 	 87.1738 	 
C 	 -45.589 	 29.8553 	 87.343 	 
H 	 -45.1171 	 30.7344 	 87.7447 	 
H 	 -46.5927 	 29.8649 	 87.672 	 
C 	 -45.6522 	 30.0995 	 85.8574 	 
H 	 -46.2589 	 31.0252 	 85.6593 	 
H 	 -44.6731 	 30.3058 	 85.4281 	 
C 	 -46.3619 	 28.9318 	 85.2125 	 
H 	 -47.2839 	 28.7826 	 85.7506 	 
H 	 -46.4954 	 29.0636 	 84.1147 	 
H 	 -45.6481 	 28.0714 	 85.3568 	 
S 	 -41.924 	 24.918 	 87.1319 	 
C 	 -40.184 	 24.6634 	 87.2344 	 
C 	 -39.5516 	 25.8332 	 87.7197 	 
C 	 -40.4854 	 26.8668 	 88.0016 	 
C 	 -41.8186 	 26.4236 	 87.8877 	 
H 	 -38.4593 	 25.811 	 87.8902 	 
C 	 -40.0084 	 28.2014 	 88.3603 	 
H 	 -39.4273 	 28.0632 	 89.3078 	 
H 	 -40.757 	 28.834 	 88.7478 	 
C 	 -39.2339 	 28.9958 	 87.2179 	 
H 	 -38.341 	 28.4335 	 87.0018 	 
H 	 -38.7808 	 29.9921 	 87.4885 	 
C 	 -40.1494 	 29.255 	 86.0416 	 
H 	 -39.6578 	 29.8805 	 85.3156 	 
H 	 -41.1031 	 29.7736 	 86.2914 	 
H 	 -40.3497 	 28.2789 	 85.5128 	 
H 	 -46.5792 	 27.625 	 88.8935 	 
H 	 -39.7119 	 23.7592 	 86.7686 	 
*
