! wB97X-D3 SP def2-SVP
%pal
nprocs 16
end

* xyz 0 1
S 	 -28.4015 	 -10.5799 	 88.2409 	 
C 	 -30.0878 	 -11.0078 	 88.23 	 
C 	 -30.8032 	 -9.84195 	 87.9685 	 
C 	 -29.9848 	 -8.65149 	 87.9567 	 
C 	 -28.6706 	 -8.85262 	 88.1832 	 
H 	 -30.3761 	 -7.64959 	 87.9674 	 
C 	 -32.2636 	 -9.76481 	 87.7644 	 
H 	 -32.6066 	 -8.74075 	 87.8032 	 
H 	 -32.7756 	 -10.2457 	 88.5189 	 
C 	 -32.6968 	 -10.3785 	 86.4232 	 
H 	 -32.5465 	 -11.5016 	 86.4474 	 
H 	 -33.7663 	 -10.221 	 86.2921 	 
C 	 -32.1929 	 -9.56023 	 85.214 	 
H 	 -32.9284 	 -9.66358 	 84.3883 	 
H 	 -31.8889 	 -8.50507 	 85.3563 	 
H 	 -31.2502 	 -9.97901 	 84.7749 	 
S 	 -26.0746 	 -8.53181 	 88.7758 	 
C 	 -25.1721 	 -7.03423 	 88.6105 	 
C 	 -26.0067 	 -6.09815 	 88.0527 	 
C 	 -27.3693 	 -6.523 	 87.8523 	 
C 	 -27.5254 	 -7.87871 	 88.198 	 
H 	 -25.5914 	 -5.18331 	 87.7593 	 
C 	 -28.4506 	 -5.66787 	 87.3479 	 
H 	 -29.0656 	 -5.51343 	 88.2184 	 
H 	 -29.0968 	 -6.27165 	 86.6903 	 
C 	 -28.1661 	 -4.28425 	 86.6847 	 
H 	 -27.5085 	 -4.35684 	 85.8946 	 
H 	 -27.6288 	 -3.67649 	 87.3269 	 
C 	 -29.4427 	 -3.59907 	 86.1891 	 
H 	 -29.1788 	 -2.64413 	 85.746 	 
H 	 -30.1912 	 -3.45128 	 87.0134 	 
H 	 -29.9298 	 -4.12254 	 85.4104 	 
H 	 -30.4581 	 -12.0399 	 88.017 	 
H 	 -24.076 	 -6.95301 	 88.7077 	 
*
