! wB97X-D3 SP def2-SVP
%pal
nprocs 16
end

* xyz 0 1
S 	 8.82887 	 -6.27152 	 62.6661 	 
C 	 8.94263 	 -4.54265 	 62.5299 	 
C 	 10.0723 	 -4.13694 	 63.1729 	 
C 	 10.9115 	 -5.17775 	 63.6363 	 
C 	 10.4229 	 -6.4438 	 63.458 	 
H 	 11.9227 	 -4.98777 	 64.0072 	 
C 	 10.5922 	 -2.63776 	 63.2892 	 
H 	 10.8846 	 -2.17139 	 62.3007 	 
H 	 11.6255 	 -2.56 	 63.7318 	 
C 	 9.67616 	 -1.62646 	 64.0464 	 
H 	 10.1049 	 -0.622951 	 63.7881 	 
H 	 8.63509 	 -1.57643 	 63.6115 	 
C 	 9.40245 	 -2.03622 	 65.4649 	 
H 	 8.75623 	 -2.91153 	 65.2752 	 
H 	 10.3088 	 -2.33958 	 66.0842 	 
H 	 8.74004 	 -1.29612 	 65.9868 	 
S 	 11.1311 	 -8.81174 	 62.3546 	 
C 	 12.2378 	 -9.84474 	 63.2629 	 
C 	 12.57 	 -9.32251 	 64.4698 	 
C 	 12.0066 	 -8.02615 	 64.694 	 
C 	 11.2392 	 -7.64774 	 63.6289 	 
H 	 13.1571 	 -9.94897 	 65.0671 	 
C 	 12.3263 	 -7.26534 	 66.0092 	 
H 	 12.1104 	 -6.22998 	 65.7641 	 
H 	 13.428 	 -7.42545 	 66.0832 	 
C 	 11.5618 	 -7.57832 	 67.3334 	 
H 	 11.4954 	 -8.69486 	 67.2621 	 
H 	 10.5237 	 -7.27215 	 67.3862 	 
C 	 12.3217 	 -7.19385 	 68.6638 	 
H 	 13.1783 	 -7.83806 	 68.8689 	 
H 	 11.6479 	 -7.17418 	 69.562 	 
H 	 12.6652 	 -6.16394 	 68.6479 	 
H 	 8.09915 	 -3.87718 	 62.0847 	 
H 	 12.5446 	 -10.8657 	 62.9472 	 
*
