! wB97X-D3 SP def2-SVP
%pal
nprocs 16
end

* xyz 0 1
S 	 15.2266 	 -12.3699 	 79.4508 	 
C 	 16.8929 	 -11.839 	 79.6537 	 
C 	 17.5366 	 -11.8444 	 78.4412 	 
C 	 16.7446 	 -12.4729 	 77.3524 	 
C 	 15.5275 	 -12.9898 	 77.7938 	 
H 	 17.1302 	 -12.7205 	 76.3674 	 
C 	 18.8726 	 -11.2309 	 78.2283 	 
H 	 18.8992 	 -10.2886 	 78.8219 	 
H 	 18.89 	 -10.923 	 77.1758 	 
C 	 20.1142 	 -12.2054 	 78.5281 	 
H 	 20.131 	 -12.5779 	 79.5247 	 
H 	 19.8973 	 -13.165 	 78.074 	 
C 	 21.4903 	 -11.6972 	 78.0189 	 
H 	 21.6095 	 -10.6471 	 78.3201 	 
H 	 22.2926 	 -12.4311 	 78.3956 	 
H 	 21.4661 	 -11.6457 	 76.9924 	 
S 	 13.5085 	 -14.8399 	 77.9104 	 
C 	 12.9614 	 -15.4906 	 76.4099 	 
C 	 13.0974 	 -14.5422 	 75.4123 	 
C 	 14.0338 	 -13.4746 	 75.7316 	 
C 	 14.4642 	 -13.5957 	 77.0215 	 
H 	 12.4857 	 -14.7103 	 74.4767 	 
C 	 14.3278 	 -12.2946 	 74.8547 	 
H 	 13.9189 	 -12.4762 	 73.8266 	 
H 	 15.4312 	 -12.3405 	 74.7089 	 
C 	 13.8569 	 -10.9235 	 75.3842 	 
H 	 14.5134 	 -10.5433 	 76.1433 	 
H 	 12.8359 	 -10.9716 	 75.8455 	 
C 	 13.8445 	 -9.82762 	 74.3309 	 
H 	 13.0871 	 -10.0653 	 73.6097 	 
H 	 14.7472 	 -9.66198 	 73.8032 	 
H 	 13.6197 	 -8.83947 	 74.8149 	 
H 	 17.2897 	 -11.4173 	 80.5631 	 
H 	 12.3312 	 -16.3635 	 76.2806 	 
*
