! wB97X-D3 SP def2-SVP
%pal
nprocs 16
end

* xyz 0 1
S 	 3.54805 	 -8.56855 	 99.9124 	 
C 	 4.66111 	 -7.52009 	 99.1144 	 
C 	 5.8163 	 -8.20211 	 98.719 	 
C 	 5.79412 	 -9.58982 	 99.1054 	 
C 	 4.68246 	 -9.95695 	 99.8334 	 
H 	 6.63164 	 -10.277 	 99.0984 	 
C 	 7.08008 	 -7.63064 	 98.0031 	 
H 	 6.86711 	 -7.32978 	 96.995 	 
H 	 7.86044 	 -8.3137 	 98.019 	 
C 	 7.62822 	 -6.36089 	 98.692 	 
H 	 6.85549 	 -5.54842 	 98.5975 	 
H 	 7.74993 	 -6.56694 	 99.8209 	 
C 	 9.03087 	 -5.80311 	 98.0829 	 
H 	 9.90825 	 -6.47878 	 98.1025 	 
H 	 8.94972 	 -5.58919 	 97.0171 	 
H 	 9.23781 	 -4.84478 	 98.6003 	 
S 	 2.58839 	 -11.6405 	 100.351 	 
C 	 2.90755 	 -13.3106 	 100.387 	 
C 	 4.24062 	 -13.5704 	 100.578 	 
C 	 5.10816 	 -12.3846 	 100.64 	 
C 	 4.31226 	 -11.2894 	 100.298 	 
H 	 4.46709 	 -14.618 	 100.795 	 
C 	 6.62553 	 -12.5049 	 100.982 	 
H 	 7.06594 	 -13.1036 	 100.14 	 
H 	 6.72048 	 -13.2953 	 101.755 	 
C 	 7.50905 	 -11.3004 	 101.355 	 
H 	 6.75835 	 -10.4919 	 101.577 	 
H 	 8.15918 	 -11.0282 	 100.544 	 
C 	 8.37649 	 -11.6491 	 102.571 	 
H 	 9.21758 	 -12.3087 	 102.292 	 
H 	 7.92622 	 -12.0961 	 103.424 	 
H 	 8.77606 	 -10.6871 	 102.923 	 
H 	 4.60249 	 -6.41246 	 98.867 	 
H 	 2.12346 	 -14.057 	 100.556 	 
*
