! wB97X-D3 SP def2-SVP
%pal
nprocs 16
end

* xyz 0 1
S 	 22.3438 	 -13.0768 	 78.9976 	 
C 	 22.7387 	 -13.3494 	 80.6034 	 
C 	 22.5014 	 -12.2058 	 81.3753 	 
C 	 21.9942 	 -11.136 	 80.5701 	 
C 	 21.8484 	 -11.3915 	 79.2769 	 
H 	 21.6015 	 -10.1666 	 80.9064 	 
C 	 22.6351 	 -12.067 	 82.8925 	 
H 	 22.7202 	 -11.0939 	 83.2682 	 
H 	 23.5511 	 -12.5524 	 83.1271 	 
C 	 21.3667 	 -12.7049 	 83.5911 	 
H 	 20.4877 	 -12.037 	 83.5436 	 
H 	 21.1323 	 -13.5379 	 82.9923 	 
C 	 21.5133 	 -13.1136 	 85.0426 	 
H 	 21.4797 	 -12.3444 	 85.7514 	 
H 	 20.6793 	 -13.7856 	 85.2342 	 
H 	 22.325 	 -13.8251 	 85.0873 	 
S 	 19.707 	 -10.7469 	 77.7393 	 
C 	 19.5939 	 -9.40491 	 76.6769 	 
C 	 20.8069 	 -8.79923 	 76.6101 	 
C 	 21.7522 	 -9.35189 	 77.6023 	 
C 	 21.3027 	 -10.5049 	 78.2277 	 
H 	 20.8448 	 -7.98662 	 76.0154 	 
C 	 23.126 	 -8.6739 	 77.8376 	 
H 	 23.3536 	 -8.1138 	 77.0027 	 
H 	 23.9335 	 -9.4291 	 77.8765 	 
C 	 23.1402 	 -7.70258 	 79.0153 	 
H 	 23.2424 	 -8.29881 	 79.8862 	 
H 	 22.2255 	 -7.07812 	 79.0552 	 
C 	 24.3117 	 -6.81311 	 79.0149 	 
H 	 24.6177 	 -6.50465 	 78.0809 	 
H 	 25.155 	 -7.36102 	 79.343 	 
H 	 24.2516 	 -5.90982 	 79.6361 	 
H 	 23.1517 	 -14.3043 	 80.9117 	 
H 	 18.662 	 -9.14606 	 76.1783 	 
*
