! wB97X-D3 SP def2-SVP
%pal
nprocs 16
end

* xyz 0 1
S 	 -78.4393 	 50.346 	 123.197 	 
C 	 -80.0736 	 50.0828 	 123.86 	 
C 	 -80.4533 	 48.7428 	 123.769 	 
C 	 -79.4132 	 48.0025 	 123.185 	 
C 	 -78.2486 	 48.6896 	 123.009 	 
H 	 -79.3453 	 46.9382 	 122.881 	 
C 	 -81.7771 	 48.1058 	 124.078 	 
H 	 -82.1686 	 47.6695 	 123.187 	 
H 	 -82.3968 	 49.0438 	 124.244 	 
C 	 -81.873 	 47.04 	 125.156 	 
H 	 -82.9311 	 46.868 	 125.42 	 
H 	 -81.5559 	 46.0839 	 124.74 	 
C 	 -81.2039 	 47.3691 	 126.464 	 
H 	 -81.6794 	 48.2151 	 126.939 	 
H 	 -81.4564 	 46.4482 	 127.079 	 
H 	 -80.1436 	 47.4296 	 126.352 	 
S 	 -76.1184 	 48.7926 	 121.312 	 
C 	 -74.7353 	 47.7399 	 121.557 	 
C 	 -74.9885 	 46.8486 	 122.624 	 
C 	 -76.2046 	 47.0769 	 123.303 	 
C 	 -76.8633 	 48.1655 	 122.777 	 
H 	 -74.2168 	 46.1228 	 122.846 	 
C 	 -76.6526 	 46.0574 	 124.442 	 
H 	 -76.9281 	 45.175 	 123.943 	 
H 	 -77.5746 	 46.4297 	 124.87 	 
C 	 -75.7065 	 45.7487 	 125.64 	 
H 	 -75.1428 	 46.7006 	 125.946 	 
H 	 -74.9114 	 45.1401 	 125.164 	 
C 	 -76.5059 	 45.0249 	 126.732 	 
H 	 -76.8542 	 44.0386 	 126.354 	 
H 	 -77.4075 	 45.5853 	 127.127 	 
H 	 -75.8942 	 44.9543 	 127.628 	 
H 	 -80.5636 	 50.8769 	 124.351 	 
H 	 -73.8712 	 47.702 	 120.958 	 
*
