! wB97X-D3 SP def2-SVP
%pal
nprocs 16
end

* xyz 0 1
S 	 -59.3272 	 45.8486 	 136.111 	 
C 	 -58.1815 	 46.6308 	 137.201 	 
C 	 -57.6279 	 47.8324 	 136.783 	 
C 	 -58.2593 	 48.1449 	 135.546 	 
C 	 -59.1074 	 47.1948 	 134.99 	 
H 	 -58.0093 	 49.062 	 135.068 	 
C 	 -56.6325 	 48.6638 	 137.571 	 
H 	 -57.0583 	 48.6733 	 138.579 	 
H 	 -56.6998 	 49.7644 	 137.255 	 
C 	 -55.2332 	 48.1534 	 137.649 	 
H 	 -55.3722 	 47.1171 	 137.939 	 
H 	 -54.6409 	 48.236 	 136.724 	 
C 	 -54.2714 	 48.8587 	 138.599 	 
H 	 -53.3141 	 48.2674 	 138.748 	 
H 	 -53.9316 	 49.8536 	 138.394 	 
H 	 -54.699 	 48.9152 	 139.587 	 
S 	 -61.4594 	 47.3054 	 133.421 	 
C 	 -61.3079 	 47.2992 	 131.714 	 
C 	 -59.9795 	 47.2912 	 131.357 	 
C 	 -59.0217 	 47.1414 	 132.407 	 
C 	 -59.6799 	 47.1839 	 133.672 	 
H 	 -59.8228 	 47.324 	 130.274 	 
C 	 -57.5369 	 46.8859 	 132.245 	 
H 	 -57.4054 	 46.3272 	 131.304 	 
H 	 -57.271 	 46.2885 	 133.118 	 
C 	 -56.7198 	 48.1432 	 132.136 	 
H 	 -56.6796 	 48.5789 	 133.118 	 
H 	 -57.2497 	 48.8724 	 131.4 	 
C 	 -55.3212 	 47.8491 	 131.657 	 
H 	 -55.3011 	 47.4174 	 130.607 	 
H 	 -54.7896 	 47.0183 	 132.163 	 
H 	 -54.7628 	 48.7652 	 131.634 	 
H 	 -57.8882 	 46.1475 	 138.119 	 
H 	 -62.1017 	 47.1522 	 131.024 	 
*
