! wB97X-D3 SP def2-SVP
%pal
nprocs 16
end

* xyz 0 1
S 	 -37.5332 	 11.4615 	 80.0701 	 
C 	 -36.2994 	 11.2805 	 78.8522 	 
C 	 -36.7535 	 11.9288 	 77.6867 	 
C 	 -38.0562 	 12.4163 	 77.7585 	 
C 	 -38.6398 	 12.1503 	 78.9914 	 
H 	 -38.5691 	 12.958 	 77.0187 	 
C 	 -36.037 	 11.8846 	 76.3614 	 
H 	 -36.7193 	 11.755 	 75.5132 	 
H 	 -35.4235 	 11.0013 	 76.4354 	 
C 	 -35.2533 	 13.1784 	 76.1013 	 
H 	 -34.8176 	 13.6601 	 76.9865 	 
H 	 -34.3773 	 12.8318 	 75.6611 	 
C 	 -35.8816 	 14.2583 	 75.3283 	 
H 	 -36.1486 	 13.7937 	 74.4126 	 
H 	 -36.8335 	 14.5094 	 75.8433 	 
H 	 -35.3966 	 15.2182 	 75.3242 	 
S 	 -40.0356 	 13.3214 	 80.8889 	 
C 	 -41.5026 	 14.1474 	 80.5069 	 
C 	 -42.0489 	 13.6538 	 79.2821 	 
C 	 -41.1689 	 12.7807 	 78.6084 	 
C 	 -39.9947 	 12.6577 	 79.3067 	 
H 	 -42.9426 	 14.1223 	 79.0195 	 
C 	 -41.3663 	 12.3122 	 77.2182 	 
H 	 -42.0738 	 11.4593 	 77.0777 	 
H 	 -40.4748 	 11.8917 	 76.8238 	 
C 	 -41.8498 	 13.4372 	 76.2822 	 
H 	 -42.8556 	 13.7741 	 76.6028 	 
H 	 -42.0239 	 13.0478 	 75.3 	 
C 	 -41.0143 	 14.654 	 76.1032 	 
H 	 -41.6745 	 15.3684 	 75.555 	 
H 	 -40.2148 	 14.4459 	 75.3459 	 
H 	 -40.5801 	 14.9793 	 77.0251 	 
H 	 -35.4131 	 10.6939 	 78.9884 	 
H 	 -41.8926 	 14.9557 	 81.175 	 
*
