! wB97X-D3 SP def2-SVP
%pal
nprocs 16
end

* xyz 0 1
S 	 -11.882 	 -1.55731 	 79.9405 	 
C 	 -11.5554 	 -0.7239 	 81.4454 	 
C 	 -12.5466 	 0.16434 	 81.8546 	 
C 	 -13.6464 	 0.0412643 	 81.006 	 
C 	 -13.4513 	 -0.858182 	 79.9744 	 
H 	 -14.5651 	 0.583741 	 81.1799 	 
C 	 -12.6077 	 1.21876 	 83.004 	 
H 	 -13.3308 	 0.771117 	 83.7055 	 
H 	 -13.1675 	 2.14432 	 82.6703 	 
C 	 -11.2363 	 1.70105 	 83.5593 	 
H 	 -10.6704 	 0.823886 	 83.8883 	 
H 	 -10.5186 	 2.08791 	 82.8203 	 
C 	 -11.5077 	 2.68214 	 84.74 	 
H 	 -11.5578 	 3.68257 	 84.3852 	 
H 	 -12.2949 	 2.4234 	 85.4677 	 
H 	 -10.656 	 2.96422 	 85.3103 	 
S 	 -13.87 	 -1.42542 	 77.2648 	 
C 	 -15.4536 	 -1.78248 	 76.695 	 
C 	 -16.3912 	 -1.4696 	 77.7091 	 
C 	 -15.8048 	 -1.201 	 78.9759 	 
C 	 -14.4274 	 -1.10264 	 78.8795 	 
H 	 -17.428 	 -1.53868 	 77.447 	 
C 	 -16.751 	 -1.04258 	 80.1233 	 
H 	 -16.1388 	 -0.945465 	 81.0072 	 
H 	 -17.3832 	 -1.9233 	 80.1848 	 
C 	 -17.7881 	 0.0871998 	 80.0313 	 
H 	 -18.3107 	 -0.117312 	 80.9485 	 
H 	 -18.4506 	 -0.0358893 	 79.2134 	 
C 	 -17.2792 	 1.59308 	 80.0063 	 
H 	 -16.3041 	 1.60468 	 79.4806 	 
H 	 -16.9982 	 1.94035 	 81.0158 	 
H 	 -17.9642 	 2.27178 	 79.4684 	 
H 	 -10.6122 	 -0.811513 	 81.9438 	 
H 	 -15.6638 	 -1.98068 	 75.6465 	 
*
