! wB97X-D3 SP def2-SVP
%pal
nprocs 16
end

* xyz 0 1
S 	 -22.3773 	 -1.7393 	 89.4124 	 
C 	 -23.6912 	 -1.4671 	 90.6045 	 
C 	 -24.787 	 -0.845413 	 90.0618 	 
C 	 -24.642 	 -0.497811 	 88.6468 	 
C 	 -23.4367 	 -0.946895 	 88.112 	 
H 	 -25.3085 	 0.0636369 	 88.0482 	 
C 	 -26.0417 	 -0.505115 	 90.9022 	 
H 	 -26.3636 	 0.440054 	 90.448 	 
H 	 -25.6594 	 -0.0951411 	 91.9144 	 
C 	 -27.1216 	 -1.51256 	 91.1393 	 
H 	 -26.8193 	 -2.42292 	 91.6778 	 
H 	 -27.9672 	 -1.15929 	 91.7081 	 
C 	 -27.8329 	 -1.80864 	 89.7846 	 
H 	 -28.3564 	 -0.821937 	 89.5264 	 
H 	 -27.3227 	 -2.24618 	 88.9382 	 
H 	 -28.7352 	 -2.49353 	 89.9486 	 
S 	 -21.4666 	 -0.319496 	 86.2561 	 
C 	 -21.7413 	 -0.645034 	 84.5246 	 
C 	 -22.9641 	 -1.2109 	 84.421 	 
C 	 -23.7538 	 -1.38613 	 85.5921 	 
C 	 -23.0211 	 -0.964999 	 86.6964 	 
H 	 -23.3315 	 -1.34186 	 83.4253 	 
C 	 -25.2746 	 -1.73723 	 85.6079 	 
H 	 -25.726 	 -1.55694 	 86.5711 	 
H 	 -25.4172 	 -2.79163 	 85.3665 	 
C 	 -26.0075 	 -0.922689 	 84.5664 	 
H 	 -25.5124 	 -1.23158 	 83.6818 	 
H 	 -25.7531 	 0.133342 	 84.6125 	 
C 	 -27.5339 	 -0.896386 	 84.6098 	 
H 	 -28.0283 	 -0.717936 	 85.5971 	 
H 	 -28.0357 	 -1.79498 	 84.1674 	 
H 	 -28.0587 	 -0.0316505 	 84.0853 	 
H 	 -23.5012 	 -1.77401 	 91.6351 	 
H 	 -21.0127 	 -0.582672 	 83.7365 	 
*
