! wB97X-D3 SP def2-SVP
%pal
nprocs 16
end

* xyz 0 1
S 	 -11.6509 	 39.75 	 31.2262 	 
C 	 -11.8449 	 38.2855 	 32.1878 	 
C 	 -12.659 	 37.362 	 31.5397 	 
C 	 -13.0347 	 37.7943 	 30.2679 	 
C 	 -12.6278 	 39.0788 	 29.8828 	 
H 	 -13.5868 	 37.2717 	 29.5034 	 
C 	 -13.1011 	 36.0036 	 32.0587 	 
H 	 -12.5958 	 35.8707 	 33.0455 	 
H 	 -12.8472 	 35.2158 	 31.282 	 
C 	 -14.6062 	 35.9995 	 32.3561 	 
H 	 -15.184 	 36.2534 	 31.461 	 
H 	 -14.9962 	 35.0098 	 32.6757 	 
C 	 -15.0654 	 37.0847 	 33.3966 	 
H 	 -14.7257 	 38.0801 	 32.9885 	 
H 	 -16.1805 	 37.1715 	 33.5969 	 
H 	 -14.5069 	 36.977 	 34.3568 	 
S 	 -11.247 	 40.3893 	 27.868 	 
C 	 -12.0844 	 40.7197 	 26.3466 	 
C 	 -13.4092 	 40.5246 	 26.495 	 
C 	 -13.8069 	 39.9092 	 27.7239 	 
C 	 -12.7307 	 39.8237 	 28.644 	 
H 	 -14.1033 	 40.6825 	 25.6727 	 
C 	 -15.287 	 39.5394 	 28.0289 	 
H 	 -15.8244 	 40.4788 	 27.9482 	 
H 	 -15.2916 	 39.2542 	 29.0067 	 
C 	 -15.9756 	 38.4737 	 27.0829 	 
H 	 -15.5513 	 37.5282 	 27.3325 	 
H 	 -15.7571 	 38.7362 	 26.0431 	 
C 	 -17.4764 	 38.2623 	 27.4607 	 
H 	 -17.9501 	 39.1675 	 27.0606 	 
H 	 -17.5055 	 38.221 	 28.5555 	 
H 	 -18.0221 	 37.3438 	 27.0236 	 
H 	 -11.6316 	 38.2311 	 33.2905 	 
H 	 -11.5809 	 41.3148 	 25.5969 	 
*
