! wB97X-D3 SP def2-SVP
%pal
nprocs 16
end

* xyz 0 1
S 	 -6.36636 	 55.7823 	 28.8758 	 
C 	 -5.63166 	 54.3303 	 28.2608 	 
C 	 -4.6073 	 53.9226 	 29.0848 	 
C 	 -4.38119 	 54.7311 	 30.2235 	 
C 	 -5.28064 	 55.8066 	 30.2332 	 
H 	 -3.72571 	 54.6435 	 31.0563 	 
C 	 -3.91064 	 52.5775 	 29.0027 	 
H 	 -4.64013 	 51.9759 	 28.478 	 
H 	 -3.75883 	 52.2009 	 30.061 	 
C 	 -2.51027 	 52.6274 	 28.3033 	 
H 	 -2.53595 	 53.2555 	 27.3813 	 
H 	 -1.79003 	 53.0877 	 28.9197 	 
C 	 -2.06344 	 51.2831 	 27.7384 	 
H 	 -0.94064 	 51.3353 	 27.5728 	 
H 	 -2.10781 	 50.554 	 28.528 	 
H 	 -2.67389 	 50.9057 	 26.9034 	 
S 	 -4.86373 	 58.4945 	 30.4367 	 
C 	 -5.14618 	 59.2782 	 32.0217 	 
C 	 -5.35247 	 58.3751 	 33.0061 	 
C 	 -5.47239 	 56.9816 	 32.5277 	 
C 	 -5.27213 	 56.9451 	 31.1491 	 
H 	 -5.51832 	 58.7181 	 34.0178 	 
C 	 -5.66114 	 55.9096 	 33.5583 	 
H 	 -4.99109 	 55.8292 	 34.3959 	 
H 	 -5.44181 	 54.9435 	 32.9997 	 
C 	 -7.05537 	 55.6368 	 34.038 	 
H 	 -7.01639 	 54.68 	 34.6042 	 
H 	 -7.80193 	 55.5823 	 33.2844 	 
C 	 -7.6801 	 56.6059 	 34.9638 	 
H 	 -8.71962 	 56.3737 	 35.1887 	 
H 	 -7.63538 	 57.6676 	 34.6111 	 
H 	 -7.09196 	 56.5866 	 35.8775 	 
H 	 -6.03014 	 53.7802 	 27.4965 	 
H 	 -5.149 	 60.3483 	 32.0031 	 
*
