! wB97X-D3 SP def2-SVP
%pal
nprocs 16
end

* xyz 0 1
S 	 -52.5675 	 32.1807 	 92.4967 	 
C 	 -53.0393 	 30.5035 	 92.2458 	 
C 	 -54.046 	 30.1695 	 93.1586 	 
C 	 -54.426 	 31.137 	 94.0444 	 
C 	 -53.5316 	 32.2398 	 93.9654 	 
H 	 -55.2103 	 31.0506 	 94.7249 	 
C 	 -54.601 	 28.7308 	 93.3248 	 
H 	 -54.6654 	 28.5387 	 94.3374 	 
H 	 -53.8842 	 28.0127 	 92.815 	 
C 	 -56.026 	 28.5109 	 92.6066 	 
H 	 -55.8803 	 28.7347 	 91.5624 	 
H 	 -56.3114 	 27.4385 	 92.6392 	 
C 	 -57.2049 	 29.262 	 93.216 	 
H 	 -58.1527 	 29.0155 	 92.7568 	 
H 	 -57.3306 	 28.9739 	 94.2844 	 
H 	 -56.9714 	 30.3585 	 93.0573 	 
S 	 -52.8143 	 34.9179 	 94.1767 	 
C 	 -53.1191 	 35.8842 	 95.5819 	 
C 	 -53.8037 	 35.1378 	 96.4664 	 
C 	 -53.8697 	 33.7269 	 96.1436 	 
C 	 -53.5319 	 33.4553 	 94.8494 	 
H 	 -54.0089 	 35.6179 	 97.3739 	 
C 	 -54.3712 	 32.6652 	 97.0677 	 
H 	 -54.0489 	 31.7271 	 96.5757 	 
H 	 -55.4937 	 32.6655 	 96.966 	 
C 	 -53.9838 	 32.6187 	 98.5687 	 
H 	 -53.9415 	 33.6078 	 99.0697 	 
H 	 -52.9107 	 32.3908 	 98.5933 	 
C 	 -54.8926 	 31.6635 	 99.417 	 
H 	 -55.0064 	 32.0289 	 100.457 	 
H 	 -54.5382 	 30.634 	 99.4765 	 
H 	 -55.9316 	 31.7197 	 99.0088 	 
H 	 -52.7717 	 29.8619 	 91.4834 	 
H 	 -52.9637 	 36.9909 	 95.772 	 
*
