! wB97X-D3 SP def2-SVP
%pal
nprocs 16
end

* xyz 0 1
S 	 14.1623 	 -2.27175 	 63.7849 	 
C 	 14.497 	 -3.55249 	 62.6757 	 
C 	 15.1105 	 -3.10401 	 61.4907 	 
C 	 15.2085 	 -1.69783 	 61.5273 	 
C 	 14.7816 	 -1.07138 	 62.7024 	 
H 	 15.4257 	 -1.12796 	 60.6643 	 
C 	 15.5587 	 -3.94274 	 60.3076 	 
H 	 16.3813 	 -3.5074 	 59.708 	 
H 	 14.8062 	 -4.08885 	 59.5918 	 
C 	 15.8503 	 -5.42755 	 60.6358 	 
H 	 16.6721 	 -5.57743 	 61.3865 	 
H 	 14.983 	 -5.69255 	 61.1156 	 
C 	 16.3085 	 -6.19725 	 59.3941 	 
H 	 17.2754 	 -5.78693 	 58.9978 	 
H 	 16.4001 	 -7.27279 	 59.6504 	 
H 	 15.6141 	 -6.23697 	 58.4758 	 
S 	 16.2779 	 1.04768 	 63.4851 	 
C 	 15.5134 	 2.63648 	 63.5808 	 
C 	 14.1922 	 2.6375 	 63.2495 	 
C 	 13.7497 	 1.28685 	 62.805 	 
C 	 14.7428 	 0.309635 	 62.9042 	 
H 	 13.5712 	 3.4864 	 63.3904 	 
C 	 12.337 	 1.04237 	 62.4844 	 
H 	 12.0554 	 0.0699006 	 62.9144 	 
H 	 12.2284 	 1.18096 	 61.3748 	 
C 	 11.3045 	 1.9641 	 63.0962 	 
H 	 10.2611 	 1.69344 	 62.7508 	 
H 	 11.4033 	 2.9549 	 62.7636 	 
C 	 11.1195 	 1.81086 	 64.6121 	 
H 	 11.0479 	 0.762317 	 64.8965 	 
H 	 10.2041 	 2.29564 	 64.9416 	 
H 	 11.9724 	 2.2011 	 65.1997 	 
H 	 14.2924 	 -4.48798 	 62.989 	 
H 	 16.0138 	 3.6257 	 63.9245 	 
*
