! wB97X-D3 SP def2-SVP
%pal
nprocs 16
end

* xyz 0 1
S 	 -25.8425 	 44.2055 	 58.2461 	 
C 	 -25.8462 	 45.8954 	 58.804 	 
C 	 -24.7943 	 46.6473 	 58.3734 	 
C 	 -23.9427 	 45.8185 	 57.5709 	 
C 	 -24.2919 	 44.4843 	 57.467 	 
H 	 -23.0738 	 46.2655 	 57.1307 	 
C 	 -24.5062 	 48.0506 	 58.7851 	 
H 	 -25.4114 	 48.7233 	 58.6931 	 
H 	 -23.9108 	 48.485 	 58.0141 	 
C 	 -24.0183 	 48.2703 	 60.2056 	 
H 	 -24.2143 	 49.2454 	 60.5482 	 
H 	 -24.5237 	 47.5676 	 60.8577 	 
C 	 -22.4377 	 48.0052 	 60.3416 	 
H 	 -21.7519 	 48.3709 	 59.5035 	 
H 	 -21.9587 	 48.3833 	 61.2736 	 
H 	 -22.279 	 46.9532 	 60.1861 	 
S 	 -23.4897 	 41.8816 	 57.2024 	 
C 	 -22.6734 	 41.3499 	 55.725 	 
C 	 -22.5057 	 42.397 	 54.8725 	 
C 	 -23.053 	 43.6304 	 55.3231 	 
C 	 -23.6343 	 43.5461 	 56.6 	 
H 	 -22.006 	 42.1693 	 53.9407 	 
C 	 -22.869 	 44.9911 	 54.6435 	 
H 	 -22.3644 	 44.9458 	 53.7054 	 
H 	 -22.2965 	 45.6511 	 55.2504 	 
C 	 -24.1151 	 45.7172 	 54.1554 	 
H 	 -23.9346 	 46.72 	 53.7799 	 
H 	 -24.8043 	 45.8559 	 54.965 	 
C 	 -24.8761 	 45.0311 	 53.0748 	 
H 	 -25.8678 	 45.5587 	 52.9125 	 
H 	 -25.1148 	 44.0165 	 53.3431 	 
H 	 -24.3772 	 45.1345 	 52.0903 	 
H 	 -26.4958 	 46.2241 	 59.5388 	 
H 	 -22.3867 	 40.3213 	 55.6592 	 
*
