! wB97X-D3 SP def2-SVP
%pal
nprocs 16
end

* xyz 0 1
S 	 -31.3158 	 30.1905 	 43.6679 	 
C 	 -30.6276 	 28.9424 	 44.6394 	 
C 	 -31.038 	 29.0732 	 45.9177 	 
C 	 -31.6387 	 30.293 	 46.19 	 
C 	 -31.8755 	 31.0779 	 45.081 	 
H 	 -32.0628 	 30.6699 	 47.1153 	 
C 	 -30.7816 	 28.003 	 46.9997 	 
H 	 -30.8415 	 27.0897 	 46.4175 	 
H 	 -31.6586 	 28.0001 	 47.6765 	 
C 	 -29.5614 	 28.1473 	 47.9112 	 
H 	 -29.3353 	 29.1671 	 48.114 	 
H 	 -29.7375 	 27.6181 	 48.8186 	 
C 	 -28.2726 	 27.7092 	 47.1943 	 
H 	 -28.2804 	 26.7038 	 46.6067 	 
H 	 -28.231 	 28.3479 	 46.3487 	 
H 	 -27.4994 	 27.9089 	 47.8697 	 
S 	 -31.5506 	 33.754 	 44.5537 	 
C 	 -32.7199 	 34.8388 	 45.172 	 
C 	 -33.9253 	 34.2371 	 45.3648 	 
C 	 -33.8684 	 32.8246 	 45.435 	 
C 	 -32.5535 	 32.4014 	 45.0453 	 
H 	 -34.7895 	 34.7461 	 45.6381 	 
C 	 -34.9342 	 31.812 	 45.8699 	 
H 	 -34.9499 	 31.9212 	 46.96 	 
H 	 -34.6775 	 30.7644 	 45.5976 	 
C 	 -36.3825 	 32.1767 	 45.2962 	 
H 	 -36.3295 	 32.0615 	 44.2031 	 
H 	 -36.5822 	 33.2658 	 45.3938 	 
C 	 -37.5488 	 31.3993 	 45.9098 	 
H 	 -38.3857 	 31.2535 	 45.1301 	 
H 	 -37.8568 	 31.8667 	 46.8472 	 
H 	 -37.119 	 30.4164 	 46.0385 	 
H 	 -30.2942 	 28.0345 	 44.2443 	 
H 	 -32.5462 	 35.9241 	 45.1057 	 
*
