! wB97X-D3 SP def2-SVP
%pal
nprocs 16
end

* xyz 0 1
S 	 -99.4454 	 40.3014 	 120.959 	 
C 	 -97.9162 	 39.7974 	 120.258 	 
C 	 -97.2842 	 40.7754 	 119.556 	 
C 	 -98.0656 	 41.9886 	 119.527 	 
C 	 -99.2715 	 41.9026 	 120.259 	 
H 	 -97.9601 	 42.9362 	 118.962 	 
C 	 -95.955 	 40.6054 	 118.872 	 
H 	 -95.6775 	 39.7065 	 119.475 	 
H 	 -95.2653 	 41.389 	 119.159 	 
C 	 -96.0442 	 40.3362 	 117.347 	 
H 	 -96.816 	 39.6344 	 117.069 	 
H 	 -96.2483 	 41.3245 	 116.933 	 
C 	 -94.6394 	 40.0557 	 116.853 	 
H 	 -94.843 	 40.0069 	 115.73 	 
H 	 -93.9656 	 40.892 	 116.984 	 
H 	 -94.2728 	 39.11 	 117.231 	 
S 	 -100.835 	 43.7798 	 119.036 	 
C 	 -101.844 	 44.8416 	 120.031 	 
C 	 -101.629 	 44.6335 	 121.393 	 
C 	 -100.66 	 43.6094 	 121.715 	 
C 	 -100.218 	 42.9901 	 120.511 	 
H 	 -101.996 	 45.2912 	 122.148 	 
C 	 -100.252 	 43.1968 	 123.186 	 
H 	 -100.068 	 44.1703 	 123.638 	 
H 	 -99.2054 	 42.6815 	 123.136 	 
C 	 -101.296 	 42.4693 	 124 	 
H 	 -101.655 	 41.5158 	 123.622 	 
H 	 -102.063 	 43.1877 	 124.245 	 
C 	 -100.699 	 42.1028 	 125.4 	 
H 	 -100.068 	 41.2454 	 125.3 	 
H 	 -101.512 	 41.9105 	 126.074 	 
H 	 -100.146 	 42.9797 	 125.843 	 
H 	 -97.5337 	 38.8112 	 120.456 	 
H 	 -102.338 	 45.702 	 119.607 	 
*
