! wB97X-D3 SP def2-SVP
%pal
nprocs 16
end

* xyz 0 1
S 	 -46.9671 	 54.4079 	 100.961 	 
C 	 -46.2141 	 52.8486 	 101.197 	 
C 	 -46.132 	 52.1092 	 100.058 	 
C 	 -46.7398 	 52.7466 	 98.9772 	 
C 	 -47.1426 	 54.0506 	 99.2523 	 
H 	 -46.9209 	 52.2957 	 98.0007 	 
C 	 -45.6107 	 50.7221 	 99.9657 	 
H 	 -46.1473 	 50.2108 	 99.1637 	 
H 	 -45.8111 	 50.2377 	 100.92 	 
C 	 -44.1456 	 50.538 	 99.5925 	 
H 	 -44.0026 	 49.4296 	 99.3328 	 
H 	 -44.0714 	 51.1034 	 98.6967 	 
C 	 -43.1654 	 50.9744 	 100.7 	 
H 	 -42.1026 	 50.888 	 100.471 	 
H 	 -43.262 	 52.0523 	 100.741 	 
H 	 -43.4209 	 50.5723 	 101.684 	 
S 	 -49.5688 	 54.918 	 98.5952 	 
C 	 -49.7852 	 55.8326 	 97.1643 	 
C 	 -48.6058 	 56.2862 	 96.5701 	 
C 	 -47.4661 	 55.6026 	 97.162 	 
C 	 -47.8453 	 54.8767 	 98.2647 	 
H 	 -48.63 	 56.9777 	 95.7393 	 
C 	 -46.0453 	 55.7886 	 96.5524 	 
H 	 -46.1819 	 55.9394 	 95.4207 	 
H 	 -45.4979 	 54.8246 	 96.6256 	 
C 	 -45.2373 	 56.9633 	 97.1518 	 
H 	 -45.874 	 57.8837 	 97.2437 	 
H 	 -44.4303 	 57.1762 	 96.4749 	 
C 	 -44.7385 	 56.6481 	 98.5968 	 
H 	 -45.5866 	 56.4295 	 99.3029 	 
H 	 -44.0527 	 57.4295 	 98.9074 	 
H 	 -44.1915 	 55.6888 	 98.646 	 
H 	 -45.7901 	 52.4604 	 102.108 	 
H 	 -50.6949 	 56.2963 	 96.9555 	 
*
