! wB97X-D3 SP def2-SVP
%pal
nprocs 16
end

* xyz 0 1
S 	 -84.1624 	 51.754 	 139.01 	 
C 	 -83.9939 	 50.1748 	 139.747 	 
C 	 -82.6725 	 49.9117 	 140.141 	 
C 	 -81.7932 	 50.9603 	 139.795 	 
C 	 -82.437 	 52.0388 	 139.151 	 
H 	 -80.7581 	 50.9844 	 139.976 	 
C 	 -82.214 	 48.5296 	 140.768 	 
H 	 -81.9057 	 48.701 	 141.764 	 
H 	 -81.2575 	 48.2075 	 140.35 	 
C 	 -83.1255 	 47.338 	 140.682 	 
H 	 -83.4417 	 47.3707 	 139.62 	 
H 	 -82.4278 	 46.5386 	 140.96 	 
C 	 -84.2955 	 47.2507 	 141.697 	 
H 	 -84.9152 	 48.1304 	 141.734 	 
H 	 -84.9622 	 46.4262 	 141.44 	 
H 	 -83.9395 	 47.0493 	 142.651 	 
S 	 -82.2213 	 54.7619 	 139.302 	 
C 	 -81.0618 	 55.4733 	 138.172 	 
C 	 -80.4604 	 54.5779 	 137.293 	 
C 	 -80.8168 	 53.2556 	 137.618 	 
C 	 -81.7859 	 53.1874 	 138.587 	 
H 	 -79.9755 	 54.955 	 136.457 	 
C 	 -80.3279 	 52.0464 	 136.824 	 
H 	 -80.9935 	 52.1254 	 135.916 	 
H 	 -80.6913 	 51.1611 	 137.312 	 
C 	 -78.7809 	 52.0604 	 136.628 	 
H 	 -78.4132 	 52.9664 	 136.179 	 
H 	 -78.459 	 51.2837 	 135.914 	 
C 	 -78.1357 	 51.5919 	 137.949 	 
H 	 -78.7159 	 50.7377 	 138.295 	 
H 	 -78.1422 	 52.4163 	 138.72 	 
H 	 -77.0612 	 51.3579 	 137.846 	 
H 	 -84.7951 	 49.4304 	 139.766 	 
H 	 -81.0127 	 56.495 	 137.922 	 
*
