! wB97X-D3 SP def2-SVP
%pal
nprocs 16
end

* xyz 0 1
S 	 -11.0804 	 66.632 	 54.2709 	 
C 	 -11.0459 	 65.2172 	 55.331 	 
C 	 -10.1907 	 64.1723 	 54.8898 	 
C 	 -9.87561 	 64.4428 	 53.4931 	 
C 	 -10.3469 	 65.5723 	 52.9624 	 
H 	 -9.34423 	 63.771 	 52.78 	 
C 	 -9.73851 	 62.9017 	 55.5578 	 
H 	 -9.35396 	 63.2456 	 56.4214 	 
H 	 -8.79413 	 62.512 	 55.0856 	 
C 	 -10.887 	 61.8785 	 55.7771 	 
H 	 -11.6206 	 62.3123 	 56.4447 	 
H 	 -11.3294 	 61.7424 	 54.7766 	 
C 	 -10.3479 	 60.5255 	 56.3213 	 
H 	 -11.1209 	 59.7789 	 56.5396 	 
H 	 -9.68672 	 60.0701 	 55.5562 	 
H 	 -9.66546 	 60.6325 	 57.1458 	 
S 	 -11.4377 	 66.3381 	 50.523 	 
C 	 -10.413 	 66.643 	 49.1714 	 
C 	 -9.05541 	 66.6125 	 49.529 	 
C 	 -8.86405 	 66.3725 	 50.9459 	 
C 	 -10.0593 	 66.0722 	 51.624 	 
H 	 -8.32685 	 66.8075 	 48.7673 	 
C 	 -7.46265 	 66.3301 	 51.6321 	 
H 	 -6.77172 	 66.0663 	 50.8446 	 
H 	 -7.50258 	 65.5081 	 52.3393 	 
C 	 -7.09393 	 67.6636 	 52.367 	 
H 	 -7.93279 	 67.8309 	 52.9996 	 
H 	 -7.03452 	 68.4273 	 51.6084 	 
C 	 -5.74584 	 67.8163 	 52.9609 	 
H 	 -5.62446 	 67.2262 	 53.9152 	 
H 	 -5.5786 	 68.8727 	 53.3298 	 
H 	 -5.01459 	 67.482 	 52.2442 	 
H 	 -11.5529 	 65.2047 	 56.2751 	 
H 	 -10.7933 	 66.9305 	 48.2276 	 
*
