! wB97X-D3 SP def2-SVP
%pal
nprocs 16
end

* xyz 0 1
S 	 8.49659 	 -7.41412 	 64.2115 	 
C 	 7.14503 	 -6.26477 	 64.4615 	 
C 	 7.44138 	 -5.06999 	 63.7888 	 
C 	 8.72199 	 -5.13276 	 63.1337 	 
C 	 9.42833 	 -6.32604 	 63.2111 	 
H 	 9.12301 	 -4.41844 	 62.5028 	 
C 	 6.5744 	 -3.85743 	 63.687 	 
H 	 5.49949 	 -4.20026 	 63.7607 	 
H 	 6.64253 	 -3.41613 	 62.7286 	 
C 	 6.75064 	 -2.79204 	 64.7539 	 
H 	 5.91256 	 -2.05893 	 64.6347 	 
H 	 6.62613 	 -3.3077 	 65.7187 	 
C 	 8.06432 	 -2.06645 	 64.8333 	 
H 	 8.84532 	 -2.79297 	 65.0152 	 
H 	 8.31699 	 -1.42721 	 63.9987 	 
H 	 8.02636 	 -1.39281 	 65.7551 	 
S 	 11.1015 	 -6.43459 	 61.011 	 
C 	 12.8519 	 -6.69804 	 61.2242 	 
C 	 13.096 	 -6.75037 	 62.6083 	 
C 	 11.9426 	 -6.69294 	 63.4267 	 
C 	 10.7842 	 -6.56136 	 62.7112 	 
H 	 14.142 	 -6.91334 	 62.92 	 
C 	 12.1075 	 -6.77689 	 64.896 	 
H 	 11.2181 	 -6.61533 	 65.5284 	 
H 	 12.8405 	 -5.98654 	 65.1945 	 
C 	 12.597 	 -8.1716 	 65.4442 	 
H 	 13.4674 	 -8.52307 	 64.9307 	 
H 	 11.7449 	 -8.92873 	 65.245 	 
C 	 12.7738 	 -8.15247 	 66.8697 	 
H 	 13.0035 	 -9.14748 	 67.2819 	 
H 	 11.8789 	 -7.86532 	 67.4289 	 
H 	 13.5743 	 -7.40967 	 67.1095 	 
H 	 6.22846 	 -6.48208 	 65.053 	 
H 	 13.6875 	 -6.67584 	 60.5022 	 
*
