! wB97X-D3 SP def2-SVP
%pal
nprocs 16
end

* xyz 0 1
S 	 -3.27109 	 -13.2469 	 69.3023 	 
C 	 -2.37574 	 -13.3379 	 67.7687 	 
C 	 -2.35191 	 -12.1246 	 67.2025 	 
C 	 -2.82067 	 -11.0554 	 68.0079 	 
C 	 -3.45187 	 -11.4563 	 69.1384 	 
H 	 -2.99756 	 -10.0824 	 67.5712 	 
C 	 -1.71336 	 -11.884 	 65.907 	 
H 	 -0.980915 	 -12.6939 	 65.7126 	 
H 	 -1.24054 	 -10.9211 	 65.8331 	 
C 	 -2.78004 	 -11.9425 	 64.8339 	 
H 	 -2.29029 	 -11.9532 	 63.8579 	 
H 	 -3.13621 	 -12.9985 	 64.9114 	 
C 	 -3.95892 	 -11.039 	 64.7645 	 
H 	 -4.51898 	 -11.3823 	 63.8599 	 
H 	 -4.55852 	 -11.1 	 65.6698 	 
H 	 -3.7646 	 -9.97733 	 64.6098 	 
S 	 -4.79843 	 -11.4453 	 71.5676 	 
C 	 -5.25277 	 -9.9476 	 72.313 	 
C 	 -4.90906 	 -8.90657 	 71.4738 	 
C 	 -4.20057 	 -9.2563 	 70.3187 	 
C 	 -4.1527 	 -10.6551 	 70.1146 	 
H 	 -4.98487 	 -7.94165 	 71.8723 	 
C 	 -3.67141 	 -8.17651 	 69.4268 	 
H 	 -2.67421 	 -8.36737 	 69.0623 	 
H 	 -3.45847 	 -7.22782 	 69.951 	 
C 	 -4.60713 	 -7.83497 	 68.3204 	 
H 	 -5.34469 	 -7.03846 	 68.6649 	 
H 	 -5.14283 	 -8.72369 	 68.0397 	 
C 	 -3.90057 	 -7.1993 	 67.1478 	 
H 	 -3.30799 	 -6.42783 	 67.531 	 
H 	 -4.59357 	 -6.81801 	 66.4003 	 
H 	 -3.37203 	 -7.95715 	 66.5026 	 
H 	 -1.94232 	 -14.22 	 67.3418 	 
H 	 -5.90159 	 -9.8883 	 73.1641 	 
*
