! wB97X-D3 SP def2-SVP
%pal
nprocs 16
end

* xyz 0 1
S 	 12.0061 	 -14.7752 	 86.2644 	 
C 	 13.6254 	 -15.3621 	 86.0009 	 
C 	 14.3631 	 -15.3719 	 87.1834 	 
C 	 13.7324 	 -14.684 	 88.2959 	 
C 	 12.4353 	 -14.3962 	 87.9404 	 
H 	 14.1775 	 -14.4334 	 89.2898 	 
C 	 15.8401 	 -15.7759 	 87.3092 	 
H 	 16.2902 	 -15.11 	 87.9561 	 
H 	 16.2514 	 -15.5299 	 86.3819 	 
C 	 16.1124 	 -17.2552 	 87.6342 	 
H 	 15.7606 	 -17.4785 	 88.6352 	 
H 	 15.6177 	 -17.966 	 86.9944 	 
C 	 17.5661 	 -17.576 	 87.5779 	 
H 	 18.0263 	 -17.3856 	 86.5804 	 
H 	 18.0447 	 -17.0294 	 88.3591 	 
H 	 17.7006 	 -18.5764 	 87.7503 	 
S 	 10.1539 	 -14.8495 	 89.2364 	 
C 	 9.59744 	 -13.6252 	 90.3365 	 
C 	 10.4418 	 -12.5583 	 90.44 	 
C 	 11.5385 	 -12.6582 	 89.5602 	 
C 	 11.5314 	 -13.8404 	 88.8662 	 
H 	 10.1636 	 -11.8142 	 91.1798 	 
C 	 12.5767 	 -11.584 	 89.2559 	 
H 	 12.0294 	 -10.6748 	 89.0774 	 
H 	 13.1086 	 -11.7895 	 88.2955 	 
C 	 13.6245 	 -11.4665 	 90.3518 	 
H 	 13.9797 	 -12.4921 	 90.5312 	 
H 	 13.1524 	 -11.1469 	 91.2249 	 
C 	 14.7554 	 -10.4301 	 89.9761 	 
H 	 15.0029 	 -10.3779 	 88.8945 	 
H 	 15.7608 	 -10.4257 	 90.4881 	 
H 	 14.3552 	 -9.44114 	 90.2215 	 
H 	 13.9535 	 -16.04 	 85.232 	 
H 	 8.76855 	 -13.6986 	 91.0111 	 
*
