! wB97X-D3 SP def2-SVP
%pal
nprocs 16
end

* xyz 0 1
S 	 0.148447 	 4.71287 	 82.0094 	 
C 	 1.4399 	 5.37597 	 81.054 	 
C 	 1.08664 	 5.5312 	 79.7574 	 
C 	 -0.281651 	 5.11879 	 79.4727 	 
C 	 -0.908993 	 4.58554 	 80.581 	 
H 	 -0.713145 	 5.09331 	 78.5066 	 
C 	 1.91639 	 6.16714 	 78.6811 	 
H 	 2.12031 	 7.20266 	 78.9408 	 
H 	 1.21965 	 6.34313 	 77.8507 	 
C 	 3.15307 	 5.38716 	 78.2291 	 
H 	 4.108 	 5.31889 	 78.6623 	 
H 	 2.73362 	 4.38512 	 78.3592 	 
C 	 3.50254 	 5.72591 	 76.6948 	 
H 	 4.33716 	 5.15843 	 76.2223 	 
H 	 2.62575 	 5.56131 	 76.0342 	 
H 	 3.75465 	 6.75909 	 76.4627 	 
S 	 -2.52705 	 2.5049 	 79.8833 	 
C 	 -4.13625 	 2.47237 	 80.53 	 
C 	 -4.47212 	 3.53081 	 81.2721 	 
C 	 -3.41313 	 4.5363 	 81.3212 	 
C 	 -2.26505 	 4.06968 	 80.7023 	 
H 	 -5.37196 	 3.60677 	 81.8742 	 
C 	 -3.61919 	 5.84443 	 82.0358 	 
H 	 -2.63673 	 6.10554 	 82.3891 	 
H 	 -4.19595 	 5.68446 	 82.9743 	 
C 	 -4.23503 	 7.01563 	 81.1756 	 
H 	 -5.28887 	 6.74359 	 80.8824 	 
H 	 -3.73055 	 7.20366 	 80.2125 	 
C 	 -4.37104 	 8.29195 	 81.96 	 
H 	 -4.91924 	 8.30278 	 82.8711 	 
H 	 -4.887 	 9.0406 	 81.3189 	 
H 	 -3.37416 	 8.62177 	 82.2361 	 
H 	 2.48796 	 5.59484 	 81.4098 	 
H 	 -4.84396 	 1.68743 	 80.3814 	 
*
