! wB97X-D3 SP def2-SVP
%pal
nprocs 16
end

* xyz 0 1
S 	 -68.092 	 50.1855 	 126.871 	 
C 	 -67.9391 	 51.6895 	 125.994 	 
C 	 -69.2058 	 52.1791 	 125.649 	 
C 	 -70.2365 	 51.3067 	 126.102 	 
C 	 -69.8252 	 50.2104 	 126.824 	 
H 	 -71.2639 	 51.4432 	 125.789 	 
C 	 -69.4681 	 53.3701 	 124.804 	 
H 	 -68.5397 	 53.9587 	 124.878 	 
H 	 -70.1191 	 53.9289 	 125.418 	 
C 	 -69.9401 	 53.2151 	 123.3 	 
H 	 -69.1785 	 52.6665 	 122.763 	 
H 	 -70.8706 	 52.606 	 123.14 	 
C 	 -69.9649 	 54.6456 	 122.602 	 
H 	 -70.8287 	 55.3129 	 122.879 	 
H 	 -69.0906 	 55.3041 	 122.773 	 
H 	 -70.0418 	 54.5288 	 121.488 	 
S 	 -69.6787 	 47.3794 	 127.05 	 
C 	 -71.0281 	 46.5244 	 127.641 	 
C 	 -72.101 	 47.4402 	 127.825 	 
C 	 -71.8769 	 48.8174 	 127.567 	 
C 	 -70.5488 	 49.0433 	 127.246 	 
H 	 -73.043 	 47.0611 	 128.167 	 
C 	 -72.9481 	 49.8782 	 127.75 	 
H 	 -72.4753 	 50.8778 	 127.64 	 
H 	 -73.5339 	 49.7884 	 128.749 	 
C 	 -73.9993 	 49.8504 	 126.627 	 
H 	 -74.6328 	 48.9939 	 126.835 	 
H 	 -73.6072 	 49.7144 	 125.63 	 
C 	 -74.8381 	 51.1532 	 126.605 	 
H 	 -75.3043 	 51.0822 	 127.53 	 
H 	 -75.5824 	 51.0698 	 125.82 	 
H 	 -74.3151 	 52.0733 	 126.423 	 
H 	 -67.0504 	 52.3404 	 125.78 	 
H 	 -71.0809 	 45.4726 	 127.905 	 
*
