! wB97X-D3 SP def2-SVP
%pal
nprocs 16
end

* xyz 0 1
S 	 -101.789 	 52.7326 	 118.277 	 
C 	 -100.131 	 53.3624 	 117.908 	 
C 	 -100.185 	 54.7492 	 117.812 	 
C 	 -101.498 	 55.2785 	 117.899 	 
C 	 -102.472 	 54.3818 	 118.313 	 
H 	 -101.654 	 56.3508 	 117.68 	 
C 	 -99.0186 	 55.5406 	 117.274 	 
H 	 -98.2508 	 54.8549 	 116.968 	 
H 	 -98.6674 	 56.0073 	 118.144 	 
C 	 -99.2465 	 56.5692 	 116.149 	 
H 	 -99.8203 	 57.4173 	 116.466 	 
H 	 -98.3123 	 56.976 	 115.769 	 
C 	 -99.9599 	 56.0138 	 114.905 	 
H 	 -100.959 	 56.2859 	 114.951 	 
H 	 -99.8322 	 56.5106 	 114.011 	 
H 	 -99.652 	 54.9732 	 114.794 	 
S 	 -104.99 	 53.2151 	 118.495 	 
C 	 -106.425 	 54.1621 	 118.213 	 
C 	 -106.1 	 55.4972 	 118.155 	 
C 	 -104.71 	 55.7646 	 118.34 	 
C 	 -103.951 	 54.635 	 118.411 	 
H 	 -106.949 	 56.1541 	 118.029 	 
C 	 -104.279 	 57.2192 	 118.426 	 
H 	 -103.354 	 57.2097 	 119.005 	 
H 	 -105.018 	 57.6309 	 119.13 	 
C 	 -104.345 	 57.8994 	 117.085 	 
H 	 -105.355 	 58.2313 	 116.788 	 
H 	 -103.956 	 57.25 	 116.258 	 
C 	 -103.563 	 59.1811 	 117.191 	 
H 	 -104.007 	 59.724 	 118.038 	 
H 	 -103.527 	 59.9016 	 116.326 	 
H 	 -102.526 	 58.8887 	 117.474 	 
H 	 -99.2576 	 52.7714 	 117.996 	 
H 	 -107.519 	 53.8291 	 118.217 	 
*
