! wB97X-D3 SP def2-SVP
%pal
nprocs 16
end

* xyz 0 1
S 	 -94.4042 	 54.3365 	 128.361 	 
C 	 -93.0881 	 53.3614 	 128.073 	 
C 	 -93.2745 	 52.506 	 126.991 	 
C 	 -94.3561 	 52.9911 	 126.23 	 
C 	 -95.1249 	 53.9668 	 126.802 	 
H 	 -94.7238 	 52.557 	 125.286 	 
C 	 -92.4256 	 51.3322 	 126.562 	 
H 	 -93.1303 	 50.6068 	 126.243 	 
H 	 -91.8762 	 50.9694 	 127.44 	 
C 	 -91.31 	 51.6024 	 125.487 	 
H 	 -90.5276 	 52.1764 	 125.918 	 
H 	 -90.9194 	 50.6521 	 125.159 	 
C 	 -91.8042 	 52.1977 	 124.154 	 
H 	 -92.4788 	 51.5199 	 123.614 	 
H 	 -92.3247 	 53.1009 	 124.182 	 
H 	 -91.0604 	 52.4693 	 123.403 	 
S 	 -97.7623 	 54.1831 	 127.614 	 
C 	 -98.9212 	 55.0415 	 126.664 	 
C 	 -98.319 	 55.4397 	 125.471 	 
C 	 -96.9394 	 55.1311 	 125.393 	 
C 	 -96.4787 	 54.4454 	 126.47 	 
H 	 -98.846 	 55.8703 	 124.644 	 
C 	 -96.1366 	 55.5605 	 124.144 	 
H 	 -95.0966 	 55.8191 	 124.388 	 
H 	 -96.6512 	 56.3524 	 123.73 	 
C 	 -96.1335 	 54.4996 	 122.981 	 
H 	 -97.0771 	 54.548 	 122.29 	 
H 	 -96.1067 	 53.5778 	 123.525 	 
C 	 -94.9076 	 54.5795 	 122.098 	 
H 	 -94.0108 	 54.2637 	 122.63 	 
H 	 -94.7295 	 55.5276 	 121.669 	 
H 	 -95.1101 	 53.8983 	 121.254 	 
H 	 -92.3699 	 52.9958 	 128.809 	 
H 	 -100.012 	 55.1545 	 126.813 	 
*
