! wB97X-D3 SP def2-SVP
%pal
nprocs 16
end

* xyz 0 1
S 	 49.4998 	 28.8955 	 41.5896 	 
C 	 50.913 	 29.3015 	 42.4479 	 
C 	 51.1382 	 28.4618 	 43.5537 	 
C 	 50.1209 	 27.4749 	 43.632 	 
C 	 49.1578 	 27.5711 	 42.6421 	 
H 	 50.1505 	 26.7144 	 44.3812 	 
C 	 52.3783 	 28.363 	 44.3138 	 
H 	 53.2061 	 28.7415 	 43.7843 	 
H 	 52.6051 	 27.3567 	 44.3082 	 
C 	 52.4515 	 28.8809 	 45.8282 	 
H 	 51.9434 	 29.8353 	 45.9486 	 
H 	 51.7242 	 28.1912 	 46.3872 	 
C 	 53.8105 	 28.891 	 46.5194 	 
H 	 53.9838 	 27.8903 	 46.8391 	 
H 	 54.6856 	 29.0417 	 45.8445 	 
H 	 53.7604 	 29.6053 	 47.3566 	 
S 	 46.454 	 27.0734 	 42.4888 	 
C 	 45.8973 	 25.3617 	 42.0897 	 
C 	 46.9773 	 24.523 	 41.9479 	 
C 	 48.2213 	 25.2272 	 42.1248 	 
C 	 48.1301 	 26.5931 	 42.365 	 
H 	 46.8026 	 23.469 	 41.7269 	 
C 	 49.59 	 24.4854 	 41.9768 	 
H 	 50.3584 	 25.1873 	 41.5421 	 
H 	 49.474 	 23.6974 	 41.3092 	 
C 	 50.0167 	 23.7939 	 43.2681 	 
H 	 49.2303 	 23.1477 	 43.5262 	 
H 	 50.2324 	 24.5607 	 44.0111 	 
C 	 51.2528 	 22.9281 	 43.1261 	 
H 	 51.2097 	 22.0607 	 42.3972 	 
H 	 51.4797 	 22.4468 	 44.1001 	 
H 	 52.0983 	 23.5235 	 42.8306 	 
H 	 51.618 	 30.0812 	 42.121 	 
H 	 44.92 	 25.0442 	 42.1286 	 
*
