! wB97X-D3 SP def2-SVP
%pal
nprocs 16
end

* xyz 0 1
S 	 0.0593925 	 43.355 	 35.9522 	 
C 	 0.101305 	 42.8098 	 37.5817 	 
C 	 -0.290375 	 43.7939 	 38.4953 	 
C 	 -0.456776 	 45.0608 	 37.8422 	 
C 	 -0.280073 	 44.9819 	 36.419 	 
H 	 -0.670383 	 46.033 	 38.1977 	 
C 	 -0.274855 	 43.7144 	 40.0516 	 
H 	 0.630513 	 44.2896 	 40.2775 	 
H 	 -0.124244 	 42.6799 	 40.3715 	 
C 	 -1.47782 	 44.3472 	 40.8258 	 
H 	 -1.48978 	 45.4931 	 40.6568 	 
H 	 -2.45444 	 44.0299 	 40.3977 	 
C 	 -1.54687 	 44.3021 	 42.3693 	 
H 	 -1.34814 	 43.2695 	 42.6563 	 
H 	 -0.685986 	 44.8948 	 42.7838 	 
H 	 -2.42232 	 44.7701 	 42.9201 	 
S 	 0.744374 	 46.5841 	 34.361 	 
C 	 -0.0942732 	 48.0876 	 33.9705 	 
C 	 -1.26292 	 48.1727 	 34.6464 	 
C 	 -1.51166 	 47.0509 	 35.51 	 
C 	 -0.532613 	 46.0489 	 35.4552 	 
H 	 -1.97122 	 49.021 	 34.5301 	 
C 	 -2.79624 	 47.0511 	 36.4511 	 
H 	 -3.1355 	 48.0468 	 36.6935 	 
H 	 -2.51412 	 46.657 	 37.4431 	 
C 	 -3.92903 	 46.1604 	 35.8719 	 
H 	 -4.7365 	 46.0071 	 36.5825 	 
H 	 -3.47579 	 45.1779 	 35.8493 	 
C 	 -4.50735 	 46.6933 	 34.5443 	 
H 	 -5.46988 	 46.3338 	 34.1909 	 
H 	 -3.81323 	 46.5346 	 33.7326 	 
H 	 -4.67863 	 47.7923 	 34.6575 	 
H 	 0.165731 	 41.7932 	 37.922 	 
H 	 0.314685 	 48.8456 	 33.2616 	 
*
