! wB97X-D3 SP def2-SVP
%pal
nprocs 16
end

* xyz 0 1
S 	 70.4532 	 24.0358 	 73.6777 	 
C 	 69.1349 	 24.3594 	 72.6558 	 
C 	 69.4808 	 24.2318 	 71.2922 	 
C 	 70.8962 	 24.1336 	 71.077 	 
C 	 71.5664 	 23.9821 	 72.2914 	 
H 	 71.3614 	 24.1746 	 70.1182 	 
C 	 68.4501 	 24.048 	 70.1815 	 
H 	 68.768 	 24.6998 	 69.3272 	 
H 	 67.4769 	 24.437 	 70.5662 	 
C 	 68.3646 	 22.6688 	 69.5705 	 
H 	 67.7111 	 22.7085 	 68.7187 	 
H 	 69.3103 	 22.461 	 69.1917 	 
C 	 67.8483 	 21.5823 	 70.5021 	 
H 	 68.2007 	 20.5567 	 70.2369 	 
H 	 68.2169 	 21.5858 	 71.536 	 
H 	 66.7149 	 21.5418 	 70.4703 	 
S 	 73.5259 	 24.9337 	 73.9631 	 
C 	 75.1769 	 24.4485 	 73.7224 	 
C 	 75.3607 	 23.5984 	 72.631 	 
C 	 74.1163 	 23.4542 	 71.8703 	 
C 	 73.0242 	 23.9582 	 72.5325 	 
H 	 76.3236 	 23.2959 	 72.3902 	 
C 	 74.0435 	 22.6391 	 70.6051 	 
H 	 74.9209 	 22.8096 	 70.0414 	 
H 	 73.1488 	 22.9596 	 70.0859 	 
C 	 73.8982 	 21.1085 	 70.9038 	 
H 	 73.2251 	 21.1959 	 71.7585 	 
H 	 74.8286 	 20.6565 	 71.1925 	 
C 	 73.2349 	 20.3833 	 69.7816 	 
H 	 73.2225 	 19.325 	 70.0401 	 
H 	 73.7116 	 20.5713 	 68.7827 	 
H 	 72.1517 	 20.4276 	 69.6694 	 
H 	 68.1456 	 24.4745 	 72.918 	 
H 	 75.9609 	 24.8338 	 74.3584 	 
*
