! wB97X-D3 SP def2-SVP
%pal
nprocs 16
end

* xyz 0 1
S 	 -2.07227 	 -1.83303 	 77.5213 	 
C 	 -1.79646 	 -2.53503 	 79.1283 	 
C 	 -0.48751 	 -2.23474 	 79.5304 	 
C 	 0.281793 	 -1.69729 	 78.4536 	 
C 	 -0.371888 	 -1.61635 	 77.2904 	 
H 	 1.32503 	 -1.40179 	 78.4944 	 
C 	 0.0529926 	 -2.43567 	 80.9614 	 
H 	 -0.763583 	 -2.5474 	 81.6543 	 
H 	 0.466373 	 -1.53839 	 81.4442 	 
C 	 1.06031 	 -3.66611 	 80.895 	 
H 	 1.01653 	 -4.12602 	 81.9078 	 
H 	 0.68598 	 -4.37624 	 80.19 	 
C 	 2.49982 	 -3.20914 	 80.6505 	 
H 	 2.69672 	 -2.9524 	 79.5879 	 
H 	 2.88815 	 -2.38317 	 81.2145 	 
H 	 3.30316 	 -3.9565 	 80.8782 	 
S 	 1.13721 	 -2.51588 	 75.1566 	 
C 	 1.30752 	 -1.44088 	 73.7622 	 
C 	 0.730817 	 -0.255846 	 74.0131 	 
C 	 -0.00532661 	 -0.129874 	 75.2541 	 
C 	 0.245413 	 -1.19231 	 76.0639 	 
H 	 0.832454 	 0.582111 	 73.2848 	 
C 	 -0.889825 	 1.0654 	 75.595 	 
H 	 -0.401795 	 1.95569 	 75.2784 	 
H 	 -1.08751 	 1.25085 	 76.6638 	 
C 	 -2.23918 	 0.891626 	 74.9029 	 
H 	 -2.66894 	 -0.148063 	 75.0092 	 
H 	 -2.03094 	 0.921966 	 73.8246 	 
C 	 -3.14788 	 2.02466 	 75.4791 	 
H 	 -2.80317 	 3.02316 	 75.2492 	 
H 	 -3.37971 	 1.81036 	 76.5538 	 
H 	 -4.03157 	 1.98611 	 75.0089 	 
H 	 -2.67558 	 -2.94265 	 79.6863 	 
H 	 1.93271 	 -1.58483 	 72.8828 	 
*
