! wB97X-D3 SP def2-SVP
%pal
nprocs 16
end

* xyz 0 1
S 	 66.7646 	 16.3539 	 74.9299 	 
C 	 65.3336 	 17.3552 	 74.7505 	 
C 	 65.4145 	 18.587 	 75.4069 	 
C 	 66.6422 	 18.6546 	 76.1254 	 
C 	 67.4408 	 17.5043 	 76.0079 	 
H 	 67.0426 	 19.4397 	 76.739 	 
C 	 64.418 	 19.7094 	 75.3232 	 
H 	 63.6493 	 19.5423 	 74.6177 	 
H 	 64.9195 	 20.5745 	 74.9216 	 
C 	 63.7434 	 20.1697 	 76.6601 	 
H 	 64.5518 	 20.1311 	 77.4158 	 
H 	 63.4792 	 21.1981 	 76.4448 	 
C 	 62.536 	 19.2431 	 77.0469 	 
H 	 62.6594 	 18.1759 	 77.1343 	 
H 	 62.2356 	 19.5898 	 78.0307 	 
H 	 61.8107 	 19.5267 	 76.289 	 
S 	 70.0016 	 16.7888 	 75.878 	 
C 	 70.7376 	 16.0673 	 77.2925 	 
C 	 70.1727 	 16.6068 	 78.4564 	 
C 	 68.9377 	 17.2066 	 78.134 	 
C 	 68.6333 	 17.2412 	 76.7756 	 
H 	 70.5823 	 16.4925 	 79.4799 	 
C 	 67.8908 	 17.6001 	 79.1463 	 
H 	 67.506 	 18.5668 	 78.7972 	 
H 	 68.3489 	 17.8008 	 80.1886 	 
C 	 66.9345 	 16.4121 	 79.4458 	 
H 	 66.8052 	 16.427 	 80.5229 	 
H 	 67.4885 	 15.5391 	 79.2481 	 
C 	 65.6287 	 16.3344 	 78.6974 	 
H 	 65.8154 	 16.382 	 77.5772 	 
H 	 65.0179 	 17.1731 	 78.9785 	 
H 	 65.0831 	 15.3944 	 78.8704 	 
H 	 64.4996 	 17.1871 	 74.0033 	 
H 	 71.7047 	 15.6984 	 77.2849 	 
*
