! wB97X-D3 SP def2-SVP
%pal
nprocs 16
end

* xyz 0 1
S 	 55.2802 	 7.52802 	 64.7738 	 
C 	 54.7835 	 8.9394 	 65.6193 	 
C 	 53.8246 	 9.66377 	 64.9396 	 
C 	 53.5641 	 9.08991 	 63.6861 	 
C 	 54.381 	 8.06811 	 63.3868 	 
H 	 52.9123 	 9.45377 	 62.8901 	 
C 	 52.9974 	 10.8826 	 65.4388 	 
H 	 53.0985 	 10.8627 	 66.5531 	 
H 	 51.9257 	 10.6709 	 65.4049 	 
C 	 53.3361 	 12.3264 	 65.0399 	 
H 	 54.3712 	 12.606 	 65.2979 	 
H 	 53.1444 	 12.348 	 64.0119 	 
C 	 52.3441 	 13.3463 	 65.7008 	 
H 	 51.3227 	 13.1921 	 65.3214 	 
H 	 52.2298 	 13.2617 	 66.789 	 
H 	 52.6359 	 14.3958 	 65.5857 	 
S 	 53.3023 	 5.77586 	 62.5739 	 
C 	 53.2349 	 5.39857 	 60.9102 	 
C 	 53.8349 	 6.38276 	 60.1183 	 
C 	 54.4341 	 7.41157 	 60.9164 	 
C 	 54.2054 	 7.22703 	 62.2653 	 
H 	 53.6792 	 6.40453 	 59.0415 	 
C 	 54.9394 	 8.70207 	 60.321 	 
H 	 55.4374 	 8.55253 	 59.3356 	 
H 	 55.5743 	 9.21956 	 61.1036 	 
C 	 53.7878 	 9.62734 	 59.9006 	 
H 	 53.0766 	 9.53902 	 60.711 	 
H 	 53.2451 	 9.18422 	 59.0533 	 
C 	 54.2114 	 11.0241 	 59.4158 	 
H 	 53.362 	 11.5636 	 58.8909 	 
H 	 55.029 	 10.9686 	 58.6938 	 
H 	 54.6032 	 11.6508 	 60.2132 	 
H 	 55.1035 	 9.12363 	 66.6167 	 
H 	 52.5785 	 4.6708 	 60.5535 	 
*
