! wB97X-D3 SP def2-SVP
%pal
nprocs 16
end

* xyz 0 1
S 	 -3.31925 	 76.622 	 45.6393 	 
C 	 -4.14595 	 75.169 	 45.9341 	 
C 	 -3.41547 	 74.0642 	 45.5705 	 
C 	 -2.16306 	 74.4994 	 44.9465 	 
C 	 -1.88839 	 75.8818 	 45.1019 	 
H 	 -1.41029 	 73.772 	 44.5623 	 
C 	 -3.99277 	 72.6518 	 45.5312 	 
H 	 -4.37511 	 72.4851 	 44.5168 	 
H 	 -4.92396 	 72.7203 	 46.1709 	 
C 	 -3.07934 	 71.4991 	 46.0712 	 
H 	 -3.45715 	 70.4699 	 45.8259 	 
H 	 -2.25777 	 71.5508 	 45.3684 	 
C 	 -2.7028 	 71.7437 	 47.569 	 
H 	 -2.38829 	 70.7984 	 47.9705 	 
H 	 -1.92413 	 72.5054 	 47.7077 	 
H 	 -3.548 	 72.0316 	 48.1369 	 
S 	 -1.10696 	 77.6305 	 43.1533 	 
C 	 0.557585 	 77.9164 	 42.941 	 
C 	 1.36269 	 77.3344 	 43.8734 	 
C 	 0.571871 	 76.5524 	 44.7992 	 
C 	 -0.747329 	 76.5489 	 44.4657 	 
H 	 2.43369 	 77.4187 	 43.8425 	 
C 	 1.22943 	 75.6748 	 45.7694 	 
H 	 2.29144 	 75.7514 	 45.5217 	 
H 	 0.971191 	 74.6537 	 45.5561 	 
C 	 0.796008 	 75.9098 	 47.283 	 
H 	 1.10407 	 75.0688 	 47.9858 	 
H 	 -0.261162 	 75.8668 	 47.3767 	 
C 	 1.26568 	 77.1974 	 47.8587 	 
H 	 1.15283 	 78.1474 	 47.3266 	 
H 	 2.40976 	 77.096 	 47.9667 	 
H 	 0.828804 	 77.392 	 48.8206 	 
H 	 -5.08815 	 75.0902 	 46.3312 	 
H 	 0.962409 	 78.4642 	 42.1047 	 
*
