! wB97X-D3 SP def2-SVP
%pal
nprocs 16
end

* xyz 0 1
S 	 -55.5555 	 33.6725 	 91.3185 	 
C 	 -56.0902 	 32.1396 	 90.6259 	 
C 	 -56.8118 	 31.4172 	 91.5417 	 
C 	 -57.0345 	 32.1238 	 92.7498 	 
C 	 -56.3764 	 33.3329 	 92.8514 	 
H 	 -57.6188 	 31.92 	 93.596 	 
C 	 -57.3352 	 30.0394 	 91.2518 	 
H 	 -57.5937 	 29.9416 	 90.2177 	 
H 	 -58.3764 	 29.9032 	 91.7406 	 
C 	 -56.4262 	 28.9476 	 91.8862 	 
H 	 -56.3912 	 29.0222 	 92.9859 	 
H 	 -56.8238 	 28.0274 	 91.7221 	 
C 	 -55.0631 	 28.8521 	 91.2266 	 
H 	 -55.2456 	 28.6936 	 90.1603 	 
H 	 -54.3929 	 29.7563 	 91.2442 	 
H 	 -54.5375 	 27.994 	 91.6383 	 
S 	 -56.8156 	 36.0069 	 93.5426 	 
C 	 -57.0278 	 36.4542 	 95.2198 	 
C 	 -56.5588 	 35.42 	 96.0259 	 
C 	 -56.2982 	 34.1796 	 95.2874 	 
C 	 -56.3818 	 34.3359 	 93.9336 	 
H 	 -56.6529 	 35.5829 	 97.1478 	 
C 	 -55.9624 	 32.8999 	 95.9997 	 
H 	 -55.1009 	 32.9548 	 96.6299 	 
H 	 -55.7128 	 32.1482 	 95.2711 	 
C 	 -57.1167 	 32.2259 	 96.6937 	 
H 	 -57.9521 	 32.3272 	 96.0522 	 
H 	 -57.4163 	 32.7859 	 97.5538 	 
C 	 -57.0519 	 30.7394 	 96.9852 	 
H 	 -57.9712 	 30.3444 	 97.3848 	 
H 	 -56.3792 	 30.5511 	 97.8002 	 
H 	 -56.8896 	 30.192 	 96.0423 	 
H 	 -55.8651 	 31.8714 	 89.6317 	 
H 	 -57.3037 	 37.4022 	 95.7141 	 
*
