! wB97X-D3 SP def2-SVP
%pal
nprocs 16
end

* xyz 0 1
S 	 -9.69005 	 58.8124 	 54.5923 	 
C 	 -8.46861 	 57.9381 	 55.3898 	 
C 	 -7.75581 	 58.6768 	 56.3096 	 
C 	 -8.18027 	 60.0131 	 56.3723 	 
C 	 -9.22591 	 60.2004 	 55.4304 	 
H 	 -7.72692 	 60.8002 	 56.9735 	 
C 	 -6.56315 	 58.224 	 57.0417 	 
H 	 -6.84682 	 57.2521 	 57.3108 	 
H 	 -6.46789 	 58.5969 	 58.0497 	 
C 	 -5.21942 	 58.1138 	 56.2579 	 
H 	 -4.49019 	 57.6779 	 56.8309 	 
H 	 -5.3453 	 57.5185 	 55.3407 	 
C 	 -4.57449 	 59.5539 	 55.8154 	 
H 	 -5.01321 	 59.8731 	 54.8522 	 
H 	 -4.73917 	 60.2444 	 56.6219 	 
H 	 -3.5003 	 59.4376 	 55.6577 	 
S 	 -11.632 	 61.3072 	 55.5457 	 
C 	 -12.0167 	 62.8529 	 54.929 	 
C 	 -10.8354 	 63.4543 	 54.5749 	 
C 	 -9.66003 	 62.6494 	 54.5697 	 
C 	 -9.97291 	 61.4258 	 55.1085 	 
H 	 -10.8324 	 64.5169 	 54.364 	 
C 	 -8.29722 	 63.0677 	 54.017 	 
H 	 -8.49197 	 62.9657 	 52.9564 	 
H 	 -7.54176 	 62.3279 	 54.2075 	 
C 	 -7.72182 	 64.4476 	 54.523 	 
H 	 -8.44939 	 65.2077 	 54.3302 	 
H 	 -6.8165 	 64.7438 	 53.9944 	 
C 	 -7.28076 	 64.6093 	 56.0038 	 
H 	 -6.68034 	 65.4755 	 56.0103 	 
H 	 -6.63819 	 63.7599 	 56.3863 	 
H 	 -8.10162 	 64.695 	 56.6956 	 
H 	 -8.29104 	 56.9066 	 55.1788 	 
H 	 -12.9011 	 63.4168 	 54.9476 	 
*
