! wB97X-D3 SP def2-SVP
%pal
nprocs 16
end

* xyz 0 1
S 	 -33.9233 	 29.5612 	 46.7761 	 
C 	 -33.1216 	 28.2313 	 47.4746 	 
C 	 -32.2315 	 28.563 	 48.4466 	 
C 	 -32.3725 	 29.9601 	 48.7321 	 
C 	 -33.2031 	 30.6859 	 47.8933 	 
H 	 -31.8563 	 30.4732 	 49.5465 	 
C 	 -31.3271 	 27.5442 	 49.207 	 
H 	 -31.4862 	 26.5874 	 48.7623 	 
H 	 -31.6085 	 27.4652 	 50.2695 	 
C 	 -29.7727 	 27.9142 	 49.1991 	 
H 	 -29.565 	 28.643 	 49.9908 	 
H 	 -29.2936 	 26.9783 	 49.4181 	 
C 	 -29.1745 	 28.2204 	 47.8389 	 
H 	 -29.0452 	 27.2986 	 47.3644 	 
H 	 -29.7565 	 28.9534 	 47.2483 	 
H 	 -28.1278 	 28.5964 	 47.9063 	 
S 	 -31.9977 	 33.0724 	 48.5861 	 
C 	 -32.5927 	 34.5302 	 47.7544 	 
C 	 -33.7573 	 34.3096 	 47.0946 	 
C 	 -34.2144 	 32.933 	 47.1347 	 
C 	 -33.331 	 32.1159 	 47.8453 	 
H 	 -34.2169 	 35.1574 	 46.5674 	 
C 	 -35.4808 	 32.4935 	 46.4449 	 
H 	 -36.2602 	 33.1484 	 46.7809 	 
H 	 -35.7011 	 31.5129 	 46.8551 	 
C 	 -35.3798 	 32.4068 	 44.8496 	 
H 	 -34.6366 	 31.6546 	 44.6642 	 
H 	 -34.9928 	 33.2454 	 44.2346 	 
C 	 -36.7925 	 32.0603 	 44.2884 	 
H 	 -36.5932 	 31.573 	 43.2999 	 
H 	 -37.5505 	 32.8366 	 44.218 	 
H 	 -37.2312 	 31.2111 	 44.8204 	 
H 	 -33.1602 	 27.2158 	 47.1427 	 
H 	 -32.0317 	 35.4189 	 47.7853 	 
*
