! wB97X-D3 SP def2-SVP
%pal
nprocs 16
end

* xyz 0 1
S 	 -120.14 	 50.2226 	 135.571 	 
C 	 -120.308 	 49.6085 	 133.849 	 
C 	 -119.15 	 49.7398 	 133.101 	 
C 	 -118.037 	 50.205 	 133.939 	 
C 	 -118.355 	 50.3642 	 135.279 	 
H 	 -117.053 	 50.3972 	 133.544 	 
C 	 -119.069 	 49.7836 	 131.642 	 
H 	 -119.681 	 48.987 	 131.304 	 
H 	 -118.071 	 49.6424 	 131.267 	 
C 	 -119.612 	 51.155 	 131.026 	 
H 	 -119.749 	 51.0318 	 129.939 	 
H 	 -120.626 	 51.3115 	 131.494 	 
C 	 -118.729 	 52.3806 	 131.287 	 
H 	 -117.843 	 52.2684 	 130.628 	 
H 	 -119.283 	 53.3599 	 131.03 	 
H 	 -118.492 	 52.2649 	 132.363 	 
S 	 -118.196 	 51.1144 	 137.949 	 
C 	 -116.622 	 50.852 	 138.721 	 
C 	 -115.631 	 50.7745 	 137.814 	 
C 	 -116.049 	 50.6528 	 136.457 	 
C 	 -117.421 	 50.6318 	 136.394 	 
H 	 -114.601 	 50.6672 	 138.152 	 
C 	 -115.1 	 50.4104 	 135.294 	 
H 	 -115.518 	 49.6465 	 134.569 	 
H 	 -114.313 	 49.9943 	 135.84 	 
C 	 -114.7 	 51.7024 	 134.517 	 
H 	 -114.222 	 52.4439 	 135.248 	 
H 	 -115.598 	 52.0281 	 134.051 	 
C 	 -113.82 	 51.2811 	 133.343 	 
H 	 -113.428 	 52.2037 	 132.866 	 
H 	 -114.467 	 50.8555 	 132.539 	 
H 	 -113.004 	 50.5582 	 133.543 	 
H 	 -121.219 	 49.2685 	 133.291 	 
H 	 -116.503 	 50.9996 	 139.78 	 
*
