! wB97X-D3 SP def2-SVP
%pal
nprocs 16
end

* xyz 0 1
S 	 -36.72 	 32.4713 	 44.4315 	 
C 	 -36.3409 	 32.0939 	 46.1362 	 
C 	 -35.2863 	 32.9192 	 46.5676 	 
C 	 -34.614 	 33.5617 	 45.469 	 
C 	 -35.1166 	 33.2142 	 44.266 	 
H 	 -33.7288 	 34.2107 	 45.4914 	 
C 	 -34.8177 	 33.0097 	 48.0205 	 
H 	 -35.4324 	 32.4448 	 48.7796 	 
H 	 -34.9377 	 34.0371 	 48.3479 	 
C 	 -33.3678 	 32.5995 	 48.2984 	 
H 	 -32.6865 	 33.336 	 47.9005 	 
H 	 -33.3487 	 32.601 	 49.3721 	 
C 	 -32.9918 	 31.1844 	 47.8485 	 
H 	 -33.5907 	 30.4457 	 48.3684 	 
H 	 -32.9468 	 31.13 	 46.7065 	 
H 	 -31.9192 	 31.0451 	 48.0478 	 
S 	 -35.6321 	 34.8566 	 42.2016 	 
C 	 -34.5188 	 35.0328 	 40.9694 	 
C 	 -33.3071 	 34.3575 	 41.2214 	 
C 	 -33.3916 	 33.491 	 42.3475 	 
C 	 -34.6217 	 33.668 	 42.9899 	 
H 	 -32.5875 	 34.4939 	 40.4455 	 
C 	 -32.3525 	 32.5397 	 42.8025 	 
H 	 -32.7141 	 31.5859 	 42.3207 	 
H 	 -32.3472 	 32.2361 	 43.8892 	 
C 	 -30.9349 	 32.8731 	 42.4701 	 
H 	 -30.8131 	 33.0132 	 41.4384 	 
H 	 -30.399 	 32.0262 	 42.7321 	 
C 	 -30.4484 	 34.031 	 43.232 	 
H 	 -30.9521 	 34.9023 	 42.9431 	 
H 	 -29.3687 	 34.1366 	 43.1308 	 
H 	 -30.4759 	 34.0166 	 44.3354 	 
H 	 -37.0393 	 31.509 	 46.7594 	 
H 	 -34.7733 	 35.654 	 40.1156 	 
*
