! wB97X-D3 SP def2-SVP
%pal
nprocs 16
end

* xyz 0 1
S 	 43.1785 	 11.6053 	 51.4644 	 
C 	 41.8383 	 11.2353 	 50.5615 	 
C 	 41.0302 	 12.3491 	 50.4122 	 
C 	 41.5696 	 13.488 	 51.104 	 
C 	 42.7297 	 13.2424 	 51.7448 	 
H 	 41.1568 	 14.4534 	 51.2833 	 
C 	 39.8513 	 12.3987 	 49.4895 	 
H 	 39.6153 	 11.362 	 49.1109 	 
H 	 40.1629 	 12.9699 	 48.6014 	 
C 	 38.5715 	 13.1442 	 49.9232 	 
H 	 38.2675 	 12.8161 	 50.8675 	 
H 	 38.825 	 14.1905 	 50.1559 	 
C 	 37.3922 	 13.142 	 48.9118 	 
H 	 37.7741 	 13.3234 	 47.8955 	 
H 	 36.9365 	 12.1842 	 48.8781 	 
H 	 36.7071 	 13.8976 	 49.1325 	 
S 	 44.0612 	 15.6128 	 51.9989 	 
C 	 44.7234 	 16.114 	 53.5144 	 
C 	 44.4437 	 15.2262 	 54.5459 	 
C 	 43.8168 	 14.0173 	 54.0538 	 
C 	 43.4587 	 14.1511 	 52.6826 	 
H 	 44.9095 	 15.4038 	 55.5154 	 
C 	 43.5465 	 12.8689 	 54.9396 	 
H 	 44.3357 	 12.7979 	 55.7516 	 
H 	 43.6419 	 11.9926 	 54.3317 	 
C 	 42.233 	 12.6955 	 55.6004 	 
H 	 41.9403 	 13.5184 	 56.1483 	 
H 	 42.2922 	 11.9526 	 56.3293 	 
C 	 41.0886 	 12.3568 	 54.606 	 
H 	 40.9802 	 13.0876 	 53.7889 	 
H 	 40.0701 	 12.2204 	 54.989 	 
H 	 41.3585 	 11.4083 	 54.1375 	 
H 	 41.7408 	 10.2636 	 50.0948 	 
H 	 45.2629 	 17.0286 	 53.6843 	 
*
