! wB97X-D3 SP def2-SVP
%pal
nprocs 16
end

* xyz 0 1
S 	 -27.4376 	 48.9086 	 66.8992 	 
C 	 -26.4878 	 48.8971 	 65.4455 	 
C 	 -25.172 	 48.6333 	 65.7338 	 
C 	 -24.9433 	 48.3462 	 67.0993 	 
C 	 -26.0691 	 48.3363 	 67.8884 	 
H 	 -23.9516 	 48.2251 	 67.6195 	 
C 	 -24.0447 	 48.7358 	 64.7919 	 
H 	 -23.7841 	 49.8287 	 64.6858 	 
H 	 -24.3984 	 48.6263 	 63.7536 	 
C 	 -22.9023 	 47.7799 	 65.2244 	 
H 	 -22.1308 	 47.8622 	 64.4806 	 
H 	 -22.3019 	 48.1176 	 66.0891 	 
C 	 -23.2728 	 46.2815 	 65.4207 	 
H 	 -23.8597 	 46.0452 	 66.3588 	 
H 	 -23.8446 	 45.92 	 64.6329 	 
H 	 -22.3259 	 45.6648 	 65.3209 	 
S 	 -27.4063 	 48.8419 	 70.1045 	 
C 	 -26.9186 	 48.2275 	 71.6394 	 
C 	 -25.8612 	 47.3023 	 71.4461 	 
C 	 -25.3275 	 47.4228 	 70.1607 	 
C 	 -26.1079 	 48.142 	 69.2991 	 
H 	 -25.4051 	 46.8701 	 72.2302 	 
C 	 -24.0244 	 46.8042 	 69.8853 	 
H 	 -24.049 	 46.2656 	 68.9715 	 
H 	 -23.9826 	 45.8363 	 70.3515 	 
C 	 -22.8056 	 47.6319 	 70.0952 	 
H 	 -22.5454 	 48.1803 	 69.2208 	 
H 	 -21.9577 	 46.9904 	 70.2423 	 
C 	 -22.6442 	 48.5634 	 71.2679 	 
H 	 -22.9477 	 48.2426 	 72.2938 	 
H 	 -23.2778 	 49.4046 	 71.0967 	 
H 	 -21.6209 	 48.94 	 71.3767 	 
H 	 -26.9172 	 48.9816 	 64.509 	 
H 	 -27.4274 	 48.3841 	 72.6106 	 
*
