! wB97X-D3 SP def2-SVP
%pal
nprocs 16
end

* xyz 0 1
S 	 49.1142 	 12.5749 	 78.9972 	 
C 	 48.64 	 11.3112 	 79.9926 	 
C 	 48.357 	 11.7727 	 81.2651 	 
C 	 48.5755 	 13.2027 	 81.3469 	 
C 	 49.0422 	 13.7414 	 80.22 	 
H 	 48.3041 	 13.7494 	 82.2646 	 
C 	 48.0556 	 10.8441 	 82.4447 	 
H 	 47.3918 	 11.4455 	 83.0641 	 
H 	 48.9177 	 10.5329 	 83.0382 	 
C 	 47.1805 	 9.57124 	 82.0829 	 
H 	 46.3637 	 9.94456 	 81.3647 	 
H 	 47.8192 	 8.89402 	 81.474 	 
C 	 46.6239 	 8.77641 	 83.2435 	 
H 	 46.0059 	 7.92742 	 82.9788 	 
H 	 47.3182 	 8.31565 	 83.8313 	 
H 	 46.0994 	 9.52593 	 83.8768 	 
S 	 50.1047 	 15.9624 	 81.5331 	 
C 	 50.1341 	 17.4972 	 80.6561 	 
C 	 49.6666 	 17.3536 	 79.3785 	 
C 	 49.3631 	 15.9903 	 79.048 	 
C 	 49.4724 	 15.1582 	 80.1152 	 
H 	 49.5909 	 18.232 	 78.7101 	 
C 	 48.9227 	 15.6116 	 77.6227 	 
H 	 48.7385 	 14.5622 	 77.6067 	 
H 	 49.8396 	 15.8517 	 77.0311 	 
C 	 47.6335 	 16.2962 	 77.0522 	 
H 	 47.5073 	 16.0662 	 76.0173 	 
H 	 47.7109 	 17.4052 	 77.1348 	 
C 	 46.3542 	 15.8545 	 77.7974 	 
H 	 46.4449 	 14.7752 	 77.8335 	 
H 	 45.4466 	 16.2825 	 77.2727 	 
H 	 46.4101 	 16.3044 	 78.8161 	 
H 	 48.606 	 10.2377 	 79.7496 	 
H 	 50.525 	 18.4758 	 80.9958 	 
*
