! wB97X-D3 SP def2-SVP
%pal
nprocs 16
end

* xyz 0 1
S 	 -73.9317 	 57.2845 	 122.375 	 
C 	 -74.0345 	 58.9672 	 122.236 	 
C 	 -74.3069 	 59.5955 	 123.453 	 
C 	 -74.6432 	 58.6422 	 124.503 	 
C 	 -74.4247 	 57.3138 	 124.084 	 
H 	 -74.8008 	 58.8454 	 125.532 	 
C 	 -74.3794 	 61.1731 	 123.574 	 
H 	 -73.4903 	 61.5226 	 123.109 	 
H 	 -74.2996 	 61.4861 	 124.612 	 
C 	 -75.7019 	 61.7498 	 122.984 	 
H 	 -75.735 	 61.7724 	 121.844 	 
H 	 -76.5494 	 61.2139 	 123.347 	 
C 	 -75.9465 	 63.2328 	 123.291 	 
H 	 -75.7275 	 63.3574 	 124.345 	 
H 	 -75.3575 	 63.9119 	 122.748 	 
H 	 -77.0252 	 63.39 	 123.094 	 
S 	 -75.6002 	 55.6041 	 125.971 	 
C 	 -74.5655 	 54.2743 	 126.711 	 
C 	 -73.2919 	 54.3171 	 126.272 	 
C 	 -73.0997 	 55.3347 	 125.286 	 
C 	 -74.2036 	 56.1709 	 125.046 	 
H 	 -72.5398 	 53.542 	 126.509 	 
C 	 -71.7836 	 55.5418 	 124.498 	 
H 	 -70.9232 	 55.5901 	 125.212 	 
H 	 -71.7852 	 56.4496 	 123.855 	 
C 	 -71.3522 	 54.3151 	 123.65 	 
H 	 -72.0918 	 54.0811 	 122.829 	 
H 	 -71.4043 	 53.4658 	 124.29 	 
C 	 -69.979 	 54.5478 	 122.946 	 
H 	 -69.9042 	 55.5749 	 122.646 	 
H 	 -69.7951 	 53.7253 	 122.189 	 
H 	 -69.1113 	 54.369 	 123.651 	 
H 	 -73.8211 	 59.4821 	 121.371 	 
H 	 -74.9576 	 53.5294 	 127.378 	 
*
