! wB97X-D3 SP def2-SVP
%pal
nprocs 16
end

* xyz 0 1
S 	 9.18576 	 -12.2734 	 96.5938 	 
C 	 10.3141 	 -12.2734 	 97.9074 	 
C 	 9.76575 	 -11.9537 	 99.1366 	 
C 	 8.3532 	 -11.8337 	 99.0014 	 
C 	 7.91892 	 -11.9189 	 97.6875 	 
H 	 7.60178 	 -11.5125 	 99.7078 	 
C 	 10.4808 	 -11.9141 	 100.415 	 
H 	 10.2129 	 -11.0044 	 100.941 	 
H 	 11.6139 	 -11.8221 	 100.222 	 
C 	 10.3258 	 -13.1141 	 101.435 	 
H 	 11.0856 	 -13.1482 	 102.238 	 
H 	 9.36413 	 -13.0649 	 101.919 	 
C 	 10.2703 	 -14.4945 	 100.776 	 
H 	 11.0855 	 -14.6849 	 100.023 	 
H 	 10.4741 	 -15.2835 	 101.528 	 
H 	 9.33865 	 -14.5814 	 100.308 	 
S 	 6.37971 	 -10.63 	 95.7606 	 
C 	 4.65322 	 -10.5072 	 96.086 	 
C 	 4.2245 	 -11.292 	 97.12 	 
C 	 5.28735 	 -11.8303 	 97.8519 	 
C 	 6.53499 	 -11.6012 	 97.2974 	 
H 	 3.1834 	 -11.3324 	 97.4099 	 
C 	 4.93118 	 -12.6897 	 99.0576 	 
H 	 5.84344 	 -13.3192 	 99.2325 	 
H 	 4.13954 	 -13.3539 	 98.677 	 
C 	 4.52891 	 -11.8846 	 100.244 	 
H 	 3.67867 	 -11.3555 	 99.8392 	 
H 	 5.26743 	 -11.2219 	 100.694 	 
C 	 3.99206 	 -12.8558 	 101.324 	 
H 	 3.56841 	 -13.8156 	 100.906 	 
H 	 3.17296 	 -12.4498 	 101.98 	 
H 	 4.76522 	 -13.252 	 102.009 	 
H 	 11.3632 	 -12.3434 	 97.7955 	 
H 	 4.03348 	 -10.058 	 95.2959 	 
*
