! wB97X-D3 SP def2-SVP
%pal
nprocs 16
end

* xyz 0 1
S 	 -87.3496 	 49.9364 	 131.991 	 
C 	 -87.2081 	 48.1474 	 132.003 	 
C 	 -86.236 	 47.6842 	 131.158 	 
C 	 -85.5682 	 48.7807 	 130.46 	 
C 	 -85.9919 	 50.0344 	 130.864 	 
H 	 -84.6909 	 48.7817 	 129.766 	 
C 	 -85.7813 	 46.2403 	 130.976 	 
H 	 -85.4658 	 46.0016 	 130.013 	 
H 	 -86.7021 	 45.7067 	 130.904 	 
C 	 -84.812 	 45.7117 	 132.017 	 
H 	 -85.0943 	 45.7104 	 133.094 	 
H 	 -84.6492 	 44.6731 	 131.809 	 
C 	 -83.4624 	 46.3945 	 132.018 	 
H 	 -83.4707 	 47.4118 	 132.273 	 
H 	 -82.7443 	 45.7976 	 132.618 	 
H 	 -82.9494 	 46.3177 	 131.05 	 
S 	 -84.0199 	 51.7015 	 131.486 	 
C 	 -83.568 	 52.9282 	 130.324 	 
C 	 -84.3933 	 53.0532 	 129.257 	 
C 	 -85.492 	 52.1176 	 129.377 	 
C 	 -85.3076 	 51.2325 	 130.474 	 
H 	 -84.0696 	 53.7757 	 128.443 	 
C 	 -86.5596 	 52.0386 	 128.293 	 
H 	 -87.2441 	 51.2422 	 128.54 	 
H 	 -86.1548 	 51.891 	 127.249 	 
C 	 -87.3355 	 53.3263 	 128.122 	 
H 	 -87.9949 	 53.17 	 127.298 	 
H 	 -86.6079 	 54.0793 	 127.905 	 
C 	 -88.158 	 53.7461 	 129.397 	 
H 	 -87.6349 	 54.0885 	 130.257 	 
H 	 -88.8954 	 52.9584 	 129.636 	 
H 	 -88.7916 	 54.5714 	 129.059 	 
H 	 -87.8057 	 47.5494 	 132.691 	 
H 	 -82.7803 	 53.6957 	 130.488 	 
*
