! wB97X-D3 SP def2-SVP
%pal
nprocs 16
end

* xyz 0 1
S 	 13.4718 	 20.3138 	 38.8745 	 
C 	 13.956 	 20.4561 	 37.2309 	 
C 	 13.1521 	 19.6474 	 36.397 	 
C 	 12.0349 	 19.1209 	 37.1398 	 
C 	 12.0291 	 19.5309 	 38.4439 	 
H 	 11.2552 	 18.5968 	 36.7126 	 
C 	 13.3018 	 19.4543 	 34.9312 	 
H 	 13.1779 	 18.4133 	 34.6636 	 
H 	 14.352 	 19.6148 	 34.8097 	 
C 	 12.5622 	 20.3391 	 33.9985 	 
H 	 13.1336 	 20.2975 	 33.0323 	 
H 	 11.5408 	 20.0219 	 33.868 	 
C 	 12.7679 	 21.8533 	 34.3578 	 
H 	 12.549 	 22.3881 	 33.4338 	 
H 	 12.0959 	 22.3147 	 35.0578 	 
H 	 13.7798 	 22.1077 	 34.5847 	 
S 	 11.501 	 19.062 	 41.1189 	 
C 	 9.90211 	 18.2426 	 41.4445 	 
C 	 8.98906 	 18.6943 	 40.523 	 
C 	 9.63382 	 19.0984 	 39.2941 	 
C 	 11.015 	 19.2233 	 39.4192 	 
H 	 7.93515 	 18.5563 	 40.6447 	 
C 	 8.91117 	 19.432 	 37.957 	 
H 	 9.49174 	 20.1567 	 37.325 	 
H 	 8.03818 	 19.9856 	 38.3113 	 
C 	 8.48157 	 18.2696 	 37.0484 	 
H 	 7.6853 	 17.7977 	 37.5261 	 
H 	 9.23749 	 17.5197 	 36.9632 	 
C 	 7.94705 	 18.7522 	 35.6896 	 
H 	 7.59139 	 17.9016 	 35.1595 	 
H 	 8.77492 	 19.4001 	 35.1871 	 
H 	 7.08023 	 19.3762 	 35.822 	 
H 	 14.7775 	 21.0301 	 36.8732 	 
H 	 9.45332 	 18.0479 	 42.4474 	 
*
