! wB97X-D3 SP def2-SVP
%pal
nprocs 16
end

* xyz 0 1
S 	 -67.2232 	 38.3431 	 116.254 	 
C 	 -67.6572 	 37.3344 	 117.588 	 
C 	 -68.3658 	 36.2369 	 117.149 	 
C 	 -68.6778 	 36.2958 	 115.776 	 
C 	 -68.022 	 37.3444 	 115.125 	 
H 	 -69.2113 	 35.69 	 115.026 	 
C 	 -68.7673 	 35.0684 	 118.033 	 
H 	 -69.8146 	 35.1468 	 118.253 	 
H 	 -68.3158 	 35.2548 	 119.008 	 
C 	 -68.4925 	 33.6606 	 117.402 	 
H 	 -68.675 	 32.9154 	 118.137 	 
H 	 -69.2173 	 33.4861 	 116.634 	 
C 	 -67.0874 	 33.5217 	 116.838 	 
H 	 -66.3491 	 34.134 	 117.375 	 
H 	 -66.7642 	 32.5088 	 116.627 	 
H 	 -67.1477 	 34.0296 	 115.89 	 
S 	 -68.9668 	 39.1708 	 113.447 	 
C 	 -68.6899 	 39.0595 	 111.757 	 
C 	 -68.2113 	 37.8447 	 111.43 	 
C 	 -67.9335 	 36.9907 	 112.568 	 
C 	 -68.2885 	 37.6204 	 113.722 	 
H 	 -67.8342 	 37.7412 	 110.463 	 
C 	 -67.2584 	 35.6639 	 112.457 	 
H 	 -67.6149 	 35.189 	 111.541 	 
H 	 -67.5879 	 34.9518 	 113.247 	 
C 	 -65.7017 	 35.6388 	 112.361 	 
H 	 -65.3484 	 36.3728 	 111.615 	 
H 	 -65.4747 	 34.663 	 111.987 	 
C 	 -65.1255 	 35.8844 	 113.769 	 
H 	 -65.7547 	 35.4818 	 114.629 	 
H 	 -65.0191 	 36.9733 	 113.924 	 
H 	 -64.1619 	 35.3401 	 113.722 	 
H 	 -67.363 	 37.4911 	 118.559 	 
H 	 -68.9813 	 39.8306 	 111.08 	 
*
