! wB97X-D3 SP def2-SVP
%pal
nprocs 16
end

* xyz 0 1
S 	 -27.4008 	 62.9965 	 103.818 	 
C 	 -29.0277 	 63.5679 	 103.673 	 
C 	 -29.8951 	 63.1039 	 104.634 	 
C 	 -29.1961 	 62.1406 	 105.417 	 
C 	 -27.8807 	 61.9234 	 105.072 	 
H 	 -29.683 	 61.6639 	 106.264 	 
C 	 -31.3263 	 63.619 	 104.907 	 
H 	 -31.2822 	 64.5979 	 104.67 	 
H 	 -31.5664 	 63.409 	 105.918 	 
C 	 -32.4883 	 63.0741 	 104.017 	 
H 	 -33.4235 	 63.5549 	 104.261 	 
H 	 -32.1948 	 63.2568 	 103.005 	 
C 	 -32.6747 	 61.5613 	 104.263 	 
H 	 -33.0139 	 61.3813 	 105.262 	 
H 	 -33.5855 	 61.1873 	 103.724 	 
H 	 -31.7595 	 61.1414 	 103.96 	 
S 	 -25.4229 	 61.677 	 106.091 	 
C 	 -24.919 	 60.1313 	 106.756 	 
C 	 -25.93 	 59.2387 	 106.83 	 
C 	 -27.1767 	 59.7185 	 106.279 	 
C 	 -27.0072 	 61.0115 	 105.752 	 
H 	 -25.8087 	 58.2247 	 107.208 	 
C 	 -28.5115 	 58.9005 	 106.245 	 
H 	 -28.8653 	 59.1384 	 105.232 	 
H 	 -29.1667 	 59.4088 	 107.017 	 
C 	 -28.48 	 57.3773 	 106.611 	 
H 	 -27.5788 	 56.8979 	 106.189 	 
H 	 -29.307 	 56.9679 	 106.104 	 
C 	 -28.4976 	 56.9679 	 108.126 	 
H 	 -27.9561 	 57.7465 	 108.628 	 
H 	 -28.2583 	 55.915 	 108.287 	 
H 	 -29.5055 	 57.0051 	 108.475 	 
H 	 -29.4324 	 64.3043 	 102.97 	 
H 	 -23.9499 	 59.944 	 107.12 	 
*
