! wB97X-D3 SP def2-SVP
%pal
nprocs 16
end

* xyz 0 1
S 	 42.3854 	 22.7718 	 45.2233 	 
C 	 40.7433 	 22.3437 	 45.1111 	 
C 	 39.9643 	 23.5188 	 45.0502 	 
C 	 40.664 	 24.6965 	 45.3371 	 
C 	 41.9871 	 24.4548 	 45.5374 	 
H 	 40.188 	 25.6568 	 45.4005 	 
C 	 38.4631 	 23.4973 	 44.7764 	 
H 	 38.1688 	 22.7369 	 44.0275 	 
H 	 38.2311 	 24.4136 	 44.1205 	 
C 	 37.537 	 23.4757 	 46.0233 	 
H 	 37.7704 	 24.3003 	 46.7101 	 
H 	 36.4527 	 23.548 	 45.756 	 
C 	 37.5735 	 22.0894 	 46.7845 	 
H 	 37.1258 	 22.3098 	 47.7845 	 
H 	 37.1439 	 21.2171 	 46.1729 	 
H 	 38.5335 	 21.7846 	 47.1378 	 
S 	 44.6851 	 24.9001 	 45.7814 	 
C 	 45.1418 	 26.286 	 46.7183 	 
C 	 44.1024 	 26.9913 	 47.2486 	 
C 	 42.89 	 26.5331 	 46.8172 	 
C 	 42.985 	 25.3529 	 46.0384 	 
H 	 44.317 	 27.9001 	 47.8762 	 
C 	 41.5977 	 27.1839 	 47.3233 	 
H 	 40.9688 	 27.3294 	 46.3995 	 
H 	 41.6961 	 28.2367 	 47.781 	 
C 	 40.9036 	 26.341 	 48.3883 	 
H 	 41.6378 	 26.0459 	 49.1007 	 
H 	 40.471 	 25.4854 	 47.8435 	 
C 	 39.7144 	 26.9756 	 49.142 	 
H 	 40.0098 	 27.977 	 49.3878 	 
H 	 39.3838 	 26.3901 	 49.9847 	 
H 	 38.7851 	 26.9905 	 48.5075 	 
H 	 40.4595 	 21.3333 	 45.0213 	 
H 	 46.1386 	 26.4684 	 47.0379 	 
*
