! wB97X-D3 SP def2-SVP
%pal
nprocs 16
end

* xyz 0 1
S 	 2.51796 	 -23.3422 	 83.7693 	 
C 	 4.30239 	 -23.5517 	 83.8922 	 
C 	 4.76137 	 -23.057 	 85.1074 	 
C 	 3.7273 	 -22.4899 	 85.8647 	 
C 	 2.4919 	 -22.4047 	 85.2073 	 
H 	 3.78885 	 -22.1311 	 86.8495 	 
C 	 6.19016 	 -23.2062 	 85.664 	 
H 	 6.74378 	 -22.3 	 85.4054 	 
H 	 6.60947 	 -24.0601 	 85.2314 	 
C 	 6.29412 	 -23.3079 	 87.2667 	 
H 	 7.31915 	 -23.0921 	 87.5589 	 
H 	 5.65915 	 -22.5371 	 87.7165 	 
C 	 5.91969 	 -24.6784 	 87.9411 	 
H 	 6.77989 	 -25.3023 	 87.6337 	 
H 	 5.91175 	 -24.7069 	 88.9852 	 
H 	 4.96037 	 -25.0325 	 87.6534 	 
S 	 -0.141856 	 -22.4727 	 85.9884 	 
C 	 -1.04444 	 -21.01 	 86.4133 	 
C 	 -0.263942 	 -19.9223 	 86.2166 	 
C 	 1.08692 	 -20.2492 	 85.7329 	 
C 	 1.35052 	 -21.5994 	 85.6041 	 
H 	 -0.679729 	 -18.8783 	 86.1944 	 
C 	 1.91254 	 -19.0699 	 85.2465 	 
H 	 2.94759 	 -19.4323 	 85.295 	 
H 	 1.84396 	 -18.1808 	 85.9991 	 
C 	 1.72006 	 -18.6035 	 83.7623 	 
H 	 2.42775 	 -17.8023 	 83.4592 	 
H 	 0.702893 	 -18.2197 	 83.5212 	 
C 	 2.04086 	 -19.7579 	 82.7009 	 
H 	 1.98285 	 -19.4599 	 81.6543 	 
H 	 1.36151 	 -20.5662 	 82.9043 	 
H 	 3.1305 	 -20.0329 	 82.6394 	 
H 	 4.95836 	 -24.1466 	 83.2186 	 
H 	 -2.0778 	 -21.0193 	 86.7402 	 
*
