! wB97X-D3 SP def2-SVP
%pal
nprocs 16
end

* xyz 0 1
S 	 -94.3454 	 55.3742 	 127.361 	 
C 	 -92.5704 	 55.4886 	 127.552 	 
C 	 -91.9356 	 54.6282 	 126.668 	 
C 	 -92.8154 	 53.9172 	 125.765 	 
C 	 -94.1392 	 54.1582 	 126.008 	 
H 	 -92.5061 	 53.3222 	 124.932 	 
C 	 -90.418 	 54.5913 	 126.409 	 
H 	 -89.7945 	 55.1141 	 127.205 	 
H 	 -90.2095 	 54.9714 	 125.461 	 
C 	 -89.7851 	 53.2212 	 126.37 	 
H 	 -90.1976 	 52.6431 	 125.54 	 
H 	 -88.7083 	 53.2837 	 126.096 	 
C 	 -89.9887 	 52.3344 	 127.618 	 
H 	 -89.9311 	 51.2981 	 127.201 	 
H 	 -89.3552 	 52.4948 	 128.488 	 
H 	 -91.0591 	 52.5198 	 127.917 	 
S 	 -96.1791 	 54.927 	 124.443 	 
C 	 -97.2233 	 53.7525 	 123.809 	 
C 	 -96.7768 	 52.4723 	 123.956 	 
C 	 -95.5692 	 52.4056 	 124.731 	 
C 	 -95.2471 	 53.6677 	 125.232 	 
H 	 -97.3806 	 51.6552 	 123.545 	 
C 	 -94.9412 	 51.0971 	 125.16 	 
H 	 -95.8006 	 50.45 	 125.503 	 
H 	 -94.3186 	 51.307 	 125.966 	 
C 	 -94.1274 	 50.2874 	 124.132 	 
H 	 -93.2368 	 50.7988 	 123.762 	 
H 	 -94.8401 	 50.0368 	 123.317 	 
C 	 -93.5676 	 49.0527 	 124.813 	 
H 	 -93.0352 	 48.3461 	 124.136 	 
H 	 -94.486 	 48.6008 	 125.206 	 
H 	 -92.9381 	 49.212 	 125.677 	 
H 	 -92.0711 	 55.9436 	 128.392 	 
H 	 -98.0038 	 54.0042 	 123.096 	 
*
