! wB97X-D3 SP def2-SVP
%pal
nprocs 16
end

* xyz 0 1
S 	 49.7157 	 16.4896 	 77.1934 	 
C 	 50.1965 	 16.9301 	 78.8057 	 
C 	 49.2933 	 17.7052 	 79.4343 	 
C 	 48.0933 	 17.8631 	 78.67 	 
C 	 48.1457 	 17.1305 	 77.4927 	 
H 	 47.2298 	 18.4271 	 79.0415 	 
C 	 49.5489 	 18.5413 	 80.684 	 
H 	 49.6036 	 19.5736 	 80.411 	 
H 	 50.501 	 18.2656 	 81.1332 	 
C 	 48.4877 	 18.5022 	 81.7586 	 
H 	 47.5913 	 18.7174 	 81.2422 	 
H 	 48.4667 	 17.5317 	 82.1902 	 
C 	 48.6836 	 19.5251 	 82.9048 	 
H 	 48.8437 	 20.5505 	 82.4947 	 
H 	 47.6974 	 19.6728 	 83.3571 	 
H 	 49.4468 	 19.2301 	 83.614 	 
S 	 47.8356 	 17.3245 	 74.8212 	 
C 	 46.2692 	 17.4953 	 74.0697 	 
C 	 45.3014 	 17.2463 	 75.0217 	 
C 	 45.7895 	 17.1521 	 76.3443 	 
C 	 47.187 	 17.1727 	 76.4301 	 
H 	 44.2782 	 17.2285 	 74.6491 	 
C 	 44.7816 	 17.214 	 77.4617 	 
H 	 45.3332 	 17.1212 	 78.4084 	 
H 	 43.9421 	 16.4997 	 77.3393 	 
C 	 44.2586 	 18.5801 	 77.683 	 
H 	 43.6223 	 18.7615 	 76.7933 	 
H 	 44.9473 	 19.3647 	 77.5484 	 
C 	 43.3757 	 18.8604 	 78.9101 	 
H 	 42.8739 	 19.8154 	 78.8894 	 
H 	 43.8913 	 18.7305 	 79.8324 	 
H 	 42.5251 	 18.1954 	 78.9845 	 
H 	 51.2496 	 16.8471 	 79.1127 	 
H 	 45.9513 	 17.6014 	 73.04 	 
*
