! wB97X-D3 SP def2-SVP
%pal
nprocs 16
end

* xyz 0 1
S 	 9.12726 	 -18.4111 	 57.6783 	 
C 	 9.55763 	 -17.5383 	 59.1054 	 
C 	 10.2285 	 -16.3381 	 58.7517 	 
C 	 10.4932 	 -16.3052 	 57.3305 	 
C 	 10.0114 	 -17.4091 	 56.612 	 
H 	 11.0079 	 -15.4466 	 56.8563 	 
C 	 10.595 	 -15.1643 	 59.6896 	 
H 	 9.88334 	 -15.1173 	 60.5257 	 
H 	 10.4495 	 -14.2206 	 59.0677 	 
C 	 12.0507 	 -15.2648 	 60.333 	 
H 	 12.32 	 -14.4528 	 60.9446 	 
H 	 12.1585 	 -16.1093 	 61.0103 	 
C 	 13.0543 	 -15.4368 	 59.1759 	 
H 	 14.0993 	 -15.269 	 59.4326 	 
H 	 12.8454 	 -16.3608 	 58.5933 	 
H 	 12.6811 	 -14.6564 	 58.4725 	 
S 	 11.7635 	 -17.6282 	 54.5816 	 
C 	 11.2325 	 -17.9265 	 52.9418 	 
C 	 9.8815 	 -18.0314 	 52.9384 	 
C 	 9.20358 	 -17.8777 	 54.2295 	 
C 	 10.1275 	 -17.6466 	 55.2407 	 
H 	 9.3661 	 -18.1733 	 51.9202 	 
C 	 7.7349 	 -17.8682 	 54.3762 	 
H 	 7.2668 	 -16.8849 	 54.356 	 
H 	 7.46543 	 -18.3356 	 55.3686 	 
C 	 6.99608 	 -18.6095 	 53.1987 	 
H 	 7.6087 	 -19.4914 	 53.1086 	 
H 	 7.12119 	 -18.1248 	 52.2971 	 
C 	 5.5686 	 -18.7678 	 53.5179 	 
H 	 5.41655 	 -19.4974 	 54.366 	 
H 	 5.14128 	 -19.4088 	 52.6964 	 
H 	 4.93109 	 -17.8845 	 53.5577 	 
H 	 9.18652 	 -17.9009 	 59.983 	 
H 	 11.8 	 -17.8364 	 52.0416 	 
*
