! wB97X-D3 SP def2-SVP
%pal
nprocs 16
end

* xyz 0 1
S 	 5.59913 	 -8.86616 	 75.2022 	 
C 	 4.13547 	 -8.20942 	 74.6846 	 
C 	 3.61083 	 -8.74013 	 73.4649 	 
C 	 4.62313 	 -9.57215 	 72.9583 	 
C 	 5.78072 	 -9.77614 	 73.7084 	 
H 	 4.52056 	 -9.93024 	 71.9923 	 
C 	 2.27742 	 -8.3964 	 72.8222 	 
H 	 1.44663 	 -8.86187 	 73.4343 	 
H 	 2.36338 	 -9.03204 	 71.9595 	 
C 	 2.07567 	 -6.85049 	 72.4932 	 
H 	 2.25921 	 -6.24354 	 73.4107 	 
H 	 2.72858 	 -6.47376 	 71.6777 	 
C 	 0.616999 	 -6.47798 	 72.2186 	 
H 	 0.608402 	 -5.41643 	 71.9834 	 
H 	 0.208861 	 -7.0689 	 71.4079 	 
H 	 -0.082498 	 -6.61024 	 73.0861 	 
S 	 8.54153 	 -9.75813 	 73.6854 	 
C 	 9.30812 	 -11.2334 	 73.3214 	 
C 	 8.45078 	 -12.2252 	 72.8801 	 
C 	 7.07522 	 -11.841 	 72.9142 	 
C 	 6.97549 	 -10.563 	 73.4383 	 
H 	 8.93614 	 -13.07 	 72.449 	 
C 	 5.97361 	 -12.7936 	 72.5449 	 
H 	 5.75638 	 -12.9657 	 71.4987 	 
H 	 5.03546 	 -12.4208 	 73.06 	 
C 	 5.9831 	 -14.2126 	 73.2787 	 
H 	 6.28537 	 -14.124 	 74.3036 	 
H 	 6.82169 	 -14.8339 	 72.7889 	 
C 	 4.69209 	 -15.0086 	 73.198 	 
H 	 3.93519 	 -14.641 	 73.9203 	 
H 	 4.81334 	 -16.1053 	 73.4329 	 
H 	 4.28791 	 -14.9753 	 72.1735 	 
H 	 3.63266 	 -7.39029 	 75.2273 	 
H 	 10.3958 	 -11.289 	 73.1762 	 
*
