! wB97X-D3 SP def2-SVP
%pal
nprocs 16
end

* xyz 0 1
S 	 -105.146 	 43.7853 	 130.68 	 
C 	 -104.634 	 44.4302 	 132.239 	 
C 	 -105.622 	 45.2257 	 132.828 	 
C 	 -106.796 	 45.1737 	 132.06 	 
C 	 -106.736 	 44.3122 	 130.968 	 
H 	 -107.743 	 45.5839 	 132.239 	 
C 	 -105.534 	 45.8918 	 134.181 	 
H 	 -105.569 	 46.9733 	 133.945 	 
H 	 -104.57 	 45.6959 	 134.627 	 
C 	 -106.644 	 45.5532 	 135.12 	 
H 	 -106.384 	 46.0367 	 136.027 	 
H 	 -107.594 	 46.0057 	 134.911 	 
C 	 -106.773 	 44.0876 	 135.55 	 
H 	 -107.811 	 44.0185 	 135.957 	 
H 	 -106.592 	 43.4616 	 134.723 	 
H 	 -105.894 	 43.7792 	 136.235 	 
S 	 -107.791 	 44.0289 	 128.536 	 
C 	 -109.416 	 43.5293 	 128.324 	 
C 	 -110.07 	 43.234 	 129.541 	 
C 	 -109.212 	 43.5659 	 130.652 	 
C 	 -107.908 	 43.8589 	 130.22 	 
H 	 -111.036 	 42.9341 	 129.531 	 
C 	 -109.705 	 43.4037 	 132.083 	 
H 	 -108.924 	 43.7418 	 132.783 	 
H 	 -109.783 	 42.3456 	 132.284 	 
C 	 -110.904 	 44.2713 	 132.58 	 
H 	 -111.824 	 44.0438 	 132.067 	 
H 	 -110.695 	 45.3536 	 132.409 	 
C 	 -111.084 	 44.0427 	 134.073 	 
H 	 -112.058 	 44.5199 	 134.368 	 
H 	 -110.38 	 44.5564 	 134.606 	 
H 	 -111.015 	 43.0385 	 134.37 	 
H 	 -103.607 	 44.4413 	 132.55 	 
H 	 -109.957 	 43.2795 	 127.411 	 
*
