! wB97X-D3 SP def2-SVP
%pal
nprocs 16
end

* xyz 0 1
S 	 -48.8736 	 9.5351 	 79.7064 	 
C 	 -47.6819 	 9.93844 	 80.9719 	 
C 	 -48.2707 	 10.2543 	 82.1861 	 
C 	 -49.668 	 10.1834 	 82.0659 	 
C 	 -50.1787 	 9.92023 	 80.8006 	 
H 	 -50.4519 	 10.2793 	 82.8351 	 
C 	 -47.5959 	 10.4648 	 83.5079 	 
H 	 -47.4029 	 11.4886 	 83.6251 	 
H 	 -46.7212 	 9.82441 	 83.4974 	 
C 	 -48.3133 	 10.0561 	 84.7278 	 
H 	 -47.6809 	 10.2763 	 85.5669 	 
H 	 -49.2086 	 10.6685 	 84.9106 	 
C 	 -48.7367 	 8.61068 	 84.8256 	 
H 	 -49.2954 	 8.47338 	 85.7206 	 
H 	 -49.418 	 8.28112 	 84.0276 	 
H 	 -47.9478 	 7.89164 	 84.9467 	 
S 	 -51.9577 	 9.14934 	 78.702 	 
C 	 -53.6051 	 8.86925 	 79.057 	 
C 	 -53.8881 	 9.30865 	 80.3302 	 
C 	 -52.734 	 9.55659 	 81.1397 	 
C 	 -51.5816 	 9.62465 	 80.3874 	 
H 	 -54.9069 	 9.1689 	 80.667 	 
C 	 -53.0663 	 9.73419 	 82.5902 	 
H 	 -54.0547 	 10.0973 	 82.6477 	 
H 	 -52.4111 	 10.4556 	 83.0363 	 
C 	 -52.9193 	 8.42226 	 83.3971 	 
H 	 -53.0576 	 8.70242 	 84.4533 	 
H 	 -51.8351 	 8.08869 	 83.1482 	 
C 	 -53.8893 	 7.36612 	 82.9432 	 
H 	 -53.7779 	 6.49883 	 83.5313 	 
H 	 -53.621 	 6.99127 	 81.9666 	 
H 	 -54.9774 	 7.71339 	 82.7833 	 
H 	 -46.6221 	 9.87667 	 80.6429 	 
H 	 -54.3772 	 8.63059 	 78.3314 	 
*
