! wB97X-D3 SP def2-SVP
%pal
nprocs 16
end

* xyz 0 1
S 	 5.21403 	 -26.2232 	 80.4043 	 
C 	 4.65409 	 -27.6883 	 81.1965 	 
C 	 5.59963 	 -28.685 	 81.1986 	 
C 	 6.8611 	 -28.2766 	 80.638 	 
C 	 6.83535 	 -26.9923 	 80.1724 	 
H 	 7.81636 	 -28.8559 	 80.6615 	 
C 	 5.40284 	 -30.0287 	 81.7743 	 
H 	 5.54259 	 -30.8732 	 81.0608 	 
H 	 4.35323 	 -30.1223 	 82.0904 	 
C 	 6.2837 	 -30.2939 	 83.0624 	 
H 	 6.08312 	 -31.3407 	 83.3088 	 
H 	 7.37293 	 -30.2643 	 82.7884 	 
C 	 5.93975 	 -29.5092 	 84.3863 	 
H 	 6.23734 	 -30.0626 	 85.278 	 
H 	 6.60238 	 -28.6244 	 84.4075 	 
H 	 4.85256 	 -29.2342 	 84.4629 	 
S 	 8.31651 	 -24.6903 	 80.0452 	 
C 	 9.52776 	 -24.5661 	 78.87 	 
C 	 9.76355 	 -25.7063 	 78.235 	 
C 	 8.90378 	 -26.7916 	 78.6796 	 
C 	 7.89754 	 -26.3072 	 79.557 	 
H 	 10.582 	 -25.6411 	 77.6162 	 
C 	 9.05003 	 -28.125 	 78.0127 	 
H 	 9.29752 	 -27.963 	 76.9541 	 
H 	 8.05424 	 -28.5755 	 78.1218 	 
C 	 10.0948 	 -29.0978 	 78.6698 	 
H 	 9.64117 	 -29.5501 	 79.5329 	 
H 	 10.9669 	 -28.508 	 78.8873 	 
C 	 10.4787 	 -30.3173 	 77.825 	 
H 	 11.5332 	 -30.5906 	 78.0145 	 
H 	 10.2854 	 -30.0421 	 76.7823 	 
H 	 9.98324 	 -31.2857 	 78.1298 	 
H 	 3.67218 	 -27.6771 	 81.552 	 
H 	 10.112 	 -23.6267 	 78.7439 	 
*
