! wB97X-D3 SP def2-SVP
%pal
nprocs 16
end

* xyz 0 1
S 	 -24.5731 	 46.6673 	 57.0288 	 
C 	 -25.8581 	 47.3056 	 58.0086 	 
C 	 -25.4275 	 47.9968 	 59.1028 	 
C 	 -24.0763 	 47.6055 	 59.3905 	 
C 	 -23.4151 	 47.0107 	 58.2911 	 
H 	 -23.4398 	 47.9062 	 60.2565 	 
C 	 -26.3327 	 48.6602 	 60.1161 	 
H 	 -26.9432 	 49.3526 	 59.5968 	 
H 	 -25.7499 	 49.1602 	 60.8395 	 
C 	 -27.3553 	 47.6942 	 60.7248 	 
H 	 -28.0384 	 48.3454 	 61.2188 	 
H 	 -27.9792 	 47.3119 	 59.8886 	 
C 	 -26.786 	 46.4879 	 61.4904 	 
H 	 -26.1772 	 45.8497 	 60.7531 	 
H 	 -26.0421 	 46.6927 	 62.2713 	 
H 	 -27.5807 	 45.9459 	 62.0375 	 
S 	 -21.6294 	 45.0441 	 58.8959 	 
C 	 -19.9902 	 44.9666 	 58.2546 	 
C 	 -19.9584 	 45.9499 	 57.2721 	 
C 	 -21.1276 	 46.8405 	 57.2205 	 
C 	 -22.0327 	 46.5502 	 58.1695 	 
H 	 -19.0188 	 46.0418 	 56.7719 	 
C 	 -21.016 	 48.0493 	 56.3035 	 
H 	 -19.9527 	 48.1904 	 56.0093 	 
H 	 -21.1607 	 48.9301 	 56.9813 	 
C 	 -21.9134 	 48.0481 	 55.0598 	 
H 	 -21.9459 	 49.0429 	 54.5821 	 
H 	 -22.9769 	 47.875 	 55.3293 	 
C 	 -21.4581 	 46.9401 	 53.9832 	 
H 	 -22.2343 	 46.8846 	 53.2007 	 
H 	 -21.3131 	 45.9661 	 54.4664 	 
H 	 -20.432 	 47.214 	 53.6661 	 
H 	 -26.9634 	 47.4038 	 57.7308 	 
H 	 -19.1883 	 44.2851 	 58.4952 	 
*
