! wB97X-D3 SP def2-SVP
%pal
nprocs 16
end

* xyz 0 1
S 	 -31.1012 	 60.248 	 112.575 	 
C 	 -31.2118 	 58.8509 	 111.521 	 
C 	 -30.0524 	 58.1846 	 111.408 	 
C 	 -28.9652 	 58.8363 	 112.127 	 
C 	 -29.3458 	 60.0937 	 112.64 	 
H 	 -27.9313 	 58.511 	 112.249 	 
C 	 -29.8206 	 56.9193 	 110.63 	 
H 	 -29.1281 	 56.3212 	 111.279 	 
H 	 -29.1213 	 57.1641 	 109.708 	 
C 	 -31.0809 	 56.1636 	 110.208 	 
H 	 -31.7771 	 56.1112 	 110.976 	 
H 	 -31.5701 	 56.7174 	 109.429 	 
C 	 -30.7686 	 54.7937 	 109.684 	 
H 	 -31.7046 	 54.2446 	 109.336 	 
H 	 -30.0834 	 54.7117 	 108.808 	 
H 	 -30.2527 	 54.232 	 110.524 	 
S 	 -29.3542 	 62.0672 	 114.459 	 
C 	 -27.9181 	 63.0002 	 114.72 	 
C 	 -26.8755 	 62.6739 	 113.891 	 
C 	 -27.2162 	 61.6156 	 113.005 	 
C 	 -28.5253 	 61.1456 	 113.22 	 
H 	 -25.9528 	 63.2105 	 113.932 	 
C 	 -26.2947 	 61.1713 	 111.843 	 
H 	 -26.5971 	 61.5984 	 110.991 	 
H 	 -26.451 	 60.1554 	 111.779 	 
C 	 -24.8106 	 61.5504 	 112.005 	 
H 	 -24.5109 	 61.0617 	 112.949 	 
H 	 -24.6544 	 62.6181 	 111.9 	 
C 	 -23.8403 	 60.8863 	 110.953 	 
H 	 -23.8527 	 61.4533 	 109.977 	 
H 	 -23.8489 	 59.8583 	 110.63 	 
H 	 -22.8532 	 61.243 	 111.263 	 
H 	 -32.0829 	 58.5554 	 110.919 	 
H 	 -27.696 	 63.7712 	 115.378 	 
*
