! wB97X-D3 SP def2-SVP
%pal
nprocs 16
end

* xyz 0 1
S 	 -29.187 	 65.7944 	 103.087 	 
C 	 -28.4387 	 67.3282 	 103.176 	 
C 	 -27.8905 	 67.7181 	 101.983 	 
C 	 -27.8202 	 66.5941 	 101.048 	 
C 	 -28.4448 	 65.436 	 101.51 	 
H 	 -27.439 	 66.6252 	 100.097 	 
C 	 -27.3664 	 69.0898 	 101.607 	 
H 	 -28.1937 	 69.8653 	 101.806 	 
H 	 -27.0745 	 69.1069 	 100.58 	 
C 	 -26.0886 	 69.5837 	 102.347 	 
H 	 -25.2967 	 68.9085 	 102.2 	 
H 	 -25.8083 	 70.5686 	 102.032 	 
C 	 -26.2443 	 69.8673 	 103.874 	 
H 	 -25.2737 	 70.1504 	 104.33 	 
H 	 -27.0383 	 70.5862 	 104.137 	 
H 	 -26.5374 	 68.9902 	 104.398 	 
S 	 -30.0384 	 63.449 	 100.712 	 
C 	 -29.3553 	 62.0176 	 100.004 	 
C 	 -28.0599 	 62.2103 	 99.7625 	 
C 	 -27.5153 	 63.3826 	 100.317 	 
C 	 -28.4881 	 64.1499 	 100.877 	 
H 	 -27.4852 	 61.4615 	 99.2001 	 
C 	 -26.0217 	 63.7019 	 100.051 	 
H 	 -25.6965 	 64.6842 	 100.071 	 
H 	 -25.9513 	 63.6525 	 98.9777 	 
C 	 -24.9851 	 62.756 	 100.729 	 
H 	 -24.0075 	 62.9763 	 100.119 	 
H 	 -25.1921 	 61.7171 	 100.525 	 
C 	 -24.7698 	 62.9521 	 102.267 	 
H 	 -25.7285 	 62.653 	 102.732 	 
H 	 -24.5772 	 63.9696 	 102.401 	 
H 	 -23.9295 	 62.3075 	 102.748 	 
H 	 -28.5305 	 68.002 	 104.039 	 
H 	 -29.8831 	 61.1305 	 99.6841 	 
*
