! wB97X-D3 SP def2-SVP
%pal
nprocs 16
end

* xyz 0 1
S 	 44.7176 	 9.24881 	 86.1311 	 
C 	 46.304 	 9.68187 	 85.6992 	 
C 	 46.8123 	 10.6009 	 86.6084 	 
C 	 45.8163 	 11.0174 	 87.579 	 
C 	 44.5811 	 10.5034 	 87.341 	 
H 	 45.9841 	 11.7269 	 88.3578 	 
C 	 48.1521 	 11.2521 	 86.3323 	 
H 	 48.8005 	 10.457 	 86.0258 	 
H 	 48.4713 	 11.6276 	 87.328 	 
C 	 48.0159 	 12.3424 	 85.1811 	 
H 	 48.9706 	 12.6744 	 84.8203 	 
H 	 47.6082 	 11.8301 	 84.353 	 
C 	 47.1575 	 13.5464 	 85.6703 	 
H 	 47.6773 	 13.9876 	 86.4918 	 
H 	 47.0619 	 14.2987 	 84.824 	 
H 	 46.1338 	 13.2434 	 85.9604 	 
S 	 42.22 	 11.4572 	 86.7001 	 
C 	 41.2062 	 12.194 	 87.9688 	 
C 	 41.5538 	 11.7703 	 89.213 	 
C 	 42.8052 	 11.0374 	 89.2568 	 
C 	 43.2879 	 10.834 	 87.957 	 
H 	 41.09 	 12.2845 	 90.0603 	 
C 	 43.5303 	 10.8071 	 90.5695 	 
H 	 44.3051 	 11.5656 	 90.6799 	 
H 	 44.1279 	 9.87547 	 90.4683 	 
C 	 42.652 	 10.6591 	 91.8369 	 
H 	 42.0081 	 9.80367 	 91.6795 	 
H 	 41.959 	 11.5065 	 91.8577 	 
C 	 43.5262 	 10.603 	 93.0519 	 
H 	 42.8305 	 10.443 	 93.899 	 
H 	 44.1773 	 11.4369 	 93.1344 	 
H 	 44.1894 	 9.79343 	 93.0542 	 
H 	 46.9686 	 9.31649 	 84.9104 	 
H 	 40.4065 	 12.8913 	 87.7428 	 
*
