! wB97X-D3 SP def2-SVP
%pal
nprocs 16
end

* xyz 0 1
S 	 -76.2608 	 52.3923 	 139.129 	 
C 	 -74.5119 	 52.797 	 139.04 	 
C 	 -74.258 	 53.567 	 137.94 	 
C 	 -75.3843 	 53.5102 	 137.046 	 
C 	 -76.536 	 52.98 	 137.538 	 
H 	 -75.3791 	 53.8944 	 136.062 	 
C 	 -72.8347 	 54.1185 	 137.579 	 
H 	 -72.7652 	 53.6287 	 136.613 	 
H 	 -72.1782 	 53.5611 	 138.154 	 
C 	 -72.7229 	 55.5953 	 137.565 	 
H 	 -73.3918 	 55.9352 	 136.743 	 
H 	 -73.2066 	 55.9842 	 138.504 	 
C 	 -71.2932 	 56.1685 	 137.433 	 
H 	 -70.8883 	 55.8478 	 136.437 	 
H 	 -71.09 	 57.2036 	 137.682 	 
H 	 -70.6344 	 55.7212 	 138.145 	 
S 	 -78.6085 	 54.2513 	 136.385 	 
C 	 -79.967 	 53.3777 	 135.671 	 
C 	 -79.867 	 52.0274 	 136.069 	 
C 	 -78.6133 	 51.7033 	 136.771 	 
C 	 -77.7759 	 52.793 	 136.903 	 
H 	 -80.6737 	 51.4016 	 135.77 	 
C 	 -78.2369 	 50.2276 	 137.002 	 
H 	 -79.185 	 49.69 	 136.898 	 
H 	 -77.9256 	 50.1767 	 138.031 	 
C 	 -77.2162 	 49.7034 	 136.007 	 
H 	 -76.2504 	 50.2153 	 135.963 	 
H 	 -77.6658 	 49.8245 	 135.048 	 
C 	 -76.955 	 48.2219 	 136.343 	 
H 	 -76.7031 	 48.0834 	 137.417 	 
H 	 -76.0846 	 47.7816 	 135.833 	 
H 	 -77.8523 	 47.6784 	 136.149 	 
H 	 -73.7708 	 52.6813 	 139.834 	 
H 	 -80.9008 	 53.9554 	 135.415 	 
*
