! wB97X-D3 SP def2-SVP
%pal
nprocs 16
end

* xyz 0 1
S 	 3.70866 	 -11.7135 	 77.1281 	 
C 	 4.18685 	 -12.5429 	 75.6726 	 
C 	 3.22726 	 -12.3846 	 74.684 	 
C 	 2.07876 	 -11.7127 	 75.1751 	 
C 	 2.15765 	 -11.2209 	 76.5099 	 
H 	 1.19414 	 -11.7311 	 74.5464 	 
C 	 3.27995 	 -12.9174 	 73.2186 	 
H 	 2.31001 	 -12.8348 	 72.7734 	 
H 	 3.51435 	 -14.0056 	 73.3258 	 
C 	 4.34301 	 -12.1129 	 72.3769 	 
H 	 4.21187 	 -11.0438 	 72.5089 	 
H 	 5.34388 	 -12.3623 	 72.7515 	 
C 	 4.25136 	 -12.486 	 70.9303 	 
H 	 3.37296 	 -12.0886 	 70.4946 	 
H 	 5.04331 	 -12.1868 	 70.2227 	 
H 	 4.17791 	 -13.5531 	 70.8223 	 
S 	 -0.537685 	 -10.4292 	 76.467 	 
C 	 -1.02406 	 -9.03403 	 77.4202 	 
C 	 0.0990154 	 -8.59213 	 78.105 	 
C 	 1.31702 	 -9.19972 	 77.8253 	 
C 	 1.14316 	 -10.3564 	 77.0686 	 
H 	 0.0393937 	 -7.67433 	 78.7455 	 
C 	 2.60658 	 -8.76368 	 78.4996 	 
H 	 2.76799 	 -7.72176 	 78.4284 	 
H 	 3.44129 	 -8.99071 	 77.9391 	 
C 	 2.83334 	 -9.14654 	 79.9607 	 
H 	 2.68098 	 -10.2606 	 80.0719 	 
H 	 2.05494 	 -8.60415 	 80.4937 	 
C 	 4.16071 	 -8.70166 	 80.5912 	 
H 	 4.40026 	 -7.65404 	 80.4291 	 
H 	 4.98157 	 -9.3289 	 80.1868 	 
H 	 4.39146 	 -8.86764 	 81.63 	 
H 	 5.19997 	 -12.8995 	 75.4796 	 
H 	 -2.00737 	 -8.58382 	 77.4671 	 
*
