! wB97X-D3 SP def2-SVP
%pal
nprocs 16
end

* xyz 0 1
S 	 54.4716 	 12.8936 	 77.3103 	 
C 	 56.146 	 13.3719 	 77.4227 	 
C 	 56.8091 	 13.1388 	 76.2136 	 
C 	 56.0463 	 12.3798 	 75.2864 	 
C 	 54.7348 	 12.3182 	 75.7089 	 
H 	 56.323 	 11.9689 	 74.3266 	 
C 	 58.2326 	 13.4372 	 76.0123 	 
H 	 58.4729 	 14.4633 	 76.2952 	 
H 	 58.3736 	 13.2709 	 74.9776 	 
C 	 59.2034 	 12.4272 	 76.8081 	 
H 	 58.9398 	 12.4999 	 77.869 	 
H 	 59.0672 	 11.3067 	 76.5808 	 
C 	 60.684 	 12.9708 	 76.7699 	 
H 	 60.9637 	 12.9462 	 75.7474 	 
H 	 60.8563 	 14.0279 	 77.0533 	 
H 	 61.3253 	 12.3162 	 77.398 	 
S 	 52.4592 	 10.6302 	 75.921 	 
C 	 51.8039 	 9.79799 	 74.5149 	 
C 	 52.4127 	 10.3789 	 73.3933 	 
C 	 53.4107 	 11.3469 	 73.6302 	 
C 	 53.6748 	 11.5464 	 75.011 	 
H 	 52.1732 	 10.1994 	 72.4133 	 
C 	 54.2531 	 11.8939 	 72.422 	 
H 	 54.9366 	 12.7277 	 72.7391 	 
H 	 53.5695 	 12.2506 	 71.7041 	 
C 	 55.055 	 10.8334 	 71.7361 	 
H 	 54.4007 	 10.0315 	 71.41 	 
H 	 55.7117 	 10.3294 	 72.3773 	 
C 	 55.8145 	 11.3393 	 70.5122 	 
H 	 56.7687 	 10.8146 	 70.446 	 
H 	 55.8979 	 12.4783 	 70.6219 	 
H 	 55.3365 	 11.1532 	 69.5771 	 
H 	 56.5531 	 13.7725 	 78.325 	 
H 	 50.9419 	 9.14043 	 74.5422 	 
*
