! wB97X-D3 SP def2-SVP
%pal
nprocs 16
end

* xyz 0 1
S 	 -44.5427 	 35.0404 	 82.2186 	 
C 	 -44.2212 	 36.6237 	 81.4258 	 
C 	 -42.8879 	 36.6817 	 80.9667 	 
C 	 -42.1751 	 35.4483 	 81.2542 	 
C 	 -42.9387 	 34.468 	 81.7857 	 
H 	 -41.1483 	 35.1453 	 81.1181 	 
C 	 -42.2084 	 37.766 	 80.1457 	 
H 	 -42.8663 	 38.5282 	 79.8502 	 
H 	 -41.8047 	 37.2557 	 79.3036 	 
C 	 -40.9318 	 38.3466 	 80.8391 	 
H 	 -41.1399 	 38.7949 	 81.8113 	 
H 	 -40.3615 	 37.4447 	 81.1839 	 
C 	 -40.0557 	 39.1548 	 79.8892 	 
H 	 -39.0914 	 39.45 	 80.308 	 
H 	 -39.7038 	 38.5023 	 79.0806 	 
H 	 -40.5846 	 39.9869 	 79.4875 	 
S 	 -43.7323 	 31.8586 	 81.5959 	 
C 	 -42.7452 	 30.6203 	 82.3396 	 
C 	 -41.593 	 31.1998 	 82.934 	 
C 	 -41.5727 	 32.6246 	 82.9792 	 
C 	 -42.5857 	 33.1006 	 82.1259 	 
H 	 -40.7737 	 30.5501 	 83.2148 	 
C 	 -40.4931 	 33.5483 	 83.6503 	 
H 	 -41.0259 	 33.9778 	 84.533 	 
H 	 -40.3835 	 34.3343 	 82.9514 	 
C 	 -39.0806 	 33.0333 	 83.8633 	 
H 	 -38.4665 	 32.702 	 82.9995 	 
H 	 -39.1566 	 32.0534 	 84.4677 	 
C 	 -38.2772 	 34.0364 	 84.7403 	 
H 	 -38.8692 	 34.2957 	 85.6953 	 
H 	 -38.2161 	 34.9763 	 84.2834 	 
H 	 -37.3235 	 33.7438 	 85.1321 	 
H 	 -44.9908 	 37.3558 	 81.2435 	 
H 	 -42.734 	 29.5526 	 82.0724 	 
*
