! wB97X-D3 SP def2-SVP
%pal
nprocs 16
end

* xyz 0 1
S 	 -44.3657 	 16.5295 	 83.3135 	 
C 	 -43.212 	 15.7769 	 82.2268 	 
C 	 -42.7336 	 16.6183 	 81.268 	 
C 	 -43.4101 	 17.8618 	 81.2457 	 
C 	 -44.3255 	 17.9989 	 82.2067 	 
H 	 -43.169 	 18.6581 	 80.6364 	 
C 	 -41.8746 	 16.159 	 80.0799 	 
H 	 -41.9813 	 16.7363 	 79.2109 	 
H 	 -42.4324 	 15.307 	 79.7872 	 
C 	 -40.3349 	 15.9879 	 80.2901 	 
H 	 -39.9261 	 16.9635 	 80.5931 	 
H 	 -40.1596 	 15.3051 	 81.0829 	 
C 	 -39.5036 	 15.3557 	 79.0663 	 
H 	 -38.5243 	 14.9385 	 79.4317 	 
H 	 -40.0874 	 14.5814 	 78.5819 	 
H 	 -39.3683 	 16.1487 	 78.2942 	 
S 	 -46.748 	 19.1271 	 82.8421 	 
C 	 -46.908 	 20.7693 	 83.3918 	 
C 	 -45.6759 	 21.3493 	 83.3855 	 
C 	 -44.6072 	 20.5446 	 82.9099 	 
C 	 -45.0221 	 19.1989 	 82.6275 	 
H 	 -45.5897 	 22.2898 	 83.8479 	 
C 	 -43.1845 	 21.0248 	 82.8773 	 
H 	 -42.538 	 20.2274 	 82.5545 	 
H 	 -42.9014 	 21.3256 	 83.9023 	 
C 	 -43.0365 	 22.2959 	 82.0172 	 
H 	 -43.7423 	 23.1158 	 82.2549 	 
H 	 -43.2032 	 21.8711 	 81.0537 	 
C 	 -41.6136 	 22.8219 	 81.9937 	 
H 	 -41.4114 	 23.6493 	 81.2601 	 
H 	 -40.8525 	 22.03 	 81.9155 	 
H 	 -41.3456 	 23.3838 	 82.9462 	 
H 	 -42.768 	 14.8091 	 82.3746 	 
H 	 -47.7798 	 21.2553 	 83.8715 	 
*
