! wB97X-D3 SP def2-SVP
%pal
nprocs 16
end

* xyz 0 1
S 	 -30.9376 	 28.5123 	 45.9967 	 
C 	 -29.9253 	 28.9302 	 47.3271 	 
C 	 -30.5283 	 29.9161 	 48.1148 	 
C 	 -31.8903 	 30.1895 	 47.8073 	 
C 	 -32.2891 	 29.5145 	 46.6503 	 
H 	 -32.6232 	 30.8182 	 48.1898 	 
C 	 -29.8369 	 30.5973 	 49.322 	 
H 	 -28.7522 	 30.4602 	 49.2957 	 
H 	 -30.1841 	 30.1589 	 50.3028 	 
C 	 -30.0482 	 32.1607 	 49.5034 	 
H 	 -31.0459 	 32.4624 	 49.6774 	 
H 	 -29.5396 	 32.4348 	 50.4639 	 
C 	 -29.4832 	 32.9414 	 48.2733 	 
H 	 -30.0351 	 32.7577 	 47.3282 	 
H 	 -29.6398 	 33.9791 	 48.4422 	 
H 	 -28.4768 	 32.6419 	 48.0966 	 
S 	 -33.6119 	 29.5587 	 44.2227 	 
C 	 -35.3014 	 29.9691 	 44.188 	 
C 	 -35.8344 	 30.0911 	 45.4368 	 
C 	 -34.8115 	 29.8997 	 46.4572 	 
C 	 -33.5565 	 29.6646 	 45.9759 	 
H 	 -36.9201 	 30.2976 	 45.5657 	 
C 	 -35.3185 	 29.7581 	 47.8798 	 
H 	 -36.2598 	 30.2769 	 47.8145 	 
H 	 -34.7676 	 30.4768 	 48.5485 	 
C 	 -35.5069 	 28.2813 	 48.3317 	 
H 	 -34.5327 	 27.7553 	 48.2678 	 
H 	 -36.1521 	 27.7097 	 47.6718 	 
C 	 -35.9563 	 28.1814 	 49.8115 	 
H 	 -37.0132 	 28.3664 	 49.9248 	 
H 	 -35.4915 	 28.8291 	 50.4431 	 
H 	 -35.8178 	 27.2213 	 50.2335 	 
H 	 -28.9722 	 28.4946 	 47.5845 	 
H 	 -35.8588 	 30.2018 	 43.3158 	 
*
