! wB97X-D3 SP def2-SVP
%pal
nprocs 16
end

* xyz 0 1
S 	 44.3191 	 18.5699 	 85.7272 	 
C 	 42.7313 	 19.2449 	 85.5123 	 
C 	 42.0656 	 18.5918 	 84.4745 	 
C 	 42.8554 	 17.5366 	 83.8706 	 
C 	 44.0832 	 17.364 	 84.4183 	 
H 	 42.5767 	 16.829 	 82.9944 	 
C 	 40.6612 	 19.0853 	 83.9987 	 
H 	 40.7825 	 20.1003 	 83.6042 	 
H 	 39.9838 	 19.2184 	 84.8267 	 
C 	 39.8552 	 18.284 	 83.0034 	 
H 	 40.4453 	 17.8915 	 82.2284 	 
H 	 39.5265 	 17.3873 	 83.5229 	 
C 	 38.7096 	 19.0117 	 82.3874 	 
H 	 38.2335 	 19.4734 	 83.2001 	 
H 	 39.0529 	 19.7594 	 81.6543 	 
H 	 38.0672 	 18.3291 	 81.8218 	 
S 	 46.7149 	 17.0157 	 83.8696 	 
C 	 47.3594 	 15.4043 	 83.6517 	 
C 	 46.3885 	 14.4541 	 83.7956 	 
C 	 45.0982 	 14.9833 	 84.1034 	 
C 	 45.1166 	 16.3758 	 84.1507 	 
H 	 46.6327 	 13.4 	 83.7752 	 
C 	 43.9245 	 14.0344 	 84.4283 	 
H 	 43.7896 	 13.1859 	 83.6729 	 
H 	 43.0069 	 14.62 	 84.4575 	 
C 	 43.9219 	 13.6194 	 85.9033 	 
H 	 43.7779 	 14.5386 	 86.5405 	 
H 	 44.9328 	 13.2576 	 86.1511 	 
C 	 42.8137 	 12.629 	 86.1273 	 
H 	 42.622 	 11.8131 	 85.3996 	 
H 	 41.8618 	 13.1413 	 86.1329 	 
H 	 42.9497 	 12.1131 	 87.0847 	 
H 	 42.4017 	 20.1582 	 86.032 	 
H 	 48.2902 	 15.2467 	 83.1196 	 
*
