! wB97X-D3 SP def2-SVP
%pal
nprocs 16
end

* xyz 0 1
S 	 -4.24819 	 -21.9197 	 57.2874 	 
C 	 -4.42922 	 -22.1473 	 55.549 	 
C 	 -4.33144 	 -20.9529 	 54.8414 	 
C 	 -4.00243 	 -19.8194 	 55.6391 	 
C 	 -3.8096 	 -20.1778 	 56.9967 	 
H 	 -3.93525 	 -18.7829 	 55.3313 	 
C 	 -4.43664 	 -20.8173 	 53.362 	 
H 	 -3.77526 	 -21.6161 	 52.937 	 
H 	 -3.90643 	 -19.8548 	 53.1163 	 
C 	 -5.80374 	 -21.0517 	 52.8569 	 
H 	 -5.75109 	 -21.1159 	 51.7307 	 
H 	 -6.06858 	 -22.1009 	 53.1589 	 
C 	 -6.855 	 -20.0182 	 53.3494 	 
H 	 -6.68614 	 -19.0636 	 52.917 	 
H 	 -7.89997 	 -20.2131 	 53.1233 	 
H 	 -6.90217 	 -19.9784 	 54.4582 	 
S 	 -4.27174 	 -19.3005 	 59.4408 	 
C 	 -2.89396 	 -18.4244 	 60.19 	 
C 	 -2.186 	 -17.7283 	 59.2588 	 
C 	 -2.42559 	 -18.264 	 57.9927 	 
C 	 -3.34995 	 -19.2467 	 58.0027 	 
H 	 -1.40833 	 -17.0491 	 59.6844 	 
C 	 -1.48973 	 -17.8369 	 56.8957 	 
H 	 -1.66457 	 -18.548 	 56.0681 	 
H 	 -0.433375 	 -18.1486 	 57.1362 	 
C 	 -1.59223 	 -16.3947 	 56.4144 	 
H 	 -0.652153 	 -16.3141 	 55.8182 	 
H 	 -1.514 	 -15.6108 	 57.1605 	 
C 	 -2.76367 	 -16.2131 	 55.478 	 
H 	 -3.69828 	 -16.5734 	 55.9567 	 
H 	 -2.63755 	 -16.8865 	 54.5984 	 
H 	 -2.89259 	 -15.2141 	 55.0926 	 
H 	 -4.59448 	 -23.0708 	 55.0361 	 
H 	 -2.86484 	 -18.0901 	 61.2357 	 
*
