! wB97X-D3 SP def2-SVP
%pal
nprocs 16
end

* xyz 0 1
S 	 -20.713 	 -7.161 	 84.4853 	 
C 	 -19.7161 	 -8.60248 	 84.2211 	 
C 	 -18.8889 	 -8.82465 	 85.2961 	 
C 	 -19.1512 	 -7.91072 	 86.3802 	 
C 	 -19.9948 	 -6.8649 	 86.0321 	 
H 	 -18.7258 	 -7.87397 	 87.3769 	 
C 	 -17.7594 	 -9.77387 	 85.4855 	 
H 	 -16.9248 	 -9.33044 	 85.902 	 
H 	 -17.4293 	 -10.1032 	 84.4785 	 
C 	 -18.1151 	 -11.009 	 86.3407 	 
H 	 -17.1929 	 -11.4667 	 86.6817 	 
H 	 -18.4771 	 -10.5365 	 87.3504 	 
C 	 -19.1041 	 -11.9869 	 85.6295 	 
H 	 -18.673 	 -12.2999 	 84.6817 	 
H 	 -19.2625 	 -12.8801 	 86.2 	 
H 	 -20.0743 	 -11.511 	 85.4404 	 
S 	 -22.1893 	 -5.99387 	 87.2226 	 
C 	 -22.0655 	 -4.8107 	 88.5499 	 
C 	 -20.8035 	 -4.4758 	 88.7789 	 
C 	 -19.879 	 -5.1317 	 87.9 	 
C 	 -20.5196 	 -5.93751 	 86.9973 	 
H 	 -20.5315 	 -3.82504 	 89.6407 	 
C 	 -18.3817 	 -4.91584 	 87.8585 	 
H 	 -18.0452 	 -4.52348 	 86.8766 	 
H 	 -17.9211 	 -5.89874 	 88.0222 	 
C 	 -17.7525 	 -3.94904 	 88.8763 	 
H 	 -18.1704 	 -4.02408 	 89.9264 	 
H 	 -18.1277 	 -2.93169 	 88.5861 	 
C 	 -16.2725 	 -3.94701 	 88.8689 	 
H 	 -15.9694 	 -3.75123 	 87.8283 	 
H 	 -15.8102 	 -4.91792 	 89.0727 	 
H 	 -15.8207 	 -3.18003 	 89.4754 	 
H 	 -19.6518 	 -8.99933 	 83.2401 	 
H 	 -22.8943 	 -4.37389 	 89.0624 	 
*
