! wB97X-D3 SP def2-SVP
%pal
nprocs 16
end

* xyz 0 1
S 	 -41.6641 	 51.9109 	 107.291 	 
C 	 -42.4402 	 53.4237 	 107.155 	 
C 	 -41.713 	 54.5008 	 107.717 	 
C 	 -40.3427 	 54.1273 	 107.849 	 
C 	 -40.16 	 52.7612 	 107.672 	 
H 	 -39.6841 	 54.7788 	 108.259 	 
C 	 -42.272 	 55.9011 	 108.09 	 
H 	 -43.3563 	 55.7917 	 108.258 	 
H 	 -42.2284 	 56.4425 	 107.173 	 
C 	 -41.5577 	 56.685 	 109.196 	 
H 	 -41.5223 	 55.9952 	 110.07 	 
H 	 -40.6038 	 57.1006 	 109.049 	 
C 	 -42.3353 	 57.8976 	 109.722 	 
H 	 -43.358 	 57.6307 	 109.866 	 
H 	 -42.0589 	 58.1229 	 110.757 	 
H 	 -42.3803 	 58.7112 	 109.009 	 
S 	 -39.0328 	 50.7575 	 109.235 	 
C 	 -37.3189 	 50.466 	 109.115 	 
C 	 -36.6658 	 51.409 	 108.36 	 
C 	 -37.6094 	 52.405 	 107.828 	 
C 	 -38.9147 	 52.0689 	 108.03 	 
H 	 -35.5591 	 51.3257 	 108.247 	 
C 	 -37.1077 	 53.5655 	 106.989 	 
H 	 -37.9418 	 53.988 	 106.561 	 
H 	 -36.5311 	 53.1654 	 106.192 	 
C 	 -36.2243 	 54.5956 	 107.767 	 
H 	 -35.3278 	 54.0303 	 108.169 	 
H 	 -36.7603 	 55.0476 	 108.607 	 
C 	 -35.7095 	 55.6881 	 106.834 	 
H 	 -36.5338 	 56.2498 	 106.343 	 
H 	 -34.9199 	 55.3551 	 106.149 	 
H 	 -35.1686 	 56.4836 	 107.42 	 
H 	 -43.4231 	 53.577 	 106.819 	 
H 	 -36.7737 	 49.6658 	 109.688 	 
*
