! wB97X-D3 SP def2-SVP
%pal
nprocs 16
end

* xyz 0 1
S 	 4.58211 	 -11.893 	 91.273 	 
C 	 2.96782 	 -11.4166 	 91.0313 	 
C 	 2.22497 	 -12.2464 	 90.2709 	 
C 	 3.11044 	 -13.0685 	 89.4131 	 
C 	 4.40555 	 -12.9404 	 89.8371 	 
H 	 2.75624 	 -13.6515 	 88.5485 	 
C 	 0.733153 	 -12.3522 	 90.1871 	 
H 	 0.451391 	 -12.5046 	 89.1746 	 
H 	 0.392763 	 -11.4204 	 90.6096 	 
C 	 0.285461 	 -13.4027 	 91.1089 	 
H 	 0.835746 	 -14.2657 	 90.8516 	 
H 	 0.61673 	 -13.0835 	 92.137 	 
C 	 -1.2078 	 -13.6625 	 91.2578 	 
H 	 -1.81668 	 -12.8558 	 91.6836 	 
H 	 -1.81575 	 -13.8693 	 90.3301 	 
H 	 -1.46887 	 -14.5214 	 91.8731 	 
S 	 6.49417 	 -12.4694 	 88.1346 	 
C 	 7.44203 	 -13.8094 	 87.4408 	 
C 	 6.93548 	 -15.0338 	 87.915 	 
C 	 5.86051 	 -14.9343 	 88.8517 	 
C 	 5.50583 	 -13.5475 	 89.1457 	 
H 	 7.41062 	 -15.981 	 87.6399 	 
C 	 5.39569 	 -16.1207 	 89.6553 	 
H 	 4.6705 	 -15.7996 	 90.4354 	 
H 	 6.20313 	 -16.5343 	 90.2168 	 
C 	 4.60053 	 -17.217 	 88.8692 	 
H 	 5.06196 	 -17.7692 	 88.0437 	 
H 	 3.83571 	 -16.5901 	 88.3434 	 
C 	 3.78066 	 -18.2318 	 89.6447 	 
H 	 3.40453 	 -19.0877 	 89.0755 	 
H 	 2.9664 	 -17.7497 	 90.0657 	 
H 	 4.38765 	 -18.6515 	 90.5165 	 
H 	 2.41172 	 -10.7228 	 91.7142 	 
H 	 8.23835 	 -13.7663 	 86.7664 	 
*
