! wB97X-D3 SP def2-SVP
%pal
nprocs 16
end

* xyz 0 1
S 	 -42.1161 	 55.0142 	 105.531 	 
C 	 -40.8782 	 56.2081 	 105.82 	 
C 	 -39.6294 	 55.6593 	 106.069 	 
C 	 -39.7368 	 54.2841 	 106.315 	 
C 	 -40.9416 	 53.7528 	 105.955 	 
H 	 -38.9176 	 53.7011 	 106.604 	 
C 	 -38.3731 	 56.4337 	 106.435 	 
H 	 -38.495 	 57.4351 	 106.088 	 
H 	 -37.6245 	 55.9164 	 105.828 	 
C 	 -37.8543 	 56.3171 	 107.901 	 
H 	 -37.8774 	 55.2573 	 108.165 	 
H 	 -36.8585 	 56.6978 	 108.038 	 
C 	 -38.8461 	 56.8639 	 108.921 	 
H 	 -38.8045 	 56.3282 	 109.824 	 
H 	 -38.5753 	 57.8923 	 108.94 	 
H 	 -39.8961 	 56.7648 	 108.542 	 
S 	 -42.588 	 52.0066 	 107.179 	 
C 	 -42.5529 	 50.3003 	 106.649 	 
C 	 -41.6154 	 50.0783 	 105.618 	 
C 	 -40.8553 	 51.2794 	 105.333 	 
C 	 -41.3194 	 52.3323 	 106.058 	 
H 	 -41.559 	 49.0647 	 105.101 	 
C 	 -39.7402 	 51.264 	 104.252 	 
H 	 -39.7155 	 52.1955 	 103.66 	 
H 	 -39.7882 	 50.3616 	 103.65 	 
C 	 -38.2974 	 51.2209 	 104.797 	 
H 	 -38.0171 	 50.3854 	 105.488 	 
H 	 -38.0116 	 52.0103 	 105.407 	 
C 	 -37.2549 	 51.3109 	 103.692 	 
H 	 -37.5461 	 52.119 	 102.982 	 
H 	 -37.0614 	 50.4087 	 103.143 	 
H 	 -36.2524 	 51.5143 	 104.062 	 
H 	 -41.0684 	 57.2607 	 105.849 	 
H 	 -43.2366 	 49.515 	 106.974 	 
*
