! wB97X-D3 SP def2-SVP
%pal
nprocs 16
end

* xyz 0 1
S 	 -6.46185 	 44.328 	 40.9914 	 
C 	 -5.36396 	 43.1169 	 40.3187 	 
C 	 -5.88703 	 41.8566 	 40.6749 	 
C 	 -7.03368 	 41.8725 	 41.5137 	 
C 	 -7.54185 	 43.1451 	 41.7578 	 
H 	 -7.44372 	 40.9972 	 41.9041 	 
C 	 -5.0499 	 40.6419 	 40.3553 	 
H 	 -4.4848 	 40.8454 	 39.4215 	 
H 	 -5.78949 	 39.8704 	 40.1337 	 
C 	 -4.09866 	 40.0314 	 41.3477 	 
H 	 -4.62131 	 39.5598 	 42.2591 	 
H 	 -3.49155 	 39.3245 	 40.7838 	 
C 	 -3.08304 	 41.1695 	 41.808 	 
H 	 -3.53664 	 41.9305 	 42.4203 	 
H 	 -2.29056 	 40.6085 	 42.3034 	 
H 	 -2.56914 	 41.6498 	 40.9984 	 
S 	 -10.0668 	 43.8265 	 41.2396 	 
C 	 -11.2497 	 43.9768 	 42.4884 	 
C 	 -10.7724 	 43.3845 	 43.6443 	 
C 	 -9.37546 	 43.069 	 43.5349 	 
C 	 -8.80586 	 43.399 	 42.2963 	 
H 	 -11.3765 	 43.268 	 44.5451 	 
C 	 -8.61979 	 42.4214 	 44.7147 	 
H 	 -7.62129 	 42.8353 	 44.7996 	 
H 	 -8.38405 	 41.4299 	 44.3378 	 
C 	 -9.21974 	 42.331 	 46.1529 	 
H 	 -10.2483 	 41.8739 	 46.0793 	 
H 	 -9.29433 	 43.3474 	 46.576 	 
C 	 -8.29947 	 41.4842 	 47.1248 	 
H 	 -7.26174 	 41.7974 	 47.1294 	 
H 	 -8.31149 	 40.4587 	 46.8681 	 
H 	 -8.58052 	 41.5852 	 48.1127 	 
H 	 -4.47413 	 43.1922 	 39.7137 	 
H 	 -12.2917 	 44.2876 	 42.3064 	 
*
