! wB97X-D3 SP def2-SVP
%pal
nprocs 16
end

* xyz 0 1
S 	 -1.73867 	 -25.2196 	 60.9927 	 
C 	 -2.88268 	 -24.5322 	 59.9169 	 
C 	 -2.82643 	 -23.1736 	 59.8162 	 
C 	 -1.64866 	 -22.6663 	 60.3969 	 
C 	 -0.88037 	 -23.626 	 61.0476 	 
H 	 -1.30791 	 -21.6472 	 60.2441 	 
C 	 -3.65975 	 -22.2999 	 58.8687 	 
H 	 -4.14454 	 -22.832 	 58.0844 	 
H 	 -2.91008 	 -21.5418 	 58.4416 	 
C 	 -4.65782 	 -21.5142 	 59.669 	 
H 	 -5.27442 	 -20.9349 	 58.979 	 
H 	 -5.26084 	 -22.2941 	 60.0764 	 
C 	 -4.1481 	 -20.6617 	 60.7975 	 
H 	 -3.38438 	 -19.9609 	 60.6024 	 
H 	 -4.9874 	 -19.9495 	 61.091 	 
H 	 -3.91062 	 -21.1558 	 61.7782 	 
S 	 0.605288 	 -24.2711 	 63.1941 	 
C 	 2.2063 	 -23.6857 	 63.3581 	 
C 	 2.6174 	 -22.9359 	 62.2521 	 
C 	 1.63261 	 -22.8982 	 61.2136 	 
C 	 0.473247 	 -23.5434 	 61.6253 	 
H 	 3.55354 	 -22.3666 	 62.2281 	 
C 	 1.84487 	 -21.9517 	 60.0033 	 
H 	 0.951588 	 -21.9571 	 59.4113 	 
H 	 2.58306 	 -22.4052 	 59.3161 	 
C 	 2.12092 	 -20.5283 	 60.3634 	 
H 	 2.08486 	 -19.9996 	 59.4242 	 
H 	 3.09863 	 -20.3731 	 60.7888 	 
C 	 1.02173 	 -19.8765 	 61.2267 	 
H 	 0.890632 	 -20.33 	 62.182 	 
H 	 0.106826 	 -19.9848 	 60.6054 	 
H 	 1.15975 	 -18.7891 	 61.3 	 
H 	 -3.72235 	 -25.0915 	 59.5658 	 
H 	 2.70789 	 -23.7071 	 64.3426 	 
*
