! wB97X-D3 SP def2-SVP
%pal
nprocs 16
end

* xyz 0 1
S 	 9.42134 	 20.6168 	 38.8662 	 
C 	 10.0941 	 19.0886 	 39.2293 	 
C 	 10.1129 	 18.7472 	 40.5703 	 
C 	 9.74003 	 19.8558 	 41.3795 	 
C 	 9.35441 	 20.9727 	 40.634 	 
H 	 9.64144 	 19.8692 	 42.4656 	 
C 	 10.51 	 17.4121 	 41.2292 	 
H 	 11.1647 	 16.9751 	 40.4527 	 
H 	 9.62362 	 16.7704 	 41.2804 	 
C 	 11.2853 	 17.3157 	 42.6105 	 
H 	 10.9161 	 17.8184 	 43.4932 	 
H 	 11.328 	 16.2783 	 42.8475 	 
C 	 12.712 	 17.8395 	 42.4651 	 
H 	 12.6422 	 18.8111 	 42.1084 	 
H 	 13.3626 	 17.884 	 43.3607 	 
H 	 13.328 	 17.445 	 41.6922 	 
S 	 7.27704 	 22.6785 	 40.4601 	 
C 	 7.27371 	 24.2116 	 41.2587 	 
C 	 8.32599 	 24.2046 	 42.1348 	 
C 	 9.20369 	 23.1206 	 42.0714 	 
C 	 8.77952 	 22.1877 	 41.1286 	 
H 	 8.39116 	 25.079 	 42.7658 	 
C 	 10.5062 	 23.0368 	 42.8631 	 
H 	 10.471 	 22.33 	 43.7071 	 
H 	 10.7836 	 24.0701 	 43.2405 	 
C 	 11.7868 	 22.9041 	 41.9874 	 
H 	 11.7534 	 23.6429 	 41.1753 	 
H 	 11.8558 	 21.9342 	 41.5392 	 
C 	 13.0929 	 22.9965 	 42.8363 	 
H 	 13.0405 	 23.8837 	 43.4001 	 
H 	 13.989 	 23.0341 	 42.1716 	 
H 	 13.1234 	 22.2296 	 43.6578 	 
H 	 10.4968 	 18.4069 	 38.5083 	 
H 	 6.6697 	 25.0884 	 41.0733 	 
*
