! wB97X-D3 SP def2-SVP
%pal
nprocs 16
end

* xyz 0 1
S 	 -55.0454 	 38.9659 	 112.819 	 
C 	 -53.5731 	 39.7677 	 112.309 	 
C 	 -53.878 	 40.889 	 111.551 	 
C 	 -55.3006 	 41.0551 	 111.402 	 
C 	 -56.0637 	 40.2166 	 112.173 	 
H 	 -55.8191 	 41.857 	 110.892 	 
C 	 -52.815 	 41.6539 	 110.706 	 
H 	 -52.9231 	 41.2183 	 109.708 	 
H 	 -51.8699 	 41.4505 	 111.051 	 
C 	 -53.1553 	 43.1688 	 110.727 	 
H 	 -52.3133 	 43.7186 	 110.249 	 
H 	 -54.0759 	 43.3122 	 110.145 	 
C 	 -53.2584 	 43.8105 	 112.043 	 
H 	 -54.0472 	 43.3707 	 112.68 	 
H 	 -52.3329 	 43.8327 	 112.573 	 
H 	 -53.7158 	 44.8406 	 112.021 	 
S 	 -58.0076 	 38.4712 	 111.952 	 
C 	 -59.5926 	 39.0296 	 112.544 	 
C 	 -59.7134 	 40.3767 	 112.415 	 
C 	 -58.4931 	 41.0727 	 112.159 	 
C 	 -57.5052 	 40.1318 	 112.134 	 
H 	 -60.5881 	 40.8827 	 112.739 	 
C 	 -58.3688 	 42.6162 	 112.33 	 
H 	 -57.44 	 42.9128 	 111.9 	 
H 	 -58.294 	 42.8688 	 113.375 	 
C 	 -59.4944 	 43.4333 	 111.648 	 
H 	 -60.3878 	 43.2515 	 112.288 	 
H 	 -59.7301 	 43.1916 	 110.598 	 
C 	 -59.1667 	 44.9504 	 111.687 	 
H 	 -58.2835 	 45.1387 	 110.972 	 
H 	 -58.8006 	 45.2215 	 112.692 	 
H 	 -60.0414 	 45.5703 	 111.473 	 
H 	 -52.5421 	 39.4399 	 112.402 	 
H 	 -60.488 	 38.4537 	 112.652 	 
*
