! wB97X-D3 SP def2-SVP
%pal
nprocs 16
end

* xyz 0 1
S 	 -51.7487 	 40.4332 	 110.239 	 
C 	 -50.3634 	 39.697 	 109.428 	 
C 	 -50.5941 	 38.4356 	 108.93 	 
C 	 -51.9282 	 38.0855 	 109.289 	 
C 	 -52.6904 	 39.0469 	 109.972 	 
H 	 -52.3192 	 37.1214 	 109.004 	 
C 	 -49.74 	 37.7223 	 107.903 	 
H 	 -49.3681 	 36.8353 	 108.358 	 
H 	 -48.9164 	 38.4982 	 107.639 	 
C 	 -50.4716 	 37.4898 	 106.541 	 
H 	 -51.3458 	 36.778 	 106.725 	 
H 	 -50.9492 	 38.3695 	 106.148 	 
C 	 -49.6896 	 36.837 	 105.481 	 
H 	 -48.7962 	 37.462 	 105.279 	 
H 	 -49.3649 	 35.8467 	 105.718 	 
H 	 -50.2125 	 36.8303 	 104.577 	 
S 	 -54.3974 	 38.4263 	 112.047 	 
C 	 -56.173 	 38.7214 	 111.762 	 
C 	 -56.3615 	 39.0131 	 110.482 	 
C 	 -55.2044 	 39.1365 	 109.674 	 
C 	 -54.0564 	 38.9492 	 110.407 	 
H 	 -57.3083 	 39.1295 	 110.151 	 
C 	 -55.3817 	 39.389 	 108.199 	 
H 	 -54.6212 	 40.0296 	 107.823 	 
H 	 -56.2951 	 39.9558 	 108.158 	 
C 	 -55.4587 	 38.0915 	 107.357 	 
H 	 -56.1754 	 37.3698 	 107.86 	 
H 	 -54.5316 	 37.6083 	 107.245 	 
C 	 -56.0931 	 38.4617 	 106.049 	 
H 	 -56.3493 	 37.5295 	 105.496 	 
H 	 -55.339 	 39.1114 	 105.533 	 
H 	 -57.0564 	 39.0262 	 106.206 	 
H 	 -49.3576 	 40.0953 	 109.397 	 
H 	 -56.951 	 38.6286 	 112.476 	 
*
