! wB97X-D3 SP def2-SVP
%pal
nprocs 16
end

* xyz 0 1
S 	 17.4165 	 10.7605 	 88.8977 	 
C 	 17.6613 	 10.4869 	 87.1356 	 
C 	 16.761 	 11.257 	 86.3584 	 
C 	 16.064 	 12.1348 	 87.2177 	 
C 	 16.2277 	 11.9654 	 88.5975 	 
H 	 15.2906 	 12.8662 	 86.8468 	 
C 	 16.5476 	 11.1572 	 84.8295 	 
H 	 15.9911 	 12.052 	 84.4283 	 
H 	 15.9638 	 10.3424 	 84.6058 	 
C 	 17.8049 	 10.9895 	 84.0495 	 
H 	 18.5547 	 10.2487 	 84.383 	 
H 	 17.5072 	 10.7015 	 83.0643 	 
C 	 18.6053 	 12.2953 	 84.149 	 
H 	 19.5831 	 12.1407 	 83.6642 	 
H 	 18.0807 	 13.1055 	 83.647 	 
H 	 18.8384 	 12.6307 	 85.1462 	 
S 	 15.431 	 14.2774 	 89.8125 	 
C 	 14.4755 	 14.1572 	 91.2948 	 
C 	 14.4348 	 12.8861 	 91.7769 	 
C 	 14.9521 	 11.9614 	 90.849 	 
C 	 15.5148 	 12.5638 	 89.7253 	 
H 	 13.9962 	 12.6843 	 92.7268 	 
C 	 14.9754 	 10.3984 	 91.1699 	 
H 	 15.701 	 10.1822 	 91.9302 	 
H 	 15.3931 	 9.90326 	 90.2906 	 
C 	 13.6264 	 9.83078 	 91.5122 	 
H 	 13.3511 	 10.3571 	 92.4181 	 
H 	 13.6971 	 8.7415 	 91.6493 	 
C 	 12.7164 	 10.075 	 90.2699 	 
H 	 11.6816 	 9.69754 	 90.4477 	 
H 	 13.1124 	 9.56304 	 89.3851 	 
H 	 12.5485 	 11.0889 	 90.0286 	 
H 	 18.4281 	 9.81635 	 86.7542 	 
H 	 14.3218 	 15.0569 	 91.905 	 
*
