! wB97X-D3 SP def2-SVP
%pal
nprocs 16
end

* xyz 0 1
S 	 -5.08612 	 -7.84035 	 82.8252 	 
C 	 -5.90578 	 -8.96924 	 81.7656 	 
C 	 -6.77279 	 -8.33361 	 80.9071 	 
C 	 -6.70647 	 -6.89614 	 81.2435 	 
C 	 -5.83418 	 -6.43693 	 82.2086 	 
H 	 -7.18711 	 -6.05235 	 80.6955 	 
C 	 -7.6482 	 -8.9496 	 79.855 	 
H 	 -8.32975 	 -8.23842 	 79.4145 	 
H 	 -8.22117 	 -9.64559 	 80.5162 	 
C 	 -6.9529 	 -9.73362 	 78.7043 	 
H 	 -6.48195 	 -8.92686 	 78.0406 	 
H 	 -6.06129 	 -10.2146 	 79.125 	 
C 	 -7.82444 	 -10.7006 	 77.9464 	 
H 	 -8.26144 	 -11.5354 	 78.5702 	 
H 	 -8.63862 	 -10.1941 	 77.4749 	 
H 	 -7.16891 	 -11.1134 	 77.152 	 
S 	 -5.66713 	 -4.86719 	 84.4054 	 
C 	 -5.52029 	 -3.14185 	 84.2242 	 
C 	 -5.6097 	 -2.72422 	 82.8889 	 
C 	 -5.44977 	 -3.8502 	 81.9867 	 
C 	 -5.64235 	 -5.03269 	 82.663 	 
H 	 -5.5491 	 -1.67981 	 82.6667 	 
C 	 -5.39747 	 -3.6756 	 80.5212 	 
H 	 -6.08325 	 -2.88362 	 80.27 	 
H 	 -5.80336 	 -4.60484 	 80.217 	 
C 	 -4.01613 	 -3.55092 	 79.8792 	 
H 	 -3.53048 	 -4.4136 	 80.2427 	 
H 	 -3.51903 	 -2.6519 	 80.3101 	 
C 	 -4.07646 	 -3.23334 	 78.3544 	 
H 	 -4.84459 	 -3.86083 	 77.7819 	 
H 	 -3.17668 	 -3.42545 	 77.7727 	 
H 	 -4.21092 	 -2.19538 	 77.9772 	 
H 	 -5.72095 	 -10.0673 	 81.7057 	 
H 	 -5.67625 	 -2.4985 	 85.0387 	 
*
