! wB97X-D3 SP def2-SVP
%pal
nprocs 16
end

* xyz 0 1
S 	 -35.9668 	 26.8301 	 85.5509 	 
C 	 -37.1204 	 25.6741 	 84.8215 	 
C 	 -36.5232 	 24.5851 	 84.2982 	 
C 	 -35.1208 	 24.5308 	 84.6004 	 
C 	 -34.6167 	 25.7419 	 85.1408 	 
H 	 -34.5605 	 23.6995 	 84.1957 	 
C 	 -37.1419 	 23.5791 	 83.3643 	 
H 	 -36.4778 	 23.4662 	 82.4475 	 
H 	 -37.9703 	 24.1312 	 82.9778 	 
C 	 -37.5475 	 22.2365 	 84.0345 	 
H 	 -38.0846 	 21.7602 	 83.2827 	 
H 	 -36.7096 	 21.5271 	 84.1917 	 
C 	 -38.3126 	 22.4616 	 85.4124 	 
H 	 -37.8381 	 23.1751 	 86.0933 	 
H 	 -39.2379 	 22.9189 	 85.1205 	 
H 	 -38.5463 	 21.5825 	 86.0601 	 
S 	 -32.477 	 25.1295 	 86.813 	 
C 	 -31.0009 	 26.0279 	 86.6896 	 
C 	 -31.1455 	 27.1021 	 85.7622 	 
C 	 -32.4027 	 27.0867 	 85.0758 	 
C 	 -33.2781 	 26.1043 	 85.529 	 
H 	 -30.3192 	 27.8624 	 85.6805 	 
C 	 -32.6377 	 28.1588 	 84.0228 	 
H 	 -31.7279 	 28.8006 	 83.8547 	 
H 	 -33.3756 	 28.7471 	 84.4405 	 
C 	 -33.2205 	 27.7331 	 82.699 	 
H 	 -33.575 	 26.6991 	 82.8542 	 
H 	 -32.4709 	 27.671 	 81.8518 	 
C 	 -34.5486 	 28.469 	 82.2847 	 
H 	 -35.0433 	 27.8391 	 81.5425 	 
H 	 -34.4836 	 29.5363 	 82.1689 	 
H 	 -35.4312 	 28.3908 	 83.0979 	 
H 	 -38.1311 	 25.9919 	 84.6147 	 
H 	 -30.1253 	 25.8313 	 87.2878 	 
*
