! wB97X-D3 SP def2-SVP
%pal
nprocs 16
end

* xyz 0 1
S 	 1.19209 	 16.0033 	 51.4591 	 
C 	 2.14161 	 16.237 	 49.9466 	 
C 	 2.04151 	 17.5533 	 49.5218 	 
C 	 1.38708 	 18.3641 	 50.4748 	 
C 	 0.915883 	 17.7246 	 51.6024 	 
H 	 1.3034 	 19.4241 	 50.5575 	 
C 	 2.56352 	 18.059 	 48.2276 	 
H 	 1.85417 	 18.8 	 47.6901 	 
H 	 2.40605 	 17.1531 	 47.6467 	 
C 	 4.12924 	 18.5286 	 48.0976 	 
H 	 4.27388 	 19.552 	 48.3242 	 
H 	 4.7318 	 17.9184 	 48.7748 	 
C 	 4.53645 	 18.2664 	 46.6471 	 
H 	 3.96555 	 18.7085 	 45.8136 	 
H 	 5.5975 	 18.6053 	 46.5692 	 
H 	 4.53098 	 17.2546 	 46.4091 	 
S 	 -1.0953 	 17.4021 	 53.5102 	 
C 	 -1.42125 	 18.7001 	 54.68 	 
C 	 -0.84591 	 19.8918 	 54.2698 	 
C 	 0.0939743 	 19.6821 	 53.1795 	 
C 	 0.168076 	 18.3651 	 52.7308 	 
H 	 -1.12979 	 20.7394 	 54.9125 	 
C 	 0.939781 	 20.8161 	 52.7284 	 
H 	 0.532752 	 21.3368 	 51.7976 	 
H 	 1.86 	 20.4076 	 52.3674 	 
C 	 1.56925 	 21.8322 	 53.7646 	 
H 	 0.643585 	 22.4038 	 54.1899 	 
H 	 2.16537 	 22.6251 	 53.2636 	 
C 	 2.51723 	 21.4241 	 54.9023 	 
H 	 2.90155 	 22.2604 	 55.4771 	 
H 	 3.335 	 20.8618 	 54.505 	 
H 	 1.96259 	 20.7734 	 55.4641 	 
H 	 2.49157 	 15.4159 	 49.3079 	 
H 	 -2.24497 	 18.6617 	 55.3788 	 
*
