! wB97X-D3 SP def2-SVP
%pal
nprocs 16
end

* xyz 0 1
S 	 -75.3437 	 53.4057 	 123.462 	 
C 	 -74.7146 	 55.0681 	 123.759 	 
C 	 -74.0822 	 55.5232 	 122.619 	 
C 	 -74.2479 	 54.6454 	 121.482 	 
C 	 -75.0978 	 53.5397 	 121.765 	 
H 	 -73.7945 	 54.8379 	 120.513 	 
C 	 -73.3027 	 56.7523 	 122.614 	 
H 	 -73.4198 	 57.3094 	 123.557 	 
H 	 -73.7248 	 57.3312 	 121.75 	 
C 	 -71.8219 	 56.5523 	 122.175 	 
H 	 -71.3646 	 55.8939 	 122.866 	 
H 	 -71.7588 	 56.1652 	 121.205 	 
C 	 -70.9366 	 57.831 	 122.184 	 
H 	 -69.8973 	 57.5856 	 122.123 	 
H 	 -71.2615 	 58.5871 	 121.448 	 
H 	 -70.9749 	 58.2737 	 123.17 	 
S 	 -74.1037 	 52.1032 	 119.633 	 
C 	 -75.1895 	 50.9582 	 118.869 	 
C 	 -76.404 	 50.8894 	 119.438 	 
C 	 -76.5668 	 51.7735 	 120.552 	 
C 	 -75.399 	 52.4781 	 120.827 	 
H 	 -77.0917 	 50.1505 	 118.986 	 
C 	 -77.855 	 51.8677 	 121.264 	 
H 	 -77.9725 	 52.8885 	 121.532 	 
H 	 -77.7627 	 51.3324 	 122.193 	 
C 	 -79.1817 	 51.6246 	 120.487 	 
H 	 -79.2527 	 50.7513 	 119.845 	 
H 	 -79.3171 	 52.4197 	 119.718 	 
C 	 -80.3937 	 51.5063 	 121.427 	 
H 	 -80.4427 	 52.4616 	 121.884 	 
H 	 -80.2226 	 50.8436 	 122.297 	 
H 	 -81.295 	 51.139 	 120.851 	 
H 	 -74.6238 	 55.4837 	 124.73 	 
H 	 -74.9923 	 50.6268 	 117.911 	 
*
