! wB97X-D3 SP def2-SVP
%pal
nprocs 16
end

* xyz 0 1
S 	 44.0397 	 20.1498 	 86.3941 	 
C 	 44.7948 	 21.6525 	 86.9301 	 
C 	 44.3141 	 22.0066 	 88.1449 	 
C 	 43.3722 	 21.1361 	 88.7122 	 
C 	 43.0916 	 20.0222 	 87.8961 	 
H 	 42.9665 	 21.2795 	 89.6613 	 
C 	 44.6753 	 23.3951 	 88.7958 	 
H 	 45.572 	 23.8791 	 88.2985 	 
H 	 45.1195 	 23.0964 	 89.7704 	 
C 	 43.5099 	 24.3424 	 88.9221 	 
H 	 43.0239 	 24.5953 	 88.0094 	 
H 	 42.6168 	 23.9298 	 89.4586 	 
C 	 43.8253 	 25.7334 	 89.5451 	 
H 	 44.6107 	 26.2434 	 88.9992 	 
H 	 42.9633 	 26.3992 	 89.4251 	 
H 	 44 	 25.4943 	 90.6009 	 
S 	 41.6593 	 18.1243 	 86.5007 	 
C 	 40.5156 	 17.1216 	 87.4027 	 
C 	 40.3367 	 17.5295 	 88.7233 	 
C 	 41.305 	 18.5027 	 89.1178 	 
C 	 42.1055 	 18.9545 	 88.048 	 
H 	 39.641 	 17.0268 	 89.3407 	 
C 	 41.2675 	 19.1099 	 90.5587 	 
H 	 40.317 	 18.9414 	 91.0639 	 
H 	 41.369 	 20.2007 	 90.5384 	 
C 	 42.4452 	 18.5946 	 91.3664 	 
H 	 43.4224 	 18.7924 	 90.9209 	 
H 	 42.4048 	 17.5398 	 91.3931 	 
C 	 42.2718 	 19.2249 	 92.7184 	 
H 	 42.555 	 20.2828 	 92.6329 	 
H 	 42.9363 	 18.7867 	 93.39 	 
H 	 41.3025 	 19.222 	 93.2366 	 
H 	 45.557 	 22.2408 	 86.4065 	 
H 	 39.9544 	 16.3012 	 87.0068 	 
*
