! wB97X-D3 SP def2-SVP
%pal
nprocs 16
end

* xyz 0 1
S 	 -3.88429 	 77.8571 	 54.2565 	 
C 	 -2.98803 	 78.9498 	 55.2041 	 
C 	 -1.84146 	 78.3363 	 55.7105 	 
C 	 -1.71573 	 76.9531 	 55.2928 	 
C 	 -2.74322 	 76.5717 	 54.4529 	 
H 	 -0.919218 	 76.2213 	 55.3247 	 
C 	 -0.74868 	 78.8632 	 56.5623 	 
H 	 -0.351661 	 77.9873 	 57.1198 	 
H 	 -1.29224 	 79.6262 	 57.1726 	 
C 	 0.389453 	 79.5719 	 55.8914 	 
H 	 1.11973 	 79.791 	 56.5892 	 
H 	 0.856464 	 78.9716 	 55.1399 	 
C 	 0.0226211 	 80.9158 	 55.2333 	 
H 	 -0.437391 	 81.7088 	 55.9275 	 
H 	 0.9641 	 81.3419 	 54.8163 	 
H 	 -0.670299 	 80.828 	 54.4145 	 
S 	 -2.94643 	 73.7961 	 54.8871 	 
C 	 -3.07948 	 72.6462 	 53.5409 	 
C 	 -3.03906 	 73.3452 	 52.3689 	 
C 	 -3.01912 	 74.7408 	 52.5057 	 
C 	 -2.81774 	 75.2305 	 53.8383 	 
H 	 -2.99911 	 72.8357 	 51.4544 	 
C 	 -3.09587 	 75.622 	 51.3501 	 
H 	 -3.18577 	 76.7485 	 51.4904 	 
H 	 -4.10532 	 75.4509 	 50.8738 	 
C 	 -2.04418 	 75.327 	 50.3104 	 
H 	 -2.29503 	 76.0766 	 49.503 	 
H 	 -2.15631 	 74.3376 	 49.9059 	 
C 	 -0.601119 	 75.4211 	 50.8603 	 
H 	 -0.48889 	 74.8899 	 51.8417 	 
H 	 -0.350755 	 76.41 	 51.2544 	 
H 	 0.165409 	 75.1976 	 50.0918 	 
H 	 -3.28413 	 79.9216 	 55.4781 	 
H 	 -3.04577 	 71.577 	 53.6783 	 
*
