! wB97X-D3 SP def2-SVP
%pal
nprocs 16
end

* xyz 0 1
S 	 -73.3834 	 52.4723 	 138.066 	 
C 	 -72.7716 	 52.3475 	 139.614 	 
C 	 -73.6431 	 51.7202 	 140.475 	 
C 	 -74.6968 	 51.0369 	 139.769 	 
C 	 -74.7169 	 51.381 	 138.406 	 
H 	 -75.4388 	 50.428 	 140.194 	 
C 	 -73.4734 	 51.7194 	 142.017 	 
H 	 -73.0387 	 52.7182 	 142.321 	 
H 	 -72.7075 	 51.0101 	 142.242 	 
C 	 -74.7005 	 51.3991 	 142.845 	 
H 	 -75.5586 	 51.9867 	 142.508 	 
H 	 -74.9201 	 50.3913 	 142.525 	 
C 	 -74.3229 	 51.457 	 144.329 	 
H 	 -74.2529 	 52.4841 	 144.587 	 
H 	 -75.0606 	 50.9646 	 144.977 	 
H 	 -73.3492 	 50.9726 	 144.677 	 
S 	 -76.9343 	 52.1024 	 136.871 	 
C 	 -77.8217 	 50.895 	 135.935 	 
C 	 -77.1652 	 49.674 	 135.97 	 
C 	 -75.9299 	 49.7834 	 136.728 	 
C 	 -75.7468 	 50.9881 	 137.408 	 
H 	 -77.5049 	 48.7641 	 135.565 	 
C 	 -75.047 	 48.5371 	 136.975 	 
H 	 -74.1046 	 48.7823 	 137.52 	 
H 	 -74.7588 	 48.0212 	 136.094 	 
C 	 -75.7845 	 47.5862 	 137.922 	 
H 	 -76.728 	 47.3795 	 137.488 	 
H 	 -76.0309 	 48.0794 	 138.841 	 
C 	 -75.1611 	 46.2096 	 138.295 	 
H 	 -75.8554 	 45.6401 	 139.031 	 
H 	 -74.1969 	 46.504 	 138.781 	 
H 	 -74.8974 	 45.7123 	 137.375 	 
H 	 -71.8758 	 52.7869 	 140.028 	 
H 	 -78.7856 	 51.0122 	 135.461 	 
*
