! wB97X-D3 SP def2-SVP
%pal
nprocs 16
end

* xyz 0 1
S 	 -40.6787 	 56.4647 	 109.499 	 
C 	 -42.3102 	 56.8693 	 109.541 	 
C 	 -42.9304 	 56.6493 	 108.301 	 
C 	 -42.0699 	 55.8769 	 107.481 	 
C 	 -40.8587 	 55.6826 	 107.924 	 
H 	 -42.3243 	 55.4292 	 106.456 	 
C 	 -44.3271 	 57.1155 	 107.871 	 
H 	 -44.8107 	 57.609 	 108.704 	 
H 	 -44.9432 	 56.2721 	 107.527 	 
C 	 -44.259 	 58.1974 	 106.749 	 
H 	 -43.7875 	 59.179 	 107.094 	 
H 	 -43.6384 	 58.055 	 105.888 	 
C 	 -45.7182 	 58.4821 	 106.256 	 
H 	 -46.1415 	 57.5265 	 105.827 	 
H 	 -46.2627 	 58.7592 	 107.16 	 
H 	 -45.7471 	 59.2878 	 105.535 	 
S 	 -38.426 	 56.2299 	 107.107 	 
C 	 -37.4086 	 54.9814 	 106.342 	 
C 	 -38.1025 	 53.8331 	 106.122 	 
C 	 -39.4445 	 53.9218 	 106.647 	 
C 	 -39.6908 	 55.0994 	 107.307 	 
H 	 -37.6262 	 52.9474 	 105.722 	 
C 	 -40.4851 	 52.8289 	 106.603 	 
H 	 -40.7732 	 52.7899 	 105.518 	 
H 	 -41.483 	 53.1859 	 107.014 	 
C 	 -40.1308 	 51.5224 	 107.234 	 
H 	 -40.1159 	 51.6701 	 108.308 	 
H 	 -39.1268 	 51.2805 	 106.91 	 
C 	 -41.0217 	 50.4019 	 106.788 	 
H 	 -42.0518 	 50.4929 	 107.152 	 
H 	 -40.6928 	 49.3817 	 107.124 	 
H 	 -41.1663 	 50.3932 	 105.625 	 
H 	 -42.6761 	 57.5334 	 110.345 	 
H 	 -36.3639 	 55.2027 	 106.171 	 
*
