! wB97X-D3 SP def2-SVP
%pal
nprocs 16
end

* xyz 0 1
S 	 54.1894 	 15.2305 	 77.2859 	 
C 	 55.7601 	 15.9751 	 77.4073 	 
C 	 56.6698 	 15.1119 	 77.9733 	 
C 	 56.0568 	 13.9519 	 78.5051 	 
C 	 54.6851 	 13.7899 	 78.1998 	 
H 	 56.5675 	 13.2679 	 79.1782 	 
C 	 58.165 	 15.302 	 77.8964 	 
H 	 58.3868 	 16.1835 	 77.2933 	 
H 	 58.5055 	 14.5397 	 77.2444 	 
C 	 59.0776 	 15.165 	 79.1743 	 
H 	 58.883 	 14.2111 	 79.7002 	 
H 	 60.118 	 15.018 	 79.0017 	 
C 	 58.8922 	 16.316 	 80.0725 	 
H 	 59.1388 	 17.246 	 79.4834 	 
H 	 57.8812 	 16.3134 	 80.3316 	 
H 	 59.4809 	 16.3072 	 80.9376 	 
S 	 52.2111 	 13.6284 	 79.4027 	 
C 	 51.585 	 11.9427 	 79.7123 	 
C 	 52.4217 	 10.9915 	 79.1811 	 
C 	 53.578 	 11.5041 	 78.5773 	 
C 	 53.6911 	 12.8553 	 78.6734 	 
H 	 52.1411 	 10.0053 	 79.3921 	 
C 	 54.6738 	 10.6574 	 77.8203 	 
H 	 54.2254 	 9.6799 	 77.8885 	 
H 	 55.4735 	 10.6669 	 78.5021 	 
C 	 55.0827 	 11.0363 	 76.3799 	 
H 	 55.7377 	 11.8876 	 76.4306 	 
H 	 54.252 	 11.3333 	 75.8193 	 
C 	 55.8444 	 9.88672 	 75.7736 	 
H 	 55.5381 	 9.73145 	 74.6826 	 
H 	 55.6624 	 8.87734 	 76.1425 	 
H 	 56.9045 	 10.0612 	 75.8812 	 
H 	 55.8979 	 16.9397 	 77.0103 	 
H 	 50.6412 	 11.7376 	 80.1191 	 
*
