! wB97X-D3 SP def2-SVP
%pal
nprocs 16
end

* xyz 0 1
S 	 10.3042 	 -9.46651 	 71.9731 	 
C 	 8.64855 	 -8.85025 	 71.9715 	 
C 	 8.13502 	 -8.66132 	 70.7007 	 
C 	 9.18327 	 -8.67639 	 69.7116 	 
C 	 10.4151 	 -9.25015 	 70.1977 	 
H 	 9.05212 	 -8.37057 	 68.6818 	 
C 	 6.68931 	 -8.19297 	 70.3827 	 
H 	 6.24372 	 -7.97678 	 71.3474 	 
H 	 6.16583 	 -9.0715 	 69.9575 	 
C 	 6.49168 	 -6.98031 	 69.4468 	 
H 	 7.09902 	 -6.1869 	 69.8567 	 
H 	 6.90882 	 -7.16685 	 68.4356 	 
C 	 5.11277 	 -6.35611 	 69.2039 	 
H 	 4.56057 	 -6.35962 	 70.144 	 
H 	 5.29008 	 -5.3588 	 68.9548 	 
H 	 4.50902 	 -6.80632 	 68.3389 	 
S 	 12.3441 	 -11.2092 	 69.7941 	 
C 	 13.5699 	 -10.9411 	 68.6174 	 
C 	 13.3692 	 -9.77745 	 67.8958 	 
C 	 12.383 	 -8.90219 	 68.5215 	 
C 	 11.6735 	 -9.57858 	 69.4784 	 
H 	 13.9487 	 -9.58024 	 66.9607 	 
C 	 12.1154 	 -7.49306 	 68.0455 	 
H 	 11.1037 	 -7.46097 	 67.5286 	 
H 	 12.8139 	 -7.24437 	 67.2845 	 
C 	 12.0294 	 -6.41341 	 69.1223 	 
H 	 12.9408 	 -6.52799 	 69.7417 	 
H 	 11.1582 	 -6.54759 	 69.7283 	 
C 	 11.8695 	 -5.01893 	 68.5142 	 
H 	 11.8315 	 -4.23092 	 69.2752 	 
H 	 10.9732 	 -5.12664 	 67.9464 	 
H 	 12.683 	 -4.85128 	 67.7134 	 
H 	 8.06123 	 -8.69649 	 72.9214 	 
H 	 14.1836 	 -11.6698 	 68.1644 	 
*
