! wB97X-D3 SP def2-SVP
%pal
nprocs 16
end

* xyz 0 1
S 	 41.2898 	 15.4906 	 83.9031 	 
C 	 42.1787 	 16.7916 	 84.6901 	 
C 	 43.4374 	 16.4188 	 85.2038 	 
C 	 43.6298 	 14.9878 	 85.0208 	 
C 	 42.6319 	 14.3966 	 84.2479 	 
H 	 44.4853 	 14.4068 	 85.4305 	 
C 	 44.3546 	 17.3349 	 86.0187 	 
H 	 44.0118 	 17.1929 	 87.0375 	 
H 	 44.058 	 18.3411 	 85.6691 	 
C 	 45.8296 	 17.1461 	 85.8659 	 
H 	 46.3338 	 17.9407 	 86.1975 	 
H 	 46.0485 	 16.262 	 86.4453 	 
C 	 46.3068 	 16.9194 	 84.3898 	 
H 	 46.2581 	 15.8421 	 84.2122 	 
H 	 45.6891 	 17.437 	 83.6358 	 
H 	 47.3821 	 17.1948 	 84.2846 	 
S 	 43.3129 	 12.6525 	 82.2615 	 
C 	 43.0495 	 10.9808 	 82.4373 	 
C 	 42.6465 	 10.6611 	 83.746 	 
C 	 42.3866 	 11.7929 	 84.5758 	 
C 	 42.5733 	 12.9847 	 83.8783 	 
H 	 42.5867 	 9.61243 	 83.9734 	 
C 	 41.9914 	 11.7404 	 86.0234 	 
H 	 41.2525 	 10.9482 	 86.058 	 
H 	 41.4528 	 12.6551 	 86.2578 	 
C 	 43.1168 	 11.4078 	 86.9736 	 
H 	 43.7165 	 12.2856 	 86.8851 	 
H 	 43.7765 	 10.6477 	 86.6464 	 
C 	 42.6008 	 10.9449 	 88.3779 	 
H 	 43.4553 	 10.7746 	 89.0675 	 
H 	 42.0296 	 10.0002 	 88.4039 	 
H 	 41.954 	 11.7917 	 88.8255 	 
H 	 41.7924 	 17.8127 	 84.8163 	 
H 	 43.1757 	 10.2952 	 81.5809 	 
*
