! wB97X-D3 SP def2-SVP
%pal
nprocs 16
end

* xyz 0 1
S 	 -39.1192 	 0.368217 	 97.7738 	 
C 	 -37.5026 	 1.16949 	 97.5884 	 
C 	 -37.5069 	 2.07259 	 96.5423 	 
C 	 -38.8169 	 2.23911 	 95.9191 	 
C 	 -39.6854 	 1.27592 	 96.3587 	 
H 	 -38.8869 	 2.77957 	 95.0178 	 
C 	 -36.3244 	 2.97545 	 96.2068 	 
H 	 -36.3068 	 2.96577 	 95.1267 	 
H 	 -35.3686 	 2.58633 	 96.5966 	 
C 	 -36.4043 	 4.40973 	 96.6748 	 
H 	 -37.4769 	 4.71133 	 96.7048 	 
H 	 -36.1566 	 4.39681 	 97.7458 	 
C 	 -35.5536 	 5.39369 	 95.9276 	 
H 	 -35.9735 	 5.6429 	 94.985 	 
H 	 -35.4888 	 6.29754 	 96.5306 	 
H 	 -34.556 	 4.97279 	 95.719 	 
S 	 -42.3197 	 0.751882 	 97.1776 	 
C 	 -43.5049 	 0.381745 	 96.0513 	 
C 	 -43.037 	 0.362744 	 94.795 	 
C 	 -41.6341 	 0.596172 	 94.7002 	 
C 	 -41.0909 	 0.955136 	 95.924 	 
H 	 -43.6988 	 0.22721 	 93.9717 	 
C 	 -40.8914 	 0.643891 	 93.3965 	 
H 	 -40.3938 	 1.55935 	 93.2006 	 
H 	 -41.711 	 0.648248 	 92.7534 	 
C 	 -40.1167 	 -0.659016 	 93.0326 	 
H 	 -40.7517 	 -1.44713 	 92.5277 	 
H 	 -39.7665 	 -1.13013 	 93.973 	 
C 	 -38.9778 	 -0.235607 	 92.1341 	 
H 	 -39.2637 	 0.374104 	 91.1943 	 
H 	 -38.607 	 -1.27331 	 91.9171 	 
H 	 -38.1936 	 0.221321 	 92.6736 	 
H 	 -36.6094 	 0.91292 	 98.1998 	 
H 	 -44.5837 	 0.217352 	 96.2326 	 
*
