! wB97X-D3 SP def2-SVP
%pal
nprocs 16
end

* xyz 0 1
S 	 36.7266 	 11.1355 	 83.4542 	 
C 	 36.5765 	 9.89851 	 82.1925 	 
C 	 37.497 	 8.83205 	 82.47 	 
C 	 38.4179 	 9.15799 	 83.5061 	 
C 	 38.1131 	 10.3333 	 84.1951 	 
H 	 39.1292 	 8.44758 	 83.8856 	 
C 	 37.5359 	 7.57155 	 81.6424 	 
H 	 38.5488 	 7.06048 	 81.8142 	 
H 	 37.5663 	 7.85417 	 80.5589 	 
C 	 36.3307 	 6.63281 	 81.8836 	 
H 	 36.1757 	 6.47763 	 82.9901 	 
H 	 35.4314 	 7.12721 	 81.6071 	 
C 	 36.5715 	 5.25289 	 81.2717 	 
H 	 35.7352 	 4.67366 	 81.5596 	 
H 	 36.623 	 5.32795 	 80.2178 	 
H 	 37.4954 	 4.78569 	 81.6013 	 
S 	 39.4813 	 9.59612 	 86.4978 	 
C 	 39.9794 	 10.7976 	 87.6276 	 
C 	 39.5111 	 12.0504 	 87.2526 	 
C 	 38.8916 	 12.0208 	 85.9431 	 
C 	 38.8324 	 10.8021 	 85.3645 	 
H 	 39.7044 	 12.9264 	 87.9149 	 
C 	 38.4234 	 13.3067 	 85.3486 	 
H 	 38.5088 	 13.114 	 84.2828 	 
H 	 39.1932 	 14.0841 	 85.5711 	 
C 	 37.0458 	 13.9363 	 85.6754 	 
H 	 36.9973 	 14.6002 	 86.5657 	 
H 	 36.207 	 13.2442 	 85.683 	 
C 	 36.6307 	 15.0077 	 84.6719 	 
H 	 37.4086 	 15.7409 	 84.7136 	 
H 	 35.5901 	 15.3461 	 84.8804 	 
H 	 36.7195 	 14.509 	 83.7361 	 
H 	 35.8596 	 9.93852 	 81.3784 	 
H 	 40.5862 	 10.6571 	 88.4847 	 
*
