! wB97X-D3 SP def2-SVP
%pal
nprocs 16
end

* xyz 0 1
S 	 5.39527 	 -10.6801 	 74.0239 	 
C 	 3.91848 	 -9.76751 	 73.7802 	 
C 	 3.90701 	 -9.08446 	 72.5908 	 
C 	 5.16162 	 -9.19973 	 71.8846 	 
C 	 6.08084 	 -9.95561 	 72.5871 	 
H 	 5.42201 	 -8.71759 	 70.9629 	 
C 	 2.75541 	 -8.45099 	 71.9895 	 
H 	 1.89875 	 -8.63653 	 72.7009 	 
H 	 2.53808 	 -8.952 	 71.1059 	 
C 	 2.74167 	 -6.94871 	 71.8026 	 
H 	 3.02146 	 -6.42436 	 72.7133 	 
H 	 3.57113 	 -6.68011 	 71.1161 	 
C 	 1.50518 	 -6.46203 	 71.0642 	 
H 	 1.24844 	 -7.11404 	 70.1676 	 
H 	 0.664804 	 -6.36589 	 71.7259 	 
H 	 1.58614 	 -5.48328 	 70.6162 	 
S 	 8.774 	 -9.50672 	 72.0581 	 
C 	 9.62062 	 -10.707 	 71.0168 	 
C 	 8.91997 	 -11.8773 	 70.9516 	 
C 	 7.57016 	 -11.7522 	 71.4311 	 
C 	 7.28808 	 -10.4885 	 71.9806 	 
H 	 9.38548 	 -12.7775 	 70.5497 	 
C 	 6.683 	 -12.8655 	 71.2044 	 
H 	 6.79206 	 -13.3631 	 70.222 	 
H 	 5.68277 	 -12.4629 	 71.1553 	 
C 	 6.74008 	 -13.8786 	 72.3047 	 
H 	 6.21528 	 -13.5481 	 73.2913 	 
H 	 7.75796 	 -14.0421 	 72.7178 	 
C 	 6.05282 	 -15.156 	 71.8406 	 
H 	 5.00472 	 -14.9872 	 71.8731 	 
H 	 6.28654 	 -16.013 	 72.4886 	 
H 	 6.39922 	 -15.3931 	 70.8015 	 
H 	 2.92536 	 -9.95485 	 74.3036 	 
H 	 10.6303 	 -10.6168 	 70.6162 	 
*
