! wB97X-D3 SP def2-SVP
%pal
nprocs 16
end

* xyz 0 1
S 	 0.788603 	 8.5591 	 80.6724 	 
C 	 0.499626 	 7.32564 	 79.4111 	 
C 	 -0.775092 	 7.43289 	 78.8741 	 
C 	 -1.52287 	 8.49875 	 79.5211 	 
C 	 -0.857359 	 9.14411 	 80.5253 	 
H 	 -2.50978 	 8.7843 	 79.2527 	 
C 	 -1.41757 	 6.44317 	 77.9296 	 
H 	 -2.11799 	 5.78332 	 78.4385 	 
H 	 -0.589816 	 5.79555 	 77.7328 	 
C 	 -2.12899 	 6.89765 	 76.6628 	 
H 	 -3.20798 	 7.09543 	 76.7916 	 
H 	 -1.81546 	 7.96565 	 76.5746 	 
C 	 -1.72358 	 6.03454 	 75.4709 	 
H 	 -0.665623 	 5.67454 	 75.4801 	 
H 	 -2.29383 	 5.01867 	 75.513 	 
H 	 -1.80512 	 6.52118 	 74.4666 	 
S 	 -0.830586 	 11.8258 	 81.2074 	 
C 	 -2.01407 	 12.4275 	 82.2802 	 
C 	 -2.87285 	 11.4383 	 82.6828 	 
C 	 -2.58481 	 10.1423 	 82.1255 	 
C 	 -1.46911 	 10.1568 	 81.3746 	 
H 	 -3.66622 	 11.6681 	 83.4064 	 
C 	 -3.39497 	 8.87735 	 82.4917 	 
H 	 -3.39378 	 8.67424 	 83.5265 	 
H 	 -2.74894 	 8.07217 	 82.1855 	 
C 	 -4.7574 	 8.7888 	 81.6943 	 
H 	 -5.21475 	 7.94656 	 82.266 	 
H 	 -4.67915 	 8.52204 	 80.6513 	 
C 	 -5.76673 	 9.89176 	 81.9665 	 
H 	 -5.93378 	 10.0892 	 83.0102 	 
H 	 -6.77219 	 9.60759 	 81.6079 	 
H 	 -5.46309 	 10.7788 	 81.4637 	 
H 	 1.11123 	 6.43311 	 79.3098 	 
H 	 -2.12346 	 13.4702 	 82.5434 	 
*
