! wB97X-D3 SP def2-SVP
%pal
nprocs 16
end

* xyz 0 1
S 	 -79.6511 	 51.8284 	 136.762 	 
C 	 -80.8843 	 50.5439 	 136.487 	 
C 	 -81.993 	 51.1243 	 135.937 	 
C 	 -81.9059 	 52.5736 	 135.933 	 
C 	 -80.6749 	 53.0604 	 136.194 	 
H 	 -82.7044 	 53.3084 	 135.702 	 
C 	 -83.314 	 50.3444 	 135.611 	 
H 	 -83.0907 	 49.4155 	 135.14 	 
H 	 -83.7833 	 50.9364 	 134.809 	 
C 	 -84.3611 	 50.485 	 136.828 	 
H 	 -84.0063 	 49.7762 	 137.597 	 
H 	 -84.2627 	 51.4813 	 137.29 	 
C 	 -85.8366 	 50.2463 	 136.562 	 
H 	 -86.0984 	 49.1871 	 136.209 	 
H 	 -86.4146 	 50.442 	 137.46 	 
H 	 -86.1759 	 51.0571 	 135.905 	 
S 	 -80.4212 	 55.1138 	 134.443 	 
C 	 -79.7483 	 56.5875 	 134.889 	 
C 	 -79.2198 	 56.5233 	 136.165 	 
C 	 -79.4363 	 55.2584 	 136.811 	 
C 	 -80.1798 	 54.4212 	 136.031 	 
H 	 -78.7903 	 57.3519 	 136.717 	 
C 	 -78.9745 	 55.0944 	 138.284 	 
H 	 -77.9786 	 55.6031 	 138.421 	 
H 	 -78.7809 	 54.0748 	 138.657 	 
C 	 -79.892 	 55.6912 	 139.37 	 
H 	 -80.2239 	 56.6244 	 139.011 	 
H 	 -79.404 	 55.7552 	 140.332 	 
C 	 -81.127 	 54.803 	 139.472 	 
H 	 -81.7217 	 55.1886 	 140.285 	 
H 	 -81.0303 	 53.6989 	 139.787 	 
H 	 -81.731 	 54.7438 	 138.569 	 
H 	 -80.5999 	 49.5149 	 136.47 	 
H 	 -79.6241 	 57.4345 	 134.264 	 
*
