! wB97X-D3 SP def2-SVP
%pal
nprocs 16
end

* xyz 0 1
S 	 -54.9029 	 38.659 	 118.633 	 
C 	 -55.3708 	 37.4099 	 119.661 	 
C 	 -56.0348 	 36.4451 	 118.935 	 
C 	 -56.1452 	 36.7378 	 117.536 	 
C 	 -55.4436 	 37.9059 	 117.121 	 
H 	 -56.63 	 36.099 	 116.83 	 
C 	 -56.605 	 35.0751 	 119.5 	 
H 	 -57.5942 	 34.9536 	 119.016 	 
H 	 -56.8234 	 35.189 	 120.574 	 
C 	 -55.7419 	 33.8806 	 119.289 	 
H 	 -56.2535 	 32.9114 	 119.426 	 
H 	 -55.4992 	 33.8766 	 118.217 	 
C 	 -54.5004 	 33.9 	 120.137 	 
H 	 -53.943 	 32.9325 	 120.218 	 
H 	 -53.7601 	 34.5902 	 119.713 	 
H 	 -54.7533 	 34.1899 	 121.137 	 
S 	 -55.805 	 40.084 	 115.728 	 
C 	 -55.4722 	 40.0729 	 113.999 	 
C 	 -54.885 	 38.9098 	 113.567 	 
C 	 -54.8478 	 37.9372 	 114.609 	 
C 	 -55.3184 	 38.4652 	 115.826 	 
H 	 -54.5107 	 38.8137 	 112.591 	 
C 	 -54.2127 	 36.5322 	 114.351 	 
H 	 -54.0194 	 36.0187 	 115.281 	 
H 	 -53.2612 	 36.6548 	 113.819 	 
C 	 -55.0762 	 35.5449 	 113.491 	 
H 	 -54.4833 	 34.6417 	 113.259 	 
H 	 -55.3204 	 35.9732 	 112.507 	 
C 	 -56.4188 	 35.239 	 114.146 	 
H 	 -56.1291 	 34.7422 	 115.052 	 
H 	 -56.9923 	 34.5501 	 113.535 	 
H 	 -57.0293 	 36.1274 	 114.201 	 
H 	 -55.104 	 37.425 	 120.676 	 
H 	 -55.634 	 40.9415 	 113.377 	 
*
