! wB97X-D3 SP def2-SVP
%pal
nprocs 16
end

* xyz 0 1
S 	 -69.343 	 39.6038 	 122.841 	 
C 	 -69.3727 	 39.9749 	 124.496 	 
C 	 -69.1108 	 38.9251 	 125.328 	 
C 	 -68.7901 	 37.7488 	 124.542 	 
C 	 -68.963 	 37.9222 	 123.154 	 
H 	 -68.5401 	 36.7965 	 124.993 	 
C 	 -69.247 	 38.9307 	 126.865 	 
H 	 -68.5488 	 39.5522 	 127.441 	 
H 	 -68.975 	 37.9068 	 127.177 	 
C 	 -70.6691 	 39.1147 	 127.328 	 
H 	 -70.9061 	 40.1518 	 127.046 	 
H 	 -71.3511 	 38.5042 	 126.776 	 
C 	 -70.9004 	 38.9817 	 128.83 	 
H 	 -70.4062 	 39.8247 	 129.281 	 
H 	 -71.9677 	 39.2032 	 129.119 	 
H 	 -70.5635 	 38.1201 	 129.318 	 
S 	 -67.6271 	 37.3502 	 120.868 	 
C 	 -68.0619 	 35.8967 	 120.013 	 
C 	 -68.9016 	 35.0848 	 120.716 	 
C 	 -69.224 	 35.6111 	 121.982 	 
C 	 -68.8276 	 36.9467 	 122.08 	 
H 	 -69.2113 	 34.1252 	 120.334 	 
C 	 -70.1556 	 34.8903 	 122.876 	 
H 	 -71.1909 	 34.8956 	 122.521 	 
H 	 -70.2566 	 35.4693 	 123.825 	 
C 	 -69.754 	 33.3912 	 123.071 	 
H 	 -69.8519 	 32.829 	 122.159 	 
H 	 -70.5649 	 33.082 	 123.703 	 
C 	 -68.3733 	 33.1327 	 123.698 	 
H 	 -68.223 	 32.1341 	 123.989 	 
H 	 -68.1993 	 33.7773 	 124.59 	 
H 	 -67.605 	 33.3254 	 122.961 	 
H 	 -69.4998 	 41.0031 	 124.744 	 
H 	 -67.7045 	 35.5303 	 119.029 	 
*
