! wB97X-D3 SP def2-SVP
%pal
nprocs 16
end

* xyz 0 1
S 	 -37.6358 	 41.9389 	 96.3455 	 
C 	 -36.9183 	 42.1801 	 97.9682 	 
C 	 -35.9382 	 41.2389 	 98.2623 	 
C 	 -35.8422 	 40.2468 	 97.2303 	 
C 	 -36.556 	 40.5172 	 96.0786 	 
H 	 -35.2027 	 39.3769 	 97.185 	 
C 	 -35.3017 	 40.9673 	 99.5844 	 
H 	 -35.3316 	 39.9354 	 99.8492 	 
H 	 -35.9628 	 41.4463 	 100.382 	 
C 	 -33.8295 	 41.4419 	 99.6758 	 
H 	 -33.1977 	 40.845 	 99.182 	 
H 	 -33.7715 	 42.4468 	 99.2109 	 
C 	 -33.2175 	 41.5301 	 101.001 	 
H 	 -33.0989 	 40.529 	 101.44 	 
H 	 -32.3324 	 42.1076 	 101.174 	 
H 	 -34.0101 	 42.0923 	 101.563 	 
S 	 -35.9326 	 40.6773 	 93.4864 	 
C 	 -35.7913 	 39.2947 	 92.4406 	 
C 	 -36.1164 	 38.1801 	 93.181 	 
C 	 -36.3965 	 38.41 	 94.6107 	 
C 	 -36.4101 	 39.7667 	 94.8541 	 
H 	 -36.008 	 37.2297 	 92.6043 	 
C 	 -36.7325 	 37.3934 	 95.6836 	 
H 	 -37.4129 	 36.7106 	 95.1679 	 
H 	 -37.2622 	 37.9902 	 96.419 	 
C 	 -35.5215 	 36.5241 	 96.1678 	 
H 	 -34.7503 	 37.0944 	 96.7496 	 
H 	 -35.0611 	 36.0996 	 95.2423 	 
C 	 -35.9125 	 35.3345 	 97.0682 	 
H 	 -36.4576 	 34.6194 	 96.5046 	 
H 	 -36.4647 	 35.6768 	 97.9287 	 
H 	 -35.0542 	 34.8119 	 97.4403 	 
H 	 -37.0461 	 42.9961 	 98.7036 	 
H 	 -35.544 	 39.2229 	 91.4195 	 
*
