! wB97X-D3 SP def2-SVP
%pal
nprocs 16
end

* xyz 0 1
S 	 36.2636 	 8.31279 	 90.937 	 
C 	 34.9887 	 8.04127 	 89.7535 	 
C 	 35.479 	 7.8539 	 88.5034 	 
C 	 36.8866 	 8.12663 	 88.4274 	 
C 	 37.4777 	 8.46723 	 89.6297 	 
H 	 37.4658 	 8.01371 	 87.535 	 
C 	 34.6341 	 7.49891 	 87.3141 	 
H 	 33.5824 	 7.19052 	 87.5906 	 
H 	 35.1387 	 6.6473 	 86.856 	 
C 	 34.5676 	 8.5888 	 86.186 	 
H 	 35.5555 	 8.71049 	 85.8293 	 
H 	 33.9927 	 8.09813 	 85.389 	 
C 	 33.8191 	 9.81163 	 86.6069 	 
H 	 32.7629 	 9.83984 	 86.2407 	 
H 	 33.8433 	 9.93926 	 87.6635 	 
H 	 34.2316 	 10.7051 	 86.1768 	 
S 	 39.6314 	 7.59952 	 91.1452 	 
C 	 41.2037 	 7.6206 	 90.5121 	 
C 	 41.244 	 8.46004 	 89.4108 	 
C 	 39.9454 	 8.80282 	 88.8751 	 
C 	 38.9387 	 8.42265 	 89.7366 	 
H 	 42.2344 	 8.78465 	 89.046 	 
C 	 39.8256 	 9.65652 	 87.6017 	 
H 	 38.8636 	 10.02 	 87.4008 	 
H 	 40.1792 	 9.16099 	 86.731 	 
C 	 40.5928 	 10.997 	 87.5913 	 
H 	 41.6117 	 10.8639 	 87.9213 	 
H 	 40.3003 	 11.7318 	 88.3648 	 
C 	 40.5831 	 11.748 	 86.2061 	 
H 	 40.9243 	 11.1443 	 85.3824 	 
H 	 41.275 	 12.6059 	 86.301 	 
H 	 39.563 	 12.1216 	 85.8213 	 
H 	 33.9443 	 7.87822 	 89.9822 	 
H 	 42.0927 	 7.1838 	 90.9895 	 
*
