! wB97X-D3 SP def2-SVP
%pal
nprocs 16
end

* xyz 0 1
S 	 30.7158 	 -5.34413 	 78.8678 	 
C 	 31.6333 	 -3.88696 	 78.7404 	 
C 	 30.7766 	 -2.82667 	 78.6065 	 
C 	 29.3912 	 -3.19957 	 78.6056 	 
C 	 29.1902 	 -4.55326 	 78.7678 	 
H 	 28.6442 	 -2.47299 	 78.2786 	 
C 	 31.281 	 -1.41048 	 78.5494 	 
H 	 30.4398 	 -0.663068 	 78.4541 	 
H 	 31.6949 	 -1.42895 	 77.5472 	 
C 	 32.4276 	 -1.061 	 79.511 	 
H 	 33.296 	 -1.67082 	 79.2836 	 
H 	 32.6382 	 0.0270557 	 79.3078 	 
C 	 31.9391 	 -1.10808 	 80.9487 	 
H 	 32.6614 	 -0.52892 	 81.5636 	 
H 	 30.9617 	 -0.660127 	 81.1148 	 
H 	 31.9199 	 -2.0669 	 81.4019 	 
S 	 27.9939 	 -6.19116 	 76.8937 	 
C 	 26.2598 	 -6.50369 	 76.9878 	 
C 	 25.7275 	 -6.06209 	 78.1931 	 
C 	 26.7071 	 -5.37429 	 79.0039 	 
C 	 27.9833 	 -5.3129 	 78.4431 	 
H 	 24.6383 	 -6.1191 	 78.331 	 
C 	 26.3264 	 -4.5995 	 80.2625 	 
H 	 25.2248 	 -4.64918 	 80.2976 	 
H 	 26.6682 	 -3.56217 	 80.0746 	 
C 	 26.8883 	 -5.14411 	 81.5605 	 
H 	 26.8998 	 -4.48538 	 82.3819 	 
H 	 27.9821 	 -5.36328 	 81.4528 	 
C 	 26.1554 	 -6.3741 	 82.1293 	 
H 	 25.9604 	 -7.01149 	 81.2637 	 
H 	 25.261 	 -6.06077 	 82.6757 	 
H 	 26.6869 	 -6.98287 	 82.8329 	 
H 	 32.6852 	 -3.86665 	 78.8071 	 
H 	 25.7792 	 -7.11778 	 76.2346 	 
*
