! wB97X-D3 SP def2-SVP
%pal
nprocs 16
end

* xyz 0 1
S 	 -34.6192 	 71.0619 	 141.977 	 
C 	 -32.9921 	 71.1605 	 142.597 	 
C 	 -32.8133 	 70.4122 	 143.749 	 
C 	 -33.95 	 69.5887 	 143.955 	 
C 	 -35.0078 	 69.7458 	 143.102 	 
H 	 -34.0124 	 68.8795 	 144.772 	 
C 	 -31.5405 	 70.3403 	 144.609 	 
H 	 -31.2712 	 71.3043 	 144.916 	 
H 	 -30.7507 	 69.9442 	 143.954 	 
C 	 -31.4723 	 69.5046 	 145.882 	 
H 	 -31.8921 	 68.4853 	 145.608 	 
H 	 -30.4477 	 69.2932 	 146.193 	 
C 	 -32.5037 	 70.1445 	 146.91 	 
H 	 -32.1401 	 71.0196 	 147.424 	 
H 	 -33.5238 	 70.4534 	 146.542 	 
H 	 -32.6764 	 69.3312 	 147.567 	 
S 	 -37.7675 	 69.7087 	 143.644 	 
C 	 -38.6569 	 68.1866 	 143.482 	 
C 	 -37.8056 	 67.2467 	 142.884 	 
C 	 -36.4917 	 67.6815 	 142.496 	 
C 	 -36.2465 	 68.9305 	 143.078 	 
H 	 -38.1457 	 66.2596 	 142.637 	 
C 	 -35.4451 	 66.657 	 141.931 	 
H 	 -34.7213 	 67.0704 	 141.25 	 
H 	 -36.0731 	 65.972 	 141.424 	 
C 	 -34.8281 	 65.8897 	 143.062 	 
H 	 -35.7086 	 65.4415 	 143.53 	 
H 	 -34.2351 	 66.4851 	 143.708 	 
C 	 -33.876 	 64.8505 	 142.51 	 
H 	 -33.1797 	 65.2941 	 141.835 	 
H 	 -34.4959 	 64.1653 	 141.958 	 
H 	 -33.4098 	 64.2474 	 143.262 	 
H 	 -32.169 	 71.7492 	 142.262 	 
H 	 -39.4946 	 67.9939 	 144.176 	 
*
