! wB97X-D3 SP def2-SVP
%pal
nprocs 16
end

* xyz 0 1
S 	 34.9482 	 5.7396 	 88.9905 	 
C 	 33.6624 	 5.71598 	 87.7995 	 
C 	 34.1374 	 5.72605 	 86.4954 	 
C 	 35.571 	 5.6842 	 86.4086 	 
C 	 36.1233 	 5.5608 	 87.6798 	 
H 	 36.3239 	 5.65736 	 85.5567 	 
C 	 33.3935 	 5.64289 	 85.197 	 
H 	 33.9937 	 6.18968 	 84.4656 	 
H 	 32.4079 	 6.09584 	 85.4116 	 
C 	 33.0812 	 4.19565 	 84.6908 	 
H 	 32.7417 	 3.60712 	 85.5695 	 
H 	 32.2612 	 4.1267 	 83.9718 	 
C 	 34.308 	 3.43551 	 84.0728 	 
H 	 34.1573 	 2.45797 	 83.6094 	 
H 	 34.737 	 4.13217 	 83.2948 	 
H 	 35.1425 	 3.28749 	 84.8021 	 
S 	 38.0348 	 3.57484 	 88.0625 	 
C 	 39.6719 	 3.86857 	 87.8582 	 
C 	 39.8663 	 5.19429 	 87.6045 	 
C 	 38.6667 	 5.94897 	 87.736 	 
C 	 37.5266 	 5.25449 	 87.9189 	 
H 	 40.8243 	 5.59556 	 87.2916 	 
C 	 38.724 	 7.41 	 87.4191 	 
H 	 39.0848 	 7.9094 	 88.2931 	 
H 	 37.7322 	 7.79298 	 87.3398 	 
C 	 39.4212 	 7.79674 	 86.1121 	 
H 	 38.8101 	 7.35523 	 85.299 	 
H 	 40.4577 	 7.34693 	 86.0734 	 
C 	 39.6191 	 9.38709 	 86.0437 	 
H 	 40.1653 	 9.67927 	 85.1186 	 
H 	 40.0648 	 9.79065 	 86.8485 	 
H 	 38.5852 	 9.76186 	 85.8721 	 
H 	 32.6868 	 5.52308 	 88.0279 	 
H 	 40.4285 	 3.12124 	 87.8556 	 
*
