! wB97X-D3 SP def2-SVP
%pal
nprocs 16
end

* xyz 0 1
S 	 -6.45178 	 15.2247 	 86.2751 	 
C 	 -7.70409 	 14.7171 	 85.1418 	 
C 	 -8.49699 	 13.8118 	 85.7903 	 
C 	 -8.33482 	 13.7179 	 87.1964 	 
C 	 -7.27998 	 14.4738 	 87.6459 	 
H 	 -8.94261 	 13.1282 	 87.9435 	 
C 	 -9.73063 	 13.2513 	 85.2012 	 
H 	 -10.0391 	 13.7966 	 84.3274 	 
H 	 -10.5498 	 13.4587 	 85.9654 	 
C 	 -9.79399 	 11.8376 	 84.704 	 
H 	 -10.7165 	 11.6212 	 84.1164 	 
H 	 -9.03808 	 11.5916 	 83.984 	 
C 	 -9.69122 	 10.8009 	 85.7629 	 
H 	 -9.9744 	 9.84102 	 85.3649 	 
H 	 -8.71251 	 10.6835 	 86.2236 	 
H 	 -10.3496 	 11.0101 	 86.5918 	 
S 	 -7.77628 	 15.2911 	 90.275 	 
C 	 -6.52128 	 15.0169 	 91.4842 	 
C 	 -5.38526 	 14.8007 	 90.8147 	 
C 	 -5.5043 	 14.3995 	 89.4601 	 
C 	 -6.77177 	 14.693 	 88.9761 	 
H 	 -4.49352 	 14.7524 	 91.4336 	 
C 	 -4.25263 	 14.029 	 88.5954 	 
H 	 -3.80271 	 14.9555 	 88.2109 	 
H 	 -4.68139 	 13.5154 	 87.671 	 
C 	 -3.06957 	 13.2832 	 89.2134 	 
H 	 -2.67853 	 13.9859 	 89.9457 	 
H 	 -2.31153 	 13.1589 	 88.4739 	 
C 	 -3.4661 	 11.8759 	 89.7406 	 
H 	 -3.85036 	 11.2369 	 88.9701 	 
H 	 -4.3252 	 11.8698 	 90.3967 	 
H 	 -2.74502 	 11.469 	 90.4223 	 
H 	 -7.73437 	 15.0241 	 84.1123 	 
H 	 -6.61073 	 15.4077 	 92.4795 	 
*
