! wB97X-D3 SP def2-SVP
%pal
nprocs 16
end

* xyz 0 1
S 	 -104.827 	 41.3687 	 130.417 	 
C 	 -103.646 	 40.7792 	 131.646 	 
C 	 -102.535 	 40.2283 	 131.033 	 
C 	 -102.478 	 40.5274 	 129.633 	 
C 	 -103.561 	 41.2542 	 129.191 	 
H 	 -101.767 	 40.2674 	 128.847 	 
C 	 -101.522 	 39.4677 	 131.736 	 
H 	 -101.634 	 38.4185 	 131.546 	 
H 	 -101.675 	 39.5784 	 132.768 	 
C 	 -100.042 	 39.9796 	 131.486 	 
H 	 -99.4139 	 39.118 	 131.754 	 
H 	 -99.9206 	 40.1634 	 130.425 	 
C 	 -99.6978 	 41.1847 	 132.347 	 
H 	 -100.405 	 41.9561 	 132.156 	 
H 	 -99.9132 	 40.9218 	 133.369 	 
H 	 -98.6536 	 41.4791 	 132.256 	 
S 	 -104.366 	 43.4485 	 127.863 	 
C 	 -104.398 	 43.4711 	 126.107 	 
C 	 -103.993 	 42.2693 	 125.568 	 
C 	 -103.65 	 41.3106 	 126.624 	 
C 	 -103.809 	 41.7845 	 127.898 	 
H 	 -103.912 	 42.2218 	 124.513 	 
C 	 -103.359 	 39.907 	 126.195 	 
H 	 -102.295 	 39.7267 	 126.343 	 
H 	 -103.544 	 39.7631 	 125.137 	 
C 	 -104.116 	 38.7624 	 126.902 	 
H 	 -105.163 	 38.9758 	 126.851 	 
H 	 -103.786 	 38.6552 	 127.951 	 
C 	 -103.86 	 37.465 	 126.16 	 
H 	 -104.313 	 36.5899 	 126.647 	 
H 	 -102.844 	 37.1674 	 126.074 	 
H 	 -104.344 	 37.5299 	 125.162 	 
H 	 -103.848 	 40.5975 	 132.718 	 
H 	 -104.834 	 44.2658 	 125.53 	 
*
