! wB97X-D3 SP def2-SVP
%pal
nprocs 16
end

* xyz 0 1
S 	 51.5283 	 4.10183 	 92.5154 	 
C 	 51.8482 	 5.7684 	 92.6322 	 
C 	 51.0433 	 6.41916 	 93.5897 	 
C 	 50.1657 	 5.45324 	 94.2173 	 
C 	 50.4165 	 4.17276 	 93.8328 	 
H 	 49.4273 	 5.5479 	 95.0423 	 
C 	 51.1444 	 7.92319 	 94.0974 	 
H 	 50.7386 	 8.04623 	 95.1023 	 
H 	 50.5248 	 8.33851 	 93.3373 	 
C 	 52.4979 	 8.50049 	 94.1232 	 
H 	 53.0422 	 8.24034 	 95.0884 	 
H 	 53.1115 	 8.1056 	 93.3073 	 
C 	 52.3911 	 10.0112 	 94.0473 	 
H 	 51.8507 	 10.5232 	 94.8246 	 
H 	 53.3678 	 10.5188 	 94.1572 	 
H 	 52.2191 	 10.3494 	 93.0905 	 
S 	 49.0257 	 1.94119 	 93.0638 	 
C 	 48.3941 	 0.866622 	 94.2624 	 
C 	 48.7246 	 1.27001 	 95.5467 	 
C 	 49.4836 	 2.46663 	 95.5823 	 
C 	 49.8393 	 2.9269 	 94.2934 	 
H 	 48.334 	 0.79735 	 96.5337 	 
C 	 49.8298 	 3.09206 	 96.9056 	 
H 	 48.8159 	 3.55854 	 97.1591 	 
H 	 50.5656 	 3.95154 	 96.8218 	 
C 	 50.2961 	 2.21992 	 98.0828 	 
H 	 49.7074 	 1.29236 	 98.1707 	 
H 	 50.2549 	 2.7362 	 99.0493 	 
C 	 51.7134 	 1.72537 	 97.8087 	 
H 	 51.7738 	 1.03 	 96.9816 	 
H 	 52.1283 	 1.22137 	 98.643 	 
H 	 52.4401 	 2.44436 	 97.4879 	 
H 	 52.6683 	 6.25787 	 92.0704 	 
H 	 47.7218 	 0.0191983 	 94.0184 	 
*
