! wB97X-D3 SP def2-SVP
%pal
nprocs 16
end

* xyz 0 1
S 	 42.3001 	 13.9339 	 84.6633 	 
C 	 41.8506 	 12.9179 	 83.2969 	 
C 	 40.82 	 12.0612 	 83.6144 	 
C 	 40.4069 	 12.189 	 85.0057 	 
C 	 41.1695 	 13.1008 	 85.784 	 
H 	 39.6591 	 11.4747 	 85.4742 	 
C 	 40.1871 	 11.1388 	 82.5909 	 
H 	 39.7587 	 11.7653 	 81.8156 	 
H 	 39.3526 	 10.5229 	 83.024 	 
C 	 41.1613 	 10.2371 	 81.8506 	 
H 	 42.0587 	 10.6877 	 81.4309 	 
H 	 41.4841 	 9.36519 	 82.4303 	 
C 	 40.3337 	 9.73971 	 80.6467 	 
H 	 40.942 	 9.09134 	 79.9865 	 
H 	 39.6157 	 9.03836 	 80.9819 	 
H 	 39.9231 	 10.4984 	 80.0269 	 
S 	 42.7208 	 13.7728 	 88.0014 	 
C 	 42.1233 	 13.5053 	 89.6599 	 
C 	 40.7835 	 13.1676 	 89.5716 	 
C 	 40.2118 	 12.9212 	 88.2549 	 
C 	 41.1828 	 13.1009 	 87.2947 	 
H 	 40.2101 	 13.0723 	 90.4622 	 
C 	 38.7765 	 12.5465 	 88.0686 	 
H 	 38.3024 	 12.4103 	 89.0664 	 
H 	 38.7923 	 11.5887 	 87.5595 	 
C 	 37.862 	 13.4995 	 87.2899 	 
H 	 38.3157 	 13.8919 	 86.4073 	 
H 	 37.7973 	 14.408 	 87.8111 	 
C 	 36.4591 	 13.0259 	 86.9669 	 
H 	 35.8702 	 13.8154 	 86.4863 	 
H 	 35.8612 	 12.8488 	 87.9159 	 
H 	 36.4007 	 12.1625 	 86.2437 	 
H 	 42.3288 	 12.9715 	 82.3111 	 
H 	 42.7578 	 13.5597 	 90.5529 	 
*
