! wB97X-D3 SP def2-SVP
%pal
nprocs 16
end

* xyz 0 1
S 	 -68.4661 	 51.7699 	 126.083 	 
C 	 -67.7949 	 53.2557 	 125.451 	 
C 	 -68.7237 	 53.9443 	 124.664 	 
C 	 -69.9527 	 53.2283 	 124.431 	 
C 	 -69.9242 	 52.0893 	 125.214 	 
H 	 -70.7981 	 53.5805 	 123.859 	 
C 	 -68.4846 	 55.3523 	 124.067 	 
H 	 -67.4593 	 55.6017 	 124.291 	 
H 	 -69.0026 	 56.1415 	 124.606 	 
C 	 -68.7292 	 55.487 	 122.494 	 
H 	 -67.7211 	 55.0622 	 122.202 	 
H 	 -69.5339 	 54.894 	 122.098 	 
C 	 -68.8943 	 56.8878 	 121.913 	 
H 	 -68.0328 	 57.3421 	 121.513 	 
H 	 -69.7465 	 57.1071 	 121.25 	 
H 	 -69.0058 	 57.5208 	 122.801 	 
S 	 -70.6705 	 49.5396 	 124.772 	 
C 	 -72.2689 	 48.9135 	 125.19 	 
C 	 -73.1054 	 50.0111 	 125.542 	 
C 	 -72.3168 	 51.1831 	 125.743 	 
C 	 -71.0135 	 51.12 	 125.26 	 
H 	 -74.1648 	 49.7212 	 125.724 	 
C 	 -72.9017 	 52.4766 	 126.242 	 
H 	 -72.0674 	 53.1122 	 126.648 	 
H 	 -73.5474 	 52.2754 	 127.082 	 
C 	 -73.7548 	 53.0191 	 125.114 	 
H 	 -74.5589 	 52.3369 	 124.962 	 
H 	 -73.2565 	 52.9532 	 124.141 	 
C 	 -74.3661 	 54.3988 	 125.226 	 
H 	 -74.8135 	 54.7316 	 126.157 	 
H 	 -75.2075 	 54.4708 	 124.567 	 
H 	 -73.772 	 55.2254 	 124.839 	 
H 	 -66.7632 	 53.6508 	 125.518 	 
H 	 -72.5622 	 47.9433 	 125.324 	 
*
