! wB97X-D3 SP def2-SVP
%pal
nprocs 16
end

* xyz 0 1
S 	 -103.126 	 54.768 	 119.228 	 
C 	 -101.9 	 53.5356 	 118.991 	 
C 	 -100.751 	 54.0451 	 118.4 	 
C 	 -100.836 	 55.4428 	 118.264 	 
C 	 -101.97 	 55.9737 	 118.772 	 
H 	 -99.9122 	 56.0282 	 117.997 	 
C 	 -99.4653 	 53.3014 	 117.984 	 
H 	 -99.0543 	 52.8317 	 118.815 	 
H 	 -98.8062 	 54.0171 	 117.543 	 
C 	 -99.526 	 52.2597 	 116.84 	 
H 	 -100.085 	 52.7267 	 116.072 	 
H 	 -98.5693 	 52.0458 	 116.437 	 
C 	 -100.067 	 50.8468 	 117.115 	 
H 	 -101.15 	 50.7779 	 117.215 	 
H 	 -99.6357 	 50.0759 	 116.482 	 
H 	 -99.7391 	 50.5354 	 118.096 	 
S 	 -103.597 	 57.7745 	 117.401 	 
C 	 -103.669 	 59.3641 	 118.157 	 
C 	 -102.886 	 59.5206 	 119.239 	 
C 	 -102.179 	 58.347 	 119.604 	 
C 	 -102.392 	 57.3458 	 118.613 	 
H 	 -102.96 	 60.5233 	 119.646 	 
C 	 -101.232 	 58.3547 	 120.824 	 
H 	 -101.08 	 57.3294 	 121.034 	 
H 	 -101.7 	 58.7651 	 121.765 	 
C 	 -99.8103 	 58.9089 	 120.605 	 
H 	 -99.6613 	 59.9976 	 120.442 	 
H 	 -99.3734 	 58.3939 	 119.66 	 
C 	 -98.8931 	 58.6034 	 121.801 	 
H 	 -97.848 	 58.8778 	 121.717 	 
H 	 -98.9154 	 57.5137 	 121.879 	 
H 	 -99.3233 	 59.0582 	 122.69 	 
H 	 -102.084 	 52.4417 	 119.11 	 
H 	 -104.081 	 60.2977 	 117.684 	 
*
