! wB97X-D3 SP def2-SVP
%pal
nprocs 16
end

* xyz 0 1
S 	 -4.02876 	 58.7174 	 47.4514 	 
C 	 -4.61379 	 57.9891 	 48.9949 	 
C 	 -4.56777 	 56.6181 	 48.9451 	 
C 	 -4.17179 	 56.1584 	 47.6617 	 
C 	 -3.68732 	 57.0935 	 46.8318 	 
H 	 -4.05687 	 55.1874 	 47.3581 	 
C 	 -5.03236 	 55.6528 	 50.0682 	 
H 	 -4.70036 	 56.1745 	 50.994 	 
H 	 -4.52404 	 54.6889 	 50.0646 	 
C 	 -6.53535 	 55.4998 	 50.2508 	 
H 	 -6.96302 	 56.4776 	 50.086 	 
H 	 -7.09583 	 54.905 	 49.5119 	 
C 	 -6.91541 	 55.058 	 51.6475 	 
H 	 -8.01424 	 54.9619 	 51.7158 	 
H 	 -6.36068 	 54.1404 	 51.8363 	 
H 	 -6.75444 	 55.8006 	 52.3614 	 
S 	 -3.81026 	 58.0633 	 44.2646 	 
C 	 -2.9472 	 57.1879 	 42.9878 	 
C 	 -2.35525 	 56.0465 	 43.4581 	 
C 	 -2.39551 	 55.9342 	 44.9047 	 
C 	 -3.26453 	 56.8633 	 45.4358 	 
H 	 -1.76575 	 55.4967 	 42.8369 	 
C 	 -1.79773 	 54.6755 	 45.5414 	 
H 	 -1.93756 	 54.8083 	 46.583 	 
H 	 -0.713624 	 54.6088 	 45.3609 	 
C 	 -2.31391 	 53.3063 	 45.1566 	 
H 	 -1.78929 	 52.8618 	 44.2798 	 
H 	 -3.43446 	 53.3726 	 44.9237 	 
C 	 -2.11636 	 52.2145 	 46.1203 	 
H 	 -1.16449 	 52.1737 	 46.6437 	 
H 	 -2.37169 	 51.215 	 45.6601 	 
H 	 -2.9109 	 52.3177 	 46.8925 	 
H 	 -5.02332 	 58.582 	 49.7918 	 
H 	 -2.74702 	 57.4861 	 42.0019 	 
*
