! wB97X-D3 SP def2-SVP
%pal
nprocs 16
end

* xyz 0 1
S 	 4.73414 	 -11.3252 	 71.2457 	 
C 	 3.60508 	 -10.0896 	 71.4229 	 
C 	 3.87317 	 -9.04495 	 70.5124 	 
C 	 5.04915 	 -9.27847 	 69.7472 	 
C 	 5.69342 	 -10.3927 	 70.124 	 
H 	 5.48386 	 -8.56291 	 68.9868 	 
C 	 2.9633 	 -7.79219 	 70.4158 	 
H 	 2.11625 	 -7.87373 	 71.1485 	 
H 	 2.45602 	 -7.91422 	 69.462 	 
C 	 3.52918 	 -6.40761 	 70.5108 	 
H 	 4.06696 	 -6.32841 	 71.441 	 
H 	 4.31839 	 -6.25687 	 69.7279 	 
C 	 2.43065 	 -5.25914 	 70.1917 	 
H 	 1.6589 	 -5.36266 	 70.9188 	 
H 	 2.97522 	 -4.37323 	 70.1734 	 
H 	 1.89792 	 -5.33971 	 69.1868 	 
S 	 8.25011 	 -10.0006 	 69.4737 	 
C 	 9.21835 	 -11.1352 	 68.443 	 
C 	 8.39568 	 -12.2169 	 68.1289 	 
C 	 7.10283 	 -12.1903 	 68.7165 	 
C 	 6.86728 	 -10.9887 	 69.4018 	 
H 	 8.81479 	 -13.0385 	 67.5204 	 
C 	 6.28047 	 -13.4017 	 68.5238 	 
H 	 5.74257 	 -13.7394 	 69.4529 	 
H 	 6.83842 	 -14.2441 	 68.0849 	 
C 	 5.13906 	 -13.2348 	 67.6187 	 
H 	 4.37977 	 -12.6166 	 68.1724 	 
H 	 4.67058 	 -14.1776 	 67.4603 	 
C 	 5.43656 	 -12.6509 	 66.2401 	 
H 	 5.37789 	 -11.5497 	 66.3445 	 
H 	 4.64035 	 -12.8161 	 65.5482 	 
H 	 6.38518 	 -12.9742 	 65.8338 	 
H 	 2.82623 	 -10.1453 	 72.1033 	 
H 	 10.1888 	 -11.0023 	 67.9833 	 
*
