! wB97X-D3 SP def2-SVP
%pal
nprocs 16
end

* xyz 0 1
S 	 -46.4005 	 30.0995 	 92.3327 	 
C 	 -47.3114 	 28.5863 	 92.3195 	 
C 	 -48.5247 	 28.7921 	 91.6476 	 
C 	 -48.6809 	 30.1288 	 91.1641 	 
C 	 -47.6099 	 31.0307 	 91.4007 	 
H 	 -49.5311 	 30.5208 	 90.6241 	 
C 	 -49.5893 	 27.8273 	 91.4762 	 
H 	 -50.4813 	 28.2728 	 91.8965 	 
H 	 -49.2384 	 26.952 	 92.1257 	 
C 	 -49.7108 	 27.3195 	 90.0606 	 
H 	 -49.8362 	 28.108 	 89.2721 	 
H 	 -48.7378 	 26.9642 	 89.7997 	 
C 	 -50.7695 	 26.3411 	 89.809 	 
H 	 -51.6477 	 26.8808 	 89.884 	 
H 	 -50.7504 	 26.132 	 88.732 	 
H 	 -50.9533 	 25.4931 	 90.4419 	 
S 	 -46.8499 	 33.5563 	 92.3546 	 
C 	 -47.3622 	 35.0019 	 91.4579 	 
C 	 -47.725 	 34.6721 	 90.2116 	 
C 	 -47.8765 	 33.2927 	 90.0071 	 
C 	 -47.598 	 32.511 	 91.1772 	 
H 	 -47.8572 	 35.4735 	 89.5101 	 
C 	 -48.2934 	 32.7571 	 88.5769 	 
H 	 -48.349 	 31.6942 	 88.4378 	 
H 	 -47.5288 	 33.2319 	 87.8956 	 
C 	 -49.6448 	 33.3198 	 88.0738 	 
H 	 -49.5324 	 34.3915 	 87.9373 	 
H 	 -50.4151 	 33.0488 	 88.7656 	 
C 	 -50.1148 	 32.7815 	 86.7726 	 
H 	 -50.4711 	 31.7328 	 86.7099 	 
H 	 -49.4237 	 32.8127 	 85.9455 	 
H 	 -50.9668 	 33.3521 	 86.4916 	 
H 	 -47.1372 	 27.6054 	 92.7376 	 
H 	 -47.1825 	 36.0783 	 91.5778 	 
*
