! wB97X-D3 SP def2-SVP
%pal
nprocs 16
end

* xyz 0 1
S 	 34.2924 	 5.46782 	 88.6198 	 
C 	 33.1886 	 4.52922 	 87.5927 	 
C 	 33.8554 	 3.46007 	 87.0566 	 
C 	 35.2538 	 3.44517 	 87.4157 	 
C 	 35.6637 	 4.48117 	 88.2405 	 
H 	 36.0101 	 2.72885 	 87.1492 	 
C 	 33.3618 	 2.36118 	 86.1484 	 
H 	 32.2597 	 2.45253 	 86.2144 	 
H 	 33.7441 	 1.47651 	 86.6174 	 
C 	 33.6707 	 2.45486 	 84.6412 	 
H 	 34.7233 	 2.10397 	 84.4489 	 
H 	 32.9934 	 1.73795 	 84.1491 	 
C 	 33.5516 	 3.813 	 83.9631 	 
H 	 34.0576 	 3.74211 	 82.9591 	 
H 	 32.5359 	 4.11389 	 83.8846 	 
H 	 34.1269 	 4.53691 	 84.4817 	 
S 	 37.8051 	 3.97143 	 89.753 	 
C 	 39.2523 	 4.80952 	 89.5509 	 
C 	 39.2155 	 5.84319 	 88.642 	 
C 	 37.8529 	 5.93888 	 88.1127 	 
C 	 37.0212 	 4.89022 	 88.5225 	 
H 	 40.0415 	 6.52563 	 88.4219 	 
C 	 37.47 	 6.94905 	 87.0618 	 
H 	 37.8353 	 7.93279 	 87.1772 	 
H 	 36.4183 	 7.10538 	 87.1704 	 
C 	 37.892 	 6.58198 	 85.6026 	 
H 	 37.2747 	 5.77964 	 85.275 	 
H 	 38.9069 	 6.21703 	 85.5426 	 
C 	 37.7144 	 7.73706 	 84.6467 	 
H 	 37.9702 	 7.4291 	 83.6416 	 
H 	 38.4359 	 8.59179 	 84.7501 	 
H 	 36.6961 	 8.10356 	 84.6108 	 
H 	 32.073 	 4.6712 	 87.5011 	 
H 	 39.9965 	 4.64296 	 90.1682 	 
*
