! wB97X-D3 SP def2-SVP
%pal
nprocs 16
end

* xyz 0 1
S 	 -27.886 	 57.0702 	 110.401 	 
C 	 -28.7998 	 56.163 	 111.584 	 
C 	 -28.7637 	 56.8706 	 112.836 	 
C 	 -28.1202 	 58.1219 	 112.666 	 
C 	 -27.6074 	 58.4447 	 111.436 	 
H 	 -27.9595 	 58.8787 	 113.469 	 
C 	 -29.5103 	 56.4289 	 114.132 	 
H 	 -29.4571 	 55.4092 	 114.448 	 
H 	 -30.5137 	 56.5271 	 113.94 	 
C 	 -29.1821 	 57.2066 	 115.431 	 
H 	 -29.503 	 58.269 	 115.339 	 
H 	 -29.8001 	 56.8333 	 116.199 	 
C 	 -27.7204 	 57.1737 	 115.816 	 
H 	 -27.1208 	 57.8264 	 115.209 	 
H 	 -27.6769 	 57.5009 	 116.875 	 
H 	 -27.3532 	 56.1872 	 115.696 	 
S 	 -25.038 	 59.2285 	 111.035 	 
C 	 -24.5832 	 60.8744 	 110.655 	 
C 	 -25.7557 	 61.651 	 110.734 	 
C 	 -26.9866 	 60.9694 	 111.03 	 
C 	 -26.7262 	 59.5772 	 111.124 	 
H 	 -25.6039 	 62.7277 	 110.64 	 
C 	 -28.3695 	 61.6637 	 110.904 	 
H 	 -29.1718 	 60.9013 	 110.932 	 
H 	 -28.2663 	 62.0798 	 109.879 	 
C 	 -28.4542 	 62.7893 	 111.924 	 
H 	 -29.4697 	 63.3357 	 111.795 	 
H 	 -27.6824 	 63.4696 	 111.673 	 
C 	 -28.3436 	 62.4698 	 113.346 	 
H 	 -28.6871 	 63.3489 	 113.936 	 
H 	 -27.3367 	 62.2412 	 113.454 	 
H 	 -28.8349 	 61.4668 	 113.454 	 
H 	 -29.3391 	 55.2413 	 111.47 	 
H 	 -23.5036 	 61.27 	 110.633 	 
*
