! wB97X-D3 SP def2-SVP
%pal
nprocs 16
end

* xyz 0 1
S 	 -29.2469 	 66.7558 	 104.439 	 
C 	 -27.7031 	 67.5066 	 104.291 	 
C 	 -26.8298 	 67.129 	 105.317 	 
C 	 -27.4385 	 66.2476 	 106.236 	 
C 	 -28.7395 	 65.9496 	 105.838 	 
H 	 -27.0824 	 65.8415 	 107.158 	 
C 	 -25.4196 	 67.7336 	 105.513 	 
H 	 -25.257 	 67.9361 	 106.569 	 
H 	 -25.367 	 68.7916 	 105.19 	 
C 	 -24.2051 	 66.9248 	 104.94 	 
H 	 -23.3351 	 67.3537 	 105.361 	 
H 	 -24.1738 	 65.9232 	 105.413 	 
C 	 -24.0916 	 66.6684 	 103.411 	 
H 	 -24.8881 	 66.1508 	 102.986 	 
H 	 -24.2339 	 67.5867 	 102.901 	 
H 	 -23.1928 	 66.1796 	 103.043 	 
S 	 -30.5592 	 65.5411 	 107.972 	 
C 	 -31.4484 	 64.1471 	 107.965 	 
C 	 -31.1927 	 63.3481 	 106.917 	 
C 	 -30.2033 	 63.8309 	 106.023 	 
C 	 -29.7119 	 65.062 	 106.483 	 
H 	 -31.7167 	 62.3646 	 106.941 	 
C 	 -29.4295 	 62.9609 	 104.98 	 
H 	 -28.3677 	 62.8712 	 105.227 	 
H 	 -29.5146 	 63.4246 	 103.978 	 
C 	 -29.971 	 61.5299 	 104.693 	 
H 	 -29.458 	 61.1971 	 103.797 	 
H 	 -31.0314 	 61.5013 	 104.516 	 
C 	 -29.7974 	 60.5016 	 105.85 	 
H 	 -30.4578 	 60.7467 	 106.688 	 
H 	 -28.7502 	 60.3834 	 105.965 	 
H 	 -30.0391 	 59.4714 	 105.485 	 
H 	 -27.3165 	 68.1713 	 103.541 	 
H 	 -32.2207 	 63.8765 	 108.776 	 
*
