! wB97X-D3 SP def2-SVP
%pal
nprocs 16
end

* xyz 0 1
S 	 20.299 	 0.652833 	 85.6259 	 
C 	 20.9789 	 1.23637 	 84.1543 	 
C 	 19.9892 	 1.61774 	 83.2193 	 
C 	 18.6939 	 1.58678 	 83.8437 	 
C 	 18.6985 	 1.10609 	 85.1783 	 
H 	 17.7082 	 1.80915 	 83.3683 	 
C 	 20.3133 	 2.32103 	 81.8832 	 
H 	 21.2954 	 2.70022 	 81.8375 	 
H 	 19.712 	 3.21902 	 81.7516 	 
C 	 20.2354 	 1.38578 	 80.6437 	 
H 	 20.7967 	 0.502247 	 80.7044 	 
H 	 19.1645 	 1.01904 	 80.6218 	 
C 	 20.5633 	 1.99271 	 79.2638 	 
H 	 21.5341 	 2.50129 	 79.3957 	 
H 	 20.6234 	 1.41044 	 78.3686 	 
H 	 19.845 	 2.74076 	 79.0023 	 
S 	 18.0855 	 1.09208 	 87.798 	 
C 	 16.4903 	 0.992106 	 88.4629 	 
C 	 15.591 	 1.17669 	 87.3796 	 
C 	 16.2199 	 1.13673 	 86.0841 	 
C 	 17.5971 	 1.05652 	 86.1251 	 
H 	 14.5281 	 1.23531 	 87.5234 	 
C 	 15.3583 	 1.16994 	 84.8038 	 
H 	 15.8092 	 2.05135 	 84.2929 	 
H 	 14.3139 	 1.35557 	 85.032 	 
C 	 15.3264 	 -0.209875 	 84.029 	 
H 	 14.6144 	 -0.885297 	 84.538 	 
H 	 16.2552 	 -0.767535 	 84.2652 	 
C 	 14.9207 	 0.00557645 	 82.5931 	 
H 	 13.9496 	 0.411285 	 82.4054 	 
H 	 15.1714 	 -0.900595 	 81.9782 	 
H 	 15.5189 	 0.818637 	 82.1518 	 
H 	 22.0298 	 1.33636 	 84.0176 	 
H 	 16.0798 	 1.01818 	 89.4976 	 
*
