! wB97X-D3 SP def2-SVP
%pal
nprocs 16
end

* xyz 0 1
S 	 3.79196 	 14.6036 	 50.8833 	 
C 	 3.58041 	 12.9011 	 51.3612 	 
C 	 4.31264 	 12.0397 	 50.5232 	 
C 	 5.13781 	 12.7534 	 49.6484 	 
C 	 4.76469 	 14.109 	 49.4936 	 
H 	 5.8393 	 12.3801 	 48.9145 	 
C 	 4.21386 	 10.5269 	 50.4745 	 
H 	 3.59755 	 10.2144 	 51.3485 	 
H 	 5.14804 	 10.0368 	 50.7545 	 
C 	 3.6421 	 9.84687 	 49.2561 	 
H 	 3.01427 	 10.6206 	 48.7827 	 
H 	 4.48347 	 9.54106 	 48.6913 	 
C 	 2.87404 	 8.61843 	 49.5726 	 
H 	 3.56422 	 7.84323 	 50.0542 	 
H 	 2.00146 	 8.66881 	 50.1745 	 
H 	 2.57135 	 8.30668 	 48.5378 	 
S 	 6.26827 	 16.363 	 49.0745 	 
C 	 6.4305 	 17.0529 	 47.5058 	 
C 	 5.80123 	 16.3538 	 46.5577 	 
C 	 5.12903 	 15.2189 	 47.1429 	 
C 	 5.33101 	 15.0688 	 48.5248 	 
H 	 5.76719 	 16.5906 	 45.4703 	 
C 	 4.28329 	 14.4368 	 46.1476 	 
H 	 4.33016 	 13.3729 	 46.497 	 
H 	 4.85414 	 14.3462 	 45.3086 	 
C 	 2.85244 	 15.0402 	 45.8904 	 
H 	 2.44788 	 14.4624 	 45.072 	 
H 	 2.96055 	 16.0038 	 45.4683 	 
C 	 1.80333 	 14.9488 	 47.0217 	 
H 	 1.70705 	 13.8947 	 47.3681 	 
H 	 0.766551 	 15.3391 	 46.9081 	 
H 	 2.03837 	 15.5629 	 47.8919 	 
H 	 2.97011 	 12.5949 	 52.2265 	 
H 	 7.05279 	 17.9326 	 47.3682 	 
*
