! wB97X-D3 SP def2-SVP
%pal
nprocs 16
end

* xyz 0 1
S 	 40.3385 	 29.2746 	 82.249 	 
C 	 39.0496 	 28.5806 	 83.1029 	 
C 	 39.4078 	 27.4957 	 83.8588 	 
C 	 40.7863 	 27.2414 	 83.7177 	 
C 	 41.5647 	 28.1351 	 82.961 	 
H 	 41.325 	 26.4461 	 84.2049 	 
C 	 38.5318 	 26.6689 	 84.7112 	 
H 	 38.4205 	 25.6878 	 84.2414 	 
H 	 37.4427 	 27.025 	 84.5683 	 
C 	 38.8255 	 26.6368 	 86.1226 	 
H 	 39.9375 	 26.5983 	 86.2434 	 
H 	 38.7352 	 27.6148 	 86.5633 	 
C 	 38.0405 	 25.6205 	 86.9483 	 
H 	 37.0722 	 25.7227 	 86.6074 	 
H 	 38.3597 	 24.6025 	 86.7543 	 
H 	 38.0774 	 25.8757 	 88.1035 	 
S 	 43.8471 	 29.7766 	 83.0132 	 
C 	 45.3715 	 29.1431 	 82.9415 	 
C 	 45.3264 	 27.7702 	 82.6287 	 
C 	 44.0208 	 27.2306 	 82.4916 	 
C 	 43.054 	 28.1875 	 82.8415 	 
H 	 46.1984 	 27.2763 	 82.2723 	 
C 	 43.7392 	 25.8322 	 82.0262 	 
H 	 43.6713 	 25.8904 	 80.977 	 
H 	 42.8454 	 25.4297 	 82.4292 	 
C 	 44.7411 	 24.6993 	 82.3579 	 
H 	 44.8617 	 24.5945 	 83.4081 	 
H 	 45.7375 	 24.8269 	 81.9216 	 
C 	 44.4026 	 23.3441 	 81.7205 	 
H 	 43.8655 	 23.3327 	 80.7436 	 
H 	 43.8376 	 22.7611 	 82.5162 	 
H 	 45.3099 	 22.7997 	 81.4506 	 
H 	 38.0696 	 29.0028 	 83.0047 	 
H 	 46.3469 	 29.5799 	 82.8523 	 
*
