! wB97X-D3 SP def2-SVP
%pal
nprocs 16
end

* xyz 0 1
S 	 7.84521 	 23.0875 	 41.2929 	 
C 	 6.47197 	 24.05 	 41.8491 	 
C 	 6.72886 	 25.3672 	 41.9262 	 
C 	 7.9846 	 25.683 	 41.3749 	 
C 	 8.71846 	 24.5709 	 41.0003 	 
H 	 8.40886 	 26.6233 	 41.1854 	 
C 	 5.65861 	 26.3601 	 42.442 	 
H 	 6.04496 	 27.087 	 43.1188 	 
H 	 4.93034 	 25.7205 	 43.0414 	 
C 	 4.86479 	 27.0003 	 41.2791 	 
H 	 5.5779 	 27.4172 	 40.4777 	 
H 	 4.33639 	 26.238 	 40.7727 	 
C 	 3.681 	 27.9641 	 41.6448 	 
H 	 2.9651 	 27.485 	 42.3089 	 
H 	 4.05585 	 28.8252 	 42.1805 	 
H 	 3.24274 	 28.4096 	 40.7608 	 
S 	 11.3728 	 25.0024 	 41.1877 	 
C 	 12.2689 	 24.9239 	 39.6712 	 
C 	 11.557 	 24.407 	 38.6076 	 
C 	 10.19 	 24.1406 	 38.9692 	 
C 	 9.93623 	 24.5402 	 40.2686 	 
H 	 12.1551 	 24.3442 	 37.6222 	 
C 	 9.1168 	 23.911 	 37.9252 	 
H 	 8.19485 	 23.8061 	 38.3149 	 
H 	 9.26843 	 23.1 	 37.2544 	 
C 	 8.84146 	 25.1181 	 37.0078 	 
H 	 9.68484 	 25.3305 	 36.3295 	 
H 	 8.84733 	 26.0487 	 37.5978 	 
C 	 7.51281 	 25.1956 	 36.1634 	 
H 	 6.6418 	 25.0392 	 36.8272 	 
H 	 7.41537 	 24.4556 	 35.3422 	 
H 	 7.42776 	 26.2338 	 35.7698 	 
H 	 5.53203 	 23.6109 	 42.1826 	 
H 	 13.3274 	 25.0907 	 39.74 	 
*
