! wB97X-D3 SP def2-SVP
%pal
nprocs 16
end

* xyz 0 1
S 	 -25.7836 	 -7.33743 	 87.2363 	 
C 	 -27.4297 	 -7.54156 	 86.6876 	 
C 	 -28.2909 	 -6.6318 	 87.318 	 
C 	 -27.5784 	 -5.65839 	 88.0827 	 
C 	 -26.2505 	 -5.92377 	 88.1992 	 
H 	 -28.0732 	 -4.83536 	 88.5525 	 
C 	 -29.7971 	 -6.67227 	 87.1985 	 
H 	 -30.1218 	 -6.30845 	 88.2154 	 
H 	 -30.1385 	 -7.65871 	 87.196 	 
C 	 -30.5736 	 -6.04864 	 86.0986 	 
H 	 -30.2115 	 -6.32351 	 85.0633 	 
H 	 -31.616 	 -6.28187 	 86.195 	 
C 	 -30.7196 	 -4.533 	 86.1666 	 
H 	 -29.7644 	 -4.10139 	 85.7993 	 
H 	 -31.5347 	 -4.11454 	 85.5556 	 
H 	 -30.8475 	 -4.21601 	 87.1895 	 
S 	 -23.8755 	 -5.80852 	 89.6422 	 
C 	 -23.2331 	 -4.29007 	 90.2299 	 
C 	 -23.968 	 -3.24245 	 89.6986 	 
C 	 -25.1066 	 -3.67297 	 88.9436 	 
C 	 -25.221 	 -5.05778 	 88.812 	 
H 	 -23.6705 	 -2.24731 	 89.8913 	 
C 	 -25.8901 	 -2.61711 	 88.2937 	 
H 	 -25.7534 	 -1.63675 	 88.7846 	 
H 	 -26.8982 	 -2.83907 	 88.5531 	 
C 	 -25.6552 	 -2.4639 	 86.7221 	 
H 	 -26.1803 	 -3.25832 	 86.1693 	 
H 	 -24.6405 	 -2.6109 	 86.3445 	 
C 	 -26.1439 	 -1.14574 	 86.1411 	 
H 	 -25.9239 	 -1.0048 	 85.1085 	 
H 	 -25.7148 	 -0.276996 	 86.6212 	 
H 	 -27.2198 	 -0.963092 	 86.3146 	 
H 	 -27.8526 	 -8.22913 	 85.9702 	 
H 	 -22.2943 	 -4.09876 	 90.6374 	 
*
