! wB97X-D3 SP def2-SVP
%pal
nprocs 16
end

* xyz 0 1
S 	 1.49326 	 16.7248 	 87.8551 	 
C 	 -0.0326798 	 16.7427 	 87.0378 	 
C 	 -1.11049 	 16.4918 	 87.8769 	 
C 	 -0.640552 	 16.314 	 89.1603 	 
C 	 0.718674 	 16.2374 	 89.2806 	 
H 	 -1.37837 	 16.1877 	 89.9627 	 
C 	 -2.53601 	 16.743 	 87.4831 	 
H 	 -3.21117 	 16.4897 	 88.3379 	 
H 	 -2.70025 	 16.15 	 86.5936 	 
C 	 -2.89276 	 18.2799 	 87.2145 	 
H 	 -2.85995 	 18.8615 	 88.1416 	 
H 	 -2.04842 	 18.7034 	 86.5846 	 
C 	 -4.18544 	 18.4496 	 86.4337 	 
H 	 -4.51548 	 19.5103 	 86.3126 	 
H 	 -4.15239 	 17.9991 	 85.448 	 
H 	 -5.08303 	 18.0068 	 86.931 	 
S 	 1.86843 	 17.0752 	 91.5483 	 
C 	 2.40471 	 15.9045 	 92.7183 	 
C 	 2.06114 	 14.6176 	 92.3211 	 
C 	 1.51461 	 14.5579 	 91.0253 	 
C 	 1.44296 	 15.8344 	 90.4526 	 
H 	 2.26178 	 13.8474 	 93.0718 	 
C 	 0.90282 	 13.3304 	 90.4417 	 
H 	 0.288132 	 13.5755 	 89.5914 	 
H 	 0.260779 	 12.8005 	 91.0759 	 
C 	 1.90389 	 12.3624 	 89.747 	 
H 	 2.60462 	 12.9495 	 89.2241 	 
H 	 1.47725 	 11.7473 	 88.9398 	 
C 	 2.70878 	 11.5005 	 90.6986 	 
H 	 3.24071 	 10.8631 	 90.0183 	 
H 	 2.09464 	 10.7844 	 91.2266 	 
H 	 3.27116 	 12.0534 	 91.4162 	 
H 	 -0.0931573 	 17.1553 	 86.0791 	 
H 	 2.92566 	 16.0778 	 93.6299 	 
*
