! wB97X-D3 SP def2-SVP
%pal
nprocs 16
end

* xyz 0 1
S 	 -36.288 	 51.8614 	 112.352 	 
C 	 -37.7357 	 51.1341 	 113.045 	 
C 	 -38.5633 	 50.577 	 112.086 	 
C 	 -37.9778 	 50.7349 	 110.819 	 
C 	 -36.7813 	 51.3937 	 110.726 	 
H 	 -38.4296 	 50.4406 	 109.884 	 
C 	 -39.865 	 49.8559 	 112.262 	 
H 	 -40.1197 	 49.4531 	 113.266 	 
H 	 -39.8241 	 49.0221 	 111.636 	 
C 	 -41.1008 	 50.6734 	 111.805 	 
H 	 -41.3315 	 51.4368 	 112.556 	 
H 	 -40.9007 	 51.2426 	 110.913 	 
C 	 -42.2573 	 49.7575 	 111.738 	 
H 	 -43.1949 	 50.2923 	 111.378 	 
H 	 -41.9995 	 48.9786 	 110.973 	 
H 	 -42.5199 	 49.2171 	 112.639 	 
S 	 -35.4448 	 50.4847 	 108.606 	 
C 	 -34.8446 	 51.5959 	 107.374 	 
C 	 -34.8751 	 52.8693 	 107.845 	 
C 	 -35.5535 	 52.9973 	 109.137 	 
C 	 -36.0099 	 51.7584 	 109.593 	 
H 	 -34.619 	 53.7053 	 107.216 	 
C 	 -36.0039 	 54.3185 	 109.745 	 
H 	 -35.3504 	 55.1089 	 109.407 	 
H 	 -35.7957 	 54.3064 	 110.785 	 
C 	 -37.466 	 54.6472 	 109.668 	 
H 	 -37.7129 	 55.6496 	 110.06 	 
H 	 -38.1196 	 54.023 	 110.28 	 
C 	 -38.1136 	 54.6858 	 108.266 	 
H 	 -37.4949 	 55.4098 	 107.7 	 
H 	 -39.068 	 55.1778 	 108.172 	 
H 	 -38.101 	 53.7225 	 107.747 	 
H 	 -37.9342 	 51.0248 	 114.084 	 
H 	 -34.5614 	 51.3166 	 106.331 	 
*
