! wB97X-D3 SP def2-SVP
%pal
nprocs 16
end

* xyz 0 1
S 	 -14.6288 	 75.5746 	 54.4834 	 
C 	 -16.2978 	 75.6772 	 53.8402 	 
C 	 -16.8446 	 74.454 	 54.0461 	 
C 	 -16.0338 	 73.4765 	 54.7542 	 
C 	 -14.7733 	 73.8674 	 55.0624 	 
H 	 -16.4019 	 72.5115 	 55.0048 	 
C 	 -18.2963 	 74.0328 	 53.7883 	 
H 	 -18.4036 	 73.0092 	 54.2127 	 
H 	 -18.5203 	 73.8666 	 52.7465 	 
C 	 -19.3521 	 75.0341 	 54.3431 	 
H 	 -19.2952 	 75.2221 	 55.3996 	 
H 	 -19.245 	 76.0942 	 53.9786 	 
C 	 -20.7525 	 74.4192 	 54.1433 	 
H 	 -20.912 	 73.9913 	 53.1303 	 
H 	 -20.9057 	 73.5986 	 54.8235 	 
H 	 -21.5653 	 75.1796 	 54.3203 	 
S 	 -13.3653 	 73.6129 	 57.482 	 
C 	 -12.0068 	 72.4788 	 57.5085 	 
C 	 -11.9292 	 71.6729 	 56.3416 	 
C 	 -12.8912 	 72.1318 	 55.3499 	 
C 	 -13.7103 	 73.1536 	 55.803 	 
H 	 -11.1596 	 70.9281 	 56.3086 	 
C 	 -12.9636 	 71.3896 	 54.0694 	 
H 	 -11.9644 	 71.2075 	 53.7853 	 
H 	 -13.3131 	 72.0466 	 53.3143 	 
C 	 -13.7037 	 70.0211 	 54.1851 	 
H 	 -14.6536 	 70.1423 	 54.6118 	 
H 	 -13.06 	 69.4197 	 54.862 	 
C 	 -13.9576 	 69.3314 	 52.9095 	 
H 	 -14.6579 	 68.4606 	 53.0567 	 
H 	 -13.0917 	 68.8196 	 52.4679 	 
H 	 -14.4473 	 70.0175 	 52.1522 	 
H 	 -16.7086 	 76.523 	 53.3376 	 
H 	 -11.2787 	 72.2747 	 58.3309 	 
*
