! wB97X-D3 SP def2-SVP
%pal
nprocs 16
end

* xyz 0 1
S 	 1.13295 	 -24.713 	 58.3804 	 
C 	 0.729488 	 -26.3653 	 58.0158 	 
C 	 1.66762 	 -26.9986 	 57.2049 	 
C 	 2.82454 	 -26.1802 	 57.0165 	 
C 	 2.77232 	 -25.0013 	 57.7068 	 
H 	 3.64238 	 -26.4079 	 56.3918 	 
C 	 1.42716 	 -28.2732 	 56.4752 	 
H 	 1.69765 	 -28.0033 	 55.4558 	 
H 	 0.379079 	 -28.3976 	 56.4918 	 
C 	 2.29351 	 -29.4679 	 57.0673 	 
H 	 1.75868 	 -30.3408 	 56.7009 	 
H 	 3.3386 	 -29.6005 	 56.6716 	 
C 	 2.39021 	 -29.572 	 58.5794 	 
H 	 1.39216 	 -29.3346 	 58.9364 	 
H 	 2.55544 	 -30.5897 	 58.936 	 
H 	 3.1083 	 -28.8434 	 59.0563 	 
S 	 3.20399 	 -22.3834 	 56.9062 	 
C 	 4.79755 	 -21.678 	 56.9385 	 
C 	 5.65523 	 -22.5788 	 57.5013 	 
C 	 5.11962 	 -23.8163 	 57.9042 	 
C 	 3.73564 	 -23.885 	 57.6336 	 
H 	 6.69842 	 -22.4066 	 57.5003 	 
C 	 5.92061 	 -24.9369 	 58.4909 	 
H 	 5.30564 	 -25.7192 	 58.7527 	 
H 	 6.32836 	 -24.6094 	 59.4466 	 
C 	 7.23353 	 -25.3553 	 57.7808 	 
H 	 7.72759 	 -26.1772 	 58.3892 	 
H 	 7.84177 	 -24.4976 	 57.7772 	 
C 	 6.79253 	 -25.8193 	 56.3307 	 
H 	 7.54695 	 -26.5415 	 55.9256 	 
H 	 6.72177 	 -25.003 	 55.5505 	 
H 	 5.90965 	 -26.3858 	 56.3762 	 
H 	 -0.145799 	 -26.8928 	 58.3421 	 
H 	 5.00364 	 -20.7286 	 56.4563 	 
*
