! wB97X-D3 SP def2-SVP
%pal
nprocs 16
end

* xyz 0 1
S 	 0.862149 	 -17.6426 	 78.4963 	 
C 	 -0.00569947 	 -17.896 	 80.0742 	 
C 	 -0.659847 	 -16.7058 	 80.4426 	 
C 	 -0.180775 	 -15.5834 	 79.6663 	 
C 	 0.647485 	 -15.8927 	 78.5881 	 
H 	 -0.553924 	 -14.5356 	 79.8643 	 
C 	 -1.57486 	 -16.6053 	 81.6523 	 
H 	 -1.58764 	 -15.5832 	 82.0828 	 
H 	 -1.21829 	 -17.2052 	 82.5038 	 
C 	 -3.03135 	 -16.8682 	 81.3063 	 
H 	 -3.41668 	 -16.1739 	 80.5422 	 
H 	 -3.16101 	 -17.8536 	 80.8131 	 
C 	 -3.98474 	 -17.1229 	 82.4911 	 
H 	 -4.06635 	 -16.132 	 82.9562 	 
H 	 -4.98617 	 -17.3615 	 82.1835 	 
H 	 -3.61042 	 -17.9199 	 83.2131 	 
S 	 0.0351842 	 -14.3469 	 76.4401 	 
C 	 1.28292 	 -13.6411 	 75.5241 	 
C 	 2.53282 	 -14.0222 	 75.9342 	 
C 	 2.54355 	 -14.7257 	 77.1785 	 
C 	 1.2115 	 -15.0107 	 77.5471 	 
H 	 3.38837 	 -13.6633 	 75.4569 	 
C 	 3.84684 	 -15.1494 	 77.8414 	 
H 	 3.70371 	 -15.555 	 78.8688 	 
H 	 4.4372 	 -14.2919 	 78.121 	 
C 	 4.77441 	 -16.0396 	 76.9763 	 
H 	 5.01107 	 -15.4863 	 76.0708 	 
H 	 4.34776 	 -16.9379 	 76.6279 	 
C 	 6.07494 	 -16.3064 	 77.7054 	 
H 	 6.56877 	 -15.4424 	 78.1458 	 
H 	 6.82269 	 -16.7532 	 77.0404 	 
H 	 5.91302 	 -17.0208 	 78.5951 	 
H 	 -0.178688 	 -18.8335 	 80.588 	 
H 	 1.16458 	 -13.0593 	 74.6239 	 
*
