! wB97X-D3 SP def2-SVP
%pal
nprocs 16
end

* xyz 0 1
S 	 -89.58 	 42.972 	 119.512 	 
C 	 -88.9833 	 41.3846 	 119.882 	 
C 	 -89.4128 	 40.4409 	 118.937 	 
C 	 -89.9959 	 41.1076 	 117.788 	 
C 	 -90.0963 	 42.4721 	 117.956 	 
H 	 -90.3619 	 40.5432 	 116.946 	 
C 	 -89.3554 	 38.9418 	 119.055 	 
H 	 -88.7381 	 38.8449 	 119.963 	 
H 	 -88.8767 	 38.5562 	 118.17 	 
C 	 -90.68 	 38.2695 	 119.33 	 
H 	 -91.1495 	 38.6257 	 120.259 	 
H 	 -91.3372 	 38.5399 	 118.542 	 
C 	 -90.609 	 36.7502 	 119.219 	 
H 	 -90.5775 	 36.429 	 118.158 	 
H 	 -89.6184 	 36.4259 	 119.601 	 
H 	 -91.4609 	 36.2407 	 119.628 	 
S 	 -92.1795 	 44.3341 	 117.41 	 
C 	 -92.0852 	 45.1812 	 115.876 	 
C 	 -91.1323 	 44.6129 	 115.046 	 
C 	 -90.3781 	 43.6454 	 115.694 	 
C 	 -90.6988 	 43.417 	 117.012 	 
H 	 -91.0484 	 44.9427 	 113.993 	 
C 	 -89.1581 	 43.0303 	 115.047 	 
H 	 -88.5323 	 42.6022 	 115.856 	 
H 	 -88.5575 	 43.7934 	 114.632 	 
C 	 -89.3979 	 41.9162 	 114.045 	 
H 	 -90.1039 	 42.2614 	 113.3 	 
H 	 -89.7543 	 40.9917 	 114.592 	 
C 	 -88.0981 	 41.5929 	 113.28 	 
H 	 -87.4466 	 41.0335 	 114.011 	 
H 	 -87.6003 	 42.5099 	 112.916 	 
H 	 -88.2747 	 41.0332 	 112.339 	 
H 	 -88.1885 	 41.2103 	 120.645 	 
H 	 -92.8721 	 45.9231 	 115.655 	 
*
