! wB97X-D3 SP def2-SVP
%pal
nprocs 16
end

* xyz 0 1
S 	 -52.7002 	 43.7899 	 106.491 	 
C 	 -51.9897 	 45.229 	 107.124 	 
C 	 -52.8551 	 46.0204 	 107.853 	 
C 	 -54.1358 	 45.2992 	 108.005 	 
C 	 -54.1534 	 44.0722 	 107.413 	 
H 	 -55.0426 	 45.6321 	 108.516 	 
C 	 -52.5294 	 47.4298 	 108.417 	 
H 	 -51.4694 	 47.3988 	 108.612 	 
H 	 -52.7341 	 47.4774 	 109.461 	 
C 	 -52.8059 	 48.6584 	 107.394 	 
H 	 -52.2951 	 48.473 	 106.389 	 
H 	 -53.7931 	 48.7336 	 107.097 	 
C 	 -52.4409 	 49.9719 	 108.013 	 
H 	 -52.6793 	 50.0939 	 109.072 	 
H 	 -51.3233 	 50.1037 	 108.148 	 
H 	 -52.8008 	 50.7659 	 107.36 	 
S 	 -55.8774 	 42.3138 	 105.995 	 
C 	 -56.8656 	 41.2336 	 106.952 	 
C 	 -56.6214 	 41.3713 	 108.305 	 
C 	 -55.678 	 42.4035 	 108.604 	 
C 	 -55.1839 	 43.0458 	 107.489 	 
H 	 -57.2367 	 40.8853 	 109.044 	 
C 	 -55.3499 	 42.8157 	 110.087 	 
H 	 -56.237 	 42.3121 	 110.641 	 
H 	 -55.5765 	 43.8793 	 110.27 	 
C 	 -53.9459 	 42.6283 	 110.672 	 
H 	 -53.2724 	 42.629 	 109.865 	 
H 	 -53.9792 	 41.6011 	 111.178 	 
C 	 -53.554 	 43.7197 	 111.683 	 
H 	 -54.1207 	 43.5909 	 112.568 	 
H 	 -53.9629 	 44.6858 	 111.362 	 
H 	 -52.4834 	 43.8704 	 112.028 	 
H 	 -50.9843 	 45.5172 	 106.967 	 
H 	 -57.5627 	 40.5531 	 106.515 	 
*
