! wB97X-D3 SP def2-SVP
%pal
nprocs 16
end

* xyz 0 1
S 	 -35.9956 	 60.8631 	 108.57 	 
C 	 -36.6789 	 59.3815 	 109.05 	 
C 	 -36.6524 	 58.4786 	 108.027 	 
C 	 -36.1991 	 59.0583 	 106.794 	 
C 	 -35.6816 	 60.3393 	 106.874 	 
H 	 -36.0992 	 58.5282 	 105.836 	 
C 	 -37.1425 	 57.0563 	 108.102 	 
H 	 -37.5396 	 56.9889 	 107.122 	 
H 	 -37.9652 	 56.8523 	 108.809 	 
C 	 -35.9848 	 56.0136 	 108.306 	 
H 	 -35.4285 	 56.317 	 109.24 	 
H 	 -36.2829 	 55.0483 	 108.487 	 
C 	 -35.0097 	 55.9513 	 107.133 	 
H 	 -34.2699 	 55.1501 	 107.265 	 
H 	 -35.5313 	 55.795 	 106.127 	 
H 	 -34.4318 	 56.8695 	 107.041 	 
S 	 -33.3842 	 61.753 	 106.436 	 
C 	 -33.1112 	 62.5988 	 104.902 	 
C 	 -34.1229 	 62.3221 	 104.02 	 
C 	 -35.1364 	 61.4985 	 104.587 	 
C 	 -34.9466 	 61.1565 	 105.939 	 
H 	 -34.1488 	 62.6354 	 102.999 	 
C 	 -36.3512 	 61.0921 	 103.718 	 
H 	 -36.8591 	 60.4031 	 104.354 	 
H 	 -36.1021 	 60.4936 	 102.856 	 
C 	 -37.2415 	 62.2597 	 103.243 	 
H 	 -36.59 	 62.9524 	 102.68 	 
H 	 -37.7389 	 62.781 	 104.053 	 
C 	 -38.3083 	 61.6708 	 102.277 	 
H 	 -38.9614 	 61.0299 	 102.874 	 
H 	 -37.9105 	 61.0951 	 101.431 	 
H 	 -38.9792 	 62.4957 	 101.816 	 
H 	 -37.2149 	 59.2263 	 109.935 	 
H 	 -32.2645 	 63.3207 	 104.701 	 
*
