! wB97X-D3 SP def2-SVP
%pal
nprocs 16
end

* xyz 0 1
S 	 -37.2135 	 49.2954 	 107.269 	 
C 	 -36.968 	 48.5711 	 108.831 	 
C 	 -38.1599 	 48.1781 	 109.422 	 
C 	 -39.3025 	 48.4571 	 108.604 	 
C 	 -38.9397 	 48.9302 	 107.369 	 
H 	 -40.3276 	 48.3442 	 108.917 	 
C 	 -38.3105 	 47.6429 	 110.801 	 
H 	 -37.3004 	 47.2385 	 111.023 	 
H 	 -38.9497 	 46.8172 	 110.804 	 
C 	 -38.7502 	 48.6582 	 111.877 	 
H 	 -39.6634 	 49.1995 	 111.631 	 
H 	 -38.8633 	 48.1304 	 112.829 	 
C 	 -37.7326 	 49.6959 	 112.063 	 
H 	 -36.6718 	 49.377 	 112.179 	 
H 	 -37.8374 	 50.5347 	 111.334 	 
H 	 -38.0144 	 50.0053 	 113.105 	 
S 	 -39.7604 	 50.8526 	 105.565 	 
C 	 -40.9377 	 50.4638 	 104.309 	 
C 	 -41.3374 	 49.1415 	 104.511 	 
C 	 -40.7891 	 48.4812 	 105.674 	 
C 	 -39.8417 	 49.2569 	 106.337 	 
H 	 -41.9821 	 48.6915 	 103.772 	 
C 	 -41.0442 	 47.0011 	 105.905 	 
H 	 -40.5904 	 46.5991 	 106.863 	 
H 	 -40.4877 	 46.4441 	 105.118 	 
C 	 -42.4834 	 46.5615 	 105.756 	 
H 	 -42.8242 	 46.5543 	 104.701 	 
H 	 -43.069 	 47.3232 	 106.304 	 
C 	 -42.7252 	 45.1267 	 106.311 	 
H 	 -43.6174 	 44.7487 	 105.984 	 
H 	 -42.753 	 45.1195 	 107.342 	 
H 	 -41.9429 	 44.4443 	 106.015 	 
H 	 -36.0654 	 48.4367 	 109.379 	 
H 	 -41.4897 	 50.9957 	 103.496 	 
*
