! wB97X-D3 SP def2-SVP
%pal
nprocs 16
end

* xyz 0 1
S 	 -27.5544 	 -2.72212 	 104.996 	 
C 	 -28.5589 	 -2.80475 	 106.408 	 
C 	 -29.924 	 -3.10302 	 106.046 	 
C 	 -30.1007 	 -2.92135 	 104.635 	 
C 	 -28.9538 	 -2.60921 	 103.934 	 
H 	 -31.0686 	 -3.03593 	 104.1 	 
C 	 -31.0549 	 -3.46417 	 107.05 	 
H 	 -31.9557 	 -2.89206 	 106.765 	 
H 	 -30.7938 	 -3.06518 	 108.037 	 
C 	 -31.336 	 -4.94685 	 107.325 	 
H 	 -30.4149 	 -5.43573 	 107.669 	 
H 	 -32.101 	 -4.87663 	 108.083 	 
C 	 -31.8488 	 -5.75857 	 106.145 	 
H 	 -31.0715 	 -6.03719 	 105.447 	 
H 	 -32.2619 	 -6.64261 	 106.52 	 
H 	 -32.5467 	 -5.1482 	 105.524 	 
S 	 -27.3151 	 -2.96738 	 101.747 	 
C 	 -27.7545 	 -2.25663 	 100.177 	 
C 	 -29.0853 	 -1.78347 	 100.357 	 
C 	 -29.6635 	 -1.85416 	 101.637 	 
C 	 -28.7756 	 -2.3345 	 102.509 	 
H 	 -29.5588 	 -1.3657 	 99.4703 	 
C 	 -31.1243 	 -1.35323 	 101.872 	 
H 	 -31.2887 	 -0.342292 	 101.475 	 
H 	 -31.2098 	 -1.14532 	 102.935 	 
C 	 -32.2279 	 -2.27762 	 101.428 	 
H 	 -32.1293 	 -3.32887 	 101.726 	 
H 	 -32.4142 	 -2.26394 	 100.352 	 
C 	 -33.5873 	 -1.7247 	 102.097 	 
H 	 -34.4708 	 -2.40324 	 101.784 	 
H 	 -33.8571 	 -0.744931 	 101.752 	 
H 	 -33.5676 	 -1.73254 	 103.163 	 
H 	 -28.2875 	 -2.79957 	 107.451 	 
H 	 -27.1385 	 -2.27102 	 99.2065 	 
*
