! wB97X-D3 SP def2-SVP
%pal
nprocs 16
end

* xyz 0 1
S 	 54.5812 	 4.18288 	 80.3891 	 
C 	 53.1464 	 3.49965 	 81.1427 	 
C 	 52.9993 	 2.17712 	 81.0138 	 
C 	 54.1638 	 1.61278 	 80.3789 	 
C 	 55.0703 	 2.54471 	 79.9704 	 
H 	 54.3446 	 0.566273 	 80.1687 	 
C 	 51.878 	 1.39596 	 81.6324 	 
H 	 51.1665 	 2.07062 	 82.0906 	 
H 	 52.2493 	 0.844562 	 82.5266 	 
C 	 51.0725 	 0.418251 	 80.6989 	 
H 	 50.7178 	 0.783382 	 79.8183 	 
H 	 51.8519 	 -0.344299 	 80.4525 	 
C 	 49.9486 	 -0.424801 	 81.4107 	 
H 	 49.219 	 0.300041 	 81.9051 	 
H 	 49.3575 	 -1.00572 	 80.6586 	 
H 	 50.3663 	 -1.14694 	 82.1372 	 
S 	 57.8333 	 2.63932 	 79.8981 	 
C 	 58.6595 	 2.0312 	 78.3782 	 
C 	 57.7604 	 1.4636 	 77.5337 	 
C 	 56.4052 	 1.60192 	 77.9603 	 
C 	 56.2706 	 2.16481 	 79.2472 	 
H 	 58.133 	 1.13264 	 76.5476 	 
C 	 55.2302 	 1.1601 	 77.0929 	 
H 	 54.6028 	 2.03313 	 76.9138 	 
H 	 54.5803 	 0.387578 	 77.5361 	 
C 	 55.6818 	 0.512666 	 75.7385 	 
H 	 56.2679 	 -0.438889 	 75.98 	 
H 	 56.2264 	 1.1836 	 75.0745 	 
C 	 54.5919 	 -0.116883 	 74.9007 	 
H 	 54.2146 	 0.753977 	 74.4335 	 
H 	 53.7842 	 -0.750304 	 75.3985 	 
H 	 54.9423 	 -0.76311 	 74.1184 	 
H 	 52.3989 	 4.09639 	 81.6835 	 
H 	 59.7087 	 2.22014 	 78.1576 	 
*
