! wB97X-D3 SP def2-SVP
%pal
nprocs 16
end

* xyz 0 1
S 	 -38.1051 	 20.5449 	 76.8202 	 
C 	 -39.59 	 20.3199 	 75.9596 	 
C 	 -40.39 	 19.4493 	 76.6452 	 
C 	 -39.7628 	 18.776 	 77.7455 	 
C 	 -38.5065 	 19.3181 	 78.021 	 
H 	 -40.1209 	 17.8908 	 78.3263 	 
C 	 -41.8205 	 19.0688 	 76.2232 	 
H 	 -42.126 	 19.7339 	 75.4513 	 
H 	 -42.4792 	 19.2319 	 77.0652 	 
C 	 -41.9682 	 17.7371 	 75.5387 	 
H 	 -42.8233 	 17.774 	 74.9779 	 
H 	 -41.089 	 17.4834 	 74.9454 	 
C 	 -42.1274 	 16.5426 	 76.549 	 
H 	 -41.2971 	 16.3465 	 77.2032 	 
H 	 -43.0743 	 16.7501 	 77.1017 	 
H 	 -42.3057 	 15.5748 	 75.9726 	 
S 	 -35.8026 	 18.4306 	 78.0631 	 
C 	 -35.0501 	 18.2611 	 79.6014 	 
C 	 -36.0347 	 17.9956 	 80.5412 	 
C 	 -37.3694 	 18.2431 	 80.1698 	 
C 	 -37.4105 	 18.7803 	 78.8639 	 
H 	 -35.6916 	 17.6061 	 81.5293 	 
C 	 -38.5302 	 17.8575 	 81.0615 	 
H 	 -38.1932 	 16.9043 	 81.3943 	 
H 	 -39.4032 	 17.7517 	 80.3738 	 
C 	 -38.6709 	 18.7869 	 82.2248 	 
H 	 -39.313 	 19.5957 	 81.825 	 
H 	 -37.6783 	 19.1174 	 82.5671 	 
C 	 -39.4528 	 18.2031 	 83.3417 	 
H 	 -38.7346 	 17.48 	 83.6792 	 
H 	 -40.3973 	 17.7451 	 83.0614 	 
H 	 -39.7677 	 19.023 	 84.0336 	 
H 	 -39.9822 	 20.9067 	 75.1168 	 
H 	 -34.0093 	 18.0052 	 79.784 	 
*
