! wB97X-D3 SP def2-SVP
%pal
nprocs 16
end

* xyz 0 1
S 	 46.7564 	 22.2386 	 88.0854 	 
C 	 46.013 	 23.4139 	 89.2073 	 
C 	 46.8596 	 23.6486 	 90.2695 	 
C 	 48.1688 	 22.9906 	 90.166 	 
C 	 48.2979 	 22.2965 	 88.982 	 
H 	 49.0075 	 22.937 	 90.8834 	 
C 	 46.5521 	 24.5509 	 91.448 	 
H 	 47.0084 	 24.2756 	 92.3847 	 
H 	 45.5031 	 24.3111 	 91.7484 	 
C 	 46.7423 	 26.0806 	 91.1431 	 
H 	 46.6691 	 26.695 	 92.0506 	 
H 	 47.8053 	 26.2334 	 90.9541 	 
C 	 45.9275 	 26.6071 	 89.9621 	 
H 	 46.1698 	 27.6663 	 89.8442 	 
H 	 46.2154 	 26.0849 	 89.0845 	 
H 	 44.8898 	 26.4598 	 90.0281 	 
S 	 49.0402 	 19.7419 	 88.3638 	 
C 	 50.7327 	 19.3935 	 88.0547 	 
C 	 51.5593 	 20.4561 	 88.2846 	 
C 	 50.7704 	 21.6291 	 88.5351 	 
C 	 49.3782 	 21.4384 	 88.6477 	 
H 	 52.6251 	 20.3376 	 88.0724 	 
C 	 51.3986 	 23.0046 	 88.6512 	 
H 	 52.3482 	 22.8478 	 89.2236 	 
H 	 50.7945 	 23.7284 	 89.1498 	 
C 	 51.6836 	 23.6621 	 87.3005 	 
H 	 50.7955 	 23.7442 	 86.6819 	 
H 	 52.4614 	 23.1646 	 86.6963 	 
C 	 52.2267 	 25.0597 	 87.4992 	 
H 	 52.3562 	 25.7529 	 86.6619 	 
H 	 53.1954 	 24.9537 	 87.9928 	 
H 	 51.6269 	 25.5938 	 88.2532 	 
H 	 45.0865 	 23.9513 	 88.9981 	 
H 	 51.1307 	 18.4386 	 87.678 	 
*
