! wB97X-D3 SP def2-SVP
%pal
nprocs 16
end

* xyz 0 1
S 	 -86.0824 	 50.9727 	 133.906 	 
C 	 -85.6809 	 49.3378 	 134.085 	 
C 	 -86.0794 	 48.5782 	 132.964 	 
C 	 -86.8142 	 49.3434 	 132.038 	 
C 	 -86.9895 	 50.6235 	 132.46 	 
H 	 -87.2462 	 49.0038 	 131.109 	 
C 	 -85.8548 	 47.0773 	 132.783 	 
H 	 -86.7747 	 46.5518 	 132.579 	 
H 	 -85.5328 	 46.7348 	 133.752 	 
C 	 -84.8252 	 46.5159 	 131.769 	 
H 	 -84.0276 	 47.1976 	 131.925 	 
H 	 -84.6551 	 45.5162 	 132.139 	 
C 	 -85.2914 	 46.4734 	 130.289 	 
H 	 -85.9945 	 45.6577 	 130.106 	 
H 	 -85.7007 	 47.3917 	 129.868 	 
H 	 -84.3652 	 46.2698 	 129.662 	 
S 	 -86.9919 	 52.7326 	 130.75 	 
C 	 -88.5046 	 53.3617 	 130.149 	 
C 	 -89.5746 	 52.7078 	 130.735 	 
C 	 -89.1623 	 51.6606 	 131.627 	 
C 	 -87.7775 	 51.5614 	 131.737 	 
H 	 -90.6896 	 52.962 	 130.521 	 
C 	 -90.143 	 50.8267 	 132.419 	 
H 	 -90.7634 	 51.6216 	 132.842 	 
H 	 -89.7233 	 50.3595 	 133.284 	 
C 	 -91.004 	 49.8787 	 131.608 	 
H 	 -90.4347 	 49.111 	 131.16 	 
H 	 -91.3445 	 50.4173 	 130.651 	 
C 	 -92.2522 	 49.3517 	 132.329 	 
H 	 -92.8246 	 48.7647 	 131.613 	 
H 	 -92.7302 	 50.2894 	 132.774 	 
H 	 -92.1184 	 48.7117 	 133.22 	 
H 	 -85.1798 	 48.8716 	 134.897 	 
H 	 -88.6215 	 54.2239 	 129.513 	 
*
