! wB97X-D3 SP def2-SVP
%pal
nprocs 16
end

* xyz 0 1
S 	 -74.5703 	 50.6105 	 138.889 	 
C 	 -73.4631 	 50.1167 	 140.16 	 
C 	 -73.6146 	 50.8745 	 141.341 	 
C 	 -74.7817 	 51.7056 	 141.215 	 
C 	 -75.4924 	 51.6663 	 140.027 	 
H 	 -75.1938 	 52.2921 	 141.999 	 
C 	 -72.8307 	 50.6647 	 142.625 	 
H 	 -71.7782 	 50.4286 	 142.478 	 
H 	 -73.0982 	 49.6872 	 143.08 	 
C 	 -73.0585 	 51.8304 	 143.638 	 
H 	 -73.0167 	 52.7535 	 143.049 	 
H 	 -74.0871 	 51.8414 	 143.941 	 
C 	 -72.0431 	 51.7081 	 144.859 	 
H 	 -70.9974 	 52.0181 	 144.567 	 
H 	 -72.2468 	 52.4238 	 145.643 	 
H 	 -71.9957 	 50.6838 	 145.242 	 
S 	 -76.7771 	 54.1014 	 140.022 	 
C 	 -78.2501 	 54.342 	 139.102 	 
C 	 -78.6915 	 53.0964 	 138.694 	 
C 	 -77.8419 	 51.9947 	 138.911 	 
C 	 -76.7124 	 52.3431 	 139.651 	 
H 	 -79.5119 	 53.0237 	 137.961 	 
C 	 -78.1877 	 50.6718 	 138.202 	 
H 	 -79.2679 	 50.6015 	 138.292 	 
H 	 -77.9091 	 49.8134 	 138.877 	 
C 	 -77.6785 	 50.4228 	 136.781 	 
H 	 -77.7883 	 49.3384 	 136.631 	 
H 	 -76.5918 	 50.792 	 136.708 	 
C 	 -78.5283 	 51.1115 	 135.63 	 
H 	 -78.1617 	 50.8217 	 134.636 	 
H 	 -78.4748 	 52.2138 	 135.736 	 
H 	 -79.5557 	 50.7949 	 135.753 	 
H 	 -72.6967 	 49.4248 	 139.911 	 
H 	 -78.7484 	 55.3027 	 138.932 	 
*
