! wB97X-D3 SP def2-SVP
%pal
nprocs 16
end

* xyz 0 1
S 	 -52.9342 	 36.0138 	 89.2301 	 
C 	 -53.1829 	 34.7537 	 88.0511 	 
C 	 -54.1051 	 35.2383 	 87.0811 	 
C 	 -54.7577 	 36.4736 	 87.4185 	 
C 	 -54.1389 	 37.1378 	 88.5065 	 
H 	 -55.5439 	 36.9295 	 86.8474 	 
C 	 -54.5078 	 34.3722 	 85.902 	 
H 	 -55.2565 	 34.9444 	 85.2488 	 
H 	 -55.0474 	 33.4568 	 86.1095 	 
C 	 -53.3802 	 33.9575 	 84.9387 	 
H 	 -52.4125 	 33.6497 	 85.4287 	 
H 	 -53.5629 	 33.0262 	 84.3932 	 
C 	 -52.9445 	 34.9879 	 83.8874 	 
H 	 -53.0898 	 36.0495 	 84.1882 	 
H 	 -51.9337 	 35.0466 	 83.6023 	 
H 	 -53.4588 	 34.7437 	 82.9829 	 
S 	 -53.5925 	 39.8756 	 88.714 	 
C 	 -54.5958 	 40.8896 	 89.7297 	 
C 	 -55.5241 	 40.1213 	 90.4528 	 
C 	 -55.5209 	 38.7417 	 90.0476 	 
C 	 -54.5646 	 38.3764 	 89.0969 	 
H 	 -56.3004 	 40.6958 	 90.9624 	 
C 	 -56.5777 	 37.8461 	 90.6573 	 
H 	 -57.2894 	 37.3862 	 89.965 	 
H 	 -57.1891 	 38.5182 	 91.2742 	 
C 	 -56.0424 	 36.6487 	 91.5237 	 
H 	 -55.7838 	 37.0142 	 92.5196 	 
H 	 -55.14 	 36.2782 	 91.1543 	 
C 	 -56.9882 	 35.5593 	 91.5835 	 
H 	 -57.9483 	 35.8792 	 91.9347 	 
H 	 -56.5639 	 34.7751 	 92.2855 	 
H 	 -57.048 	 35.1234 	 90.5409 	 
H 	 -52.6422 	 33.8002 	 87.9962 	 
H 	 -54.5707 	 41.9527 	 89.7452 	 
*
