! wB97X-D3 SP def2-SVP
%pal
nprocs 16
end

* xyz 0 1
S 	 -1.09728 	 -15.5843 	 85.064 	 
C 	 -2.09483 	 -16.5764 	 84.0613 	 
C 	 -2.1593 	 -16.0879 	 82.7945 	 
C 	 -1.11008 	 -15.1439 	 82.5767 	 
C 	 -0.395535 	 -14.812 	 83.7266 	 
H 	 -0.945897 	 -14.6449 	 81.6706 	 
C 	 -3.1224 	 -16.447 	 81.6904 	 
H 	 -2.72012 	 -16.0209 	 80.706 	 
H 	 -4.06682 	 -15.9344 	 81.8504 	 
C 	 -3.21393 	 -17.9045 	 81.386 	 
H 	 -2.24111 	 -18.48 	 81.516 	 
H 	 -3.80597 	 -18.3231 	 82.1175 	 
C 	 -3.73162 	 -18.2595 	 79.9918 	 
H 	 -3.21778 	 -17.7733 	 79.1425 	 
H 	 -3.75364 	 -19.3042 	 79.8434 	 
H 	 -4.75219 	 -17.9342 	 79.8317 	 
S 	 1.93691 	 -13.8602 	 84.7533 	 
C 	 2.11316 	 -12.1797 	 85.0702 	 
C 	 1.33303 	 -11.4795 	 84.1558 	 
C 	 0.339556 	 -12.3109 	 83.4998 	 
C 	 0.46234 	 -13.6687 	 83.9189 	 
H 	 1.44722 	 -10.4025 	 83.9766 	 
C 	 -0.807449 	 -11.7807 	 82.7698 	 
H 	 -1.68307 	 -12.0889 	 83.3155 	 
H 	 -0.979834 	 -12.1136 	 81.7544 	 
C 	 -0.916699 	 -10.2365 	 82.7199 	 
H 	 -0.794881 	 -9.89402 	 83.749 	 
H 	 -1.98291 	 -10.0513 	 82.5056 	 
C 	 0.0561902 	 -9.50836 	 81.6971 	 
H 	 0.993117 	 -10.0169 	 81.6969 	 
H 	 0.233617 	 -8.49843 	 82.0759 	 
H 	 -0.4128 	 -9.46282 	 80.7445 	 
H 	 -2.81923 	 -17.3294 	 84.4063 	 
H 	 2.96763 	 -11.8119 	 85.5332 	 
*
