! wB97X-D3 SP def2-SVP
%pal
nprocs 16
end

* xyz 0 1
S 	 31.4286 	 30.8187 	 57.9204 	 
C 	 33.0032 	 30.2364 	 58.0841 	 
C 	 33.9225 	 31.0162 	 57.3575 	 
C 	 33.304 	 32.0944 	 56.7306 	 
C 	 31.945 	 32.207 	 56.9821 	 
H 	 33.6927 	 32.8401 	 56.0438 	 
C 	 35.4579 	 30.8151 	 57.179 	 
H 	 35.8914 	 31.5767 	 57.81 	 
H 	 35.8457 	 31.2351 	 56.2365 	 
C 	 36.1188 	 29.4354 	 57.3992 	 
H 	 35.8249 	 29.0516 	 58.4063 	 
H 	 35.672 	 28.7368 	 56.6522 	 
C 	 37.6051 	 29.5338 	 57.2177 	 
H 	 37.7363 	 29.6833 	 56.1471 	 
H 	 38.0303 	 30.4029 	 57.7812 	 
H 	 38.0901 	 28.6522 	 57.5537 	 
S 	 29.6179 	 32.8959 	 55.5574 	 
C 	 28.9842 	 34.5196 	 55.626 	 
C 	 29.8014 	 35.269 	 56.4471 	 
C 	 31.0404 	 34.63 	 56.8199 	 
C 	 31.0157 	 33.2693 	 56.5004 	 
H 	 29.5351 	 36.2938 	 56.5936 	 
C 	 32.1696 	 35.2961 	 57.6333 	 
H 	 33.0473 	 34.6784 	 57.7913 	 
H 	 31.7803 	 35.2731 	 58.6608 	 
C 	 32.5465 	 36.7724 	 57.2335 	 
H 	 33.4443 	 37.0146 	 57.7408 	 
H 	 31.8536 	 37.5184 	 57.6387 	 
C 	 32.8124 	 36.8208 	 55.7357 	 
H 	 32.9116 	 37.8944 	 55.3133 	 
H 	 32.0799 	 36.3507 	 55.11 	 
H 	 33.753 	 36.3776 	 55.5807 	 
H 	 33.3083 	 29.4103 	 58.5867 	 
H 	 28.0829 	 34.9633 	 55.2122 	 
*
