! wB97X-D3 SP def2-SVP
%pal
nprocs 16
end

* xyz 0 1
S 	 43.1372 	 13.0325 	 80.4236 	 
C 	 44.2457 	 12.4531 	 81.6956 	 
C 	 45.5391 	 12.4103 	 81.2524 	 
C 	 45.6536 	 12.8184 	 79.9208 	 
C 	 44.4731 	 13.1678 	 79.276 	 
H 	 46.5466 	 12.9536 	 79.2943 	 
C 	 46.7831 	 11.9783 	 82.0709 	 
H 	 46.5735 	 12.2922 	 83.1408 	 
H 	 47.6928 	 12.5132 	 81.9069 	 
C 	 47.2031 	 10.4869 	 82.0361 	 
H 	 47.344 	 10.1638 	 80.993 	 
H 	 48.2115 	 10.252 	 82.4743 	 
C 	 46.1711 	 9.60858 	 82.7581 	 
H 	 45.1869 	 9.9735 	 82.3877 	 
H 	 46.3042 	 8.59982 	 82.5452 	 
H 	 46.0757 	 9.67136 	 83.8725 	 
S 	 42.9056 	 12.1399 	 77.3614 	 
C 	 43.0735 	 12.7445 	 75.7384 	 
C 	 43.9601 	 13.7838 	 75.6251 	 
C 	 44.7705 	 13.969 	 76.7922 	 
C 	 44.1761 	 13.2253 	 77.8498 	 
H 	 44.0274 	 14.4132 	 74.7256 	 
C 	 45.8332 	 15.0313 	 76.968 	 
H 	 46.1325 	 15.0849 	 77.9365 	 
H 	 45.3937 	 16.0213 	 76.8366 	 
C 	 46.9172 	 14.8141 	 75.9164 	 
H 	 47.6839 	 15.5581 	 76.062 	 
H 	 46.537 	 15.108 	 74.9986 	 
C 	 47.6603 	 13.5364 	 75.9744 	 
H 	 48.4703 	 13.5813 	 76.6438 	 
H 	 48.1672 	 13.189 	 75.0961 	 
H 	 46.9392 	 12.7181 	 76.342 	 
H 	 44.0727 	 12.2444 	 82.754 	 
H 	 42.3685 	 12.3778 	 75.0305 	 
*
