! wB97X-D3 SP def2-SVP
%pal
nprocs 16
end

* xyz 0 1
S 	 -66.2965 	 39.2885 	 137.622 	 
C 	 -64.8167 	 39.4432 	 138.463 	 
C 	 -63.8048 	 39.7133 	 137.531 	 
C 	 -64.1762 	 39.6675 	 136.185 	 
C 	 -65.5554 	 39.5674 	 136.08 	 
H 	 -63.4662 	 39.8461 	 135.352 	 
C 	 -62.4332 	 39.8557 	 138.023 	 
H 	 -62.4606 	 40.3738 	 138.986 	 
H 	 -62.068 	 40.6118 	 137.382 	 
C 	 -61.5479 	 38.5883 	 137.914 	 
H 	 -61.4203 	 38.5938 	 136.852 	 
H 	 -60.6394 	 38.8474 	 138.463 	 
C 	 -62.2231 	 37.3085 	 138.226 	 
H 	 -62.9449 	 37.0899 	 137.515 	 
H 	 -61.5977 	 36.427 	 138.11 	 
H 	 -62.6289 	 37.2972 	 139.211 	 
S 	 -67.7688 	 38.6225 	 134.742 	 
C 	 -68.0953 	 39.009 	 133.128 	 
C 	 -67.1552 	 39.934 	 132.707 	 
C 	 -66.157 	 40.2284 	 133.654 	 
C 	 -66.2906 	 39.4862 	 134.81 	 
H 	 -67.3242 	 40.4341 	 131.776 	 
C 	 -65.127 	 41.2831 	 133.363 	 
H 	 -64.6726 	 41.4088 	 134.37 	 
H 	 -65.6894 	 42.1601 	 133.3 	 
C 	 -64.0925 	 40.9929 	 132.286 	 
H 	 -63.5692 	 41.8845 	 132.193 	 
H 	 -64.6614 	 40.9528 	 131.31 	 
C 	 -63.2239 	 39.752 	 132.565 	 
H 	 -62.6133 	 39.8698 	 133.505 	 
H 	 -62.5581 	 39.5452 	 131.807 	 
H 	 -63.877 	 38.9009 	 132.765 	 
H 	 -64.7923 	 39.487 	 139.525 	 
H 	 -68.9607 	 38.5074 	 132.703 	 
*
