! wB97X-D3 SP def2-SVP
%pal
nprocs 16
end

* xyz 0 1
S 	 -7.81396 	 42.2582 	 33.3975 	 
C 	 -7.36965 	 40.5987 	 32.7753 	 
C 	 -6.31516 	 40.0913 	 33.4945 	 
C 	 -5.8243 	 41.0355 	 34.4493 	 
C 	 -6.35738 	 42.3265 	 34.386 	 
H 	 -5.03308 	 40.8083 	 35.2073 	 
C 	 -5.89221 	 38.608 	 33.4761 	 
H 	 -5.76911 	 38.2775 	 32.4489 	 
H 	 -6.64936 	 37.941 	 33.816 	 
C 	 -4.58362 	 38.3174 	 34.2491 	 
H 	 -3.7268 	 39.0429 	 34.0687 	 
H 	 -4.77362 	 38.3416 	 35.3902 	 
C 	 -4.05573 	 37.015 	 33.8182 	 
H 	 -4.59191 	 36.1296 	 33.8603 	 
H 	 -3.81211 	 37.08 	 32.7279 	 
H 	 -3.12872 	 36.7713 	 34.4569 	 
S 	 -7.13755 	 44.4995 	 35.8442 	 
C 	 -5.96745 	 45.5195 	 36.6195 	 
C 	 -4.72009 	 45.0395 	 36.3813 	 
C 	 -4.69096 	 43.9545 	 35.4621 	 
C 	 -5.95853 	 43.4751 	 35.1453 	 
H 	 -3.88208 	 45.5837 	 36.7407 	 
C 	 -3.32078 	 43.3844 	 35.0424 	 
H 	 -3.24661 	 42.3411 	 35.5654 	 
H 	 -2.53566 	 43.9698 	 35.5219 	 
C 	 -3.06088 	 43.3044 	 33.5699 	 
H 	 -3.10579 	 44.2668 	 33.0603 	 
H 	 -3.78348 	 42.6737 	 33.0479 	 
C 	 -1.66182 	 42.6714 	 33.3137 	 
H 	 -1.52121 	 41.653 	 33.7242 	 
H 	 -1.00829 	 43.2932 	 33.8902 	 
H 	 -1.45897 	 42.66 	 32.2305 	 
H 	 -7.91716 	 40.0326 	 32.0385 	 
H 	 -6.22126 	 46.3193 	 37.2323 	 
*
