! wB97X-D3 SP def2-SVP
%pal
nprocs 16
end

* xyz 0 1
S 	 -65.9363 	 36.0834 	 145.617 	 
C 	 -67.5793 	 35.6326 	 145.082 	 
C 	 -67.7693 	 35.6469 	 143.716 	 
C 	 -66.5985 	 36.1763 	 143.118 	 
C 	 -65.5423 	 36.503 	 143.935 	 
H 	 -66.4579 	 36.4195 	 142.067 	 
C 	 -69.059 	 35.3924 	 142.876 	 
H 	 -69.4263 	 36.3809 	 142.527 	 
H 	 -69.844 	 35.0867 	 143.572 	 
C 	 -68.9555 	 34.3081 	 141.722 	 
H 	 -68.4351 	 34.7482 	 140.858 	 
H 	 -68.3731 	 33.4846 	 142.084 	 
C 	 -70.3539 	 33.8488 	 141.249 	 
H 	 -70.3435 	 33.0707 	 140.463 	 
H 	 -71.0415 	 33.6459 	 142.073 	 
H 	 -70.8441 	 34.7027 	 140.753 	 
S 	 -62.7583 	 36.3783 	 144.523 	 
C 	 -61.7367 	 37.5784 	 143.851 	 
C 	 -62.4346 	 38.4289 	 142.982 	 
C 	 -63.7959 	 38.0088 	 142.824 	 
C 	 -64.1792 	 37.0201 	 143.647 	 
H 	 -61.9143 	 39.2822 	 142.452 	 
C 	 -64.6574 	 38.7782 	 141.794 	 
H 	 -65.2106 	 38.088 	 141.232 	 
H 	 -63.9411 	 39.2214 	 141.095 	 
C 	 -65.4398 	 40.0339 	 142.308 	 
H 	 -65.9592 	 40.4709 	 141.541 	 
H 	 -64.7868 	 40.7582 	 142.723 	 
C 	 -66.4868 	 39.6286 	 143.343 	 
H 	 -67.0001 	 40.5319 	 143.733 	 
H 	 -66.0132 	 39.0296 	 144.155 	 
H 	 -67.2959 	 39.0518 	 142.919 	 
H 	 -68.1733 	 35.0896 	 145.754 	 
H 	 -60.6447 	 37.7263 	 144.138 	 
*
