! wB97X-D3 SP def2-SVP
%pal
nprocs 16
end

* xyz 0 1
S 	 65.2195 	 -6.75297 	 87.8133 	 
C 	 63.7069 	 -6.17382 	 88.5344 	 
C 	 64.0062 	 -5.44066 	 89.69 	 
C 	 65.3873 	 -5.29337 	 89.9239 	 
C 	 66.2186 	 -5.8857 	 88.9624 	 
H 	 65.8501 	 -4.72932 	 90.7431 	 
C 	 63.0101 	 -4.73686 	 90.5083 	 
H 	 63.3458 	 -4.79585 	 91.5754 	 
H 	 62.0972 	 -5.33943 	 90.4699 	 
C 	 62.6906 	 -3.23057 	 90.3318 	 
H 	 63.6365 	 -2.70463 	 90.5055 	 
H 	 62.5539 	 -3.12062 	 89.3003 	 
C 	 61.3994 	 -2.69155 	 91.021 	 
H 	 61.1908 	 -1.68804 	 90.5934 	 
H 	 60.6164 	 -3.40739 	 90.8224 	 
H 	 61.7582 	 -2.50272 	 92.0655 	 
S 	 68.5861 	 -6.90812 	 89.8241 	 
C 	 70.0276 	 -6.60726 	 88.9381 	 
C 	 69.8465 	 -5.54651 	 88.1253 	 
C 	 68.4944 	 -5.00346 	 88.1552 	 
C 	 67.6651 	 -5.78541 	 88.8889 	 
H 	 70.6917 	 -5.07417 	 87.704 	 
C 	 67.986 	 -3.82781 	 87.348 	 
H 	 66.9844 	 -4.07007 	 87.0193 	 
H 	 68.597 	 -3.51039 	 86.4243 	 
C 	 67.7782 	 -2.4945 	 88.2182 	 
H 	 67.1845 	 -2.58469 	 89.1121 	 
H 	 67.2435 	 -1.77714 	 87.5355 	 
C 	 69.0846 	 -1.94059 	 88.7929 	 
H 	 70.0288 	 -2.03504 	 88.2281 	 
H 	 69.2035 	 -2.44874 	 89.736 	 
H 	 69.1087 	 -0.906158 	 89.1498 	 
H 	 62.6996 	 -6.36868 	 88.2179 	 
H 	 70.9924 	 -6.96549 	 89.1214 	 
*
