! wB97X-D3 SP def2-SVP
%pal
nprocs 16
end

* xyz 0 1
S 	 -96.0146 	 54.6012 	 123.912 	 
C 	 -97.7171 	 55.0296 	 123.981 	 
C 	 -98.4157 	 54.2529 	 124.879 	 
C 	 -97.5952 	 53.3142 	 125.591 	 
C 	 -96.345 	 53.2594 	 125.04 	 
H 	 -97.93 	 52.6669 	 126.436 	 
C 	 -99.8716 	 54.5102 	 125.211 	 
H 	 -99.9098 	 54.9962 	 126.176 	 
H 	 -100.198 	 53.5488 	 125.424 	 
C 	 -100.779 	 55.4501 	 124.313 	 
H 	 -100.358 	 56.4674 	 124.262 	 
H 	 -100.728 	 55.0952 	 123.33 	 
C 	 -102.247 	 55.6525 	 124.686 	 
H 	 -102.811 	 54.8785 	 124.115 	 
H 	 -102.438 	 55.4869 	 125.686 	 
H 	 -102.676 	 56.5981 	 124.344 	 
S 	 -93.7281 	 53.0113 	 125.859 	 
C 	 -93.1262 	 51.4906 	 126.352 	 
C 	 -94.1097 	 50.5177 	 126.357 	 
C 	 -95.3625 	 50.988 	 125.732 	 
C 	 -95.2992 	 52.3639 	 125.45 	 
H 	 -93.8245 	 49.5553 	 126.659 	 
C 	 -96.5133 	 50.1275 	 125.433 	 
H 	 -97.3402 	 50.7637 	 125.239 	 
H 	 -96.841 	 49.6304 	 126.331 	 
C 	 -96.2466 	 49.114 	 124.268 	 
H 	 -95.3869 	 48.4367 	 124.424 	 
H 	 -96.1218 	 49.7178 	 123.399 	 
C 	 -97.5534 	 48.3885 	 123.893 	 
H 	 -98.2315 	 49.1063 	 123.378 	 
H 	 -98.1122 	 47.9351 	 124.745 	 
H 	 -97.2425 	 47.619 	 123.211 	 
H 	 -98.2146 	 55.7473 	 123.251 	 
H 	 -92.1711 	 51.3469 	 126.821 	 
*
