! wB97X-D3 SP def2-SVP
%pal
nprocs 16
end

* xyz 0 1
S 	 -15.4502 	 50.3833 	 45.123 	 
C 	 -15.9455 	 50.9437 	 43.5566 	 
C 	 -14.8161 	 51.047 	 42.7423 	 
C 	 -13.5654 	 50.7971 	 43.3772 	 
C 	 -13.7617 	 50.4495 	 44.6803 	 
H 	 -12.5785 	 50.7545 	 42.9666 	 
C 	 -14.7851 	 51.3429 	 41.275 	 
H 	 -15.3272 	 50.6588 	 40.6838 	 
H 	 -13.7602 	 51.3366 	 40.9464 	 
C 	 -15.32 	 52.7906 	 41.0996 	 
H 	 -16.2948 	 53.0377 	 41.4789 	 
H 	 -14.7294 	 53.3797 	 41.8118 	 
C 	 -15.1434 	 53.323 	 39.5887 	 
H 	 -15.8049 	 52.7371 	 38.9826 	 
H 	 -15.4445 	 54.3242 	 39.5725 	 
H 	 -14.0768 	 53.2969 	 39.2347 	 
S 	 -12.1374 	 48.2647 	 45.2525 	 
C 	 -11.0881 	 48.2332 	 46.6368 	 
C 	 -10.8757 	 49.5553 	 47.0155 	 
C 	 -11.7744 	 50.483 	 46.4346 	 
C 	 -12.7145 	 49.9102 	 45.5741 	 
H 	 -10.1376 	 49.7138 	 47.8091 	 
C 	 -11.8313 	 51.9526 	 46.8553 	 
H 	 -11.375 	 52.1612 	 47.8619 	 
H 	 -12.8746 	 52.0881 	 47.0844 	 
C 	 -11.4339 	 53.0865 	 45.8156 	 
H 	 -11.6011 	 54.0801 	 46.3041 	 
H 	 -12.1957 	 52.9812 	 44.9538 	 
C 	 -10.0007 	 53.0174 	 45.2918 	 
H 	 -9.2294 	 53.2812 	 46.013 	 
H 	 -9.90473 	 53.7612 	 44.4979 	 
H 	 -9.83438 	 52.044 	 44.7849 	 
H 	 -16.9061 	 51.1116 	 43.2125 	 
H 	 -10.5275 	 47.4228 	 47.004 	 
*
