! wB97X-D3 SP def2-SVP
%pal
nprocs 16
end

* xyz 0 1
S 	 -37.0763 	 -1.70455 	 102.276 	 
C 	 -37.2863 	 -2.96955 	 101.245 	 
C 	 -36.6009 	 -2.86628 	 100.04 	 
C 	 -35.7683 	 -1.70005 	 100.056 	 
C 	 -35.8848 	 -0.948305 	 101.193 	 
H 	 -35.0266 	 -1.3631 	 99.2916 	 
C 	 -36.8448 	 -3.87478 	 98.9063 	 
H 	 -37.4904 	 -4.69146 	 99.2778 	 
H 	 -35.9377 	 -4.33316 	 98.5128 	 
C 	 -37.5657 	 -3.30362 	 97.7279 	 
H 	 -37.1023 	 -2.43474 	 97.3793 	 
H 	 -37.4899 	 -3.99947 	 96.8546 	 
C 	 -39.0194 	 -3.00549 	 98.1479 	 
H 	 -39.1931 	 -2.27781 	 99.0664 	 
H 	 -39.3775 	 -2.41025 	 97.2511 	 
H 	 -39.7743 	 -3.7864 	 98.2556 	 
S 	 -34.1551 	 0.0915631 	 102.985 	 
C 	 -33.4425 	 1.65036 	 102.739 	 
C 	 -33.8686 	 2.20532 	 101.489 	 
C 	 -34.7921 	 1.38653 	 100.784 	 
C 	 -35.1456 	 0.271211 	 101.548 	 
H 	 -33.4815 	 3.18241 	 101.095 	 
C 	 -35.2698 	 1.7426 	 99.4024 	 
H 	 -35.6697 	 2.7901 	 99.4992 	 
H 	 -36.1421 	 1.16531 	 99.1887 	 
C 	 -34.1995 	 1.53777 	 98.2281 	 
H 	 -33.6082 	 0.756994 	 98.5407 	 
H 	 -33.5034 	 2.37644 	 98.3348 	 
C 	 -34.8504 	 1.39464 	 96.8467 	 
H 	 -35.4825 	 2.26164 	 96.6601 	 
H 	 -35.2772 	 0.455049 	 96.6585 	 
H 	 -34.168 	 1.38461 	 96.021 	 
H 	 -38.04 	 -3.69177 	 101.447 	 
H 	 -32.7877 	 2.0674 	 103.518 	 
*
