! wB97X-D3 SP def2-SVP
%pal
nprocs 16
end

* xyz 0 1
S 	 -99.0738 	 37.7419 	 124.753 	 
C 	 -98.0164 	 37.492 	 126.106 	 
C 	 -97.0455 	 38.4797 	 126.274 	 
C 	 -97.2735 	 39.5187 	 125.363 	 
C 	 -98.3083 	 39.3017 	 124.467 	 
H 	 -96.5887 	 40.3089 	 125.21 	 
C 	 -95.8477 	 38.3555 	 127.21 	 
H 	 -94.9522 	 38.7331 	 126.635 	 
H 	 -95.6677 	 37.3129 	 127.424 	 
C 	 -95.9892 	 39.06 	 128.551 	 
H 	 -95.9791 	 40.1338 	 128.325 	 
H 	 -96.9103 	 38.787 	 129.12 	 
C 	 -94.7919 	 38.6512 	 129.353 	 
H 	 -93.9198 	 39.1856 	 129.1 	 
H 	 -94.961 	 38.8559 	 130.471 	 
H 	 -94.4862 	 37.5975 	 129.292 	 
S 	 -97.9178 	 39.3058 	 121.742 	 
C 	 -98.3365 	 40.7382 	 120.84 	 
C 	 -98.7512 	 41.7566 	 121.644 	 
C 	 -98.9243 	 41.3503 	 123.037 	 
C 	 -98.4829 	 40.0102 	 123.229 	 
H 	 -98.8741 	 42.8028 	 121.211 	 
C 	 -99.215 	 42.3048 	 124.195 	 
H 	 -98.5897 	 43.1679 	 124.021 	 
H 	 -98.7068 	 41.9452 	 125.123 	 
C 	 -100.668 	 42.6373 	 124.287 	 
H 	 -101.043 	 43.1312 	 123.482 	 
H 	 -100.676 	 43.2859 	 125.132 	 
C 	 -101.548 	 41.4122 	 124.521 	 
H 	 -102.617 	 41.7384 	 124.664 	 
H 	 -101.255 	 40.6773 	 125.419 	 
H 	 -101.634 	 40.8189 	 123.6 	 
H 	 -97.8964 	 36.6211 	 126.79 	 
H 	 -98.1253 	 40.7323 	 119.751 	 
*
