! wB97X-D3 SP def2-SVP
%pal
nprocs 16
end

* xyz 0 1
S 	 59.302 	 -6.57572 	 87.7736 	 
C 	 59.0751 	 -6.43322 	 89.5684 	 
C 	 60.051 	 -5.59561 	 90.1575 	 
C 	 60.9894 	 -5.18943 	 89.1231 	 
C 	 60.6857 	 -5.49509 	 87.7776 	 
H 	 61.7765 	 -4.51529 	 89.3132 	 
C 	 60.3186 	 -5.42675 	 91.679 	 
H 	 61.123 	 -4.75833 	 91.7016 	 
H 	 60.4398 	 -6.44042 	 92.089 	 
C 	 59.2285 	 -4.6913 	 92.4966 	 
H 	 59.6331 	 -4.22512 	 93.3575 	 
H 	 59.0202 	 -3.84749 	 91.8834 	 
C 	 58.0114 	 -5.56247 	 92.915 	 
H 	 58.1213 	 -6.30291 	 93.717 	 
H 	 57.2475 	 -4.89408 	 93.251 	 
H 	 57.5961 	 -5.9068 	 91.9947 	 
S 	 62.0918 	 -6.55601 	 85.6835 	 
C 	 62.6084 	 -5.44308 	 84.4378 	 
C 	 62.5325 	 -4.15926 	 84.8051 	 
C 	 61.9324 	 -3.93575 	 86.0838 	 
C 	 61.4303 	 -5.16126 	 86.5747 	 
H 	 63.0171 	 -3.37665 	 84.208 	 
C 	 61.7549 	 -2.55664 	 86.6708 	 
H 	 62.2266 	 -2.63905 	 87.6508 	 
H 	 60.7199 	 -2.31685 	 86.8897 	 
C 	 62.4268 	 -1.40531 	 85.927 	 
H 	 61.7842 	 -1.11761 	 85.0632 	 
H 	 63.3809 	 -1.76831 	 85.599 	 
C 	 62.7265 	 -0.153254 	 86.8087 	 
H 	 61.9 	 0.0548148 	 87.4598 	 
H 	 63.0642 	 0.780816 	 86.2934 	 
H 	 63.5353 	 -0.387123 	 87.423 	 
H 	 58.31 	 -6.96161 	 90.1478 	 
H 	 63.0291 	 -5.72828 	 83.4761 	 
*
