! wB97X-D3 SP def2-SVP
%pal
nprocs 16
end

* xyz 0 1
S 	 6.00604 	 14.6896 	 47.3489 	 
C 	 4.73416 	 13.4715 	 47.0632 	 
C 	 3.45349 	 13.8853 	 47.4148 	 
C 	 3.47139 	 15.1375 	 48.1057 	 
C 	 4.72158 	 15.7156 	 48.1717 	 
H 	 2.5447 	 15.6058 	 48.516 	 
C 	 2.13205 	 13.2305 	 47.0151 	 
H 	 2.25966 	 13.031 	 45.9172 	 
H 	 1.29358 	 13.8834 	 46.9951 	 
C 	 1.71334 	 12.0027 	 47.8507 	 
H 	 2.56768 	 11.3032 	 47.9785 	 
H 	 1.58696 	 12.375 	 48.871 	 
C 	 0.457851 	 11.2772 	 47.3498 	 
H 	 0.644131 	 10.9666 	 46.3138 	 
H 	 0.311925 	 10.3363 	 47.8013 	 
H 	 -0.447298 	 11.8791 	 47.4674 	 
S 	 4.56642 	 17.3385 	 50.3271 	 
C 	 5.37275 	 18.8857 	 50.2362 	 
C 	 5.78315 	 19.2168 	 48.9619 	 
C 	 5.57975 	 18.208 	 47.9893 	 
C 	 5.05082 	 17.0491 	 48.6669 	 
H 	 6.38418 	 20.1039 	 48.8351 	 
C 	 6.14589 	 18.2499 	 46.5606 	 
H 	 6.97338 	 17.5428 	 46.4448 	 
H 	 6.69201 	 19.1847 	 46.4225 	 
C 	 5.1638 	 18.1292 	 45.4836 	 
H 	 4.62601 	 19.0431 	 45.3753 	 
H 	 4.4718 	 17.3199 	 45.7167 	 
C 	 5.72728 	 17.8537 	 44.0713 	 
H 	 5.00833 	 17.9106 	 43.1993 	 
H 	 6.24228 	 16.9054 	 44.0322 	 
H 	 6.42752 	 18.7187 	 43.8004 	 
H 	 4.89802 	 12.6167 	 46.4376 	 
H 	 5.55802 	 19.5308 	 51.1292 	 
*
