! wB97X-D3 SP def2-SVP
%pal
nprocs 16
end

* xyz 0 1
S 	 9.09729 	 -4.70124 	 64.672 	 
C 	 7.64995 	 -4.30681 	 63.7482 	 
C 	 7.75957 	 -4.80253 	 62.4489 	 
C 	 8.98898 	 -5.44312 	 62.2149 	 
C 	 9.84963 	 -5.38823 	 63.2594 	 
H 	 9.42718 	 -5.75322 	 61.2666 	 
C 	 6.74013 	 -4.65273 	 61.2909 	 
H 	 5.76815 	 -4.94062 	 61.7464 	 
H 	 6.84539 	 -5.34423 	 60.5381 	 
C 	 6.56411 	 -3.2574 	 60.7171 	 
H 	 5.98034 	 -3.31117 	 59.8257 	 
H 	 5.77915 	 -2.92736 	 61.4252 	 
C 	 7.71543 	 -2.25397 	 60.6496 	 
H 	 8.04859 	 -1.98172 	 61.6427 	 
H 	 8.52154 	 -2.73549 	 60.0873 	 
H 	 7.37429 	 -1.35327 	 60.1652 	 
S 	 12.0156 	 -6.00366 	 61.5954 	 
C 	 13.4704 	 -6.70418 	 62.2362 	 
C 	 13.4449 	 -6.66997 	 63.6115 	 
C 	 12.2021 	 -6.17399 	 64.1449 	 
C 	 11.2033 	 -5.89912 	 63.2161 	 
H 	 14.2907 	 -7.00953 	 64.1714 	 
C 	 11.9985 	 -5.93229 	 65.6896 	 
H 	 11.2385 	 -5.19098 	 65.8909 	 
H 	 12.9727 	 -5.55176 	 65.9759 	 
C 	 11.6751 	 -7.18182 	 66.5533 	 
H 	 12.301 	 -8.00033 	 66.4101 	 
H 	 10.6397 	 -7.53797 	 66.3336 	 
C 	 11.7728 	 -6.88414 	 68.0454 	 
H 	 11.7289 	 -7.7948 	 68.6253 	 
H 	 10.9449 	 -6.1875 	 68.2408 	 
H 	 12.7143 	 -6.36749 	 68.328 	 
H 	 6.77497 	 -3.83198 	 64.1004 	 
H 	 14.3397 	 -6.76762 	 61.567 	 
*
