! wB97X-D3 SP def2-SVP
%pal
nprocs 16
end

* xyz 0 1
S 	 13.5672 	 -7.73596 	 88.1756 	 
C 	 13.8064 	 -8.2025 	 89.8849 	 
C 	 12.843 	 -9.15703 	 90.1895 	 
C 	 11.803 	 -9.1031 	 89.1588 	 
C 	 11.8894 	 -8.25448 	 88.1092 	 
H 	 10.962 	 -9.79619 	 89.2113 	 
C 	 12.9644 	 -10.0889 	 91.326 	 
H 	 13.6055 	 -9.62412 	 92.0357 	 
H 	 13.5229 	 -11.0114 	 91.0791 	 
C 	 11.654 	 -10.3928 	 91.9971 	 
H 	 11.119 	 -9.43866 	 92.2842 	 
H 	 11.0393 	 -11.0066 	 91.3407 	 
C 	 11.8011 	 -11.1975 	 93.2533 	 
H 	 10.9086 	 -11.3776 	 93.7778 	 
H 	 12.2698 	 -12.2105 	 93.0219 	 
H 	 12.4322 	 -10.646 	 93.9563 	 
S 	 11.5753 	 -7.98822 	 85.4079 	 
C 	 10.0282 	 -8.01887 	 84.6279 	 
C 	 9.04838 	 -8.26933 	 85.5729 	 
C 	 9.57203 	 -8.42464 	 86.8854 	 
C 	 10.9375 	 -8.14991 	 86.9874 	 
H 	 8.04797 	 -8.41873 	 85.287 	 
C 	 8.58362 	 -8.80407 	 88.0703 	 
H 	 7.7929 	 -8.05687 	 88.1544 	 
H 	 9.13066 	 -8.84347 	 88.9861 	 
C 	 7.84821 	 -10.1249 	 88.0232 	 
H 	 8.57592 	 -10.9732 	 88.0533 	 
H 	 7.22071 	 -10.2003 	 87.0676 	 
C 	 6.85985 	 -10.2873 	 89.2245 	 
H 	 7.26717 	 -10.387 	 90.194 	 
H 	 6.24978 	 -11.1591 	 89.0277 	 
H 	 6.16132 	 -9.35376 	 89.251 	 
H 	 14.6561 	 -8.0158 	 90.4377 	 
H 	 9.78051 	 -8.01286 	 83.601 	 
*
