! wB97X-D3 SP def2-SVP
%pal
nprocs 16
end

* xyz 0 1
S 	 -107.85 	 43.5929 	 125.736 	 
C 	 -107.406 	 44.8083 	 126.875 	 
C 	 -106.353 	 45.5684 	 126.389 	 
C 	 -106.07 	 45.1792 	 125.01 	 
C 	 -107.012 	 44.3399 	 124.413 	 
H 	 -105.193 	 45.4959 	 124.381 	 
C 	 -105.478 	 46.4025 	 127.226 	 
H 	 -106.073 	 46.6083 	 128.151 	 
H 	 -105.469 	 47.3728 	 126.68 	 
C 	 -104.094 	 45.756 	 127.411 	 
H 	 -104.305 	 44.7438 	 127.733 	 
H 	 -103.547 	 45.6557 	 126.425 	 
C 	 -103.273 	 46.4998 	 128.502 	 
H 	 -103.762 	 46.6023 	 129.487 	 
H 	 -102.266 	 46.0926 	 128.562 	 
H 	 -103.082 	 47.5048 	 128.122 	 
S 	 -107.284 	 42.0999 	 122.966 	 
C 	 -107.051 	 42.1519 	 121.225 	 
C 	 -106.73 	 43.4288 	 120.741 	 
C 	 -106.776 	 44.3822 	 121.825 	 
C 	 -107.071 	 43.8608 	 123.054 	 
H 	 -106.576 	 43.6898 	 119.631 	 
C 	 -106.573 	 45.8763 	 121.505 	 
H 	 -105.779 	 45.9974 	 120.756 	 
H 	 -106.157 	 46.3017 	 122.381 	 
C 	 -107.753 	 46.6713 	 121.074 	 
H 	 -108.532 	 46.6016 	 121.837 	 
H 	 -108.175 	 46.1992 	 120.184 	 
C 	 -107.417 	 48.1325 	 120.723 	 
H 	 -106.741 	 48.1819 	 119.858 	 
H 	 -106.905 	 48.6457 	 121.57 	 
H 	 -108.243 	 48.7756 	 120.469 	 
H 	 -107.803 	 44.8786 	 127.864 	 
H 	 -107.148 	 41.2809 	 120.712 	 
*
