! wB97X-D3 SP def2-SVP
%pal
nprocs 16
end

* xyz 0 1
S 	 7.02427 	 -9.17849 	 63.361 	 
C 	 7.03004 	 -9.13313 	 65.1099 	 
C 	 8.23088 	 -9.65848 	 65.4696 	 
C 	 8.73785 	 -10.5889 	 64.5096 	 
C 	 8.01703 	 -10.5344 	 63.2889 	 
H 	 9.6078 	 -11.2216 	 64.6496 	 
C 	 8.8313 	 -9.68581 	 66.8228 	 
H 	 9.47586 	 -10.5163 	 66.9119 	 
H 	 8.00612 	 -9.792 	 67.606 	 
C 	 9.6102 	 -8.48956 	 67.2881 	 
H 	 10.2042 	 -8.77688 	 68.1625 	 
H 	 10.4082 	 -8.34553 	 66.5038 	 
C 	 8.78177 	 -7.27513 	 67.7205 	 
H 	 9.28743 	 -6.3438 	 68.0731 	 
H 	 8.1557 	 -6.95935 	 66.9636 	 
H 	 8.11274 	 -7.51591 	 68.5636 	 
S 	 8.37544 	 -10.4303 	 60.4653 	 
C 	 8.76421 	 -11.939 	 59.6095 	 
C 	 8.79737 	 -12.9587 	 60.4829 	 
C 	 8.50172 	 -12.6431 	 61.9082 	 
C 	 8.31157 	 -11.2705 	 62.0714 	 
H 	 8.81301 	 -13.9969 	 60.0636 	 
C 	 8.4427 	 -13.7439 	 62.9567 	 
H 	 7.53747 	 -14.3101 	 62.9391 	 
H 	 8.38524 	 -13.235 	 63.9383 	 
C 	 9.70119 	 -14.6755 	 62.9114 	 
H 	 10.6258 	 -14.14 	 63.1307 	 
H 	 9.83359 	 -15.0258 	 61.9409 	 
C 	 9.89092 	 -15.9256 	 63.8424 	 
H 	 9.64247 	 -15.8067 	 64.8773 	 
H 	 10.8974 	 -16.396 	 63.8246 	 
H 	 9.21231 	 -16.7584 	 63.4846 	 
H 	 6.36624 	 -8.55015 	 65.7477 	 
H 	 8.87136 	 -12.1154 	 58.4738 	 
*
