! wB97X-D3 SP def2-SVP
%pal
nprocs 16
end

* xyz 0 1
S 	 28.1349 	 -9.73025 	 78.45 	 
C 	 29.54 	 -9.74752 	 77.4359 	 
C 	 30.2255 	 -8.54594 	 77.5313 	 
C 	 29.8434 	 -7.84914 	 78.6735 	 
C 	 28.7367 	 -8.35589 	 79.3635 	 
H 	 30.3176 	 -6.97131 	 79.0654 	 
C 	 31.3473 	 -8.08024 	 76.5991 	 
H 	 31.5884 	 -8.98603 	 75.9733 	 
H 	 32.2208 	 -7.84797 	 77.2637 	 
C 	 30.9768 	 -6.84679 	 75.7227 	 
H 	 30.6428 	 -5.94463 	 76.3574 	 
H 	 31.8427 	 -6.48934 	 75.1332 	 
C 	 30.0146 	 -7.16855 	 74.5718 	 
H 	 30.4984 	 -7.82261 	 73.8793 	 
H 	 29.1008 	 -7.61502 	 74.8768 	 
H 	 29.7602 	 -6.26936 	 73.9491 	 
S 	 27.8034 	 -8.79188 	 81.9354 	 
C 	 27.0004 	 -7.51113 	 82.8074 	 
C 	 27.0236 	 -6.34269 	 82.1254 	 
C 	 27.6665 	 -6.47865 	 80.8086 	 
C 	 28.054 	 -7.79936 	 80.5403 	 
H 	 26.5538 	 -5.43928 	 82.5834 	 
C 	 27.7451 	 -5.32086 	 79.8973 	 
H 	 26.867 	 -4.70124 	 80.0972 	 
H 	 27.7004 	 -5.64503 	 78.8988 	 
C 	 29.0112 	 -4.50392 	 80.1987 	 
H 	 28.8882 	 -3.52767 	 79.7257 	 
H 	 29.8885 	 -5.00946 	 79.8608 	 
C 	 29.4413 	 -4.33734 	 81.7193 	 
H 	 28.6871 	 -4.11454 	 82.4394 	 
H 	 30.3001 	 -3.68557 	 81.8809 	 
H 	 29.8078 	 -5.2702 	 81.9747 	 
H 	 29.7177 	 -10.4141 	 76.5803 	 
H 	 26.5459 	 -7.68781 	 83.8053 	 
*
