! wB97X-D3 SP def2-SVP
%pal
nprocs 16
end

* xyz 0 1
S 	 -15.9172 	 36.4874 	 39.4244 	 
C 	 -15.1767 	 37.9869 	 39.9609 	 
C 	 -13.9645 	 38.1768 	 39.2944 	 
C 	 -13.737 	 37.1717 	 38.3077 	 
C 	 -14.8384 	 36.3395 	 38.1092 	 
H 	 -12.8779 	 37.05 	 37.6049 	 
C 	 -12.8938 	 39.1802 	 39.6921 	 
H 	 -13.3458 	 40.0882 	 39.8719 	 
H 	 -12.4533 	 39.3867 	 38.6911 	 
C 	 -11.7865 	 38.816 	 40.7143 	 
H 	 -12.2901 	 38.5129 	 41.702 	 
H 	 -11.1878 	 37.9718 	 40.2736 	 
C 	 -11.0345 	 40.1088 	 40.9052 	 
H 	 -10.2719 	 40.3922 	 40.1149 	 
H 	 -11.614 	 41.0016 	 41.1382 	 
H 	 -10.4287 	 39.8608 	 41.7979 	 
S 	 -15.4762 	 33.6955 	 37.6061 	 
C 	 -15.2614 	 33.0323 	 36.0143 	 
C 	 -14.9154 	 34.0341 	 35.0892 	 
C 	 -14.7598 	 35.3134 	 35.7268 	 
C 	 -15.0206 	 35.2859 	 37.0673 	 
H 	 -15.009 	 33.9403 	 34.0944 	 
C 	 -14.6773 	 36.5344 	 34.92 	 
H 	 -14.0345 	 36.3942 	 34.0151 	 
H 	 -14.2254 	 37.2866 	 35.5673 	 
C 	 -16.0949 	 37.0772 	 34.4523 	 
H 	 -16.7013 	 37.2872 	 35.3474 	 
H 	 -16.668 	 36.4894 	 33.8077 	 
C 	 -15.9945 	 38.4078 	 33.6517 	 
H 	 -15.6416 	 39.2279 	 34.3647 	 
H 	 -16.9774 	 38.6206 	 33.2586 	 
H 	 -15.3146 	 38.2711 	 32.8025 	 
H 	 -15.471 	 38.6748 	 40.7752 	 
H 	 -15.322 	 31.9311 	 35.7851 	 
*
