! wB97X-D3 SP def2-SVP
%pal
nprocs 16
end

* xyz 0 1
S 	 -32.4983 	 28.5157 	 43.1246 	 
C 	 -34.0854 	 28.082 	 42.8778 	 
C 	 -34.9457 	 29.1863 	 42.9665 	 
C 	 -34.2079 	 30.3725 	 43.3284 	 
C 	 -32.8315 	 30.1948 	 43.4792 	 
H 	 -34.7615 	 31.265 	 43.4481 	 
C 	 -36.4464 	 29.0999 	 42.7282 	 
H 	 -36.5598 	 28.4688 	 41.8843 	 
H 	 -36.7253 	 30.0807 	 42.2655 	 
C 	 -37.2905 	 28.6916 	 43.9424 	 
H 	 -36.9695 	 29.3617 	 44.7098 	 
H 	 -38.375 	 28.7894 	 43.8347 	 
C 	 -37.099 	 27.2544 	 44.4208 	 
H 	 -37.9977 	 27.0226 	 45.0251 	 
H 	 -37.039 	 26.5919 	 43.58 	 
H 	 -36.1198 	 27.2469 	 44.9735 	 
S 	 -30.2419 	 30.396 	 44.3219 	 
C 	 -29.4364 	 31.9405 	 44.2722 	 
C 	 -30.2816 	 32.9212 	 43.8325 	 
C 	 -31.5981 	 32.4669 	 43.5783 	 
C 	 -31.7189 	 31.1118 	 43.7276 	 
H 	 -29.8604 	 33.9347 	 43.8185 	 
C 	 -32.7787 	 33.3578 	 43.1731 	 
H 	 -33.4693 	 32.7593 	 42.6013 	 
H 	 -32.4512 	 34.0892 	 42.5331 	 
C 	 -33.6059 	 33.9648 	 44.3552 	 
H 	 -33.7086 	 33.2949 	 45.2282 	 
H 	 -34.6261 	 34.0935 	 44.0324 	 
C 	 -33.1704 	 35.3927 	 44.8636 	 
H 	 -32.3086 	 35.3002 	 45.494 	 
H 	 -33.9998 	 35.9206 	 45.2928 	 
H 	 -32.8 	 35.9754 	 44.0639 	 
H 	 -34.465 	 27.1163 	 42.7741 	 
H 	 -28.4319 	 32.164 	 44.7027 	 
*
