! wB97X-D3 SP def2-SVP
%pal
nprocs 16
end

* xyz 0 1
S 	 48.6868 	 21.5304 	 88.9492 	 
C 	 47.4554 	 21.9254 	 90.2125 	 
C 	 47.6076 	 23.2017 	 90.652 	 
C 	 48.4009 	 23.9868 	 89.7268 	 
C 	 49.0222 	 23.2328 	 88.745 	 
H 	 48.5738 	 25.0439 	 89.6881 	 
C 	 46.9006 	 23.8537 	 91.7989 	 
H 	 46.2407 	 23.1788 	 92.2584 	 
H 	 46.3062 	 24.6462 	 91.3666 	 
C 	 47.7247 	 24.5172 	 92.8543 	 
H 	 47.0916 	 24.6092 	 93.6825 	 
H 	 48.5513 	 23.7981 	 93.1302 	 
C 	 48.266 	 25.9467 	 92.4556 	 
H 	 49.0707 	 25.8116 	 91.7247 	 
H 	 47.519 	 26.4715 	 91.8639 	 
H 	 48.6773 	 26.4893 	 93.279 	 
S 	 48.9524 	 23.7382 	 86.1213 	 
C 	 50.229 	 24.5351 	 85.3541 	 
C 	 51.2567 	 24.8103 	 86.2027 	 
C 	 51.0095 	 24.332 	 87.567 	 
C 	 49.7511 	 23.7783 	 87.6395 	 
H 	 52.2324 	 25.1799 	 85.9135 	 
C 	 52.0313 	 24.6003 	 88.6456 	 
H 	 51.4162 	 24.3939 	 89.5515 	 
H 	 52.4105 	 25.6639 	 88.6441 	 
C 	 53.3581 	 23.8348 	 88.5264 	 
H 	 53.944 	 24.315 	 87.7432 	 
H 	 53.2714 	 22.831 	 88.1785 	 
C 	 54.086 	 24.0194 	 89.8624 	 
H 	 55.0492 	 23.5651 	 89.9223 	 
H 	 53.4709 	 23.5418 	 90.5958 	 
H 	 54.1162 	 25.0805 	 90.0817 	 
H 	 46.7664 	 21.2037 	 90.695 	 
H 	 50.1954 	 24.6026 	 84.318 	 
*
