! wB97X-D3 SP def2-SVP
%pal
nprocs 16
end

* xyz 0 1
S 	 -18.6551 	 -8.51407 	 82.4144 	 
C 	 -17.4029 	 -8.54491 	 81.1932 	 
C 	 -16.1731 	 -8.78595 	 81.7575 	 
C 	 -16.2 	 -8.8893 	 83.1954 	 
C 	 -17.4469 	 -8.62099 	 83.7413 	 
H 	 -15.4038 	 -9.05199 	 83.8783 	 
C 	 -14.9524 	 -8.88961 	 80.9328 	 
H 	 -15.1783 	 -9.14024 	 79.9145 	 
H 	 -14.296 	 -9.6929 	 81.3448 	 
C 	 -14.1981 	 -7.59622 	 80.6855 	 
H 	 -14.8456 	 -6.9211 	 80.06 	 
H 	 -14.1634 	 -7.16834 	 81.7012 	 
C 	 -12.7968 	 -7.69091 	 80.0578 	 
H 	 -12.2585 	 -6.77467 	 80.0819 	 
H 	 -12.2492 	 -8.55261 	 80.4396 	 
H 	 -12.9626 	 -7.83777 	 79.0479 	 
S 	 -19.0859 	 -9.7576 	 85.5472 	 
C 	 -19.1854 	 -9.12561 	 87.1565 	 
C 	 -18.3439 	 -8.03702 	 87.3001 	 
C 	 -17.5249 	 -7.75528 	 86.1623 	 
C 	 -17.7914 	 -8.66019 	 85.1092 	 
H 	 -18.3318 	 -7.58118 	 88.283 	 
C 	 -16.5199 	 -6.58509 	 86.1313 	 
H 	 -15.6335 	 -6.99853 	 85.6326 	 
H 	 -16.1783 	 -6.41432 	 87.1664 	 
C 	 -17.1746 	 -5.40168 	 85.3254 	 
H 	 -18.1733 	 -5.29166 	 85.7388 	 
H 	 -17.3905 	 -5.74086 	 84.2754 	 
C 	 -16.348 	 -4.06756 	 85.3969 	 
H 	 -16.039 	 -3.65731 	 86.3839 	 
H 	 -16.9117 	 -3.25751 	 84.8053 	 
H 	 -15.3118 	 -4.21404 	 85.0251 	 
H 	 -17.4603 	 -8.41975 	 80.1567 	 
H 	 -19.9835 	 -9.37387 	 87.873 	 
*
