! wB97X-D3 SP def2-SVP
%pal
nprocs 16
end

* xyz 0 1
S 	 54.2846 	 3.39946 	 84.2999 	 
C 	 53.9366 	 3.84259 	 82.6587 	 
C 	 54.0704 	 2.82067 	 81.8018 	 
C 	 54.3378 	 1.62038 	 82.5041 	 
C 	 54.4879 	 1.68877 	 83.8754 	 
H 	 54.3369 	 0.66796 	 81.993 	 
C 	 53.9806 	 2.9406 	 80.2859 	 
H 	 53.4546 	 3.935 	 80.0133 	 
H 	 53.4365 	 1.9888 	 80.028 	 
C 	 55.267 	 2.84421 	 79.4217 	 
H 	 55.8334 	 3.65563 	 79.767 	 
H 	 55.7069 	 1.93001 	 79.5198 	 
C 	 54.891 	 3.03263 	 78.0228 	 
H 	 55.8251 	 3.00329 	 77.4228 	 
H 	 54.1711 	 2.29389 	 77.7184 	 
H 	 54.48 	 3.98503 	 77.9429 	 
S 	 53.2236 	 0.0304753 	 85.6281 	 
C 	 54.2018 	 -1.28929 	 86.3241 	 
C 	 55.4913 	 -1.16346 	 86.0563 	 
C 	 55.8542 	 -0.0925217 	 85.1431 	 
C 	 54.6924 	 0.635126 	 84.8425 	 
H 	 56.2186 	 -1.75485 	 86.6007 	 
C 	 57.3016 	 0.263082 	 84.7425 	 
H 	 57.5593 	 1.12804 	 85.2663 	 
H 	 57.1611 	 0.680565 	 83.7373 	 
C 	 58.3883 	 -0.869119 	 84.6707 	 
H 	 57.9348 	 -1.8052 	 84.425 	 
H 	 58.8381 	 -1.04049 	 85.6344 	 
C 	 59.4506 	 -0.64211 	 83.6453 	 
H 	 60.3903 	 -1.15427 	 83.8064 	 
H 	 59.7059 	 0.42377 	 83.6731 	 
H 	 59.1187 	 -0.801563 	 82.5528 	 
H 	 53.705 	 4.89434 	 82.3992 	 
H 	 53.7128 	 -1.99139 	 87.0652 	 
*
