! wB97X-D3 SP def2-SVP
%pal
nprocs 16
end

* xyz 0 1
S 	 45.2735 	 9.80102 	 88.7387 	 
C 	 46.9105 	 9.34734 	 88.96 	 
C 	 47.7535 	 10.4364 	 88.7352 	 
C 	 47.1146 	 11.6271 	 88.4015 	 
C 	 45.7311 	 11.4555 	 88.3704 	 
H 	 47.5146 	 12.6277 	 88.1934 	 
C 	 49.3121 	 10.3595 	 88.7014 	 
H 	 49.539 	 9.55864 	 89.4109 	 
H 	 49.6944 	 11.2626 	 89.2339 	 
C 	 49.8385 	 10.0748 	 87.2746 	 
H 	 50.8961 	 9.95871 	 87.2622 	 
H 	 49.4886 	 9.07246 	 86.9901 	 
C 	 49.3639 	 11.1164 	 86.2031 	 
H 	 49.7358 	 10.886 	 85.2318 	 
H 	 48.3571 	 11.2091 	 86.0797 	 
H 	 49.775 	 12.1283 	 86.4268 	 
S 	 43.903 	 12.2639 	 86.4979 	 
C 	 43.5069 	 13.9394 	 86.365 	 
C 	 44.0572 	 14.6537 	 87.3707 	 
C 	 44.8116 	 13.9 	 88.264 	 
C 	 44.8139 	 12.5233 	 87.946 	 
H 	 43.9551 	 15.6818 	 87.3092 	 
C 	 45.5253 	 14.5604 	 89.4495 	 
H 	 45.4322 	 15.6583 	 89.347 	 
H 	 46.5896 	 14.4587 	 89.3182 	 
C 	 45.2036 	 14.0931 	 90.8194 	 
H 	 45.4339 	 12.9789 	 90.7445 	 
H 	 44.1231 	 14.325 	 90.9324 	 
C 	 46.0425 	 14.6756 	 91.9597 	 
H 	 47.0671 	 14.7856 	 91.6225 	 
H 	 46.1156 	 13.9358 	 92.7762 	 
H 	 45.5893 	 15.6539 	 92.1849 	 
H 	 47.3902 	 8.40322 	 88.9569 	 
H 	 43.0113 	 14.4365 	 85.5891 	 
*
