! wB97X-D3 SP def2-SVP
%pal
nprocs 16
end

* xyz 0 1
S 	 -42.193 	 16.4679 	 80.8904 	 
C 	 -42.4312 	 14.7436 	 80.4487 	 
C 	 -42.1288 	 14.004 	 81.5946 	 
C 	 -41.6295 	 14.7851 	 82.7207 	 
C 	 -41.4254 	 16.1099 	 82.4266 	 
H 	 -41.3347 	 14.3076 	 83.6839 	 
C 	 -42.343 	 12.4651 	 81.6853 	 
H 	 -41.557 	 11.9621 	 82.169 	 
H 	 -42.2768 	 12.0975 	 80.6042 	 
C 	 -43.7228 	 11.995 	 82.2438 	 
H 	 -43.5626 	 10.9485 	 82.5681 	 
H 	 -43.8732 	 12.6308 	 83.1168 	 
C 	 -44.834 	 12.115 	 81.1982 	 
H 	 -45.7392 	 11.5199 	 81.4934 	 
H 	 -45.162 	 13.1086 	 81.1405 	 
H 	 -44.3762 	 11.914 	 80.2583 	 
S 	 -41.8247 	 18.4999 	 83.6436 	 
C 	 -40.6925 	 18.9852 	 84.9402 	 
C 	 -39.6831 	 18.0632 	 85.0525 	 
C 	 -39.7131 	 17.0523 	 84.002 	 
C 	 -40.8894 	 17.1308 	 83.2088 	 
H 	 -38.9122 	 18.1828 	 85.804 	 
C 	 -38.6715 	 15.9064 	 84.0032 	 
H 	 -39.1821 	 14.9386 	 84.1454 	 
H 	 -38.1122 	 16.0061 	 84.918 	 
C 	 -37.7872 	 15.8435 	 82.8061 	 
H 	 -38.4443 	 15.4848 	 82.0032 	 
H 	 -37.0854 	 15.0843 	 82.874 	 
C 	 -36.9994 	 17.0938 	 82.3731 	 
H 	 -37.5624 	 17.9433 	 82.0245 	 
H 	 -36.2768 	 16.8422 	 81.5642 	 
H 	 -36.3232 	 17.4277 	 83.1944 	 
H 	 -42.8177 	 14.4395 	 79.5001 	 
H 	 -40.9742 	 19.7295 	 85.7453 	 
*
