! wB97X-D3 SP def2-SVP
%pal
nprocs 16
end

* xyz 0 1
S 	 -101.988 	 45.0951 	 123.745 	 
C 	 -103.359 	 45.9598 	 124.361 	 
C 	 -103.123 	 47.3306 	 124.28 	 
C 	 -101.84 	 47.6443 	 123.691 	 
C 	 -101.13 	 46.5117 	 123.232 	 
H 	 -101.381 	 48.6512 	 123.56 	 
C 	 -104.102 	 48.3736 	 124.695 	 
H 	 -103.714 	 49.2804 	 124.769 	 
H 	 -104.443 	 48.0708 	 125.644 	 
C 	 -105.336 	 48.5105 	 123.845 	 
H 	 -104.857 	 49.0328 	 122.955 	 
H 	 -105.773 	 47.5586 	 123.588 	 
C 	 -106.35 	 49.5057 	 124.56 	 
H 	 -107.126 	 49.6938 	 123.835 	 
H 	 -106.853 	 49.0213 	 125.467 	 
H 	 -105.969 	 50.4562 	 124.836 	 
S 	 -98.499 	 45.4434 	 123.158 	 
C 	 -97.3687 	 46.0813 	 122.051 	 
C 	 -98.0809 	 46.7938 	 121.128 	 
C 	 -99.3949 	 47.0282 	 121.46 	 
C 	 -99.8801 	 46.3214 	 122.491 	 
H 	 -97.5312 	 47.1909 	 120.266 	 
C 	 -100.256 	 47.985 	 120.599 	 
H 	 -100.224 	 49.0026 	 120.97 	 
H 	 -101.277 	 47.6484 	 120.823 	 
C 	 -99.9905 	 47.7376 	 119.067 	 
H 	 -100.009 	 46.678 	 118.865 	 
H 	 -99.0244 	 48.0396 	 118.773 	 
C 	 -101.072 	 48.4941 	 118.266 	 
H 	 -101.945 	 47.9235 	 118.24 	 
H 	 -100.692 	 48.5656 	 117.27 	 
H 	 -101.297 	 49.4539 	 118.721 	 
H 	 -104.317 	 45.5968 	 124.721 	 
H 	 -96.3343 	 45.7316 	 121.953 	 
*
