! wB97X-D3 SP def2-SVP
%pal
nprocs 16
end

* xyz 0 1
S 	 -4.93366 	 51.5623 	 31.4927 	 
C 	 -4.66668 	 49.8866 	 31.9211 	 
C 	 -5.72316 	 49.4193 	 32.6995 	 
C 	 -6.80562 	 50.3982 	 32.8544 	 
C 	 -6.51064 	 51.602 	 32.2315 	 
H 	 -7.73616 	 50.2572 	 33.3405 	 
C 	 -5.87869 	 48.1259 	 33.4176 	 
H 	 -5.21212 	 47.4386 	 32.8995 	 
H 	 -6.89625 	 47.6678 	 33.1396 	 
C 	 -5.74535 	 48.1792 	 35.0073 	 
H 	 -4.6956 	 48.2818 	 35.2908 	 
H 	 -6.30768 	 49.0198 	 35.4147 	 
C 	 -6.23199 	 46.8567 	 35.6545 	 
H 	 -7.10019 	 46.6839 	 35.1238 	 
H 	 -5.51308 	 46.0388 	 35.5 	 
H 	 -6.46576 	 46.9751 	 36.7006 	 
S 	 -7.41394 	 53.651 	 30.8362 	 
C 	 -8.40498 	 54.8588 	 31.5062 	 
C 	 -8.81225 	 54.5623 	 32.8275 	 
C 	 -8.10977 	 53.354 	 33.2824 	 
C 	 -7.33997 	 52.796 	 32.2718 	 
H 	 -9.44126 	 55.3409 	 33.3282 	 
C 	 -8.2608 	 52.8595 	 34.6883 	 
H 	 -7.37528 	 52.2845 	 34.9561 	 
H 	 -9.18193 	 52.2225 	 34.8111 	 
C 	 -8.3058 	 53.9573 	 35.7718 	 
H 	 -9.28801 	 54.3627 	 35.7034 	 
H 	 -7.56845 	 54.7325 	 35.5621 	 
C 	 -8.14782 	 53.4247 	 37.1739 	 
H 	 -7.25236 	 52.8264 	 37.3161 	 
H 	 -8.9377 	 52.6811 	 37.3692 	 
H 	 -8.05935 	 54.2073 	 37.9176 	 
H 	 -3.77631 	 49.2372 	 31.837 	 
H 	 -8.57325 	 55.8638 	 31.0802 	 
*
