! wB97X-D3 SP def2-SVP
%pal
nprocs 16
end

* xyz 0 1
S 	 -62.4333 	 37.4225 	 135.692 	 
C 	 -60.8635 	 37.9387 	 136.109 	 
C 	 -59.8489 	 37.0921 	 135.613 	 
C 	 -60.3909 	 35.9781 	 134.845 	 
C 	 -61.7699 	 36.0784 	 134.699 	 
H 	 -59.9238 	 35.186 	 134.345 	 
C 	 -58.414 	 37.2684 	 135.798 	 
H 	 -58.0727 	 38.214 	 135.384 	 
H 	 -57.8907 	 36.5457 	 135.103 	 
C 	 -58.0169 	 36.9972 	 137.256 	 
H 	 -58.1831 	 37.9446 	 137.806 	 
H 	 -58.5601 	 36.157 	 137.64 	 
C 	 -56.4974 	 36.8024 	 137.406 	 
H 	 -56.0775 	 36.023 	 136.833 	 
H 	 -55.9147 	 37.7364 	 137.212 	 
H 	 -56.3847 	 36.5114 	 138.434 	 
S 	 -63.51 	 33.9723 	 134.635 	 
C 	 -64.2742 	 33.4403 	 133.17 	 
C 	 -63.8683 	 34.1713 	 132.125 	 
C 	 -62.8084 	 35.1344 	 132.432 	 
C 	 -62.6351 	 35.2842 	 133.838 	 
H 	 -64.3298 	 33.9443 	 131.18 	 
C 	 -62.2099 	 36.0588 	 131.449 	 
H 	 -61.3133 	 35.5465 	 131.1 	 
H 	 -61.8545 	 36.922 	 131.949 	 
C 	 -63.0901 	 36.5422 	 130.277 	 
H 	 -63.9731 	 36.9302 	 130.661 	 
H 	 -63.3237 	 35.814 	 129.526 	 
C 	 -62.5119 	 37.7809 	 129.582 	 
H 	 -61.7895 	 37.5147 	 128.82 	 
H 	 -62.1971 	 38.6016 	 130.207 	 
H 	 -63.3721 	 38.1009 	 129.016 	 
H 	 -60.6204 	 38.955 	 136.335 	 
H 	 -65.1604 	 32.8251 	 132.988 	 
*
