! wB97X-D3 SP def2-SVP
%pal
nprocs 16
end

* xyz 0 1
S 	 16.5695 	 19.3094 	 38.6301 	 
C 	 17.227 	 19.8552 	 37.0707 	 
C 	 16.2111 	 20.3056 	 36.2231 	 
C 	 14.9411 	 20.229 	 36.8353 	 
C 	 14.9655 	 19.7207 	 38.1212 	 
H 	 13.979 	 20.4377 	 36.4516 	 
C 	 16.3102 	 20.7792 	 34.7968 	 
H 	 15.3031 	 20.5342 	 34.3079 	 
H 	 16.9725 	 20.1875 	 34.072 	 
C 	 16.4962 	 22.3021 	 34.6405 	 
H 	 16.2176 	 22.4989 	 33.5867 	 
H 	 15.8509 	 22.8134 	 35.3678 	 
C 	 17.926 	 22.7998 	 34.8519 	 
H 	 18.6044 	 22.4843 	 34.0386 	 
H 	 17.9693 	 23.8475 	 35.0545 	 
H 	 18.3692 	 22.306 	 35.7579 	 
S 	 14.3382 	 20.2941 	 40.8099 	 
C 	 12.6706 	 20.4009 	 41.3008 	 
C 	 11.9176 	 19.8516 	 40.3098 	 
C 	 12.5906 	 19.5408 	 39.0938 	 
C 	 13.9392 	 19.873 	 39.1289 	 
H 	 10.8144 	 19.7543 	 40.4747 	 
C 	 11.9708 	 18.6877 	 38.0257 	 
H 	 11.5819 	 17.7688 	 38.5771 	 
H 	 12.786 	 18.3443 	 37.3646 	 
C 	 10.835 	 19.371 	 37.2062 	 
H 	 10.0821 	 19.6514 	 37.9273 	 
H 	 10.3469 	 18.6384 	 36.56 	 
C 	 11.2087 	 20.5681 	 36.3839 	 
H 	 11.9771 	 20.2647 	 35.5752 	 
H 	 11.7668 	 21.3625 	 36.8877 	 
H 	 10.3545 	 21.057 	 35.8434 	 
H 	 18.2283 	 19.6094 	 36.7552 	 
H 	 12.3554 	 20.6367 	 42.2517 	 
*
