! wB97X-D3 SP def2-SVP
%pal
nprocs 16
end

* xyz 0 1
S 	 8.61358 	 25.5371 	 40.9629 	 
C 	 7.17508 	 25.6314 	 40.0047 	 
C 	 6.85128 	 24.4422 	 39.4474 	 
C 	 7.63039 	 23.3316 	 39.9339 	 
C 	 8.57326 	 23.7382 	 40.83 	 
H 	 7.57261 	 22.2902 	 39.6462 	 
C 	 5.66761 	 24.2569 	 38.5157 	 
H 	 6.01361 	 23.7668 	 37.646 	 
H 	 5.35461 	 25.2672 	 38.136 	 
C 	 4.46199 	 23.3604 	 39.0518 	 
H 	 3.59898 	 23.4727 	 38.3532 	 
H 	 4.70695 	 22.2791 	 39.024 	 
C 	 4.07994 	 23.6279 	 40.5796 	 
H 	 3.91841 	 24.7169 	 40.7243 	 
H 	 3.06624 	 23.2352 	 40.6565 	 
H 	 4.75762 	 23.264 	 41.3306 	 
S 	 11.1916 	 23.0037 	 40.744 	 
C 	 11.8374 	 21.663 	 41.6438 	 
C 	 10.9019 	 21.1768 	 42.5364 	 
C 	 9.57503 	 21.7472 	 42.3185 	 
C 	 9.60552 	 22.9015 	 41.4384 	 
H 	 11.1329 	 20.2939 	 43.1475 	 
C 	 8.31818 	 21.3897 	 43.1883 	 
H 	 7.67508 	 22.1842 	 43.5214 	 
H 	 8.84889 	 21.0446 	 44.1662 	 
C 	 7.45917 	 20.2323 	 42.6806 	 
H 	 8.00423 	 19.3249 	 42.6288 	 
H 	 7.24286 	 20.3508 	 41.7303 	 
C 	 6.31157 	 20.014 	 43.7361 	 
H 	 5.79669 	 20.9041 	 43.9691 	 
H 	 6.72261 	 19.7139 	 44.6543 	 
H 	 5.60296 	 19.3397 	 43.4377 	 
H 	 6.85892 	 26.5258 	 39.6807 	 
H 	 12.9043 	 21.4265 	 41.6834 	 
*
