! wB97X-D3 SP def2-SVP
%pal
nprocs 16
end

* xyz 0 1
S 	 53.8665 	 13.091 	 54.3935 	 
C 	 53.5967 	 14.6276 	 53.6117 	 
C 	 52.5866 	 14.5494 	 52.6599 	 
C 	 51.9251 	 13.285 	 52.6478 	 
C 	 52.5318 	 12.378 	 53.5256 	 
H 	 51.0452 	 13.0507 	 52.092 	 
C 	 52.445 	 15.5262 	 51.5464 	 
H 	 53.2281 	 16.3348 	 51.6173 	 
H 	 51.4354 	 15.8559 	 51.7258 	 
C 	 52.6776 	 14.8353 	 50.1968 	 
H 	 51.9595 	 14.0367 	 50.0787 	 
H 	 52.3532 	 15.5 	 49.3559 	 
C 	 54.1052 	 14.4367 	 49.9828 	 
H 	 54.8425 	 15.2479 	 50.1388 	 
H 	 54.4834 	 13.6596 	 50.6815 	 
H 	 54.1148 	 14.1057 	 48.9391 	 
S 	 53.5354 	 9.74842 	 53.9704 	 
C 	 52.4335 	 8.38379 	 54.0714 	 
C 	 51.1627 	 8.8649 	 53.9322 	 
C 	 51.0285 	 10.2634 	 53.6801 	 
C 	 52.2388 	 10.9144 	 53.6363 	 
H 	 50.3796 	 8.09788 	 53.975 	 
C 	 49.6461 	 10.8207 	 53.5133 	 
H 	 49.6279 	 11.8566 	 53.8487 	 
H 	 48.9549 	 10.3359 	 54.1938 	 
C 	 49.1432 	 10.5808 	 52.1094 	 
H 	 49.3385 	 9.54921 	 51.7814 	 
H 	 49.7166 	 11.1394 	 51.4353 	 
C 	 47.7026 	 10.9163 	 51.9827 	 
H 	 47.6811 	 11.9264 	 51.497 	 
H 	 47.1806 	 10.9268 	 52.9846 	 
H 	 47.1404 	 10.3385 	 51.2329 	 
H 	 54.2532 	 15.4314 	 53.7134 	 
H 	 52.7258 	 7.37104 	 54.116 	 
*
