! wB97X-D3 SP def2-SVP
%pal
nprocs 16
end

* xyz 0 1
S 	 -58.3133 	 25.903 	 95.1623 	 
C 	 -56.9225 	 24.9888 	 94.7953 	 
C 	 -56.6759 	 24.7741 	 93.431 	 
C 	 -57.6333 	 25.5256 	 92.6654 	 
C 	 -58.5496 	 26.2524 	 93.4143 	 
H 	 -57.6051 	 25.4786 	 91.5632 	 
C 	 -55.588 	 23.9059 	 92.8424 	 
H 	 -55.9278 	 23.5602 	 91.8577 	 
H 	 -55.6277 	 23.025 	 93.4067 	 
C 	 -54.2096 	 24.5581 	 92.7631 	 
H 	 -54.2513 	 25.5435 	 92.3381 	 
H 	 -53.8553 	 24.7788 	 93.7946 	 
C 	 -53.26 	 23.6447 	 92.0696 	 
H 	 -53.4267 	 23.4797 	 90.9834 	 
H 	 -52.2796 	 24.1335 	 92.2411 	 
H 	 -53.2118 	 22.6273 	 92.611 	 
S 	 -61.2341 	 26.9264 	 93.5491 	 
C 	 -61.9351 	 27.8077 	 92.2927 	 
C 	 -61.0145 	 28.1991 	 91.3378 	 
C 	 -59.6658 	 27.8231 	 91.6241 	 
C 	 -59.6237 	 27.0606 	 92.8065 	 
H 	 -61.3299 	 28.7251 	 90.4708 	 
C 	 -58.4941 	 28.1935 	 90.7381 	 
H 	 -58.338 	 27.41 	 90.0886 	 
H 	 -57.5527 	 28.189 	 91.3497 	 
C 	 -58.5998 	 29.5666 	 90.0301 	 
H 	 -58.599 	 30.3138 	 90.8488 	 
H 	 -59.6008 	 29.6476 	 89.5662 	 
C 	 -57.5141 	 29.9425 	 88.9868 	 
H 	 -57.5093 	 30.915 	 88.5342 	 
H 	 -57.8315 	 29.3892 	 88.2066 	 
H 	 -56.4579 	 29.5164 	 89.2664 	 
H 	 -56.3282 	 24.5268 	 95.5637 	 
H 	 -62.9909 	 28.0045 	 92.1961 	 
*
