! wB97X-D3 SP def2-SVP
%pal
nprocs 16
end

* xyz 0 1
S 	 -2.78874 	 32.479 	 38.2875 	 
C 	 -2.15178 	 31.3977 	 37.0615 	 
C 	 -1.46848 	 30.3366 	 37.6356 	 
C 	 -1.58181 	 30.3221 	 39.0874 	 
C 	 -2.11558 	 31.4925 	 39.5727 	 
H 	 -1.25148 	 29.5274 	 39.7843 	 
C 	 -0.741163 	 29.2096 	 36.9676 	 
H 	 -0.486435 	 28.5402 	 37.7778 	 
H 	 0.239053 	 29.6752 	 36.6853 	 
C 	 -1.53835 	 28.3275 	 35.9747 	 
H 	 -2.39518 	 27.9707 	 36.5059 	 
H 	 -1.84805 	 28.9187 	 35.1241 	 
C 	 -0.781338 	 27.1164 	 35.3545 	 
H 	 -0.273585 	 26.4442 	 36.1075 	 
H 	 -1.50854 	 26.4761 	 34.8178 	 
H 	 -0.0135245 	 27.4887 	 34.6851 	 
S 	 -3.10534 	 30.5871 	 41.952 	 
C 	 -3.03279 	 31.6282 	 43.361 	 
C 	 -2.62202 	 32.8964 	 43.0564 	 
C 	 -2.29238 	 33.028 	 41.6577 	 
C 	 -2.31931 	 31.8205 	 41.0254 	 
H 	 -2.51302 	 33.716 	 43.8031 	 
C 	 -1.6743 	 34.2914 	 41.0665 	 
H 	 -2.00348 	 35.1942 	 41.6814 	 
H 	 -2.20914 	 34.4069 	 40.0988 	 
C 	 -0.157429 	 34.2324 	 40.8085 	 
H 	 0.129137 	 33.4918 	 40.0388 	 
H 	 0.382793 	 33.9779 	 41.726 	 
C 	 0.362748 	 35.5209 	 40.2567 	 
H 	 0.55035 	 36.2551 	 41.0545 	 
H 	 -0.3807 	 35.8774 	 39.5903 	 
H 	 1.15831 	 35.3494 	 39.5829 	 
H 	 -2.26738 	 31.679 	 35.9367 	 
H 	 -3.23909 	 31.3092 	 44.3468 	 
*
