! wB97X-D3 SP def2-SVP
%pal
nprocs 16
end

* xyz 0 1
S 	 11.9744 	 22.8953 	 46.4552 	 
C 	 12.9183 	 23.4984 	 47.8963 	 
C 	 12.1662 	 24.498 	 48.4964 	 
C 	 10.8461 	 24.6987 	 47.9929 	 
C 	 10.5735 	 23.8682 	 46.9381 	 
H 	 9.99277 	 25.4392 	 48.263 	 
C 	 12.6895 	 25.426 	 49.5933 	 
H 	 11.9435 	 26.2866 	 49.5931 	 
H 	 13.6967 	 25.8307 	 49.4032 	 
C 	 12.6456 	 24.7341 	 51.0167 	 
H 	 11.6163 	 24.4566 	 51.1491 	 
H 	 13.4031 	 23.8794 	 50.7615 	 
C 	 13.0506 	 25.7408 	 52.0381 	 
H 	 14.1249 	 25.9378 	 52.0672 	 
H 	 12.4871 	 26.6416 	 51.9894 	 
H 	 12.7761 	 25.423 	 53.0779 	 
S 	 9.42277 	 24.8876 	 44.6198 	 
C 	 7.68306 	 24.7623 	 44.4689 	 
C 	 7.13609 	 24.0684 	 45.4749 	 
C 	 8.00355 	 23.6821 	 46.5146 	 
C 	 9.31749 	 24.0637 	 46.2201 	 
H 	 6.05425 	 23.9794 	 45.4113 	 
C 	 7.6815 	 22.7889 	 47.7227 	 
H 	 6.71847 	 23.0685 	 48.1553 	 
H 	 8.39095 	 22.7893 	 48.5809 	 
C 	 7.6418 	 21.329 	 47.2666 	 
H 	 7.67026 	 20.8082 	 48.1754 	 
H 	 8.58471 	 21.1446 	 46.7125 	 
C 	 6.47485 	 20.9372 	 46.4512 	 
H 	 6.46827 	 19.7961 	 46.3294 	 
H 	 6.41298 	 21.2488 	 45.3912 	 
H 	 5.55084 	 21.1603 	 46.9015 	 
H 	 13.9234 	 23.1743 	 48.2536 	 
H 	 7.2188 	 25.3445 	 43.7248 	 
*
