! wB97X-D3 SP def2-SVP
%pal
nprocs 16
end

* xyz 0 1
S 	 68.1921 	 22.5506 	 73.9925 	 
C 	 66.7939 	 22.379 	 72.9542 	 
C 	 67.108 	 22.5621 	 71.5732 	 
C 	 68.533 	 22.8086 	 71.4578 	 
C 	 69.3382 	 22.7619 	 72.625 	 
H 	 69.0031 	 23.0886 	 70.5717 	 
C 	 66.1526 	 22.4802 	 70.3839 	 
H 	 65.7784 	 23.3736 	 70.1101 	 
H 	 65.3142 	 22.0453 	 70.9241 	 
C 	 66.4657 	 21.4842 	 69.2898 	 
H 	 65.5732 	 21.3425 	 68.6959 	 
H 	 67.2228 	 21.8971 	 68.582 	 
C 	 66.9964 	 20.0909 	 69.7168 	 
H 	 67.994 	 20.0776 	 70.2721 	 
H 	 66.2969 	 19.586 	 70.3353 	 
H 	 67.1312 	 19.5272 	 68.7588 	 
S 	 71.5402 	 24.1651 	 73.5824 	 
C 	 73.0985 	 23.3865 	 73.5003 	 
C 	 73.1307 	 22.3046 	 72.679 	 
C 	 71.7844 	 21.9601 	 72.2526 	 
C 	 70.7844 	 22.7675 	 72.7766 	 
H 	 74.0457 	 21.8859 	 72.4472 	 
C 	 71.4071 	 20.7906 	 71.3482 	 
H 	 70.3093 	 20.7018 	 71.49 	 
H 	 71.7599 	 19.8438 	 71.6271 	 
C 	 71.7529 	 20.9366 	 69.8465 	 
H 	 72.8248 	 21.2694 	 69.645 	 
H 	 71.0847 	 21.6673 	 69.461 	 
C 	 71.1723 	 19.7687 	 68.9359 	 
H 	 70.7865 	 20.0864 	 67.9941 	 
H 	 70.3179 	 19.2063 	 69.4203 	 
H 	 71.9417 	 18.9713 	 68.721 	 
H 	 65.7899 	 22.2555 	 73.3825 	 
H 	 73.9949 	 23.876 	 73.8256 	 
*
