! wB97X-D3 SP def2-SVP
%pal
nprocs 16
end

* xyz 0 1
S 	 -87.9778 	 56.7928 	 129.791 	 
C 	 -87.3322 	 55.2639 	 130.413 	 
C 	 -88.0134 	 54.1954 	 129.883 	 
C 	 -88.9682 	 54.6117 	 128.893 	 
C 	 -89.0139 	 55.9543 	 128.642 	 
H 	 -89.6377 	 53.9472 	 128.457 	 
C 	 -87.7788 	 52.6648 	 130.117 	 
H 	 -86.7096 	 52.6413 	 130.301 	 
H 	 -87.9545 	 52.0561 	 129.167 	 
C 	 -88.607 	 52.0623 	 131.222 	 
H 	 -88.4334 	 52.5504 	 132.185 	 
H 	 -89.6685 	 52.174 	 130.951 	 
C 	 -88.2482 	 50.5785 	 131.563 	 
H 	 -88.5714 	 49.9472 	 130.766 	 
H 	 -87.1976 	 50.5782 	 131.566 	 
H 	 -88.6469 	 50.1533 	 132.49 	 
S 	 -89.0388 	 58.099 	 126.889 	 
C 	 -90.5608 	 58.5266 	 126.1 	 
C 	 -91.5523 	 57.5944 	 126.396 	 
C 	 -91.1819 	 56.6042 	 127.324 	 
C 	 -89.8226 	 56.6743 	 127.685 	 
H 	 -92.5365 	 57.7492 	 125.913 	 
C 	 -92.1669 	 55.4972 	 127.654 	 
H 	 -93.1633 	 55.8581 	 127.809 	 
H 	 -91.7939 	 55.1128 	 128.638 	 
C 	 -92.2782 	 54.3062 	 126.74 	 
H 	 -91.309 	 53.9233 	 126.627 	 
H 	 -92.637 	 54.4787 	 125.682 	 
C 	 -93.1511 	 53.1554 	 127.42 	 
H 	 -93.161 	 52.3083 	 126.772 	 
H 	 -94.0922 	 53.6732 	 127.451 	 
H 	 -92.7599 	 52.8463 	 128.397 	 
H 	 -86.5888 	 55.1081 	 131.233 	 
H 	 -90.6349 	 59.3623 	 125.456 	 
*
