! wB97X-D3 SP def2-SVP
%pal
nprocs 16
end

* xyz 0 1
S 	 -49.2233 	 57.793 	 130.526 	 
C 	 -48.5337 	 57.3711 	 128.974 	 
C 	 -48.3235 	 58.4866 	 128.156 	 
C 	 -49.02 	 59.6456 	 128.691 	 
C 	 -49.5482 	 59.4586 	 129.98 	 
H 	 -49.3141 	 60.5404 	 128.193 	 
C 	 -47.8339 	 58.3888 	 126.677 	 
H 	 -48.1777 	 59.1966 	 126.067 	 
H 	 -48.17 	 57.3784 	 126.356 	 
C 	 -46.2733 	 58.5108 	 126.462 	 
H 	 -45.9465 	 59.3578 	 127.14 	 
H 	 -45.6559 	 57.7116 	 126.792 	 
C 	 -45.7454 	 58.7595 	 125.019 	 
H 	 -46.1079 	 57.9805 	 124.361 	 
H 	 -45.99 	 59.7763 	 124.757 	 
H 	 -44.6146 	 58.8164 	 125.07 	 
S 	 -51.7891 	 59.795 	 131.52 	 
C 	 -52.1322 	 61.3356 	 132.28 	 
C 	 -51.2735 	 62.3258 	 131.823 	 
C 	 -50.2999 	 61.7956 	 130.985 	 
C 	 -50.365 	 60.4021 	 130.718 	 
H 	 -51.3861 	 63.3941 	 132.16 	 
C 	 -49.2699 	 62.7052 	 130.338 	 
H 	 -49.6397 	 63.1706 	 129.42 	 
H 	 -48.4966 	 62.2363 	 129.787 	 
C 	 -48.6244 	 63.8584 	 131.19 	 
H 	 -49.2949 	 64.6612 	 131.376 	 
H 	 -47.8254 	 64.2294 	 130.575 	 
C 	 -47.8788 	 63.3878 	 132.441 	 
H 	 -48.4141 	 62.6611 	 132.981 	 
H 	 -47.5726 	 64.2582 	 133.082 	 
H 	 -47.0156 	 62.8701 	 132.104 	 
H 	 -48.1538 	 56.3352 	 128.79 	 
H 	 -53.0162 	 61.5804 	 132.823 	 
*
