! wB97X-D3 SP def2-SVP
%pal
nprocs 16
end

* xyz 0 1
S 	 -10.3236 	 48.8245 	 32.2541 	 
C 	 -9.54952 	 48.2135 	 33.6932 	 
C 	 -9.60917 	 48.9877 	 34.7732 	 
C 	 -10.3041 	 50.1772 	 34.4884 	 
C 	 -10.9694 	 50.1805 	 33.2357 	 
H 	 -10.3612 	 51.0322 	 35.1655 	 
C 	 -8.99749 	 48.7194 	 36.1447 	 
H 	 -9.61543 	 49.2333 	 36.9197 	 
H 	 -8.00994 	 49.1651 	 36.145 	 
C 	 -8.9785 	 47.2702 	 36.5693 	 
H 	 -10.0049 	 46.844 	 36.508 	 
H 	 -8.37539 	 46.7519 	 35.8875 	 
C 	 -8.58019 	 46.9145 	 37.9681 	 
H 	 -7.49304 	 46.9909 	 37.9749 	 
H 	 -9.00316 	 47.7205 	 38.506 	 
H 	 -8.90636 	 45.9716 	 38.2743 	 
S 	 -11.3879 	 51.7545 	 30.9488 	 
C 	 -12.3848 	 53.2051 	 31.086 	 
C 	 -12.9207 	 53.2309 	 32.3401 	 
C 	 -12.5266 	 52.1862 	 33.2155 	 
C 	 -11.7065 	 51.2627 	 32.6135 	 
H 	 -13.6531 	 54.0343 	 32.5656 	 
C 	 -13.0607 	 52.1105 	 34.6151 	 
H 	 -13.1016 	 53.0746 	 35.0939 	 
H 	 -12.3309 	 51.7285 	 35.3084 	 
C 	 -14.3 	 51.199 	 34.8821 	 
H 	 -14.5446 	 51.1971 	 35.9836 	 
H 	 -14.0561 	 50.1704 	 34.5256 	 
C 	 -15.479 	 51.7103 	 34.0517 	 
H 	 -15.3481 	 51.4852 	 33.0067 	 
H 	 -15.9591 	 52.6942 	 34.2014 	 
H 	 -16.1413 	 50.8896 	 34.404 	 
H 	 -9.04265 	 47.241 	 33.5369 	 
H 	 -12.5398 	 53.8761 	 30.2483 	 
*
