! wB97X-D3 SP def2-SVP
%pal
nprocs 16
end

* xyz 0 1
S 	 7.97946 	 -21.0456 	 79.2865 	 
C 	 8.06884 	 -22.1462 	 80.605 	 
C 	 7.92411 	 -21.5043 	 81.8097 	 
C 	 7.68843 	 -20.1387 	 81.7051 	 
C 	 7.76261 	 -19.6783 	 80.3894 	 
H 	 7.54053 	 -19.4284 	 82.4962 	 
C 	 7.98166 	 -22.2164 	 83.1641 	 
H 	 8.82799 	 -21.8726 	 83.69 	 
H 	 8.31997 	 -23.2765 	 83.109 	 
C 	 6.69702 	 -21.8643 	 83.9298 	 
H 	 6.61956 	 -20.8105 	 84.1632 	 
H 	 5.84313 	 -21.9915 	 83.2246 	 
C 	 6.55208 	 -22.8158 	 85.1027 	 
H 	 6.68847 	 -23.8538 	 84.7891 	 
H 	 7.48158 	 -22.7276 	 85.7518 	 
H 	 5.73 	 -22.6663 	 85.7872 	 
S 	 6.05018 	 -18.0415 	 78.9895 	 
C 	 6.57211 	 -16.3696 	 78.6702 	 
C 	 7.71004 	 -16.1183 	 79.3884 	 
C 	 8.23506 	 -17.1307 	 80.2257 	 
C 	 7.48583 	 -18.303 	 80.0118 	 
H 	 8.03335 	 -15.0647 	 79.4217 	 
C 	 9.45008 	 -16.9737 	 81.1732 	 
H 	 9.97389 	 -17.9544 	 81.1047 	 
H 	 9.09575 	 -16.8515 	 82.1627 	 
C 	 10.3748 	 -15.7691 	 80.8255 	 
H 	 9.77823 	 -14.8328 	 80.8482 	 
H 	 10.794 	 -15.7716 	 79.8411 	 
C 	 11.4903 	 -15.718 	 81.8424 	 
H 	 12.1432 	 -16.6116 	 81.7249 	 
H 	 11.099 	 -15.7029 	 82.9061 	 
H 	 12.1753 	 -14.9368 	 81.7515 	 
H 	 8.12422 	 -23.1955 	 80.5174 	 
H 	 6.00729 	 -15.6002 	 78.1366 	 
*
