! wB97X-D3 SP def2-SVP
%pal
nprocs 16
end

* xyz 0 1
S 	 -48.0784 	 63.7686 	 131.103 	 
C 	 -46.6504 	 63.8983 	 130.083 	 
C 	 -47.021 	 63.7165 	 128.741 	 
C 	 -48.3741 	 63.3783 	 128.549 	 
C 	 -49.048 	 63.2898 	 129.73 	 
H 	 -48.7908 	 63.1179 	 127.618 	 
C 	 -45.9802 	 63.7287 	 127.635 	 
H 	 -45.9958 	 62.7992 	 127.105 	 
H 	 -45.1381 	 63.6577 	 128.263 	 
C 	 -45.9526 	 64.9838 	 126.709 	 
H 	 -47.002 	 65.1354 	 126.36 	 
H 	 -45.71 	 65.9792 	 127.165 	 
C 	 -45.0372 	 64.7755 	 125.483 	 
H 	 -45.2351 	 65.5769 	 124.767 	 
H 	 -43.9362 	 64.7672 	 125.725 	 
H 	 -45.3282 	 63.7331 	 125.002 	 
S 	 -51.731 	 63.7118 	 130.235 	 
C 	 -52.8272 	 62.4444 	 129.975 	 
C 	 -52.2908 	 61.2149 	 130.025 	 
C 	 -50.8558 	 61.3428 	 129.973 	 
C 	 -50.3599 	 62.6351 	 129.98 	 
H 	 -53.128 	 60.4009 	 130.022 	 
C 	 -49.9721 	 60.1583 	 129.796 	 
H 	 -50.1127 	 59.4419 	 130.613 	 
H 	 -48.9716 	 60.5916 	 129.823 	 
C 	 -50.1211 	 59.4953 	 128.362 	 
H 	 -49.7925 	 60.1696 	 127.56 	 
H 	 -51.1855 	 59.209 	 128.153 	 
C 	 -49.2462 	 58.2138 	 128.29 	 
H 	 -49.3482 	 57.8174 	 127.295 	 
H 	 -49.586 	 57.4767 	 128.994 	 
H 	 -48.212 	 58.4225 	 128.357 	 
H 	 -45.6335 	 64.2051 	 130.357 	 
H 	 -53.9437 	 62.574 	 129.899 	 
*
