! wB97X-D3 SP def2-SVP
%pal
nprocs 16
end

* xyz 0 1
S 	 11.0583 	 22.0866 	 63.1214 	 
C 	 11.5462 	 20.435 	 63.373 	 
C 	 10.6251 	 19.6972 	 64.1593 	 
C 	 9.3935 	 20.41 	 64.2653 	 
C 	 9.3634 	 21.5715 	 63.5483 	 
H 	 8.51825 	 20.0733 	 64.7429 	 
C 	 10.862 	 18.3871 	 64.8911 	 
H 	 10.4086 	 18.4906 	 65.849 	 
H 	 11.9211 	 18.3912 	 65.2158 	 
C 	 10.3477 	 17.0708 	 64.1184 	 
H 	 10.3883 	 16.2236 	 64.867 	 
H 	 9.34225 	 17.1765 	 63.8523 	 
C 	 11.1766 	 16.599 	 62.8753 	 
H 	 10.691 	 15.7769 	 62.4279 	 
H 	 11.2888 	 17.3744 	 62.1277 	 
H 	 12.0853 	 16.172 	 63.2437 	 
S 	 8.50209 	 24.0402 	 64.086 	 
C 	 6.81546 	 24.4875 	 63.9632 	 
C 	 6.14529 	 23.5248 	 63.2302 	 
C 	 6.91426 	 22.3827 	 62.9772 	 
C 	 8.21461 	 22.4877 	 63.4645 	 
H 	 5.05689 	 23.6769 	 62.9646 	 
C 	 6.32122 	 21.1879 	 62.4239 	 
H 	 5.41263 	 21.163 	 63.1272 	 
H 	 6.94506 	 20.3309 	 62.6433 	 
C 	 5.93667 	 21.1185 	 60.9476 	 
H 	 6.79422 	 21.4724 	 60.3033 	 
H 	 5.10765 	 21.7635 	 60.7458 	 
C 	 5.47269 	 19.7017 	 60.4896 	 
H 	 5.21499 	 19.5772 	 59.4707 	 
H 	 4.57153 	 19.3357 	 61.0257 	 
H 	 6.35389 	 19.1003 	 60.7608 	 
H 	 12.5077 	 20.0768 	 63.1468 	 
H 	 6.42483 	 25.5186 	 64.0889 	 
*
