! wB97X-D3 SP def2-SVP
%pal
nprocs 16
end

* xyz 0 1
S 	 -14.2508 	 -7.91966 	 91.1052 	 
C 	 -15.6017 	 -7.2334 	 90.2227 	 
C 	 -16.6974 	 -8.0898 	 90.2668 	 
C 	 -16.4424 	 -9.35752 	 90.9451 	 
C 	 -15.0781 	 -9.49064 	 91.2396 	 
H 	 -17.1562 	 -10.1861 	 90.9865 	 
C 	 -18.0998 	 -7.60676 	 89.7409 	 
H 	 -17.8391 	 -6.62888 	 89.3184 	 
H 	 -18.8183 	 -7.3168 	 90.4926 	 
C 	 -18.7565 	 -8.62089 	 88.7286 	 
H 	 -18.0637 	 -9.04948 	 88.0058 	 
H 	 -19.1307 	 -9.45644 	 89.3099 	 
C 	 -19.8936 	 -7.89286 	 87.9059 	 
H 	 -19.5952 	 -6.8705 	 87.6017 	 
H 	 -20.2251 	 -8.37302 	 87.054 	 
H 	 -20.7579 	 -7.73946 	 88.5176 	 
S 	 -12.6815 	 -10.3057 	 92.3138 	 
C 	 -12.5006 	 -11.9279 	 92.956 	 
C 	 -13.6864 	 -12.653 	 92.8891 	 
C 	 -14.7234 	 -11.9457 	 92.2153 	 
C 	 -14.3673 	 -10.623 	 91.8361 	 
H 	 -13.7079 	 -13.7048 	 93.2254 	 
C 	 -16.0692 	 -12.5689 	 92.029 	 
H 	 -16.781 	 -11.8386 	 92.3386 	 
H 	 -16.0328 	 -13.3677 	 92.6849 	 
C 	 -16.3835 	 -12.9806 	 90.5825 	 
H 	 -15.7255 	 -13.8563 	 90.2423 	 
H 	 -16.2575 	 -12.0465 	 89.9516 	 
C 	 -17.8756 	 -13.51 	 90.3853 	 
H 	 -18.6399 	 -12.8332 	 90.799 	 
H 	 -18.0875 	 -14.5004 	 90.7898 	 
H 	 -18.0408 	 -13.741 	 89.3327 	 
H 	 -15.549 	 -6.18561 	 89.8266 	 
H 	 -11.4971 	 -12.2026 	 93.3773 	 
*
