! wB97X-D3 SP def2-SVP
%pal
nprocs 16
end

* xyz 0 1
S 	 48.0238 	 3.57154 	 89.6726 	 
C 	 48.4597 	 4.46832 	 88.264 	 
C 	 49.6398 	 5.18947 	 88.4754 	 
C 	 50.1388 	 5.01741 	 89.7757 	 
C 	 49.2684 	 4.35823 	 90.627 	 
H 	 51.0295 	 5.46594 	 90.2672 	 
C 	 50.4505 	 5.92525 	 87.3521 	 
H 	 49.7255 	 6.2311 	 86.6114 	 
H 	 51.1197 	 5.19905 	 86.7966 	 
C 	 51.1964 	 7.1712 	 87.9528 	 
H 	 50.5459 	 7.98949 	 88.35 	 
H 	 51.6714 	 6.79391 	 88.9016 	 
C 	 52.1746 	 7.71019 	 86.8015 	 
H 	 53.1728 	 7.77027 	 87.1551 	 
H 	 52.0999 	 7.19203 	 85.8518 	 
H 	 51.8041 	 8.68435 	 86.3668 	 
S 	 47.8354 	 4.59508 	 92.8836 	 
C 	 48.4417 	 4.24492 	 94.5242 	 
C 	 49.7873 	 3.97256 	 94.414 	 
C 	 50.2882 	 3.97737 	 93.0408 	 
C 	 49.3011 	 4.19038 	 92.0752 	 
H 	 50.3984 	 3.86407 	 95.289 	 
C 	 51.7618 	 3.66362 	 92.741 	 
H 	 52.3549 	 4.15753 	 93.5194 	 
H 	 51.9827 	 4.21189 	 91.8853 	 
C 	 52.1159 	 2.2346 	 92.7435 	 
H 	 51.6398 	 1.87702 	 93.5815 	 
H 	 53.1794 	 2.151 	 92.9224 	 
C 	 51.9089 	 1.44577 	 91.3961 	 
H 	 52.6049 	 1.77785 	 90.6728 	 
H 	 50.843 	 1.64472 	 91.1302 	 
H 	 52.0382 	 0.386146 	 91.4188 	 
H 	 48.0334 	 4.2113 	 87.2725 	 
H 	 47.8408 	 4.47904 	 95.3925 	 
*
