! wB97X-D3 SP def2-SVP
%pal
nprocs 16
end

* xyz 0 1
S 	 -44.7752 	 20.119 	 87.9174 	 
C 	 -43.6189 	 19.629 	 89.1792 	 
C 	 -42.3912 	 19.3282 	 88.6191 	 
C 	 -42.537 	 19.1843 	 87.1793 	 
C 	 -43.7766 	 19.5591 	 86.6637 	 
H 	 -41.7995 	 18.8866 	 86.5308 	 
C 	 -41.0801 	 19.1204 	 89.3936 	 
H 	 -41.0678 	 19.9035 	 90.1122 	 
H 	 -40.2677 	 19.4463 	 88.7296 	 
C 	 -40.7658 	 17.698 	 89.9272 	 
H 	 -39.7992 	 17.6293 	 90.3855 	 
H 	 -41.3674 	 17.4228 	 90.7704 	 
C 	 -40.7007 	 16.6469 	 88.7548 	 
H 	 -40.2093 	 17.0759 	 87.861 	 
H 	 -40.1866 	 15.6568 	 88.956 	 
H 	 -41.6845 	 16.5732 	 88.4106 	 
S 	 -45.7641 	 18.9641 	 84.9369 	 
C 	 -45.5916 	 19.3795 	 83.2095 	 
C 	 -44.3864 	 19.9694 	 82.9357 	 
C 	 -43.5319 	 20.0789 	 84.1048 	 
C 	 -44.1839 	 19.6027 	 85.2654 	 
H 	 -44.1421 	 20.2727 	 81.986 	 
C 	 -42.1203 	 20.5798 	 83.9918 	 
H 	 -41.4454 	 19.714 	 84.1549 	 
H 	 -41.9466 	 21.1632 	 84.8777 	 
C 	 -41.7475 	 21.3998 	 82.7163 	 
H 	 -42.2438 	 22.3577 	 82.734 	 
H 	 -42.1401 	 20.8653 	 81.842 	 
C 	 -40.2317 	 21.5656 	 82.669 	 
H 	 -39.8531 	 22.0512 	 83.5216 	 
H 	 -39.9699 	 22.2366 	 81.8882 	 
H 	 -39.7622 	 20.6128 	 82.5354 	 
H 	 -43.7507 	 19.7479 	 90.2139 	 
H 	 -46.3599 	 19.2049 	 82.4841 	 
*
