! wB97X-D3 SP def2-SVP
%pal
nprocs 16
end

* xyz 0 1
S 	 -2.02849 	 -25.3786 	 53.6198 	 
C 	 -2.5429 	 -26.1937 	 55.1319 	 
C 	 -2.28616 	 -25.4441 	 56.2823 	 
C 	 -1.75471 	 -24.1633 	 55.8732 	 
C 	 -1.52747 	 -23.9226 	 54.5282 	 
H 	 -1.47585 	 -23.4654 	 56.5818 	 
C 	 -2.64191 	 -25.8056 	 57.6821 	 
H 	 -1.69823 	 -25.6017 	 58.256 	 
H 	 -2.80023 	 -26.8303 	 57.8282 	 
C 	 -3.87882 	 -24.9955 	 58.1931 	 
H 	 -3.86187 	 -25.27 	 59.2696 	 
H 	 -3.72703 	 -23.9375 	 57.9976 	 
C 	 -5.18225 	 -25.4126 	 57.5837 	 
H 	 -5.93319 	 -24.7345 	 57.89 	 
H 	 -5.1917 	 -25.4368 	 56.4801 	 
H 	 -5.48914 	 -26.3787 	 58.0196 	 
S 	 -0.207733 	 -23.0082 	 52.213 	 
C 	 0.374384 	 -21.3873 	 52.0525 	 
C 	 0.203045 	 -20.7436 	 53.2418 	 
C 	 -0.490136 	 -21.4831 	 54.2566 	 
C 	 -0.892639 	 -22.7507 	 53.8425 	 
H 	 0.571312 	 -19.7249 	 53.3087 	 
C 	 -0.573948 	 -20.7869 	 55.5811 	 
H 	 -1.28104 	 -21.328 	 56.1432 	 
H 	 -1.01618 	 -19.8357 	 55.4243 	 
C 	 0.675155 	 -20.7114 	 56.3548 	 
H 	 0.609308 	 -20.1155 	 57.264 	 
H 	 1.35088 	 -20.0928 	 55.792 	 
C 	 1.24614 	 -22.1117 	 56.7603 	 
H 	 0.594845 	 -22.6714 	 57.3309 	 
H 	 2.18618 	 -22.0482 	 57.3502 	 
H 	 1.31601 	 -22.7374 	 55.8762 	 
H 	 -2.98528 	 -27.1613 	 54.9805 	 
H 	 0.666367 	 -20.8577 	 51.1493 	 
*
