! wB97X-D3 SP def2-SVP
%pal
nprocs 16
end

* xyz 0 1
S 	 37.7185 	 11.3484 	 78.642 	 
C 	 39.1433 	 10.2914 	 78.7388 	 
C 	 39.7276 	 10.2119 	 77.5016 	 
C 	 38.8239 	 10.636 	 76.4811 	 
C 	 37.7511 	 11.3218 	 76.9375 	 
H 	 39.0446 	 10.7003 	 75.4133 	 
C 	 41.0735 	 9.50188 	 77.2493 	 
H 	 41.2635 	 9.48922 	 76.1421 	 
H 	 41.0825 	 8.46565 	 77.5661 	 
C 	 42.3166 	 10.1572 	 77.8569 	 
H 	 42.2291 	 9.89925 	 79.0037 	 
H 	 43.2323 	 9.60124 	 77.6414 	 
C 	 42.3663 	 11.6667 	 77.5966 	 
H 	 42.1798 	 11.9237 	 76.5289 	 
H 	 41.7237 	 12.2785 	 78.1865 	 
H 	 43.4081 	 12.0078 	 77.8362 	 
S 	 35.1828 	 11.0636 	 76.0248 	 
C 	 34.5623 	 12.0332 	 74.7523 	 
C 	 35.52 	 12.9797 	 74.3632 	 
C 	 36.7388 	 12.9214 	 75.1569 	 
C 	 36.7017 	 11.9041 	 76.1027 	 
H 	 35.2888 	 13.514 	 73.4012 	 
C 	 37.9408 	 13.8492 	 74.8897 	 
H 	 38.5018 	 13.9497 	 75.8243 	 
H 	 37.5009 	 14.8146 	 74.5034 	 
C 	 38.946 	 13.3786 	 73.8597 	 
H 	 38.3819 	 13.0987 	 72.8839 	 
H 	 39.3172 	 12.4221 	 74.2255 	 
C 	 40.138 	 14.2934 	 73.6751 	 
H 	 40.7923 	 13.9045 	 72.8809 	 
H 	 40.7565 	 14.2881 	 74.5574 	 
H 	 39.7584 	 15.3006 	 73.3392 	 
H 	 39.7281 	 10.104 	 79.6024 	 
H 	 33.5919 	 11.9267 	 74.3556 	 
*
