! wB97X-D3 SP def2-SVP
%pal
nprocs 16
end

* xyz 0 1
S 	 -39.6595 	 -7.75502 	 98.7391 	 
C 	 -39.9075 	 -7.96049 	 97.0458 	 
C 	 -40.8451 	 -7.00592 	 96.5296 	 
C 	 -41.2582 	 -6.12225 	 97.593 	 
C 	 -40.6518 	 -6.34805 	 98.8214 	 
H 	 -41.9432 	 -5.24689 	 97.5198 	 
C 	 -41.153 	 -6.77111 	 95.1138 	 
H 	 -41.9429 	 -6.02371 	 95.0611 	 
H 	 -41.613 	 -7.69183 	 94.707 	 
C 	 -40.0153 	 -6.43859 	 94.1504 	 
H 	 -40.5847 	 -6.10768 	 93.2904 	 
H 	 -39.3842 	 -5.63895 	 94.4842 	 
C 	 -39.1251 	 -7.60892 	 93.6371 	 
H 	 -39.7499 	 -8.49344 	 93.5021 	 
H 	 -38.5445 	 -7.30585 	 92.7176 	 
H 	 -38.3623 	 -7.92323 	 94.3082 	 
S 	 -39.3027 	 -5.10728 	 100.945 	 
C 	 -40.151 	 -3.92868 	 101.896 	 
C 	 -41.5126 	 -3.97533 	 101.677 	 
C 	 -41.9131 	 -4.97222 	 100.697 	 
C 	 -40.7726 	 -5.59384 	 100.077 	 
H 	 -42.0737 	 -3.30984 	 102.222 	 
C 	 -43.367 	 -5.10355 	 100.239 	 
H 	 -43.3889 	 -6.0094 	 99.5635 	 
H 	 -43.7054 	 -4.13415 	 99.7335 	 
C 	 -44.3737 	 -5.48784 	 101.396 	 
H 	 -44.4207 	 -4.76708 	 102.204 	 
H 	 -44.0209 	 -6.48162 	 101.73 	 
C 	 -45.8077 	 -5.70597 	 100.988 	 
H 	 -46.1726 	 -4.78659 	 100.563 	 
H 	 -46.5538 	 -5.99959 	 101.744 	 
H 	 -45.709 	 -6.42664 	 100.167 	 
H 	 -39.3352 	 -8.64638 	 96.404 	 
H 	 -39.8777 	 -3.20505 	 102.623 	 
*
