! wB97X-D3 SP def2-SVP
%pal
nprocs 16
end

* xyz 0 1
S 	 -34.1634 	 42.7871 	 96.9047 	 
C 	 -32.4242 	 42.5491 	 96.722 	 
C 	 -31.9083 	 41.4378 	 97.3404 	 
C 	 -32.9096 	 40.665 	 98.0276 	 
C 	 -34.1595 	 41.27 	 97.8865 	 
H 	 -32.6405 	 39.786 	 98.6359 	 
C 	 -30.4304 	 40.9246 	 97.3313 	 
H 	 -30.129 	 40.8197 	 98.381 	 
H 	 -29.7963 	 41.6597 	 96.8643 	 
C 	 -30.358 	 39.6777 	 96.466 	 
H 	 -31.2244 	 39.0576 	 96.7897 	 
H 	 -30.5594 	 39.8675 	 95.368 	 
C 	 -29.1344 	 38.8861 	 96.6385 	 
H 	 -28.8636 	 38.7836 	 97.6737 	 
H 	 -29.1517 	 37.8118 	 96.3057 	 
H 	 -28.2388 	 39.3023 	 96.0496 	 
S 	 -35.9292 	 42.3463 	 99.8305 	 
C 	 -37.3405 	 41.3782 	 100.386 	 
C 	 -37.2599 	 40.1192 	 99.8008 	 
C 	 -36.2475 	 39.9179 	 98.8122 	 
C 	 -35.3826 	 41.0501 	 98.6611 	 
H 	 -38.01 	 39.4447 	 99.9697 	 
C 	 -36.0672 	 38.5717 	 98.2466 	 
H 	 -35.3786 	 38.6487 	 97.3745 	 
H 	 -37.0313 	 38.2975 	 97.8651 	 
C 	 -35.4415 	 37.5183 	 99.2218 	 
H 	 -35.7187 	 37.7547 	 100.242 	 
H 	 -34.3209 	 37.5552 	 99.1609 	 
C 	 -36.0659 	 36.1608 	 98.936 	 
H 	 -36.3286 	 35.9767 	 97.8687 	 
H 	 -37.1045 	 36.1043 	 99.4476 	 
H 	 -35.5324 	 35.2912 	 99.3284 	 
H 	 -31.823 	 43.261 	 96.19 	 
H 	 -38.0441 	 41.7917 	 101.13 	 
*
