! wB97X-D3 SP def2-SVP
%pal
nprocs 16
end

* xyz 0 1
S 	 -37.523 	 -2.70539 	 97.6835 	 
C 	 -36.0057 	 -2.10204 	 98.2601 	 
C 	 -35.7443 	 -0.853503 	 97.9122 	 
C 	 -36.7865 	 -0.293635 	 97.0931 	 
C 	 -37.8128 	 -1.2106 	 96.8135 	 
H 	 -36.8814 	 0.672446 	 96.6056 	 
C 	 -34.5061 	 -0.149663 	 98.2696 	 
H 	 -33.8165 	 -0.172578 	 97.4094 	 
H 	 -34.0212 	 -0.737397 	 99.1436 	 
C 	 -34.6344 	 1.27364 	 98.7377 	 
H 	 -35.0537 	 1.81099 	 97.8373 	 
H 	 -35.3376 	 1.3855 	 99.612 	 
C 	 -33.2289 	 1.90215 	 99.1371 	 
H 	 -32.4555 	 1.83502 	 98.4021 	 
H 	 -33.3084 	 2.96237 	 99.3869 	 
H 	 -32.9402 	 1.20659 	 99.958 	 
S 	 -40.481 	 -0.874143 	 96.7947 	 
C 	 -41.328 	 -0.444493 	 95.3263 	 
C 	 -40.4248 	 -0.499427 	 94.2293 	 
C 	 -39.0641 	 -0.744317 	 94.5827 	 
C 	 -38.9431 	 -0.911582 	 95.9497 	 
H 	 -40.9192 	 -0.357734 	 93.274 	 
C 	 -37.969 	 -0.799898 	 93.4862 	 
H 	 -36.9162 	 -0.899538 	 93.9517 	 
H 	 -38.1115 	 0.167423 	 92.9423 	 
C 	 -38.1716 	 -1.98973 	 92.5213 	 
H 	 -37.5075 	 -1.95229 	 91.6289 	 
H 	 -39.207 	 -1.95063 	 92.2422 	 
C 	 -37.7948 	 -3.37076 	 93.3238 	 
H 	 -38.3889 	 -3.43393 	 94.232 	 
H 	 -36.8019 	 -3.3464 	 93.5591 	 
H 	 -38.0706 	 -4.20599 	 92.5953 	 
H 	 -35.2135 	 -2.6887 	 98.729 	 
H 	 -42.3646 	 -0.479719 	 95.2917 	 
*
