! wB97X-D3 SP def2-SVP
%pal
nprocs 16
end

* xyz 0 1
S 	 -64.6655 	 39.3773 	 124.487 	 
C 	 -65.8361 	 40.4865 	 125.069 	 
C 	 -67.0182 	 40.2601 	 124.399 	 
C 	 -66.9366 	 39.3018 	 123.362 	 
C 	 -65.7536 	 38.6166 	 123.359 	 
H 	 -67.7139 	 38.9754 	 122.645 	 
C 	 -68.2767 	 40.9998 	 124.538 	 
H 	 -68.2733 	 41.6243 	 125.431 	 
H 	 -69.06 	 40.2694 	 124.695 	 
C 	 -68.7207 	 41.8809 	 123.408 	 
H 	 -68.9987 	 41.3039 	 122.61 	 
H 	 -69.6868 	 42.2512 	 123.806 	 
C 	 -67.7425 	 42.9833 	 123.141 	 
H 	 -67.9209 	 43.4923 	 122.225 	 
H 	 -67.5929 	 43.6653 	 123.977 	 
H 	 -66.7903 	 42.605 	 122.903 	 
S 	 -66.5833 	 36.1253 	 122.416 	 
C 	 -65.6269 	 35.1431 	 121.347 	 
C 	 -64.352 	 35.7807 	 121.137 	 
C 	 -64.2509 	 37.0727 	 121.79 	 
C 	 -65.3848 	 37.4095 	 122.552 	 
H 	 -63.6081 	 35.3417 	 120.482 	 
C 	 -63.0332 	 37.9632 	 121.544 	 
H 	 -62.0834 	 37.3297 	 121.578 	 
H 	 -63.0576 	 38.6285 	 122.475 	 
C 	 -63.0379 	 38.8403 	 120.305 	 
H 	 -63.0203 	 38.3675 	 119.283 	 
H 	 -62.0998 	 39.3604 	 120.345 	 
C 	 -64.3555 	 39.7732 	 120.223 	 
H 	 -65.2486 	 39.2699 	 119.926 	 
H 	 -64.226 	 40.545 	 119.511 	 
H 	 -64.5605 	 40.2232 	 121.127 	 
H 	 -65.7071 	 41.3044 	 125.758 	 
H 	 -65.876 	 34.219 	 120.904 	 
*
