! wB97X-D3 SP def2-SVP
%pal
nprocs 16
end

* xyz 0 1
S 	 -67.6066 	 54.3282 	 125.496 	 
C 	 -67.7474 	 55.3188 	 127.004 	 
C 	 -68.842 	 56.2521 	 126.934 	 
C 	 -69.5686 	 56.083 	 125.691 	 
C 	 -69.007 	 55.1158 	 124.861 	 
H 	 -70.3607 	 56.7667 	 125.356 	 
C 	 -69.2331 	 57.2647 	 128.027 	 
H 	 -69.0513 	 58.2934 	 127.626 	 
H 	 -68.6027 	 57.1772 	 128.912 	 
C 	 -70.7842 	 57.3129 	 128.336 	 
H 	 -71.2598 	 57.5284 	 127.434 	 
H 	 -71.0451 	 56.3838 	 128.728 	 
C 	 -71.1564 	 58.4828 	 129.333 	 
H 	 -70.8735 	 58.1454 	 130.31 	 
H 	 -70.7019 	 59.4615 	 129.061 	 
H 	 -72.1922 	 58.6308 	 129.299 	 
S 	 -68.2288 	 54.2848 	 122.343 	 
C 	 -69.3451 	 54.4291 	 120.966 	 
C 	 -70.6156 	 54.6283 	 121.408 	 
C 	 -70.679 	 55.0079 	 122.781 	 
C 	 -69.4526 	 54.8785 	 123.421 	 
H 	 -71.4656 	 54.4672 	 120.719 	 
C 	 -71.9894 	 55.353 	 123.42 	 
H 	 -72.5201 	 55.769 	 122.562 	 
H 	 -71.8034 	 56.2332 	 124.075 	 
C 	 -72.6908 	 54.1971 	 124.155 	 
H 	 -72.1004 	 53.8051 	 125.025 	 
H 	 -72.8254 	 53.4069 	 123.428 	 
C 	 -74.0471 	 54.4318 	 124.742 	 
H 	 -74.743 	 54.8863 	 124.061 	 
H 	 -73.9002 	 55.0734 	 125.647 	 
H 	 -74.4109 	 53.5274 	 125.282 	 
H 	 -66.9666 	 55.3459 	 127.806 	 
H 	 -69.1145 	 54.0732 	 120.021 	 
*
