! wB97X-D3 SP def2-SVP
%pal
nprocs 16
end

* xyz 0 1
S 	 44.1809 	 12.828 	 100.742 	 
C 	 45.4875 	 14.0118 	 100.849 	 
C 	 46.3823 	 13.8493 	 99.7842 	 
C 	 45.9709 	 12.8278 	 98.8783 	 
C 	 44.7705 	 12.2289 	 99.1785 	 
H 	 46.5005 	 12.5802 	 97.9553 	 
C 	 47.628 	 14.6199 	 99.5304 	 
H 	 48.0063 	 14.0217 	 98.718 	 
H 	 48.3037 	 14.4607 	 100.399 	 
C 	 47.4508 	 16.0965 	 99.101 	 
H 	 46.9311 	 16.5823 	 99.911 	 
H 	 48.5144 	 16.5459 	 99.088 	 
C 	 46.7994 	 16.3239 	 97.7243 	 
H 	 45.7485 	 16.0329 	 97.5703 	 
H 	 46.7712 	 17.3581 	 97.4747 	 
H 	 47.4498 	 15.8574 	 96.9632 	 
S 	 43.0389 	 10.172 	 99.5007 	 
C 	 42.9355 	 8.8505 	 98.3652 	 
C 	 43.7821 	 9.08118 	 97.297 	 
C 	 44.5225 	 10.2831 	 97.4537 	 
C 	 44.2262 	 11.0088 	 98.5907 	 
H 	 43.7511 	 8.51315 	 96.3942 	 
C 	 45.5515 	 10.5723 	 96.3958 	 
H 	 45.9605 	 9.55927 	 96.1085 	 
H 	 46.3021 	 11.134 	 96.8551 	 
C 	 45.0228 	 11.0598 	 95.0883 	 
H 	 44.1796 	 10.3517 	 94.7387 	 
H 	 45.8144 	 10.9911 	 94.3693 	 
C 	 44.3674 	 12.4773 	 95.1455 	 
H 	 43.9206 	 12.7915 	 94.1643 	 
H 	 45.1754 	 13.2891 	 95.1895 	 
H 	 43.6449 	 12.5939 	 95.9636 	 
H 	 45.7529 	 14.6996 	 101.672 	 
H 	 42.2318 	 8.05318 	 98.4598 	 
*
