! wB97X-D3 SP def2-SVP
%pal
nprocs 16
end

* xyz 0 1
S 	 -41.4484 	 15.3588 	 77.9292 	 
C 	 -40.0981 	 16.1949 	 77.1904 	 
C 	 -40.0948 	 15.892 	 75.8431 	 
C 	 -41.3097 	 15.3019 	 75.297 	 
C 	 -42.1616 	 14.9419 	 76.3634 	 
H 	 -41.4713 	 14.938 	 74.2688 	 
C 	 -39.0752 	 16.5443 	 74.8832 	 
H 	 -38.681 	 15.7738 	 74.1745 	 
H 	 -38.2223 	 16.9227 	 75.4145 	 
C 	 -39.6564 	 17.7418 	 74.0522 	 
H 	 -38.9138 	 18.119 	 73.3278 	 
H 	 -40.5438 	 17.32 	 73.6967 	 
C 	 -40.0602 	 18.8893 	 75.0485 	 
H 	 -40.7445 	 18.5865 	 75.7987 	 
H 	 -39.2588 	 19.3529 	 75.7032 	 
H 	 -40.5406 	 19.7764 	 74.5128 	 
S 	 -44.8814 	 15.4064 	 76.7081 	 
C 	 -46.0015 	 14.0955 	 76.5088 	 
C 	 -45.3647 	 13.0098 	 75.9332 	 
C 	 -43.9277 	 13.17 	 75.8623 	 
C 	 -43.513 	 14.4267 	 76.2631 	 
H 	 -46.0312 	 12.1641 	 75.648 	 
C 	 -43.0397 	 12.0439 	 75.4426 	 
H 	 -43.1037 	 11.1785 	 76.1316 	 
H 	 -42.0037 	 12.2915 	 75.5348 	 
C 	 -43.2854 	 11.4605 	 74.0371 	 
H 	 -44.2828 	 10.9759 	 74.0428 	 
H 	 -42.5445 	 10.6725 	 73.8024 	 
C 	 -43.1435 	 12.5518 	 73.0096 	 
H 	 -42.0544 	 12.8433 	 73.0508 	 
H 	 -43.6566 	 13.5395 	 73.1843 	 
H 	 -43.4635 	 12.2068 	 72.0187 	 
H 	 -39.2149 	 16.6902 	 77.6125 	 
H 	 -47.0935 	 14.1428 	 76.6002 	 
*
