! wB97X-D3 SP def2-SVP
%pal
nprocs 16
end

* xyz 0 1
S 	 -35.7515 	 53.7612 	 102.345 	 
C 	 -36.2915 	 53.2507 	 100.696 	 
C 	 -35.7912 	 54.1139 	 99.7232 	 
C 	 -34.8366 	 55.0578 	 100.278 	 
C 	 -34.7876 	 55.0672 	 101.682 	 
H 	 -34.2186 	 55.8532 	 99.8394 	 
C 	 -36.0546 	 54.0599 	 98.1988 	 
H 	 -36.2478 	 55.0933 	 97.7721 	 
H 	 -37.0293 	 53.5733 	 98.0107 	 
C 	 -35.0071 	 53.2792 	 97.3979 	 
H 	 -34.0179 	 53.8077 	 97.506 	 
H 	 -34.7504 	 52.3388 	 97.8385 	 
C 	 -35.2706 	 53.1574 	 95.8798 	 
H 	 -34.4769 	 52.588 	 95.3288 	 
H 	 -36.2241 	 52.7195 	 95.7419 	 
H 	 -35.3029 	 54.1174 	 95.3544 	 
S 	 -32.6945 	 55.6365 	 103.513 	 
C 	 -32.4995 	 57.3184 	 103.978 	 
C 	 -33.3307 	 58.207 	 103.254 	 
C 	 -34.3339 	 57.4837 	 102.541 	 
C 	 -34.125 	 56.0617 	 102.468 	 
H 	 -33.351 	 59.3024 	 103.398 	 
C 	 -35.4354 	 58.2654 	 101.875 	 
H 	 -35.9402 	 57.643 	 101.136 	 
H 	 -35.0114 	 59.1276 	 101.382 	 
C 	 -36.6029 	 58.6921 	 102.795 	 
H 	 -36.214 	 59.1911 	 103.564 	 
H 	 -37.2251 	 57.8993 	 103.211 	 
C 	 -37.6433 	 59.5622 	 102.053 	 
H 	 -37.3285 	 60.6454 	 101.894 	 
H 	 -38.6126 	 59.6576 	 102.565 	 
H 	 -37.856 	 59.0871 	 101.102 	 
H 	 -36.985 	 52.3865 	 100.524 	 
H 	 -31.769 	 57.6252 	 104.722 	 
*
