! wB97X-D3 SP def2-SVP
%pal
nprocs 16
end

* xyz 0 1
S 	 -67.9317 	 40.316 	 126.475 	 
C 	 -67.8823 	 40.5783 	 128.213 	 
C 	 -69.0777 	 40.5324 	 128.836 	 
C 	 -70.0668 	 40.1782 	 127.853 	 
C 	 -69.5506 	 39.9054 	 126.606 	 
H 	 -71.1323 	 40.1139 	 127.987 	 
C 	 -69.384 	 40.7474 	 130.248 	 
H 	 -68.8284 	 40.0162 	 130.926 	 
H 	 -70.4259 	 40.4703 	 130.527 	 
C 	 -69.2447 	 42.2149 	 130.756 	 
H 	 -68.2147 	 42.6364 	 130.802 	 
H 	 -69.6991 	 42.7626 	 129.951 	 
C 	 -69.8857 	 42.4098 	 132.183 	 
H 	 -69.775 	 43.47 	 132.277 	 
H 	 -70.9669 	 42.0915 	 132.198 	 
H 	 -69.2797 	 41.8734 	 132.921 	 
S 	 -71.5388 	 40.279 	 124.731 	 
C 	 -71.7269 	 39.1302 	 123.374 	 
C 	 -70.8609 	 38.0881 	 123.526 	 
C 	 -70.0304 	 38.1992 	 124.71 	 
C 	 -70.2577 	 39.3245 	 125.505 	 
H 	 -70.847 	 37.3207 	 122.806 	 
C 	 -68.9075 	 37.2331 	 125.023 	 
H 	 -68.3803 	 37.5704 	 125.87 	 
H 	 -68.1546 	 37.3495 	 124.236 	 
C 	 -69.3064 	 35.7844 	 125.149 	 
H 	 -69.9208 	 35.4268 	 124.275 	 
H 	 -69.9065 	 35.8526 	 126.044 	 
C 	 -68.1703 	 34.8052 	 125.205 	 
H 	 -67.6137 	 34.9397 	 126.139 	 
H 	 -67.5014 	 34.7632 	 124.404 	 
H 	 -68.4896 	 33.766 	 125.387 	 
H 	 -66.9783 	 40.6794 	 128.771 	 
H 	 -72.3075 	 39.2444 	 122.448 	 
*
