! wB97X-D3 SP def2-SVP
%pal
nprocs 16
end

* xyz 0 1
S 	 -22.4745 	 50.9445 	 65.7062 	 
C 	 -22.1134 	 49.5447 	 64.6605 	 
C 	 -22.7103 	 48.4006 	 65.1967 	 
C 	 -23.4109 	 48.6586 	 66.4372 	 
C 	 -23.4422 	 49.9988 	 66.7537 	 
H 	 -23.873 	 48.0106 	 67.1409 	 
C 	 -22.6389 	 46.9423 	 64.6619 	 
H 	 -22.315 	 46.2427 	 65.4581 	 
H 	 -21.7541 	 47.0845 	 63.9642 	 
C 	 -23.7815 	 46.3311 	 63.8935 	 
H 	 -23.4698 	 45.4571 	 63.3722 	 
H 	 -24.5837 	 46.0644 	 64.5652 	 
C 	 -24.3476 	 47.2281 	 62.8323 	 
H 	 -24.5171 	 48.3028 	 62.92 	 
H 	 -23.7076 	 47.237 	 61.927 	 
H 	 -25.3151 	 46.873 	 62.5366 	 
S 	 -23.2282 	 51.8533 	 68.8507 	 
C 	 -24.3137 	 51.6261 	 70.1801 	 
C 	 -25.4494 	 50.89 	 69.7846 	 
C 	 -25.3013 	 50.2479 	 68.5533 	 
C 	 -24.1045 	 50.5886 	 67.9124 	 
H 	 -26.296 	 50.7501 	 70.5 	 
C 	 -26.1877 	 49.1785 	 68.2259 	 
H 	 -26.0781 	 48.8845 	 67.1344 	 
H 	 -27.2345 	 49.4744 	 68.4729 	 
C 	 -25.8527 	 47.8908 	 69.1472 	 
H 	 -25.9401 	 48.2036 	 70.1906 	 
H 	 -24.7992 	 47.6102 	 68.9415 	 
C 	 -26.7228 	 46.6402 	 68.8021 	 
H 	 -27.6807 	 46.7913 	 69.3031 	 
H 	 -26.2042 	 45.8227 	 69.2651 	 
H 	 -26.8 	 46.5623 	 67.6761 	 
H 	 -21.6105 	 49.5188 	 63.6587 	 
H 	 -24.3465 	 52.2941 	 71.022 	 
*
