! wB97X-D3 SP def2-SVP
%pal
nprocs 16
end

* xyz 0 1
S 	 -15.5112 	 36.241 	 36.844 	 
C 	 -15.2359 	 34.5488 	 36.5682 	 
C 	 -16.3862 	 33.8085 	 36.8974 	 
C 	 -17.3717 	 34.6945 	 37.4612 	 
C 	 -17.1058 	 36.0392 	 37.4719 	 
H 	 -18.4123 	 34.397 	 37.7728 	 
C 	 -16.5421 	 32.3043 	 36.6497 	 
H 	 -17.3527 	 31.9813 	 37.2382 	 
H 	 -15.6776 	 31.6669 	 36.8781 	 
C 	 -16.8262 	 32.0753 	 35.181 	 
H 	 -15.9908 	 32.6424 	 34.6394 	 
H 	 -16.779 	 31.0015 	 34.8714 	 
C 	 -18.146 	 32.6191 	 34.6846 	 
H 	 -18.3932 	 32.4586 	 33.6637 	 
H 	 -18.9921 	 32.0635 	 35.1707 	 
H 	 -18.1336 	 33.6828 	 35.0042 	 
S 	 -18.3426 	 38.186 	 36.3548 	 
C 	 -19.2149 	 39.3102 	 37.2786 	 
C 	 -19.2927 	 38.9073 	 38.6161 	 
C 	 -18.6743 	 37.6042 	 38.7761 	 
C 	 -17.9478 	 37.1648 	 37.724 	 
H 	 -19.8658 	 39.439 	 39.3214 	 
C 	 -18.6982 	 36.9014 	 40.1961 	 
H 	 -18.485 	 35.8435 	 40.1221 	 
H 	 -19.695 	 36.8945 	 40.6807 	 
C 	 -17.8099 	 37.4938 	 41.2466 	 
H 	 -18.1601 	 38.5214 	 41.5016 	 
H 	 -16.8472 	 37.5902 	 40.8358 	 
C 	 -17.6226 	 36.6542 	 42.557 	 
H 	 -16.7508 	 36.9962 	 43.1315 	 
H 	 -17.4532 	 35.6413 	 42.2891 	 
H 	 -18.5139 	 36.7178 	 43.2015 	 
H 	 -14.3455 	 34.1389 	 36.1103 	 
H 	 -19.8326 	 40.13 	 36.957 	 
*
