! wB97X-D3 SP def2-SVP
%pal
nprocs 16
end

* xyz 0 1
S 	 -74.1562 	 47.0776 	 119.479 	 
C 	 -75.6717 	 46.2887 	 119.606 	 
C 	 -76.1547 	 46.1628 	 120.941 	 
C 	 -75.2008 	 46.7946 	 121.854 	 
C 	 -74.0376 	 47.3021 	 121.27 	 
H 	 -75.2728 	 46.7362 	 122.951 	 
C 	 -77.3221 	 45.211 	 121.373 	 
H 	 -78.0965 	 45.3028 	 120.585 	 
H 	 -77.8905 	 45.3488 	 122.353 	 
C 	 -76.8275 	 43.7521 	 121.425 	 
H 	 -76.0133 	 43.6383 	 122.078 	 
H 	 -77.5298 	 43.2166 	 122.057 	 
C 	 -76.516 	 43.1097 	 120.056 	 
H 	 -75.8065 	 43.7276 	 119.524 	 
H 	 -76.3199 	 42.0105 	 120.07 	 
H 	 -77.4002 	 43.1313 	 119.489 	 
S 	 -72.2859 	 46.9473 	 123.331 	 
C 	 -71.336 	 48.2798 	 123.886 	 
C 	 -71.4532 	 49.3114 	 122.995 	 
C 	 -72.4399 	 49.1418 	 121.98 	 
C 	 -73.0294 	 47.9321 	 122.085 	 
H 	 -70.815 	 50.1902 	 123.158 	 
C 	 -72.657 	 50.0959 	 120.888 	 
H 	 -73.1029 	 49.6252 	 120.054 	 
H 	 -71.6323 	 50.3361 	 120.652 	 
C 	 -73.2845 	 51.3642 	 121.38 	 
H 	 -72.8194 	 51.9312 	 122.194 	 
H 	 -74.2248 	 51.0992 	 121.744 	 
C 	 -73.3809 	 52.4423 	 120.314 	 
H 	 -73.9804 	 53.2924 	 120.669 	 
H 	 -73.7273 	 52.0554 	 119.309 	 
H 	 -72.3963 	 52.905 	 120.1 	 
H 	 -76.1696 	 45.8505 	 118.716 	 
H 	 -70.5569 	 48.1026 	 124.591 	 
*
