! wB97X-D3 SP def2-SVP
%pal
nprocs 16
end

* xyz 0 1
S 	 32.5629 	 26.1126 	 52.196 	 
C 	 32.3192 	 27.6029 	 53.1848 	 
C 	 33.4678 	 27.9748 	 53.8437 	 
C 	 34.4517 	 26.9343 	 53.6908 	 
C 	 34.0242 	 25.8071 	 53.011 	 
H 	 35.4689 	 26.9514 	 54.0815 	 
C 	 33.7143 	 29.2604 	 54.5628 	 
H 	 34.744 	 29.6317 	 54.5131 	 
H 	 33.5601 	 29.0519 	 55.609 	 
C 	 32.6828 	 30.3711 	 54.2701 	 
H 	 32.7809 	 30.6145 	 53.188 	 
H 	 31.6144 	 30.1037 	 54.4338 	 
C 	 32.8662 	 31.6167 	 55.2052 	 
H 	 33.9263 	 31.9903 	 55.2166 	 
H 	 32.3693 	 32.5591 	 54.8664 	 
H 	 32.4609 	 31.4033 	 56.1344 	 
S 	 35.3954 	 23.9913 	 54.3999 	 
C 	 35.9147 	 22.4934 	 53.5959 	 
C 	 35.4982 	 22.4428 	 52.3121 	 
C 	 34.7343 	 23.5733 	 51.9298 	 
C 	 34.7249 	 24.5767 	 52.8783 	 
H 	 35.9235 	 21.7247 	 51.6473 	 
C 	 34.2332 	 23.6876 	 50.5362 	 
H 	 35.1047 	 23.5262 	 49.9815 	 
H 	 34.0158 	 24.6934 	 50.3012 	 
C 	 33.1348 	 22.7571 	 50.0298 	 
H 	 32.2237 	 22.7916 	 50.5865 	 
H 	 33.6321 	 21.767 	 50.2175 	 
C 	 32.8399 	 22.8714 	 48.4762 	 
H 	 32.8055 	 23.9162 	 48.1457 	 
H 	 31.8588 	 22.4557 	 48.2752 	 
H 	 33.6165 	 22.4773 	 47.8328 	 
H 	 31.3993 	 28.2594 	 53.0701 	 
H 	 36.7933 	 21.88 	 53.7931 	 
*
