! wB97X-D3 SP def2-SVP
%pal
nprocs 16
end

* xyz 0 1
S 	 25.086 	 -12.965 	 76.6007 	 
C 	 25.8696 	 -13.0985 	 75.0156 	 
C 	 25.7059 	 -11.8491 	 74.3189 	 
C 	 25.0996 	 -10.84 	 75.1598 	 
C 	 24.8157 	 -11.2408 	 76.4419 	 
H 	 24.92 	 -9.79024 	 74.7851 	 
C 	 25.9586 	 -11.5913 	 72.822 	 
H 	 26.9049 	 -11.0074 	 72.6332 	 
H 	 25.2001 	 -10.9179 	 72.5161 	 
C 	 26.1401 	 -12.7999 	 71.9311 	 
H 	 26.2571 	 -12.4188 	 70.9323 	 
H 	 27.0679 	 -13.2749 	 72.2627 	 
C 	 24.8413 	 -13.7155 	 71.8017 	 
H 	 24.6923 	 -14.197 	 72.8379 	 
H 	 23.946 	 -13.0687 	 71.5198 	 
H 	 25.007 	 -14.4731 	 71.0675 	 
S 	 23.8023 	 -11.2522 	 78.9952 	 
C 	 23.344 	 -9.78114 	 79.7733 	 
C 	 23.7509 	 -8.7285 	 78.9823 	 
C 	 24.3074 	 -9.03605 	 77.7335 	 
C 	 24.399 	 -10.424 	 77.5639 	 
H 	 23.7524 	 -7.78947 	 79.5141 	 
C 	 24.8127 	 -7.92532 	 76.8105 	 
H 	 25.7563 	 -8.23703 	 76.4824 	 
H 	 25.0378 	 -7.11971 	 77.4627 	 
C 	 23.8219 	 -7.43053 	 75.7371 	 
H 	 22.8847 	 -7.01973 	 76.2693 	 
H 	 23.4222 	 -8.30527 	 75.2801 	 
C 	 24.4564 	 -6.58359 	 74.6233 	 
H 	 25.1202 	 -5.81164 	 74.9426 	 
H 	 23.6773 	 -6.12085 	 74.0443 	 
H 	 25.0075 	 -7.12339 	 73.8667 	 
H 	 26.1794 	 -14.0538 	 74.6343 	 
H 	 23.1217 	 -9.72071 	 80.8147 	 
*
