! wB97X-D3 SP def2-SVP
%pal
nprocs 16
end

* xyz 0 1
S 	 -30.8369 	 67.5713 	 117.175 	 
C 	 -32.3794 	 66.7596 	 117.081 	 
C 	 -32.3654 	 65.8417 	 116.045 	 
C 	 -31.1535 	 65.8235 	 115.322 	 
C 	 -30.2435 	 66.7797 	 115.776 	 
H 	 -30.9877 	 65.1888 	 114.482 	 
C 	 -33.6506 	 65.0373 	 115.657 	 
H 	 -33.9988 	 65.5362 	 114.766 	 
H 	 -34.409 	 65.116 	 116.359 	 
C 	 -33.313 	 63.5468 	 115.32 	 
H 	 -33.8648 	 63.196 	 114.466 	 
H 	 -32.1798 	 63.5434 	 115.069 	 
C 	 -33.449 	 62.6632 	 116.519 	 
H 	 -33.354 	 61.6012 	 116.24 	 
H 	 -32.7748 	 62.8929 	 117.363 	 
H 	 -34.5265 	 62.7485 	 116.884 	 
S 	 -27.8141 	 66.0583 	 115.13 	 
C 	 -26.7886 	 67.0694 	 114.177 	 
C 	 -27.4348 	 68.2452 	 113.842 	 
C 	 -28.7858 	 68.3141 	 114.321 	 
C 	 -29.1107 	 67.1472 	 114.997 	 
H 	 -26.8889 	 69.0192 	 113.354 	 
C 	 -29.5552 	 69.6797 	 114.138 	 
H 	 -29.0349 	 70.2105 	 113.349 	 
H 	 -29.4259 	 70.2015 	 115.038 	 
C 	 -31.1079 	 69.6434 	 113.941 	 
H 	 -31.5934 	 69.0934 	 114.712 	 
H 	 -31.3378 	 69.2389 	 112.94 	 
C 	 -31.7563 	 71.0169 	 114.023 	 
H 	 -32.7858 	 70.8516 	 113.898 	 
H 	 -31.3471 	 71.6487 	 113.216 	 
H 	 -31.6367 	 71.5162 	 114.982 	 
H 	 -33.2973 	 66.8824 	 117.586 	 
H 	 -25.7267 	 66.9509 	 113.919 	 
*
