! wB97X-D3 SP def2-SVP
%pal
nprocs 16
end

* xyz 0 1
S 	 -5.05749 	 47.0241 	 37.5493 	 
C 	 -6.05615 	 45.6575 	 36.9479 	 
C 	 -6.47002 	 44.8781 	 38.0215 	 
C 	 -5.88384 	 45.3541 	 39.2958 	 
C 	 -5.03993 	 46.4428 	 39.1702 	 
H 	 -5.86356 	 44.9189 	 40.2889 	 
C 	 -7.47573 	 43.793 	 37.9824 	 
H 	 -6.97329 	 42.8708 	 37.8678 	 
H 	 -7.98323 	 43.878 	 37.0334 	 
C 	 -8.5876 	 43.8421 	 39.0524 	 
H 	 -9.34713 	 43.1233 	 38.7104 	 
H 	 -8.15054 	 43.4057 	 39.9629 	 
C 	 -9.30964 	 45.218 	 39.4242 	 
H 	 -9.76847 	 45.574 	 38.4968 	 
H 	 -9.99572 	 45.0666 	 40.2378 	 
H 	 -8.65429 	 45.9705 	 39.795 	 
S 	 -3.05132 	 46.1198 	 41.0003 	 
C 	 -2.55345 	 47.4585 	 41.9751 	 
C 	 -3.33559 	 48.5958 	 41.7795 	 
C 	 -4.26707 	 48.4277 	 40.7277 	 
C 	 -4.23117 	 47.1627 	 40.1497 	 
H 	 -2.99097 	 49.4321 	 42.4104 	 
C 	 -5.23964 	 49.5113 	 40.3512 	 
H 	 -5.64225 	 49.7064 	 41.2845 	 
H 	 -6.08169 	 49.1749 	 39.6655 	 
C 	 -4.51068 	 50.7564 	 39.7318 	 
H 	 -4.02303 	 50.4273 	 38.7596 	 
H 	 -3.66304 	 51.0281 	 40.4279 	 
C 	 -5.45821 	 51.9473 	 39.5491 	 
H 	 -4.95463 	 52.7377 	 38.9752 	 
H 	 -5.6856 	 52.3334 	 40.5671 	 
H 	 -6.41037 	 51.6628 	 39.0257 	 
H 	 -6.48598 	 45.5364 	 35.9215 	 
H 	 -1.7491 	 47.4516 	 42.7035 	 
*
