! wB97X-D3 SP def2-SVP
%pal
nprocs 16
end

* xyz 0 1
S 	 9.14233 	 23.8815 	 67.1013 	 
C 	 8.08375 	 23.3019 	 65.9105 	 
C 	 7.14414 	 24.2644 	 65.5658 	 
C 	 7.36479 	 25.4758 	 66.246 	 
C 	 8.36242 	 25.431 	 67.127 	 
H 	 6.84832 	 26.4228 	 66.1026 	 
C 	 6.1156 	 24.1884 	 64.4472 	 
H 	 5.14504 	 24.1459 	 64.8679 	 
H 	 6.21509 	 23.2436 	 63.8671 	 
C 	 6.1004 	 25.3788 	 63.5118 	 
H 	 5.34087 	 25.3099 	 62.6811 	 
H 	 5.8592 	 26.2505 	 64.1299 	 
C 	 7.49766 	 25.7816 	 62.8683 	 
H 	 7.38296 	 26.2175 	 61.8462 	 
H 	 8.06938 	 26.3754 	 63.4833 	 
H 	 7.9969 	 24.8615 	 62.7644 	 
S 	 8.64171 	 26.2354 	 69.7488 	 
C 	 8.95381 	 27.9008 	 70.0342 	 
C 	 9.38327 	 28.5383 	 68.8909 	 
C 	 9.39285 	 27.7321 	 67.7458 	 
C 	 8.83826 	 26.4938 	 67.9768 	 
H 	 9.73002 	 29.5686 	 68.9272 	 
C 	 9.63673 	 28.2675 	 66.3523 	 
H 	 9.33808 	 27.454 	 65.65 	 
H 	 10.6793 	 28.3763 	 66.1327 	 
C 	 8.86578 	 29.6014 	 66.021 	 
H 	 8.76747 	 29.7385 	 64.9493 	 
H 	 9.21983 	 30.5332 	 66.557 	 
C 	 7.3941 	 29.5012 	 66.3159 	 
H 	 7.00373 	 28.7251 	 65.6797 	 
H 	 6.7836 	 30.3264 	 65.9777 	 
H 	 7.23875 	 29.2078 	 67.4001 	 
H 	 8.1999 	 22.2684 	 65.5612 	 
H 	 8.9747 	 28.2891 	 70.9722 	 
*
