! wB97X-D3 SP def2-SVP
%pal
nprocs 16
end

* xyz 0 1
S 	 -27.7741 	 31.8455 	 40.0038 	 
C 	 -26.2652 	 31.9558 	 39.094 	 
C 	 -25.1561 	 31.4154 	 39.6974 	 
C 	 -25.4945 	 30.808 	 40.9328 	 
C 	 -26.8689 	 30.9978 	 41.231 	 
H 	 -24.9039 	 30.174 	 41.6137 	 
C 	 -23.8016 	 31.5333 	 39.0883 	 
H 	 -23.7359 	 32.5845 	 38.6871 	 
H 	 -23.7136 	 30.9217 	 38.2363 	 
C 	 -22.6702 	 31.2903 	 40.1223 	 
H 	 -22.8114 	 31.9668 	 40.9824 	 
H 	 -22.6478 	 30.252 	 40.57 	 
C 	 -21.189 	 31.4824 	 39.6381 	 
H 	 -20.8008 	 30.7212 	 38.8825 	 
H 	 -21.078 	 32.4497 	 39.1355 	 
H 	 -20.4913 	 31.5161 	 40.4949 	 
S 	 -28.9646 	 29.3991 	 41.8295 	 
C 	 -29.1684 	 28.6918 	 43.3227 	 
C 	 -28.271 	 29.1995 	 44.238 	 
C 	 -27.3022 	 30.1487 	 43.6913 	 
C 	 -27.5761 	 30.3346 	 42.3388 	 
H 	 -28.3269 	 28.8898 	 45.2622 	 
C 	 -26.2361 	 30.8246 	 44.5102 	 
H 	 -25.2861 	 30.7499 	 43.9633 	 
H 	 -26.1372 	 30.3159 	 45.4513 	 
C 	 -26.5097 	 32.326 	 44.8381 	 
H 	 -26.2695 	 32.7972 	 43.9087 	 
H 	 -25.8964 	 32.7171 	 45.5783 	 
C 	 -28.0055 	 32.6798 	 45.1848 	 
H 	 -28.1375 	 32.2419 	 46.1829 	 
H 	 -28.8123 	 32.3606 	 44.5764 	 
H 	 -28.1347 	 33.7559 	 45.2894 	 
H 	 -26.1149 	 32.4912 	 38.1595 	 
H 	 -29.9254 	 27.9597 	 43.5236 	 
*
