! wB97X-D3 SP def2-SVP
%pal
nprocs 16
end

* xyz 0 1
S 	 8.74315 	 23.3635 	 35.2081 	 
C 	 9.52884 	 22.1974 	 34.1776 	 
C 	 10.1208 	 21.1409 	 34.925 	 
C 	 9.95939 	 21.3441 	 36.3086 	 
C 	 9.29051 	 22.5006 	 36.6789 	 
H 	 10.0996 	 20.541 	 37.0121 	 
C 	 10.8747 	 19.9522 	 34.3591 	 
H 	 11.4403 	 20.2455 	 33.4942 	 
H 	 10.2059 	 19.0381 	 34.1244 	 
C 	 11.9329 	 19.3316 	 35.3278 	 
H 	 12.6508 	 20.0315 	 35.6806 	 
H 	 11.5225 	 18.9744 	 36.2867 	 
C 	 12.6696 	 18.2224 	 34.5534 	 
H 	 13.4248 	 17.7024 	 35.2382 	 
H 	 11.8809 	 17.4924 	 34.2751 	 
H 	 13.2301 	 18.6002 	 33.7115 	 
S 	 7.51059 	 23.731 	 38.0973 	 
C 	 7.55328 	 23.8315 	 39.8132 	 
C 	 8.70926 	 23.3244 	 40.3504 	 
C 	 9.55963 	 22.8266 	 39.3062 	 
C 	 8.97473 	 22.8979 	 38.0259 	 
H 	 8.93272 	 23.1958 	 41.3662 	 
C 	 10.8818 	 22.1197 	 39.6579 	 
H 	 11.3925 	 21.9614 	 38.6692 	 
H 	 10.6373 	 21.1602 	 40.155 	 
C 	 11.7737 	 22.944 	 40.5943 	 
H 	 11.2499 	 23.3825 	 41.4249 	 
H 	 12.1943 	 23.8071 	 40.073 	 
C 	 12.864 	 22.0923 	 41.2634 	 
H 	 12.805 	 22.3615 	 42.285 	 
H 	 13.8215 	 22.4388 	 40.9286 	 
H 	 12.7349 	 20.9833 	 41.2113 	 
H 	 9.58828 	 22.1564 	 33.0834 	 
H 	 6.70652 	 24.3397 	 40.3193 	 
*
