! wB97X-D3 SP def2-SVP
%pal
nprocs 16
end

* xyz 0 1
S 	 66.6841 	 23.2845 	 71.3998 	 
C 	 66.4955 	 21.6475 	 70.8126 	 
C 	 67.1945 	 20.7981 	 71.7099 	 
C 	 68.1089 	 21.495 	 72.5691 	 
C 	 67.9995 	 22.8461 	 72.5267 	 
H 	 68.7979 	 21.1023 	 73.3566 	 
C 	 67.2618 	 19.2755 	 71.7066 	 
H 	 68.2463 	 18.9676 	 71.3505 	 
H 	 66.704 	 18.9118 	 70.8657 	 
C 	 66.9669 	 18.6186 	 72.9628 	 
H 	 67.4832 	 19.1807 	 73.7135 	 
H 	 65.9369 	 18.7598 	 73.2046 	 
C 	 67.2711 	 17.0562 	 72.9081 	 
H 	 66.7621 	 16.5778 	 72.0832 	 
H 	 68.3532 	 16.7654 	 73.084 	 
H 	 66.8941 	 16.7304 	 73.8968 	 
S 	 68.125 	 24.4424 	 74.7012 	 
C 	 69.6621 	 25.186 	 75.114 	 
C 	 70.6963 	 24.6963 	 74.3838 	 
C 	 70.3275 	 23.805 	 73.3256 	 
C 	 68.8968 	 23.714 	 73.2923 	 
H 	 71.5942 	 25.1732 	 74.6047 	 
C 	 71.3128 	 23.2476 	 72.4492 	 
H 	 71.7769 	 22.34 	 72.8477 	 
H 	 72.1297 	 23.9561 	 72.2953 	 
C 	 70.8282 	 22.9129 	 70.9964 	 
H 	 70.3135 	 23.7667 	 70.6408 	 
H 	 70.1928 	 22.0155 	 70.9574 	 
C 	 71.9291 	 22.5832 	 69.9969 	 
H 	 71.6468 	 22.4125 	 68.9594 	 
H 	 72.4003 	 21.6201 	 70.205 	 
H 	 72.6955 	 23.3345 	 69.9746 	 
H 	 65.8545 	 21.418 	 70.0166 	 
H 	 69.7541 	 25.821 	 75.9608 	 
*
