! wB97X-D3 SP def2-SVP
%pal
nprocs 16
end

* xyz 0 1
S 	 -43.7427 	 16.7246 	 74.6185 	 
C 	 -42.2614 	 17.0902 	 75.4511 	 
C 	 -42.3169 	 16.9857 	 76.7802 	 
C 	 -43.6151 	 16.6047 	 77.2228 	 
C 	 -44.4502 	 16.3134 	 76.1794 	 
H 	 -43.9103 	 16.4109 	 78.2492 	 
C 	 -41.1313 	 17.1815 	 77.6845 	 
H 	 -40.2701 	 17.3528 	 77.1065 	 
H 	 -40.8134 	 16.2629 	 78.1411 	 
C 	 -41.2934 	 18.4396 	 78.5641 	 
H 	 -41.1065 	 19.3419 	 77.9101 	 
H 	 -42.4109 	 18.4794 	 78.7099 	 
C 	 -40.5366 	 18.3917 	 79.8633 	 
H 	 -40.3129 	 19.4047 	 80.1201 	 
H 	 -41.0702 	 17.7507 	 80.6043 	 
H 	 -39.5313 	 18.0831 	 79.5991 	 
S 	 -46.4861 	 15.0119 	 77.5389 	 
C 	 -48.1651 	 15.2242 	 76.9204 	 
C 	 -48.241 	 16.0616 	 75.867 	 
C 	 -46.9628 	 16.5013 	 75.4476 	 
C 	 -45.8868 	 16.0721 	 76.2915 	 
H 	 -49.171 	 16.2057 	 75.3922 	 
C 	 -46.8828 	 17.3638 	 74.1804 	 
H 	 -46.4783 	 16.7551 	 73.3194 	 
H 	 -46.1878 	 18.1743 	 74.3067 	 
C 	 -48.0692 	 18.0045 	 73.6537 	 
H 	 -48.3844 	 18.7963 	 74.3475 	 
H 	 -48.9299 	 17.3162 	 73.4226 	 
C 	 -47.8882 	 18.644 	 72.2372 	 
H 	 -47.3507 	 19.539 	 72.4402 	 
H 	 -48.8712 	 19.0442 	 71.8728 	 
H 	 -47.5797 	 18.0459 	 71.3998 	 
H 	 -41.3604 	 17.3988 	 74.9158 	 
H 	 -49.0581 	 14.799 	 77.3642 	 
*
