! wB97X-D3 SP def2-SVP
%pal
nprocs 16
end

* xyz 0 1
S 	 4.33873 	 -15.6269 	 85.2556 	 
C 	 3.43563 	 -16.8192 	 86.2021 	 
C 	 4.2281 	 -17.7024 	 86.8396 	 
C 	 5.61791 	 -17.4946 	 86.5601 	 
C 	 5.81903 	 -16.415 	 85.7579 	 
H 	 6.41114 	 -18.1144 	 86.9419 	 
C 	 3.72372 	 -18.7388 	 87.8185 	 
H 	 2.62369 	 -18.9382 	 87.7729 	 
H 	 3.71789 	 -18.2557 	 88.8317 	 
C 	 4.36671 	 -20.1675 	 87.9587 	 
H 	 4.32675 	 -20.5572 	 86.9039 	 
H 	 5.41345 	 -19.9428 	 88.1972 	 
C 	 3.73287 	 -21.1493 	 89.0603 	 
H 	 3.77656 	 -20.6357 	 90.0482 	 
H 	 2.70438 	 -21.2959 	 88.8303 	 
H 	 4.27669 	 -22.0175 	 88.9999 	 
S 	 7.1154 	 -14.1607 	 86.3149 	 
C 	 8.77291 	 -13.908 	 85.9059 	 
C 	 9.27204 	 -15.0863 	 85.3526 	 
C 	 8.32744 	 -16.0985 	 85.1078 	 
C 	 7.10447 	 -15.7447 	 85.6084 	 
H 	 10.342 	 -15.0986 	 85.0354 	 
C 	 8.64615 	 -17.3385 	 84.2597 	 
H 	 7.89785 	 -18.1629 	 84.5056 	 
H 	 9.64452 	 -17.7689 	 84.4627 	 
C 	 8.69595 	 -17.0045 	 82.7929 	 
H 	 9.3126 	 -16.0877 	 82.7171 	 
H 	 7.74544 	 -16.7924 	 82.4309 	 
C 	 9.21448 	 -18.0271 	 81.7783 	 
H 	 10.1806 	 -18.3932 	 81.9783 	 
H 	 9.30778 	 -17.5883 	 80.746 	 
H 	 8.58912 	 -18.9269 	 81.6453 	 
H 	 2.31159 	 -16.6839 	 86.4221 	 
H 	 9.41973 	 -13.0869 	 86.0867 	 
*
