! wB97X-D3 SP def2-SVP
%pal
nprocs 16
end

* xyz 0 1
S 	 -35.1957 	 69.4297 	 146.683 	 
C 	 -36.0172 	 70.5643 	 145.637 	 
C 	 -36.1949 	 70.1287 	 144.312 	 
C 	 -35.6182 	 68.8547 	 144.103 	 
C 	 -35.1576 	 68.2754 	 145.247 	 
H 	 -35.4942 	 68.3852 	 143.062 	 
C 	 -36.7646 	 70.9624 	 143.159 	 
H 	 -36.3024 	 70.7413 	 142.197 	 
H 	 -36.5357 	 71.9639 	 143.524 	 
C 	 -38.3094 	 70.8753 	 143.109 	 
H 	 -38.6131 	 70.9196 	 144.178 	 
H 	 -38.6856 	 71.7398 	 142.532 	 
C 	 -38.8093 	 69.5786 	 142.329 	 
H 	 -38.4462 	 68.6424 	 142.713 	 
H 	 -39.892 	 69.5737 	 142.272 	 
H 	 -38.5857 	 69.7399 	 141.328 	 
S 	 -32.9029 	 66.9639 	 146.244 	 
C 	 -32.6922 	 65.2704 	 145.923 	 
C 	 -33.6697 	 64.7994 	 145.081 	 
C 	 -34.6421 	 65.7982 	 144.74 	 
C 	 -34.3739 	 67.0529 	 145.255 	 
H 	 -33.5391 	 63.8076 	 144.712 	 
C 	 -35.9091 	 65.4117 	 144.017 	 
H 	 -36.3933 	 66.2747 	 143.451 	 
H 	 -36.6207 	 65.2152 	 144.862 	 
C 	 -35.9297 	 64.2145 	 143.091 	 
H 	 -36.895 	 63.8563 	 142.849 	 
H 	 -35.4834 	 63.4212 	 143.679 	 
C 	 -35.0854 	 64.2461 	 141.804 	 
H 	 -34.0433 	 64.4205 	 142.198 	 
H 	 -35.3079 	 65.0222 	 141.037 	 
H 	 -35.0641 	 63.3525 	 141.296 	 
H 	 -36.1192 	 71.6277 	 145.9 	 
H 	 -31.808 	 64.6649 	 146.167 	 
*
