! wB97X-D3 SP def2-SVP
%pal
nprocs 16
end

* xyz 0 1
S 	 47.6782 	 5.85702 	 88.1158 	 
C 	 46.3613 	 6.24518 	 86.9966 	 
C 	 45.2658 	 5.44909 	 87.219 	 
C 	 45.4761 	 4.54203 	 88.2857 	 
C 	 46.7519 	 4.58643 	 88.8975 	 
H 	 44.7054 	 3.77836 	 88.6567 	 
C 	 43.9728 	 5.48797 	 86.4485 	 
H 	 43.5183 	 4.54785 	 86.69 	 
H 	 44.3481 	 5.36231 	 85.3732 	 
C 	 43.1407 	 6.78603 	 86.5543 	 
H 	 42.8341 	 6.97058 	 87.565 	 
H 	 43.7754 	 7.63817 	 86.2561 	 
C 	 41.8791 	 6.96796 	 85.6334 	 
H 	 42.0141 	 6.37055 	 84.7165 	 
H 	 41.0054 	 6.68805 	 86.1623 	 
H 	 41.7713 	 8.01261 	 85.3193 	 
S 	 46.0848 	 2.72005 	 90.8356 	 
C 	 47.3138 	 2.04428 	 91.8964 	 
C 	 48.5571 	 2.3508 	 91.3363 	 
C 	 48.5441 	 3.27586 	 90.2812 	 
C 	 47.2893 	 3.7225 	 89.9638 	 
H 	 49.4311 	 1.86677 	 91.6908 	 
C 	 49.853 	 3.75309 	 89.5965 	 
H 	 50.0721 	 4.74912 	 90.0049 	 
H 	 49.5633 	 4.10799 	 88.6003 	 
C 	 51.071 	 2.82656 	 89.6928 	 
H 	 50.6705 	 1.91858 	 89.2552 	 
H 	 51.3287 	 2.69351 	 90.7534 	 
C 	 52.2943 	 3.3574 	 88.9961 	 
H 	 51.9619 	 3.70141 	 87.996 	 
H 	 53.0705 	 2.60792 	 88.9364 	 
H 	 52.6817 	 4.25136 	 89.4642 	 
H 	 46.2221 	 7.11017 	 86.3079 	 
H 	 47.1146 	 1.3105 	 92.6267 	 
*
