! wB97X-D3 SP def2-SVP
%pal
nprocs 16
end

* xyz 0 1
S 	 -71.993 	 49.7007 	 138.71 	 
C 	 -71.0399 	 51.169 	 138.45 	 
C 	 -71.7866 	 52.2846 	 138.126 	 
C 	 -73.1803 	 51.9021 	 138.116 	 
C 	 -73.4611 	 50.6056 	 138.6 	 
H 	 -73.9383 	 52.6181 	 137.875 	 
C 	 -71.3249 	 53.7036 	 137.918 	 
H 	 -70.9054 	 53.8102 	 136.912 	 
H 	 -70.5285 	 53.8812 	 138.622 	 
C 	 -72.3425 	 54.7523 	 138.182 	 
H 	 -73.1309 	 54.746 	 137.409 	 
H 	 -72.9465 	 54.5019 	 138.936 	 
C 	 -71.7602 	 56.2218 	 138.369 	 
H 	 -71.2291 	 56.6062 	 137.579 	 
H 	 -72.5787 	 56.9444 	 138.587 	 
H 	 -71.1864 	 56.285 	 139.23 	 
S 	 -74.9722 	 48.2776 	 138.311 	 
C 	 -76.668 	 48.3151 	 138.908 	 
C 	 -77.0057 	 49.5174 	 139.45 	 
C 	 -75.8733 	 50.3798 	 139.464 	 
C 	 -74.7581 	 49.9656 	 138.752 	 
H 	 -78.0078 	 49.8351 	 139.735 	 
C 	 -76.0668 	 51.7206 	 140.067 	 
H 	 -77.1075 	 51.9785 	 140.08 	 
H 	 -75.6618 	 52.4939 	 139.4 	 
C 	 -75.4565 	 51.8326 	 141.463 	 
H 	 -75.4062 	 52.8843 	 141.77 	 
H 	 -74.3691 	 51.4863 	 141.365 	 
C 	 -76.1248 	 51.135 	 142.646 	 
H 	 -75.7676 	 51.362 	 143.608 	 
H 	 -76.1301 	 49.9894 	 142.485 	 
H 	 -77.1389 	 51.4397 	 142.822 	 
H 	 -69.9374 	 51.3503 	 138.457 	 
H 	 -77.4042 	 47.5216 	 138.832 	 
*
