! wB97X-D3 SP def2-SVP
%pal
nprocs 16
end

* xyz 0 1
S 	 -7.66165 	 31.5946 	 47.1745 	 
C 	 -8.10698 	 31.0387 	 48.7606 	 
C 	 -7.30986 	 31.5962 	 49.726 	 
C 	 -6.43367 	 32.5442 	 49.1944 	 
C 	 -6.43887 	 32.6092 	 47.8357 	 
H 	 -5.7514 	 33.0941 	 49.7159 	 
C 	 -7.40988 	 31.2999 	 51.2241 	 
H 	 -8.42108 	 30.8889 	 51.6153 	 
H 	 -7.37554 	 32.2922 	 51.6932 	 
C 	 -6.38115 	 30.3226 	 51.7769 	 
H 	 -5.43688 	 30.7819 	 51.6647 	 
H 	 -6.7394 	 30.1945 	 52.7916 	 
C 	 -6.31701 	 29.0174 	 51.0039 	 
H 	 -7.35215 	 28.6115 	 51.0098 	 
H 	 -6.17072 	 29.05 	 49.972 	 
H 	 -5.52118 	 28.4359 	 51.4261 	 
S 	 -5.71578 	 33.0463 	 45.2107 	 
C 	 -4.34287 	 34.0103 	 44.8632 	 
C 	 -3.69234 	 34.4182 	 46.0422 	 
C 	 -4.3278 	 34.0689 	 47.2462 	 
C 	 -5.43895 	 33.2495 	 46.9782 	 
H 	 -2.73379 	 34.8237 	 46.069 	 
C 	 -3.73677 	 34.4262 	 48.5685 	 
H 	 -2.70304 	 34.6947 	 48.6286 	 
H 	 -3.79188 	 33.5726 	 49.3336 	 
C 	 -4.42749 	 35.6524 	 49.2071 	 
H 	 -5.52577 	 35.5509 	 48.9784 	 
H 	 -4.08278 	 36.591 	 48.7048 	 
C 	 -4.09255 	 35.6884 	 50.6685 	 
H 	 -4.65475 	 34.9058 	 51.1471 	 
H 	 -4.42814 	 36.6261 	 51.1345 	 
H 	 -3.05184 	 35.6799 	 50.8108 	 
H 	 -8.88305 	 30.2671 	 48.9386 	 
H 	 -3.70872 	 33.9836 	 43.9918 	 
*
