! wB97X-D3 SP def2-SVP
%pal
nprocs 16
end

* xyz 0 1
S 	 -0.344018 	 -13.8942 	 83.76 	 
C 	 -1.45699 	 -14.2732 	 85.1008 	 
C 	 -2.67998 	 -13.6765 	 84.9562 	 
C 	 -2.74995 	 -12.9184 	 83.7045 	 
C 	 -1.57969 	 -12.8303 	 82.9781 	 
H 	 -3.55961 	 -12.326 	 83.2806 	 
C 	 -3.87105 	 -13.8781 	 85.9239 	 
H 	 -4.454 	 -14.7901 	 85.6848 	 
H 	 -4.51662 	 -13.021 	 85.5957 	 
C 	 -3.51203 	 -13.9257 	 87.3999 	 
H 	 -2.81314 	 -14.6828 	 87.6165 	 
H 	 -3.03867 	 -12.9673 	 87.495 	 
C 	 -4.6102 	 -13.9842 	 88.5036 	 
H 	 -4.19821 	 -14.0309 	 89.6032 	 
H 	 -5.13177 	 -13.0273 	 88.55 	 
H 	 -5.36684 	 -14.7691 	 88.3473 	 
S 	 -0.777088 	 -13.2722 	 80.3953 	 
C 	 -0.981957 	 -11.9495 	 79.2704 	 
C 	 -1.61104 	 -10.8292 	 79.7962 	 
C 	 -1.81175 	 -10.9363 	 81.2209 	 
C 	 -1.43244 	 -12.2045 	 81.6612 	 
H 	 -1.88182 	 -10.0282 	 79.1495 	 
C 	 -2.707 	 -9.9021 	 81.9683 	 
H 	 -2.06462 	 -9.02763 	 81.9208 	 
H 	 -2.94734 	 -10.3685 	 82.9638 	 
C 	 -4.03209 	 -9.62251 	 81.3782 	 
H 	 -4.61314 	 -10.5181 	 81.2618 	 
H 	 -3.9748 	 -9.18441 	 80.3718 	 
C 	 -4.77336 	 -8.58941 	 82.1831 	 
H 	 -4.89047 	 -8.91303 	 83.2248 	 
H 	 -5.7374 	 -8.33668 	 81.743 	 
H 	 -4.16219 	 -7.66163 	 82.0806 	 
H 	 -1.2279 	 -14.9796 	 85.9044 	 
H 	 -0.69892 	 -11.9404 	 78.2028 	 
*
