! wB97X-D3 SP def2-SVP
%pal
nprocs 16
end

* xyz 0 1
S 	 41.1403 	 9.88157 	 82.3586 	 
C 	 39.9001 	 10.1284 	 83.6168 	 
C 	 40.5491 	 10.5764 	 84.7932 	 
C 	 41.8271 	 11.0734 	 84.4967 	 
C 	 42.3053 	 10.8861 	 83.2436 	 
H 	 42.5224 	 11.6395 	 85.1347 	 
C 	 39.8923 	 10.7315 	 86.1551 	 
H 	 38.8023 	 10.5478 	 86.0765 	 
H 	 39.9319 	 11.7969 	 86.4019 	 
C 	 40.5313 	 9.78222 	 87.1792 	 
H 	 40.7016 	 8.7628 	 86.6664 	 
H 	 41.5165 	 10.1436 	 87.4258 	 
C 	 39.8522 	 9.57299 	 88.4989 	 
H 	 38.9871 	 8.96839 	 88.4896 	 
H 	 40.5279 	 9.15587 	 89.3105 	 
H 	 39.7008 	 10.61 	 88.9639 	 
S 	 44.809 	 9.85032 	 82.4646 	 
C 	 46.1534 	 10.9381 	 82.2447 	 
C 	 45.7864 	 12.2736 	 82.5127 	 
C 	 44.4082 	 12.3644 	 82.7806 	 
C 	 43.6807 	 11.1644 	 82.8212 	 
H 	 46.3834 	 13.1337 	 82.5235 	 
C 	 43.8083 	 13.7307 	 82.9355 	 
H 	 44.3271 	 14.2615 	 83.7682 	 
H 	 42.792 	 13.7025 	 83.2053 	 
C 	 43.7889 	 14.6542 	 81.728 	 
H 	 44.7178 	 15.0477 	 81.4498 	 
H 	 43.2852 	 15.5843 	 81.9362 	 
C 	 43.2515 	 13.9526 	 80.439 	 
H 	 43.0147 	 14.6968 	 79.6457 	 
H 	 42.3469 	 13.466 	 80.6474 	 
H 	 43.936 	 13.1624 	 80.0145 	 
H 	 38.9763 	 9.57979 	 83.7134 	 
H 	 47.2173 	 10.6198 	 82.2315 	 
*
