! wB97X-D3 SP def2-SVP
%pal
nprocs 16
end

* xyz 0 1
S 	 -65.8843 	 40.9161 	 121.406 	 
C 	 -67.1068 	 40.8887 	 120.201 	 
C 	 -68.4016 	 40.5621 	 120.633 	 
C 	 -68.3421 	 40.3785 	 122.128 	 
C 	 -67.0694 	 40.602 	 122.692 	 
H 	 -69.1626 	 40.1037 	 122.745 	 
C 	 -69.6592 	 40.3675 	 119.807 	 
H 	 -69.9787 	 39.3206 	 119.886 	 
H 	 -69.4222 	 40.5125 	 118.717 	 
C 	 -70.8482 	 41.1866 	 120.279 	 
H 	 -71.0682 	 40.8736 	 121.305 	 
H 	 -70.4847 	 42.2312 	 120.333 	 
C 	 -71.9802 	 41.0666 	 119.221 	 
H 	 -72.801 	 41.6895 	 119.567 	 
H 	 -71.6754 	 41.4363 	 118.233 	 
H 	 -72.4183 	 40.0724 	 119.227 	 
S 	 -65.7018 	 38.8182 	 124.103 	 
C 	 -65.8269 	 38.7836 	 125.757 	 
C 	 -66.6257 	 39.7527 	 126.258 	 
C 	 -67.0979 	 40.63 	 125.23 	 
C 	 -66.6365 	 40.2506 	 123.971 	 
H 	 -66.6691 	 39.9494 	 127.367 	 
C 	 -67.8775 	 41.8762 	 125.544 	 
H 	 -67.8123 	 42.5892 	 124.728 	 
H 	 -67.4275 	 42.453 	 126.419 	 
C 	 -69.2718 	 41.4597 	 125.884 	 
H 	 -69.2443 	 40.8653 	 126.707 	 
H 	 -69.6337 	 40.8625 	 124.947 	 
C 	 -70.2594 	 42.6273 	 126.02 	 
H 	 -70.1658 	 43.2529 	 126.944 	 
H 	 -71.3059 	 42.3282 	 125.962 	 
H 	 -70.032 	 43.2584 	 125.136 	 
H 	 -66.8457 	 41.1278 	 119.189 	 
H 	 -65.2064 	 38.138 	 126.448 	 
*
