! wB97X-D3 SP def2-SVP
%pal
nprocs 16
end

* xyz 0 1
S 	 -56.2285 	 42.8843 	 113.902 	 
C 	 -55.6597 	 43.5496 	 112.355 	 
C 	 -55.1293 	 42.6494 	 111.478 	 
C 	 -55.2194 	 41.3007 	 111.998 	 
C 	 -55.8701 	 41.2693 	 113.244 	 
H 	 -54.8154 	 40.4875 	 111.426 	 
C 	 -54.55 	 42.9687 	 110.048 	 
H 	 -53.4357 	 43.0445 	 110.05 	 
H 	 -54.8476 	 43.9847 	 109.824 	 
C 	 -54.9029 	 41.9014 	 109.015 	 
H 	 -54.4043 	 41.9288 	 108.092 	 
H 	 -54.4884 	 40.9133 	 109.336 	 
C 	 -56.4235 	 41.7523 	 108.731 	 
H 	 -56.4724 	 41.0545 	 107.934 	 
H 	 -57.015 	 41.2451 	 109.552 	 
H 	 -56.9491 	 42.7311 	 108.505 	 
S 	 -54.9844 	 39.9855 	 115.454 	 
C 	 -55.5174 	 38.432 	 115.881 	 
C 	 -56.4396 	 37.9197 	 114.959 	 
C 	 -56.6203 	 38.8328 	 113.782 	 
C 	 -56.0067 	 40.0705 	 114.051 	 
H 	 -56.8112 	 36.9203 	 115.085 	 
C 	 -57.4467 	 38.5464 	 112.53 	 
H 	 -57.3351 	 37.5002 	 112.165 	 
H 	 -57.0406 	 39.0717 	 111.722 	 
C 	 -59.0007 	 38.719 	 112.726 	 
H 	 -59.2599 	 38.1196 	 113.561 	 
H 	 -59.5387 	 38.2932 	 111.867 	 
C 	 -59.3452 	 40.1762 	 112.849 	 
H 	 -60.4152 	 40.134 	 112.803 	 
H 	 -58.9353 	 40.7613 	 112.004 	 
H 	 -58.9404 	 40.7043 	 113.744 	 
H 	 -55.7558 	 44.562 	 112.193 	 
H 	 -55.3139 	 37.9767 	 116.814 	 
*
