! wB97X-D3 SP def2-SVP
%pal
nprocs 16
end

* xyz 0 1
S 	 -24.6369 	 55.8496 	 111.873 	 
C 	 -23.4706 	 57.0606 	 111.321 	 
C 	 -24.0334 	 58.119 	 110.694 	 
C 	 -25.4575 	 58.0369 	 110.745 	 
C 	 -25.9341 	 56.8736 	 111.324 	 
H 	 -26.1889 	 58.7332 	 110.321 	 
C 	 -23.277 	 59.3085 	 110.143 	 
H 	 -22.4646 	 59.6396 	 110.789 	 
H 	 -23.9708 	 60.1175 	 110.088 	 
C 	 -22.8044 	 59.0994 	 108.671 	 
H 	 -23.5338 	 58.7506 	 107.983 	 
H 	 -22.2948 	 60.0238 	 108.39 	 
C 	 -21.8222 	 57.9261 	 108.564 	 
H 	 -21.2686 	 57.9237 	 107.659 	 
H 	 -21.1368 	 57.9133 	 109.351 	 
H 	 -22.3149 	 56.9524 	 108.57 	 
S 	 -28.0374 	 55.2138 	 110.659 	 
C 	 -29.6596 	 55.6427 	 111.158 	 
C 	 -29.6208 	 56.7235 	 112.039 	 
C 	 -28.3698 	 57.3514 	 112.106 	 
C 	 -27.3667 	 56.6367 	 111.457 	 
H 	 -30.4908 	 57.0163 	 112.509 	 
C 	 -28.238 	 58.6357 	 112.842 	 
H 	 -27.1937 	 58.9752 	 112.954 	 
H 	 -28.6676 	 58.4888 	 113.825 	 
C 	 -29.0416 	 59.7748 	 112.249 	 
H 	 -28.9702 	 60.576 	 112.969 	 
H 	 -30.1341 	 59.6155 	 112.413 	 
C 	 -29.065 	 60.147 	 110.754 	 
H 	 -29.4393 	 61.1825 	 110.685 	 
H 	 -29.637 	 59.479 	 110.124 	 
H 	 -28.1005 	 60.1241 	 110.389 	 
H 	 -22.4626 	 56.8674 	 111.435 	 
H 	 -30.5515 	 54.9955 	 111.007 	 
*
