! wB97X-D3 SP def2-SVP
%pal
nprocs 16
end

* xyz 0 1
S 	 5.10854 	 -10.2229 	 76.3214 	 
C 	 3.46941 	 -10.5882 	 76.8538 	 
C 	 2.73378 	 -11.4319 	 76.0841 	 
C 	 3.5596 	 -11.8794 	 74.9951 	 
C 	 4.88164 	 -11.4691 	 75.0497 	 
H 	 3.21966 	 -12.6056 	 74.2908 	 
C 	 1.24021 	 -11.7457 	 76.3466 	 
H 	 0.808474 	 -10.9156 	 76.8388 	 
H 	 1.07676 	 -12.5893 	 77.0313 	 
C 	 0.30244 	 -11.9045 	 75.2172 	 
H 	 0.22822 	 -10.9177 	 74.7496 	 
H 	 0.73156 	 -12.5558 	 74.4452 	 
C 	 -1.10412 	 -12.4173 	 75.7143 	 
H 	 -1.76309 	 -12.6457 	 74.8261 	 
H 	 -0.880503 	 -13.4374 	 76.1051 	 
H 	 -1.719 	 -11.8313 	 76.4167 	 
S 	 6.74989 	 -10.5528 	 73.4573 	 
C 	 7.70742 	 -11.4735 	 72.3418 	 
C 	 7.28383 	 -12.7931 	 72.4212 	 
C 	 6.22985 	 -13.058 	 73.3325 	 
C 	 5.93974 	 -11.9032 	 74.0806 	 
H 	 7.7935 	 -13.5407 	 71.7323 	 
C 	 5.50411 	 -14.3735 	 73.3664 	 
H 	 4.84553 	 -14.3695 	 72.5709 	 
H 	 4.71195 	 -14.3948 	 74.1671 	 
C 	 6.38255 	 -15.6212 	 73.4435 	 
H 	 6.94845 	 -15.6427 	 74.3904 	 
H 	 7.18543 	 -15.6219 	 72.7565 	 
C 	 5.48544 	 -16.9164 	 73.6302 	 
H 	 4.94189 	 -16.7992 	 74.5261 	 
H 	 6.0433 	 -17.8088 	 73.678 	 
H 	 4.79136 	 -17.0842 	 72.78 	 
H 	 2.84459 	 -10.1243 	 77.7192 	 
H 	 8.37607 	 -11.1134 	 71.6011 	 
*
