! wB97X-D3 SP def2-SVP
%pal
nprocs 16
end

* xyz 0 1
S 	 -36.5183 	 59.8113 	 109.154 	 
C 	 -37.4249 	 58.3183 	 109.337 	 
C 	 -36.9765 	 57.3687 	 108.397 	 
C 	 -36.1365 	 57.9442 	 107.421 	 
C 	 -35.8573 	 59.3002 	 107.569 	 
H 	 -35.6733 	 57.5195 	 106.478 	 
C 	 -37.5064 	 56.005 	 108.159 	 
H 	 -37.2026 	 55.5471 	 107.245 	 
H 	 -38.5578 	 56.0963 	 107.975 	 
C 	 -37.2019 	 54.9958 	 109.32 	 
H 	 -37.5796 	 55.3253 	 110.22 	 
H 	 -37.8305 	 54.0921 	 109.162 	 
C 	 -35.7573 	 54.4749 	 109.396 	 
H 	 -35.4678 	 54.1782 	 108.35 	 
H 	 -35.0255 	 55.2374 	 109.711 	 
H 	 -35.5801 	 53.6822 	 110.079 	 
S 	 -33.5637 	 60.8459 	 107.177 	 
C 	 -33.1121 	 61.3398 	 105.547 	 
C 	 -34.1245 	 60.9167 	 104.681 	 
C 	 -35.2649 	 60.3382 	 105.269 	 
C 	 -35.0707 	 60.1207 	 106.647 	 
H 	 -34.0868 	 61.1069 	 103.599 	 
C 	 -36.4222 	 59.7867 	 104.431 	 
H 	 -37.0734 	 60.6048 	 104.03 	 
H 	 -37.2428 	 59.2054 	 104.94 	 
C 	 -35.9081 	 58.9575 	 103.298 	 
H 	 -34.8514 	 58.7002 	 103.343 	 
H 	 -36.1113 	 59.6432 	 102.429 	 
C 	 -36.6212 	 57.6803 	 103.084 	 
H 	 -37.6529 	 57.9434 	 103.173 	 
H 	 -36.5858 	 56.9549 	 103.868 	 
H 	 -36.3227 	 57.0928 	 102.211 	 
H 	 -38.0949 	 58.0753 	 110.107 	 
H 	 -32.1189 	 61.6983 	 105.223 	 
*
