! wB97X-D3 SP def2-SVP
%pal
nprocs 16
end

* xyz 0 1
S 	 12.937 	 14.3698 	 84.4237 	 
C 	 14.3709 	 15.0018 	 83.6847 	 
C 	 14.6975 	 14.3368 	 82.538 	 
C 	 14.0129 	 13.0965 	 82.3861 	 
C 	 12.9697 	 13.0149 	 83.2826 	 
H 	 14.1224 	 12.252 	 81.7014 	 
C 	 15.9978 	 14.6028 	 81.7883 	 
H 	 16.6562 	 13.7222 	 81.7794 	 
H 	 16.5309 	 15.4357 	 82.2802 	 
C 	 15.8058 	 15.1896 	 80.418 	 
H 	 15.3254 	 16.1665 	 80.4291 	 
H 	 16.8258 	 15.3983 	 80.0667 	 
C 	 15.1228 	 14.2125 	 79.4267 	 
H 	 15.1934 	 14.5493 	 78.4088 	 
H 	 15.5255 	 13.2414 	 79.4428 	 
H 	 14.034 	 13.9872 	 79.6306 	 
S 	 10.2706 	 12.6114 	 83.1209 	 
C 	 9.55416 	 10.9919 	 83.2246 	 
C 	 10.5973 	 10.0298 	 83.1829 	 
C 	 11.9511 	 10.5955 	 83.183 	 
C 	 11.9503 	 12.0031 	 83.2675 	 
H 	 10.5597 	 8.90814 	 83.1762 	 
C 	 13.1847 	 9.78305 	 83.215 	 
H 	 13.1303 	 9.0847 	 84.103 	 
H 	 14.0875 	 10.3833 	 83.3632 	 
C 	 13.3843 	 8.70829 	 82.1358 	 
H 	 12.7867 	 7.79023 	 82.1827 	 
H 	 14.313 	 8.11207 	 82.2321 	 
C 	 13.4174 	 9.38287 	 80.7394 	 
H 	 14.0897 	 10.2031 	 80.8667 	 
H 	 12.4892 	 9.84013 	 80.4724 	 
H 	 13.8879 	 8.78081 	 79.9297 	 
H 	 14.9523 	 15.8924 	 83.9513 	 
H 	 8.49452 	 10.7537 	 83.2632 	 
*
