! wB97X-D3 SP def2-SVP
%pal
nprocs 16
end

* xyz 0 1
S 	 54.6356 	 16.2351 	 50.8382 	 
C 	 53.9995 	 17.7846 	 50.3044 	 
C 	 53.2993 	 18.3991 	 51.3579 	 
C 	 53.0397 	 17.5261 	 52.435 	 
C 	 53.5898 	 16.2809 	 52.2466 	 
H 	 52.5693 	 17.779 	 53.2968 	 
C 	 52.7161 	 19.8063 	 51.2856 	 
H 	 53.2934 	 20.3879 	 51.9863 	 
H 	 51.6468 	 19.7112 	 51.5898 	 
C 	 52.8989 	 20.5211 	 49.8882 	 
H 	 53.9843 	 20.64 	 49.6455 	 
H 	 52.4501 	 19.8875 	 49.1755 	 
C 	 52.3601 	 21.9504 	 49.9042 	 
H 	 51.3588 	 21.9592 	 50.347 	 
H 	 52.8687 	 22.5589 	 50.6734 	 
H 	 52.351 	 22.4801 	 48.935 	 
S 	 55.1089 	 14.5283 	 53.6529 	 
C 	 54.3715 	 13.629 	 54.9595 	 
C 	 52.9526 	 13.7078 	 54.8752 	 
C 	 52.5048 	 14.6861 	 53.916 	 
C 	 53.5244 	 15.1178 	 53.1172 	 
H 	 52.3316 	 13.1559 	 55.5738 	 
C 	 51.0753 	 15.1984 	 53.7432 	 
H 	 51.1808 	 16.2667 	 53.9898 	 
H 	 50.351 	 14.7572 	 54.4784 	 
C 	 50.4487 	 14.9302 	 52.4066 	 
H 	 50.421 	 13.8627 	 52.357 	 
H 	 51.1017 	 15.3225 	 51.5993 	 
C 	 49.0347 	 15.4861 	 52.2255 	 
H 	 49.1287 	 16.5984 	 52.2538 	 
H 	 48.251 	 15.2096 	 52.9603 	 
H 	 48.5904 	 15.2869 	 51.326 	 
H 	 54.3775 	 18.3551 	 49.4964 	 
H 	 54.8384 	 12.9658 	 55.6543 	 
*
