! wB97X-D3 SP def2-SVP
%pal
nprocs 16
end

* xyz 0 1
S 	 -57.4739 	 21.0866 	 86.8246 	 
C 	 -57.0919 	 19.6147 	 87.7013 	 
C 	 -55.7628 	 19.2458 	 87.6749 	 
C 	 -54.9891 	 20.2489 	 86.9864 	 
C 	 -55.771 	 21.2987 	 86.6242 	 
H 	 -53.9057 	 20.308 	 86.8403 	 
C 	 -55.2079 	 18.0019 	 88.2931 	 
H 	 -54.2551 	 17.8733 	 87.7685 	 
H 	 -55.8812 	 17.2416 	 87.9352 	 
C 	 -55.0974 	 18.0536 	 89.8196 	 
H 	 -54.517 	 17.1632 	 90.0271 	 
H 	 -54.4817 	 18.887 	 90.204 	 
C 	 -56.4354 	 17.9955 	 90.5269 	 
H 	 -57.0283 	 17.1083 	 90.3581 	 
H 	 -56.2348 	 17.9589 	 91.5615 	 
H 	 -57.0376 	 18.9524 	 90.4223 	 
S 	 -55.9408 	 22.8494 	 84.3439 	 
C 	 -55.0116 	 24.3535 	 84.1758 	 
C 	 -54.3041 	 24.556 	 85.3467 	 
C 	 -54.3317 	 23.5099 	 86.3224 	 
C 	 -55.2699 	 22.49 	 85.9715 	 
H 	 -53.8655 	 25.5218 	 85.4797 	 
C 	 -53.7036 	 23.6807 	 87.7409 	 
H 	 -52.857 	 24.2989 	 87.7063 	 
H 	 -53.2265 	 22.7368 	 88.0408 	 
C 	 -54.7473 	 24.2394 	 88.8147 	 
H 	 -55.3665 	 25.0364 	 88.4431 	 
H 	 -54.1489 	 24.5044 	 89.6466 	 
C 	 -55.7985 	 23.1177 	 89.4214 	 
H 	 -56.6229 	 23.1148 	 88.7201 	 
H 	 -56.1537 	 23.4763 	 90.4229 	 
H 	 -55.3758 	 22.1033 	 89.6662 	 
H 	 -57.7558 	 18.8615 	 88.0168 	 
H 	 -54.8793 	 24.9306 	 83.2514 	 
*
