! wB97X-D3 SP def2-SVP
%pal
nprocs 16
end

* xyz 0 1
S 	 -89.2002 	 50.9605 	 131.858 	 
C 	 -89.4284 	 52.6646 	 132.227 	 
C 	 -88.3605 	 53.442 	 131.868 	 
C 	 -87.3056 	 52.6595 	 131.332 	 
C 	 -87.5503 	 51.286 	 131.153 	 
H 	 -86.3361 	 53.035 	 131.017 	 
C 	 -88.3154 	 54.8882 	 132.138 	 
H 	 -89.2784 	 55.1843 	 132.533 	 
H 	 -88.1376 	 55.473 	 131.248 	 
C 	 -87.3738 	 55.4823 	 133.189 	 
H 	 -87.4506 	 56.5591 	 133.042 	 
H 	 -87.692 	 55.2179 	 134.222 	 
C 	 -85.8714 	 55.4005 	 132.912 	 
H 	 -85.463 	 55.6338 	 131.952 	 
H 	 -85.4469 	 56.2034 	 133.624 	 
H 	 -85.4225 	 54.411 	 133.145 	 
S 	 -87.6016 	 49.3667 	 129.147 	 
C 	 -86.2266 	 48.2977 	 128.844 	 
C 	 -85.2214 	 48.5915 	 129.723 	 
C 	 -85.4882 	 49.8055 	 130.501 	 
C 	 -86.797 	 50.2639 	 130.402 	 
H 	 -84.3322 	 47.9621 	 129.772 	 
C 	 -84.4776 	 50.377 	 131.437 	 
H 	 -84.8795 	 51.2601 	 131.874 	 
H 	 -83.5501 	 50.7582 	 130.917 	 
C 	 -83.8693 	 49.393 	 132.518 	 
H 	 -83.0229 	 49.9681 	 132.915 	 
H 	 -83.3902 	 48.536 	 131.935 	 
C 	 -84.969 	 48.9412 	 133.555 	 
H 	 -84.465 	 48.0806 	 133.992 	 
H 	 -85.8852 	 48.6724 	 133.144 	 
H 	 -85.1503 	 49.687 	 134.319 	 
H 	 -90.3623 	 53.0513 	 132.645 	 
H 	 -86.2472 	 47.5227 	 128.098 	 
*
