! wB97X-D3 SP def2-SVP
%pal
nprocs 16
end

* xyz 0 1
S 	 -100.69 	 56.3941 	 122.052 	 
C 	 -101.558 	 54.9343 	 121.525 	 
C 	 -102.14 	 54.2861 	 122.572 	 
C 	 -101.827 	 54.8979 	 123.806 	 
C 	 -100.973 	 55.969 	 123.708 	 
H 	 -102.305 	 54.7562 	 124.807 	 
C 	 -103.025 	 53.1418 	 122.558 	 
H 	 -103.698 	 53.2996 	 121.701 	 
H 	 -103.723 	 53.3523 	 123.423 	 
C 	 -102.396 	 51.7665 	 122.673 	 
H 	 -101.71 	 51.6317 	 121.825 	 
H 	 -101.94 	 51.7316 	 123.614 	 
C 	 -103.463 	 50.723 	 122.609 	 
H 	 -103.124 	 49.6807 	 122.525 	 
H 	 -103.985 	 50.814 	 123.61 	 
H 	 -104.251 	 50.8609 	 121.837 	 
S 	 -101.185 	 58.5163 	 124.528 	 
C 	 -100.811 	 58.9744 	 126.228 	 
C 	 -100.038 	 57.9553 	 126.85 	 
C 	 -99.9659 	 56.7435 	 126.006 	 
C 	 -100.569 	 56.8878 	 124.782 	 
H 	 -99.5532 	 57.9363 	 127.853 	 
C 	 -99.3002 	 55.4784 	 126.51 	 
H 	 -98.2493 	 55.5725 	 126.641 	 
H 	 -99.4146 	 54.6951 	 125.769 	 
C 	 -99.6303 	 54.9707 	 127.913 	 
H 	 -99.4467 	 55.8422 	 128.498 	 
H 	 -98.9536 	 54.1973 	 128.351 	 
C 	 -101.082 	 54.6054 	 128.016 	 
H 	 -101.727 	 55.2939 	 127.487 	 
H 	 -101.377 	 54.6128 	 129.066 	 
H 	 -101.268 	 53.6121 	 127.55 	 
H 	 -101.764 	 54.6777 	 120.46 	 
H 	 -101.062 	 59.8827 	 126.694 	 
*
