! wB97X-D3 SP def2-SVP
%pal
nprocs 16
end

* xyz 0 1
S 	 9.43543 	 23.681 	 39.7617 	 
C 	 8.30979 	 22.7746 	 40.8447 	 
C 	 7.35966 	 23.6214 	 41.28 	 
C 	 7.37073 	 24.8916 	 40.6207 	 
C 	 8.31423 	 25.0106 	 39.5782 	 
H 	 6.66002 	 25.7019 	 40.8907 	 
C 	 6.28778 	 23.3019 	 42.323 	 
H 	 6.23831 	 22.2609 	 42.6126 	 
H 	 5.34848 	 23.572 	 41.8526 	 
C 	 6.44721 	 24.137 	 43.6735 	 
H 	 7.44451 	 24.0438 	 44.1415 	 
H 	 6.39343 	 25.1847 	 43.3898 	 
C 	 5.25028 	 23.959 	 44.574 	 
H 	 4.31264 	 24.3739 	 44.0903 	 
H 	 5.09275 	 22.9043 	 44.8533 	 
H 	 5.53741 	 24.5008 	 45.4357 	 
S 	 10.2037 	 26.8541 	 38.7287 	 
C 	 9.66084 	 28.3131 	 37.9829 	 
C 	 8.35177 	 28.2648 	 37.585 	 
C 	 7.68587 	 27.0555 	 38.0169 	 
C 	 8.59113 	 26.2331 	 38.7306 	 
H 	 7.90083 	 29.1544 	 37.2179 	 
C 	 6.15366 	 26.82 	 37.8629 	 
H 	 5.94068 	 25.7807 	 38.2485 	 
H 	 6.1247 	 26.7417 	 36.7797 	 
C 	 5.21224 	 27.9281 	 38.4806 	 
H 	 5.45024 	 28.8489 	 38.0108 	 
H 	 5.49816 	 28.1321 	 39.4917 	 
C 	 3.81553 	 27.4962 	 38.1551 	 
H 	 3.07626 	 28.1572 	 38.5275 	 
H 	 3.59003 	 26.4821 	 38.6391 	 
H 	 3.52292 	 27.3574 	 37.0949 	 
H 	 8.45375 	 21.7218 	 41.0717 	 
H 	 10.22 	 29.2637 	 37.7735 	 
*
