! wB97X-D3 SP def2-SVP
%pal
nprocs 16
end

* xyz 0 1
S 	 -48.4992 	 66.9057 	 126.755 	 
C 	 -46.7922 	 66.4634 	 126.402 	 
C 	 -46.277 	 65.7955 	 127.459 	 
C 	 -47.2424 	 65.1566 	 128.29 	 
C 	 -48.4981 	 65.617 	 127.941 	 
H 	 -47.0413 	 64.3738 	 128.998 	 
C 	 -44.8861 	 65.2457 	 127.539 	 
H 	 -44.6162 	 64.81 	 128.464 	 
H 	 -44.1675 	 66.0705 	 127.46 	 
C 	 -44.5557 	 64.2523 	 126.409 	 
H 	 -45.3137 	 63.4616 	 126.474 	 
H 	 -44.7232 	 64.7468 	 125.483 	 
C 	 -43.1613 	 63.6474 	 126.504 	 
H 	 -43.1605 	 62.9375 	 127.345 	 
H 	 -42.8707 	 63.0359 	 125.652 	 
H 	 -42.4198 	 64.3579 	 126.728 	 
S 	 -50.9467 	 66.5001 	 128.705 	 
C 	 -52.1496 	 65.4006 	 129.367 	 
C 	 -51.7027 	 64.1124 	 129.354 	 
C 	 -50.352 	 63.9919 	 128.843 	 
C 	 -49.7437 	 65.2186 	 128.567 	 
H 	 -52.4058 	 63.3089 	 129.706 	 
C 	 -49.7706 	 62.6995 	 128.482 	 
H 	 -48.8034 	 62.6022 	 128.93 	 
H 	 -49.6997 	 62.7041 	 127.387 	 
C 	 -50.4989 	 61.3989 	 128.813 	 
H 	 -51.5328 	 61.51 	 128.451 	 
H 	 -50.4675 	 61.2232 	 129.977 	 
C 	 -49.8957 	 60.1372 	 128.113 	 
H 	 -49.3189 	 59.4816 	 128.82 	 
H 	 -49.2447 	 60.1994 	 127.203 	 
H 	 -50.7605 	 59.5397 	 127.733 	 
H 	 -46.3074 	 67.037 	 125.677 	 
H 	 -53.1189 	 65.6675 	 129.814 	 
*
