! wB97X-D3 SP def2-SVP
%pal
nprocs 16
end

* xyz 0 1
S 	 8.55573 	 21.6409 	 60.9697 	 
C 	 9.04053 	 22.8396 	 59.7961 	 
C 	 7.93043 	 23.252 	 59.049 	 
C 	 6.73463 	 22.6149 	 59.5119 	 
C 	 6.89243 	 21.8456 	 60.6355 	 
H 	 5.69605 	 22.7709 	 59.119 	 
C 	 7.85225 	 24.2655 	 57.9446 	 
H 	 7.85877 	 25.2447 	 58.4441 	 
H 	 6.85997 	 24.1115 	 57.5305 	 
C 	 8.87314 	 24.2395 	 56.82 	 
H 	 8.70005 	 25.2124 	 56.2994 	 
H 	 9.89391 	 24.3505 	 57.2305 	 
C 	 8.65107 	 23.0502 	 55.8042 	 
H 	 9.42097 	 22.8033 	 55.1361 	 
H 	 8.57951 	 22.0782 	 56.3135 	 
H 	 7.76367 	 23.1283 	 55.2418 	 
S 	 6.19505 	 19.643 	 62.2218 	 
C 	 4.58846 	 19.6311 	 62.9638 	 
C 	 3.85858 	 20.683 	 62.649 	 
C 	 4.55416 	 21.5783 	 61.7666 	 
C 	 5.87572 	 21.21 	 61.4951 	 
H 	 2.86338 	 20.8034 	 63.0733 	 
C 	 3.79367 	 22.861 	 61.2845 	 
H 	 4.56888 	 23.5615 	 60.8973 	 
H 	 3.40078 	 23.3636 	 62.0922 	 
C 	 2.50473 	 22.6976 	 60.369 	 
H 	 1.93259 	 23.5941 	 60.3886 	 
H 	 1.87388 	 21.8534 	 60.7239 	 
C 	 2.87041 	 22.4387 	 58.9123 	 
H 	 2.02916 	 22.3321 	 58.142 	 
H 	 3.41853 	 21.4971 	 58.8934 	 
H 	 3.51511 	 23.1339 	 58.5708 	 
H 	 10.0685 	 23.1016 	 59.8144 	 
H 	 4.2457 	 18.8482 	 63.6257 	 
*
