! wB97X-D3 SP def2-SVP
%pal
nprocs 16
end

* xyz 0 1
S 	 -79.1552 	 44.815 	 129.753 	 
C 	 -80.8286 	 44.7873 	 129.464 	 
C 	 -81.4873 	 45.4716 	 130.457 	 
C 	 -80.6463 	 46.03 	 131.501 	 
C 	 -79.3379 	 45.6977 	 131.26 	 
H 	 -81.0026 	 46.5476 	 132.441 	 
C 	 -82.9544 	 45.7317 	 130.544 	 
H 	 -83.314 	 45.4763 	 131.556 	 
H 	 -83.4727 	 45.0025 	 129.92 	 
C 	 -83.624 	 47.1098 	 130.356 	 
H 	 -84.6254 	 47.0983 	 130.881 	 
H 	 -83.0501 	 47.8254 	 130.994 	 
C 	 -83.781 	 47.7127 	 128.95 	 
H 	 -84.2989 	 48.7058 	 129.018 	 
H 	 -82.8664 	 47.9283 	 128.425 	 
H 	 -84.5297 	 47.1365 	 128.495 	 
S 	 -77.0193 	 47.1715 	 131.376 	 
C 	 -76.1541 	 47.3725 	 132.882 	 
C 	 -76.7081 	 46.5582 	 133.8 	 
C 	 -77.8845 	 45.8742 	 133.413 	 
C 	 -78.1854 	 46.1043 	 132.088 	 
H 	 -76.2743 	 46.4901 	 134.743 	 
C 	 -78.7344 	 44.9757 	 134.331 	 
H 	 -77.9982 	 44.3546 	 134.898 	 
H 	 -79.2203 	 44.2739 	 133.679 	 
C 	 -79.588 	 45.7843 	 135.28 	 
H 	 -80.624 	 45.6398 	 135.085 	 
H 	 -79.4897 	 46.8686 	 135.057 	 
C 	 -79.2477 	 45.467 	 136.744 	 
H 	 -78.9656 	 44.4455 	 136.893 	 
H 	 -80.0413 	 45.7685 	 137.455 	 
H 	 -78.3621 	 45.9776 	 137.105 	 
H 	 -81.2666 	 44.3725 	 128.598 	 
H 	 -75.3353 	 48.082 	 133.174 	 
*
