! wB97X-D3 SP def2-SVP
%pal
nprocs 16
end

* xyz 0 1
S 	 -118.328 	 48.1097 	 133.301 	 
C 	 -118.177 	 48.179 	 134.993 	 
C 	 -117.378 	 47.2068 	 135.528 	 
C 	 -116.773 	 46.4414 	 134.448 	 
C 	 -117.018 	 46.8963 	 133.16 	 
H 	 -116.029 	 45.6322 	 134.566 	 
C 	 -116.95 	 47.0151 	 136.964 	 
H 	 -117.73 	 46.4339 	 137.514 	 
H 	 -117.113 	 48.0381 	 137.339 	 
C 	 -115.55 	 46.3871 	 137.185 	 
H 	 -115.291 	 46.3729 	 138.235 	 
H 	 -115.358 	 45.4081 	 136.881 	 
C 	 -114.545 	 47.3752 	 136.714 	 
H 	 -113.56 	 46.9645 	 136.853 	 
H 	 -114.795 	 47.7893 	 135.693 	 
H 	 -114.677 	 48.2158 	 137.498 	 
S 	 -117.926 	 46.163 	 130.731 	 
C 	 -116.921 	 45.2139 	 129.647 	 
C 	 -115.61 	 45.2433 	 130.055 	 
C 	 -115.418 	 45.8498 	 131.314 	 
C 	 -116.63 	 46.3948 	 131.829 	 
H 	 -114.782 	 44.7798 	 129.439 	 
C 	 -114.081 	 46.0122 	 131.914 	 
H 	 -113.74 	 45.1401 	 132.57 	 
H 	 -114.152 	 46.8632 	 132.588 	 
C 	 -112.899 	 46.2979 	 130.981 	 
H 	 -112.586 	 45.3603 	 130.541 	 
H 	 -112.115 	 46.6692 	 131.676 	 
C 	 -113.113 	 47.3471 	 129.922 	 
H 	 -113.986 	 47.1179 	 129.35 	 
H 	 -112.368 	 47.4741 	 129.082 	 
H 	 -113.221 	 48.319 	 130.439 	 
H 	 -118.816 	 48.8137 	 135.62 	 
H 	 -117.13 	 44.7853 	 128.657 	 
*
