! wB97X-D3 SP def2-SVP
%pal
nprocs 16
end

* xyz 0 1
S 	 -63.1729 	 43.8056 	 131.359 	 
C 	 -64.1656 	 43.9337 	 132.775 	 
C 	 -63.5343 	 43.313 	 133.844 	 
C 	 -62.1743 	 42.9194 	 133.517 	 
C 	 -61.7969 	 43.1946 	 132.237 	 
H 	 -61.4093 	 42.5145 	 134.181 	 
C 	 -64.1177 	 43.2152 	 135.246 	 
H 	 -64.921 	 43.978 	 135.317 	 
H 	 -63.3838 	 43.4144 	 136.073 	 
C 	 -64.8882 	 41.8489 	 135.472 	 
H 	 -65.6145 	 41.7104 	 134.705 	 
H 	 -64.2781 	 40.8871 	 135.524 	 
C 	 -65.6299 	 41.8005 	 136.814 	 
H 	 -66.3421 	 40.9856 	 136.734 	 
H 	 -64.9276 	 41.7182 	 137.626 	 
H 	 -66.2509 	 42.6688 	 136.91 	 
S 	 -60.0381 	 41.6942 	 130.71 	 
C 	 -58.4607 	 42.3631 	 130.376 	 
C 	 -58.2151 	 43.5451 	 131.057 	 
C 	 -59.3928 	 43.9937 	 131.815 	 
C 	 -60.4539 	 43.1166 	 131.692 	 
H 	 -57.242 	 43.9926 	 130.896 	 
C 	 -59.286 	 45.2502 	 132.701 	 
H 	 -58.2161 	 45.2277 	 133.004 	 
H 	 -59.7081 	 45.2074 	 133.756 	 
C 	 -59.6892 	 46.5417 	 131.932 	 
H 	 -59.1318 	 46.575 	 131.058 	 
H 	 -59.4456 	 47.4069 	 132.51 	 
C 	 -61.2075 	 46.5156 	 131.632 	 
H 	 -61.7649 	 46.2867 	 132.554 	 
H 	 -61.3797 	 45.706 	 130.933 	 
H 	 -61.599 	 47.4019 	 131.201 	 
H 	 -65.1855 	 44.0992 	 132.822 	 
H 	 -57.6637 	 41.9148 	 129.764 	 
*
