! wB97X-D3 SP def2-SVP
%pal
nprocs 16
end

* xyz 0 1
S 	 0.365515 	 75.7729 	 50.4637 	 
C 	 -0.148416 	 77.4809 	 50.7968 	 
C 	 -0.720843 	 78.0769 	 49.6618 	 
C 	 -0.705628 	 77.2105 	 48.4985 	 
C 	 -0.213941 	 75.9635 	 48.7978 	 
H 	 -0.96139 	 77.4935 	 47.5241 	 
C 	 -1.03692 	 79.5269 	 49.5408 	 
H 	 -1.82325 	 79.6865 	 50.2665 	 
H 	 -1.4762 	 79.8271 	 48.6921 	 
C 	 0.0815823 	 80.488 	 49.7661 	 
H 	 0.340814 	 80.2239 	 50.7745 	 
H 	 0.974652 	 80.2592 	 49.1945 	 
C 	 -0.335701 	 81.9537 	 49.8254 	 
H 	 -0.856149 	 82.2216 	 50.7627 	 
H 	 0.63985 	 82.478 	 49.8206 	 
H 	 -0.874201 	 82.4065 	 48.9861 	 
S 	 1.38706 	 74.0083 	 47.7026 	 
C 	 0.848503 	 72.9715 	 46.4661 	 
C 	 -0.487731 	 73.1606 	 46.2299 	 
C 	 -1.10846 	 74.1361 	 47.1496 	 
C 	 -0.183321 	 74.7595 	 47.963 	 
H 	 -0.948768 	 72.73 	 45.3652 	 
C 	 -2.53827 	 74.5589 	 47.0635 	 
H 	 -2.51007 	 75.6616 	 46.9784 	 
H 	 -2.99895 	 74.4222 	 48.0075 	 
C 	 -3.22794 	 74.0662 	 45.7371 	 
H 	 -3.22529 	 72.9516 	 45.8115 	 
H 	 -2.6406 	 74.2301 	 44.8828 	 
C 	 -4.67464 	 74.5598 	 45.3979 	 
H 	 -4.76113 	 75.6419 	 45.2624 	 
H 	 -5.44224 	 74.2193 	 46.0673 	 
H 	 -4.97505 	 74.1686 	 44.3983 	 
H 	 0.0989262 	 78.0448 	 51.7061 	 
H 	 1.3826 	 72.26 	 45.8689 	 
*
