! wB97X-D3 SP def2-SVP
%pal
nprocs 16
end

* xyz 0 1
S 	 -4.3485 	 37.6765 	 33.9297 	 
C 	 -5.79209 	 36.7018 	 34.231 	 
C 	 -6.78727 	 37.4518 	 34.8135 	 
C 	 -6.42803 	 38.858 	 34.7947 	 
C 	 -5.13377 	 39.137 	 34.4318 	 
H 	 -7.10165 	 39.6272 	 35.2735 	 
C 	 -8.10425 	 36.8406 	 35.1402 	 
H 	 -8.20642 	 35.9265 	 34.5163 	 
H 	 -8.84494 	 37.4622 	 34.6148 	 
C 	 -8.36992 	 36.4628 	 36.627 	 
H 	 -7.50681 	 35.85 	 36.8752 	 
H 	 -8.06999 	 37.3736 	 37.1471 	 
C 	 -9.79651 	 35.9436 	 36.6865 	 
H 	 -10.0952 	 35.6268 	 37.6215 	 
H 	 -10.4969 	 36.7381 	 36.4711 	 
H 	 -10.1551 	 35.1098 	 36.0289 	 
S 	 -2.81609 	 40.5287 	 34.8223 	 
C 	 -2.7851 	 42.2503 	 34.6169 	 
C 	 -4.01747 	 42.7421 	 34.2469 	 
C 	 -4.95814 	 41.7254 	 34.0726 	 
C 	 -4.53997 	 40.4436 	 34.4393 	 
H 	 -4.31683 	 43.7672 	 33.9128 	 
C 	 -6.34648 	 42.0359 	 33.4487 	 
H 	 -6.77463 	 41.125 	 33.0781 	 
H 	 -6.19153 	 42.6297 	 32.5253 	 
C 	 -7.33209 	 42.8852 	 34.2861 	 
H 	 -7.02523 	 43.9177 	 34.2496 	 
H 	 -7.19658 	 42.6321 	 35.312 	 
C 	 -8.79267 	 42.7921 	 33.7969 	 
H 	 -8.74202 	 42.5975 	 32.7431 	 
H 	 -9.39901 	 43.6082 	 34.2366 	 
H 	 -9.33755 	 41.8916 	 34.2537 	 
H 	 -5.72636 	 35.6341 	 34.0753 	 
H 	 -1.91299 	 42.9035 	 34.6845 	 
*
