! wB97X-D3 SP def2-SVP
%pal
nprocs 16
end

* xyz 0 1
S 	 -42.5369 	 21.887 	 79.7773 	 
C 	 -43.3761 	 23.412 	 79.4597 	 
C 	 -42.6358 	 24.2309 	 78.6228 	 
C 	 -41.4853 	 23.5901 	 78.1394 	 
C 	 -41.3167 	 22.3285 	 78.5533 	 
H 	 -40.8269 	 24.0685 	 77.4754 	 
C 	 -43.0619 	 25.5909 	 78.3082 	 
H 	 -43.7495 	 25.6137 	 77.4979 	 
H 	 -42.1753 	 26.0643 	 78.0286 	 
C 	 -43.4515 	 26.4569 	 79.4929 	 
H 	 -44.4001 	 26.2664 	 79.8429 	 
H 	 -42.7796 	 26.1453 	 80.2636 	 
C 	 -43.2713 	 27.9908 	 79.3187 	 
H 	 -42.2006 	 28.1937 	 79.0966 	 
H 	 -43.9415 	 28.4282 	 78.5894 	 
H 	 -43.5084 	 28.4673 	 80.2727 	 
S 	 -39.4121 	 20.6738 	 79.5329 	 
C 	 -38.3098 	 19.9125 	 78.3722 	 
C 	 -38.6009 	 20.3151 	 77.0741 	 
C 	 -39.7723 	 21.0468 	 76.9578 	 
C 	 -40.2584 	 21.4039 	 78.1967 	 
H 	 -37.9604 	 19.8858 	 76.3569 	 
C 	 -40.1909 	 21.7818 	 75.6855 	 
H 	 -39.6478 	 22.7224 	 75.631 	 
H 	 -41.2654 	 21.7858 	 75.7287 	 
C 	 -39.7449 	 20.8606 	 74.4806 	 
H 	 -40.3113 	 19.9473 	 74.5449 	 
H 	 -38.7024 	 20.6367 	 74.4288 	 
C 	 -40.2294 	 21.3466 	 73.0991 	 
H 	 -41.2649 	 21.0029 	 72.9646 	 
H 	 -39.7127 	 20.8982 	 72.2535 	 
H 	 -40.1047 	 22.476 	 73.0959 	 
H 	 -44.2075 	 23.6639 	 80.0732 	 
H 	 -37.5743 	 19.2017 	 78.5628 	 
*
