! wB97X-D3 SP def2-SVP
%pal
nprocs 16
end

* xyz 0 1
S 	 26.905 	 10.6536 	 68.4875 	 
C 	 26.0513 	 11.3311 	 67.125 	 
C 	 24.6798 	 11.5607 	 67.4117 	 
C 	 24.3602 	 11.2056 	 68.7037 	 
C 	 25.4166 	 10.6508 	 69.4063 	 
H 	 23.4099 	 11.2948 	 69.181 	 
C 	 23.674 	 12.2476 	 66.4724 	 
H 	 22.8559 	 11.6013 	 66.2514 	 
H 	 24.2007 	 12.4691 	 65.5477 	 
C 	 23.097 	 13.5978 	 66.8948 	 
H 	 22.7218 	 13.5548 	 67.8901 	 
H 	 23.8633 	 14.3223 	 66.9355 	 
C 	 22.0489 	 14.0144 	 65.8404 	 
H 	 22.4526 	 13.9645 	 64.8522 	 
H 	 21.1119 	 13.4639 	 65.9332 	 
H 	 21.7062 	 14.965 	 66.0501 	 
S 	 25.3709 	 8.37446 	 70.9564 	 
C 	 25.1069 	 8.43898 	 72.6611 	 
C 	 25.2404 	 9.67842 	 73.0973 	 
C 	 25.3114 	 10.6379 	 72.0435 	 
C 	 25.4087 	 10.0721 	 70.7545 	 
H 	 25.2642 	 9.9392 	 74.1389 	 
C 	 25.3701 	 12.1321 	 72.3111 	 
H 	 26.0537 	 12.5873 	 71.512 	 
H 	 25.6949 	 12.3823 	 73.3319 	 
C 	 23.9747 	 12.8278 	 72.1895 	 
H 	 23.2021 	 12.521 	 72.9112 	 
H 	 23.5757 	 12.7322 	 71.1717 	 
C 	 24.0346 	 14.3599 	 72.3805 	 
H 	 23.0158 	 14.7415 	 72.3743 	 
H 	 24.5821 	 14.7856 	 71.5534 	 
H 	 24.5055 	 14.7751 	 73.3425 	 
H 	 26.4604 	 11.6315 	 66.1645 	 
H 	 25.0894 	 7.57508 	 73.3099 	 
*
