! wB97X-D3 SP def2-SVP
%pal
nprocs 16
end

* xyz 0 1
S 	 -27.6276 	 55.692 	 112.213 	 
C 	 -28.3418 	 54.4303 	 113.194 	 
C 	 -29.313 	 54.9192 	 114.045 	 
C 	 -29.4499 	 56.3404 	 113.965 	 
C 	 -28.5257 	 56.9018 	 113.094 	 
H 	 -30.1742 	 56.8787 	 114.522 	 
C 	 -30.1181 	 54.0721 	 115.041 	 
H 	 -30.5536 	 53.1729 	 114.497 	 
H 	 -31.0103 	 54.6937 	 115.322 	 
C 	 -29.3132 	 53.8018 	 116.289 	 
H 	 -29.9844 	 53.4079 	 117.038 	 
H 	 -28.4928 	 53.071 	 116.154 	 
C 	 -28.7461 	 54.9767 	 117.037 	 
H 	 -29.5809 	 55.6756 	 117.237 	 
H 	 -28.1655 	 54.6265 	 117.942 	 
H 	 -28.1262 	 55.6079 	 116.373 	 
S 	 -28.0494 	 58.7744 	 111.093 	 
C 	 -28.7213 	 60.424 	 111.232 	 
C 	 -29.0064 	 60.6526 	 112.531 	 
C 	 -29.0161 	 59.4609 	 113.339 	 
C 	 -28.5302 	 58.297 	 112.709 	 
H 	 -29.241 	 61.6279 	 112.948 	 
C 	 -29.4347 	 59.631 	 114.783 	 
H 	 -29.5588 	 58.6703 	 115.261 	 
H 	 -30.4031 	 60.23 	 114.961 	 
C 	 -28.4939 	 60.3772 	 115.738 	 
H 	 -29.0185 	 60.7522 	 116.624 	 
H 	 -28.178 	 61.2898 	 115.153 	 
C 	 -27.2787 	 59.5397 	 116.156 	 
H 	 -27.4692 	 58.6216 	 116.658 	 
H 	 -26.8196 	 60.0774 	 116.879 	 
H 	 -26.6291 	 59.3916 	 115.318 	 
H 	 -28.1372 	 53.3488 	 113.109 	 
H 	 -28.8159 	 61.0864 	 110.418 	 
*
