! wB97X-D3 SP def2-SVP
%pal
nprocs 16
end

* xyz 0 1
S 	 -69.773 	 37.2355 	 125.04 	 
C 	 -69.0378 	 36.4005 	 126.355 	 
C 	 -69.2702 	 37.0842 	 127.578 	 
C 	 -69.977 	 38.2883 	 127.406 	 
C 	 -70.4109 	 38.521 	 126.092 	 
H 	 -70.3522 	 38.9973 	 128.168 	 
C 	 -68.8295 	 36.6729 	 128.906 	 
H 	 -68.7964 	 35.6256 	 128.972 	 
H 	 -69.5297 	 36.909 	 129.673 	 
C 	 -67.441 	 37.167 	 129.223 	 
H 	 -66.6373 	 37.0412 	 128.458 	 
H 	 -67.4148 	 38.2248 	 129.303 	 
C 	 -67.0296 	 36.6802 	 130.587 	 
H 	 -66.9493 	 35.6065 	 130.671 	 
H 	 -65.9577 	 36.9966 	 130.912 	 
H 	 -67.6424 	 37.0612 	 131.478 	 
S 	 -70.9493 	 41.176 	 125.719 	 
C 	 -72.0769 	 41.6807 	 124.438 	 
C 	 -72.8196 	 40.5557 	 123.995 	 
C 	 -72.4162 	 39.3182 	 124.643 	 
C 	 -71.3558 	 39.4839 	 125.544 	 
H 	 -73.691 	 40.4835 	 123.37 	 
C 	 -73.0141 	 37.9711 	 124.134 	 
H 	 -74.0311 	 38.0495 	 124.527 	 
H 	 -72.5458 	 37.2217 	 124.788 	 
C 	 -72.9776 	 37.5367 	 122.599 	 
H 	 -71.9583 	 37.4264 	 122.259 	 
H 	 -73.4373 	 38.3569 	 122.017 	 
C 	 -73.7814 	 36.242 	 122.564 	 
H 	 -74.7098 	 36.6057 	 122.883 	 
H 	 -73.4218 	 35.485 	 123.298 	 
H 	 -73.8697 	 35.7696 	 121.586 	 
H 	 -68.5651 	 35.4227 	 126.282 	 
H 	 -72.3176 	 42.7043 	 124.24 	 
*
