! wB97X-D3 SP def2-SVP
%pal
nprocs 16
end

* xyz 0 1
S 	 -29.5139 	 69.7087 	 159.315 	 
C 	 -28.3779 	 70.9822 	 159.62 	 
C 	 -28.997 	 72.171 	 159.736 	 
C 	 -30.4015 	 72.1254 	 159.579 	 
C 	 -30.8608 	 70.829 	 159.284 	 
H 	 -31.1428 	 72.9037 	 159.766 	 
C 	 -28.1927 	 73.4612 	 159.955 	 
H 	 -28.132 	 73.6764 	 161.011 	 
H 	 -28.707 	 74.2383 	 159.514 	 
C 	 -26.7432 	 73.5028 	 159.459 	 
H 	 -26.3212 	 74.3968 	 159.842 	 
H 	 -26.1212 	 72.823 	 159.868 	 
C 	 -26.7001 	 73.516 	 157.968 	 
H 	 -25.6819 	 73.8293 	 157.661 	 
H 	 -27.0349 	 72.5615 	 157.548 	 
H 	 -27.3476 	 74.2882 	 157.574 	 
S 	 -32.5285 	 68.9371 	 160.092 	 
C 	 -34.241 	 69.1049 	 159.761 	 
C 	 -34.439 	 70.1562 	 158.94 	 
C 	 -33.2989 	 70.891 	 158.522 	 
C 	 -32.1985 	 70.4097 	 159.192 	 
H 	 -35.4475 	 70.3662 	 158.701 	 
C 	 -33.3316 	 72.0824 	 157.562 	 
H 	 -32.6251 	 72.8347 	 157.824 	 
H 	 -34.3059 	 72.5417 	 157.69 	 
C 	 -33.0058 	 71.6934 	 156.107 	 
H 	 -33.3068 	 72.4515 	 155.422 	 
H 	 -33.6349 	 70.8302 	 155.809 	 
C 	 -31.5055 	 71.3156 	 155.907 	 
H 	 -31.3814 	 70.3108 	 156.386 	 
H 	 -30.8835 	 72.1224 	 156.337 	 
H 	 -31.2275 	 71.2776 	 154.914 	 
H 	 -27.2894 	 70.8065 	 159.82 	 
H 	 -34.9317 	 68.6427 	 160.336 	 
*
