! wB97X-D3 SP def2-SVP
%pal
nprocs 16
end

* xyz 0 1
S 	 -4.14834 	 21.1115 	 53.5259 	 
C 	 -2.78253 	 20.522 	 52.5333 	 
C 	 -2.89916 	 21.0076 	 51.2251 	 
C 	 -3.84371 	 22.0609 	 51.1568 	 
C 	 -4.68355 	 22.1401 	 52.2205 	 
H 	 -3.95324 	 22.7709 	 50.3194 	 
C 	 -1.93984 	 20.5626 	 50.1665 	 
H 	 -2.45391 	 20.5374 	 49.175 	 
H 	 -1.72969 	 19.4867 	 50.1901 	 
C 	 -0.768621 	 21.5416 	 49.9496 	 
H 	 -1.18219 	 22.4338 	 49.5298 	 
H 	 -0.347864 	 21.7485 	 50.9548 	 
C 	 0.322882 	 21.0002 	 49.0713 	 
H 	 1.18974 	 21.6186 	 48.9083 	 
H 	 0.613349 	 19.9939 	 49.3866 	 
H 	 -0.0156185 	 20.8376 	 48.0583 	 
S 	 -7.37569 	 22.319 	 51.4487 	 
C 	 -8.29499 	 23.5746 	 52.3021 	 
C 	 -7.45939 	 24.5639 	 52.8076 	 
C 	 -6.0412 	 24.1831 	 52.7847 	 
C 	 -5.90328 	 22.9264 	 52.1867 	 
H 	 -7.87807 	 25.3842 	 53.4326 	 
C 	 -4.95606 	 25.0729 	 53.4166 	 
H 	 -4.80791 	 25.8999 	 52.7014 	 
H 	 -4.02125 	 24.5027 	 53.3792 	 
C 	 -5.226 	 25.5729 	 54.8239 	 
H 	 -6.12577 	 26.1846 	 54.9382 	 
H 	 -4.4307 	 26.2774 	 55.0118 	 
C 	 -5.00912 	 24.5837 	 56.0159 	 
H 	 -3.90122 	 24.4044 	 56.1036 	 
H 	 -5.55103 	 23.6078 	 55.9154 	 
H 	 -5.31839 	 24.867 	 57.0255 	 
H 	 -1.96227 	 19.8194 	 52.7762 	 
H 	 -9.36873 	 23.6735 	 52.3547 	 
*
