! wB97X-D3 SP def2-SVP
%pal
nprocs 16
end

* xyz 0 1
S 	 12.4167 	 -17.1316 	 79.8166 	 
C 	 13.6784 	 -17.2868 	 78.5112 	 
C 	 13.7148 	 -16.0811 	 77.8256 	 
C 	 12.7589 	 -15.153 	 78.251 	 
C 	 11.9972 	 -15.5254 	 79.316 	 
H 	 12.6019 	 -14.1953 	 77.9283 	 
C 	 14.6912 	 -15.844 	 76.6938 	 
H 	 14.3037 	 -15.8568 	 75.6836 	 
H 	 15.3729 	 -16.6349 	 76.7702 	 
C 	 15.7056 	 -14.6821 	 76.9069 	 
H 	 15.1078 	 -13.6988 	 77.0788 	 
H 	 16.2136 	 -14.8064 	 77.8324 	 
C 	 16.6188 	 -14.4726 	 75.7023 	 
H 	 17.4256 	 -15.18 	 75.5834 	 
H 	 16.0327 	 -14.3568 	 74.7712 	 
H 	 17.1431 	 -13.5483 	 75.9793 	 
S 	 11.2826 	 -13.8482 	 81.3947 	 
C 	 9.65042 	 -13.2974 	 81.3984 	 
C 	 8.82757 	 -13.8042 	 80.4186 	 
C 	 9.58704 	 -14.7144 	 79.5764 	 
C 	 10.9107 	 -14.8117 	 80.0017 	 
H 	 7.74341 	 -13.5496 	 80.3679 	 
C 	 8.98258 	 -15.5191 	 78.3648 	 
H 	 9.6292 	 -15.6649 	 77.4672 	 
H 	 8.0753 	 -15.0244 	 78.0036 	 
C 	 8.46942 	 -16.9159 	 78.8329 	 
H 	 7.52149 	 -16.7333 	 79.3684 	 
H 	 9.12954 	 -17.375 	 79.6613 	 
C 	 8.20494 	 -17.8839 	 77.6236 	 
H 	 7.31752 	 -17.5016 	 77.0415 	 
H 	 7.886 	 -18.8425 	 78.1256 	 
H 	 9.07047 	 -18.0491 	 76.9239 	 
H 	 14.2863 	 -18.1418 	 78.3378 	 
H 	 9.30804 	 -12.659 	 82.1964 	 
*
