! wB97X-D3 SP def2-SVP
%pal
nprocs 16
end

* xyz 0 1
S 	 24.469 	 5.44745 	 75.4725 	 
C 	 23.7962 	 5.55781 	 77.1162 	 
C 	 23.5786 	 4.30454 	 77.6844 	 
C 	 24.0786 	 3.28118 	 76.807 	 
C 	 24.3762 	 3.67451 	 75.5276 	 
H 	 24.1408 	 2.23472 	 76.975 	 
C 	 22.951 	 4.01771 	 79.052 	 
H 	 22.4821 	 3.01302 	 79.0224 	 
H 	 22.169 	 4.76181 	 79.159 	 
C 	 23.97 	 4.12172 	 80.1235 	 
H 	 24.7268 	 3.38615 	 79.7434 	 
H 	 24.4103 	 5.11578 	 80.3764 	 
C 	 23.5022 	 3.57144 	 81.4593 	 
H 	 24.3052 	 3.25444 	 82.0777 	 
H 	 22.9359 	 4.34459 	 81.9972 	 
H 	 22.8535 	 2.69655 	 81.3843 	 
S 	 26.0726 	 3.4687 	 73.4161 	 
C 	 26.2732 	 1.97434 	 72.5336 	 
C 	 25.3787 	 1.07336 	 72.9429 	 
C 	 24.4997 	 1.53102 	 73.9478 	 
C 	 24.8261 	 2.78306 	 74.4562 	 
H 	 25.4464 	 0.0778287 	 72.4784 	 
C 	 23.422 	 0.614959 	 74.6525 	 
H 	 23.6198 	 0.310261 	 75.6562 	 
H 	 23.5449 	 -0.311966 	 74.0843 	 
C 	 22.0092 	 1.10924 	 74.304 	 
H 	 21.9319 	 1.13952 	 73.2392 	 
H 	 21.8947 	 2.16375 	 74.7042 	 
C 	 20.8153 	 0.287251 	 74.7565 	 
H 	 20.8731 	 0.246111 	 75.8987 	 
H 	 20.9019 	 -0.701439 	 74.2996 	 
H 	 19.8454 	 0.759872 	 74.4446 	 
H 	 23.3822 	 6.40137 	 77.5355 	 
H 	 26.7539 	 1.97063 	 71.5681 	 
*
