! wB97X-D3 SP def2-SVP
%pal
nprocs 16
end

* xyz 0 1
S 	 32.5021 	 3.66413 	 64.7002 	 
C 	 31.6657 	 5.08044 	 64.0896 	 
C 	 30.2702 	 4.84923 	 63.8669 	 
C 	 29.9656 	 3.52933 	 64.2381 	 
C 	 31.0351 	 2.7668 	 64.6328 	 
H 	 28.9589 	 3.1499 	 64.1835 	 
C 	 29.3322 	 5.98729 	 63.6774 	 
H 	 29.707 	 6.91615 	 64.1953 	 
H 	 28.5222 	 5.60932 	 64.2762 	 
C 	 28.8483 	 6.19442 	 62.2236 	 
H 	 28.3258 	 5.2229 	 61.9632 	 
H 	 28.1578 	 6.99261 	 62.1601 	 
C 	 29.8841 	 6.48539 	 61.0982 	 
H 	 30.9049 	 6.18685 	 61.4267 	 
H 	 29.5219 	 6.21042 	 60.0211 	 
H 	 30.0386 	 7.59428 	 60.9106 	 
S 	 31.4407 	 1.23145 	 66.8884 	 
C 	 31.3077 	 -0.493663 	 66.8402 	 
C 	 30.8896 	 -0.921045 	 65.621 	 
C 	 30.5185 	 0.174123 	 64.7196 	 
C 	 30.9012 	 1.42667 	 65.2367 	 
H 	 30.7625 	 -1.94747 	 65.3935 	 
C 	 29.9446 	 -0.0666452 	 63.3364 	 
H 	 30.678 	 -0.657804 	 62.8007 	 
H 	 29.8552 	 0.910488 	 62.9794 	 
C 	 28.5798 	 -0.724625 	 63.4006 	 
H 	 27.9415 	 -0.195882 	 64.1253 	 
H 	 28.7021 	 -1.66772 	 63.8234 	 
C 	 27.9498 	 -0.898803 	 62.0248 	 
H 	 28.653 	 -1.31741 	 61.3177 	 
H 	 27.5257 	 0.0530409 	 61.6246 	 
H 	 27.1491 	 -1.55974 	 62.0084 	 
H 	 32.1132 	 6.04809 	 63.877 	 
H 	 31.3359 	 -1.00269 	 67.8116 	 
*
