! wB97X-D3 SP def2-SVP
%pal
nprocs 16
end

* xyz 0 1
S 	 -38.0806 	 53.7585 	 109.732 	 
C 	 -39.7689 	 54.3026 	 109.936 	 
C 	 -40.5548 	 53.8785 	 108.93 	 
C 	 -39.7895 	 53.3287 	 107.865 	 
C 	 -38.4383 	 53.1013 	 108.188 	 
H 	 -40.2411 	 52.891 	 107.018 	 
C 	 -42.1837 	 54.0366 	 108.832 	 
H 	 -42.561 	 53.7672 	 107.794 	 
H 	 -42.4479 	 55.1149 	 109 	 
C 	 -42.9178 	 53.1508 	 109.825 	 
H 	 -42.7184 	 52.0364 	 109.593 	 
H 	 -42.5393 	 53.3163 	 110.79 	 
C 	 -44.4091 	 53.5353 	 109.867 	 
H 	 -45.0023 	 52.6758 	 110.139 	 
H 	 -44.5394 	 54.3797 	 110.65 	 
H 	 -44.7507 	 53.8574 	 108.864 	 
S 	 -36.5343 	 51.1504 	 107.66 	 
C 	 -35.7128 	 51.1738 	 106.172 	 
C 	 -35.9961 	 52.3058 	 105.451 	 
C 	 -37.0419 	 53.07 	 106.021 	 
C 	 -37.4598 	 52.6223 	 107.238 	 
H 	 -35.5307 	 52.3908 	 104.411 	 
C 	 -37.5247 	 54.3314 	 105.29 	 
H 	 -38.0775 	 54.9012 	 106.012 	 
H 	 -38.3712 	 54.0983 	 104.624 	 
C 	 -36.3697 	 55.0117 	 104.479 	 
H 	 -36.5149 	 54.5319 	 103.519 	 
H 	 -35.4572 	 54.7649 	 105.012 	 
C 	 -36.389 	 56.549 	 104.298 	 
H 	 -35.538 	 56.9414 	 103.783 	 
H 	 -36.4594 	 57.091 	 105.242 	 
H 	 -37.2403 	 56.8842 	 103.666 	 
H 	 -40.2961 	 54.6896 	 110.819 	 
H 	 -34.9249 	 50.4329 	 105.943 	 
*
