! wB97X-D3 SP def2-SVP
%pal
nprocs 16
end

* xyz 0 1
S 	 -10.8315 	 60.7701 	 58.487 	 
C 	 -9.24825 	 60.9997 	 59.114 	 
C 	 -8.93296 	 62.3106 	 59.2955 	 
C 	 -9.7762 	 63.2095 	 58.5894 	 
C 	 -10.9239 	 62.5295 	 58.1618 	 
H 	 -9.61794 	 64.2821 	 58.4381 	 
C 	 -7.56877 	 62.6657 	 59.8702 	 
H 	 -7.12533 	 63.4961 	 59.3075 	 
H 	 -6.86381 	 61.7822 	 59.7234 	 
C 	 -7.52792 	 63.094 	 61.2896 	 
H 	 -6.48992 	 63.4579 	 61.6132 	 
H 	 -8.06157 	 63.968 	 61.4363 	 
C 	 -8.01582 	 62.0346 	 62.2909 	 
H 	 -8.17307 	 61.107 	 61.8362 	 
H 	 -7.32384 	 61.8874 	 63.1087 	 
H 	 -8.95773 	 62.3082 	 62.7286 	 
S 	 -13.7378 	 62.4978 	 58.1606 	 
C 	 -14.6239 	 63.7041 	 57.3578 	 
C 	 -13.7605 	 64.6565 	 56.7953 	 
C 	 -12.3657 	 64.4323 	 56.9586 	 
C 	 -12.1205 	 63.1931 	 57.6278 	 
H 	 -14.2002 	 65.4946 	 56.278 	 
C 	 -11.2714 	 65.3859 	 56.3814 	 
H 	 -10.7478 	 64.7524 	 55.6338 	 
H 	 -10.6179 	 65.7651 	 57.1833 	 
C 	 -11.8011 	 66.5422 	 55.5098 	 
H 	 -12.643 	 66.3054 	 54.8651 	 
H 	 -10.9785 	 66.9145 	 54.8842 	 
C 	 -12.2732 	 67.8647 	 56.2581 	 
H 	 -12.999 	 68.3375 	 55.6394 	 
H 	 -11.4642 	 68.5114 	 56.2643 	 
H 	 -12.6781 	 67.7619 	 57.2452 	 
H 	 -8.63452 	 60.1773 	 59.494 	 
H 	 -15.6306 	 63.7949 	 57.4397 	 
*
