! wB97X-D3 SP def2-SVP
%pal
nprocs 16
end

* xyz 0 1
S 	 -21.5153 	 -2.32038 	 80.3654 	 
C 	 -19.9529 	 -2.41385 	 79.6766 	 
C 	 -19.0219 	 -2.54363 	 80.6935 	 
C 	 -19.558 	 -2.233 	 81.9885 	 
C 	 -20.9885 	 -2.23312 	 81.9989 	 
H 	 -19.0316 	 -2.08831 	 82.9317 	 
C 	 -17.5551 	 -2.81149 	 80.5402 	 
H 	 -17.1495 	 -2.9569 	 81.5249 	 
H 	 -17.104 	 -2.00214 	 80.0596 	 
C 	 -17.3271 	 -4.12641 	 79.7173 	 
H 	 -17.9788 	 -4.85012 	 80.2807 	 
H 	 -17.7701 	 -4.07344 	 78.7213 	 
C 	 -15.9094 	 -4.6558 	 79.6332 	 
H 	 -15.2773 	 -4.15036 	 78.9315 	 
H 	 -15.4021 	 -4.46872 	 80.5925 	 
H 	 -15.8791 	 -5.68369 	 79.4184 	 
S 	 -22.8495 	 -0.289152 	 82.8116 	 
C 	 -23.4429 	 -0.369099 	 84.5038 	 
C 	 -22.7345 	 -1.3039 	 85.2381 	 
C 	 -21.8149 	 -2.05875 	 84.4798 	 
C 	 -21.7858 	 -1.71748 	 83.106 	 
H 	 -22.9881 	 -1.46447 	 86.2839 	 
C 	 -20.9711 	 -3.17074 	 85.0303 	 
H 	 -20.7182 	 -2.93343 	 86.0265 	 
H 	 -20.117 	 -3.13364 	 84.392 	 
C 	 -21.5921 	 -4.49188 	 85.184 	 
H 	 -22.0232 	 -4.72923 	 84.1925 	 
H 	 -22.5138 	 -4.42897 	 85.8281 	 
C 	 -20.7428 	 -5.61718 	 85.743 	 
H 	 -20.0027 	 -5.82314 	 84.9785 	 
H 	 -21.3384 	 -6.46771 	 85.9024 	 
H 	 -20.1238 	 -5.41531 	 86.5503 	 
H 	 -19.6693 	 -2.65083 	 78.6129 	 
H 	 -23.9727 	 0.411848 	 85.0214 	 
*
