! wB97X-D3 SP def2-SVP
%pal
nprocs 16
end

* xyz 0 1
S 	 -31.285 	 61.0283 	 108.181 	 
C 	 -31.1302 	 61.8354 	 109.73 	 
C 	 -30.5795 	 63.0483 	 109.617 	 
C 	 -30.2573 	 63.3803 	 108.271 	 
C 	 -30.4122 	 62.3303 	 107.393 	 
H 	 -29.8824 	 64.2682 	 107.894 	 
C 	 -30.3375 	 63.9456 	 110.773 	 
H 	 -29.6612 	 63.3789 	 111.419 	 
H 	 -31.2113 	 63.9322 	 111.34 	 
C 	 -29.7844 	 65.3831 	 110.573 	 
H 	 -30.1985 	 65.7499 	 109.586 	 
H 	 -30.2403 	 65.9459 	 111.402 	 
C 	 -28.2717 	 65.3979 	 110.495 	 
H 	 -27.796 	 64.7713 	 109.783 	 
H 	 -27.8731 	 66.4311 	 110.368 	 
H 	 -27.8022 	 65.2039 	 111.512 	 
S 	 -31.3678 	 61.5821 	 104.992 	 
C 	 -30.3819 	 61.8299 	 103.576 	 
C 	 -29.1482 	 62.3863 	 103.921 	 
C 	 -28.9465 	 62.5969 	 105.302 	 
C 	 -30.1207 	 62.2511 	 105.999 	 
H 	 -28.3355 	 62.7202 	 103.257 	 
C 	 -27.6499 	 63.1548 	 105.897 	 
H 	 -26.7715 	 62.6798 	 105.409 	 
H 	 -27.6894 	 62.9383 	 106.991 	 
C 	 -27.5704 	 64.6483 	 105.64 	 
H 	 -28.4957 	 65.2144 	 106.017 	 
H 	 -27.4718 	 64.8997 	 104.587 	 
C 	 -26.3989 	 65.3532 	 106.227 	 
H 	 -25.5372 	 64.7826 	 106.043 	 
H 	 -26.441 	 65.5735 	 107.332 	 
H 	 -26.2583 	 66.2219 	 105.681 	 
H 	 -31.5954 	 61.5249 	 110.641 	 
H 	 -30.7232 	 61.4588 	 102.607 	 
*
