! wB97X-D3 SP def2-SVP
%pal
nprocs 16
end

* xyz 0 1
S 	 -30.0965 	 33.011 	 42.2811 	 
C 	 -28.6029 	 32.2502 	 42.5968 	 
C 	 -28.1826 	 32.4857 	 43.8734 	 
C 	 -29.1462 	 33.3037 	 44.5921 	 
C 	 -30.2191 	 33.6601 	 43.8569 	 
H 	 -29.0612 	 33.7532 	 45.5848 	 
C 	 -26.799 	 32.2328 	 44.3843 	 
H 	 -26.4 	 33.1434 	 44.7492 	 
H 	 -26.0957 	 31.8699 	 43.5598 	 
C 	 -26.7835 	 31.1765 	 45.4895 	 
H 	 -25.7782 	 31.1071 	 45.9309 	 
H 	 -27.2778 	 31.5821 	 46.3599 	 
C 	 -27.3453 	 29.8582 	 45.0831 	 
H 	 -27.3986 	 29.7966 	 43.9753 	 
H 	 -26.8712 	 29.0403 	 45.6226 	 
H 	 -28.4195 	 29.9016 	 45.4316 	 
S 	 -32.6622 	 33.2015 	 45.0361 	 
C 	 -33.5585 	 34.5473 	 45.5859 	 
C 	 -32.8357 	 35.7458 	 45.4964 	 
C 	 -31.5889 	 35.5738 	 44.8433 	 
C 	 -31.4399 	 34.2561 	 44.4223 	 
H 	 -33.2746 	 36.5962 	 45.9918 	 
C 	 -30.6146 	 36.7498 	 44.5891 	 
H 	 -31.088 	 37.5073 	 43.9892 	 
H 	 -29.7201 	 36.3892 	 44.0972 	 
C 	 -30.2764 	 37.3941 	 45.9123 	 
H 	 -31.2125 	 37.8319 	 46.3439 	 
H 	 -29.6559 	 38.2498 	 45.7863 	 
C 	 -29.608 	 36.4042 	 46.9018 	 
H 	 -30.3316 	 35.7009 	 47.3263 	 
H 	 -29.1221 	 36.9268 	 47.7336 	 
H 	 -28.7401 	 35.9222 	 46.4151 	 
H 	 -27.9407 	 31.7196 	 41.9982 	 
H 	 -34.5518 	 34.4617 	 46.0487 	 
*
