! wB97X-D3 SP def2-SVP
%pal
nprocs 16
end

* xyz 0 1
S 	 -8.30274 	 41.4146 	 35.2295 	 
C 	 -8.64411 	 40.4674 	 33.7691 	 
C 	 -8.0261 	 41.0873 	 32.6807 	 
C 	 -7.18879 	 42.185 	 33.0562 	 
C 	 -7.23803 	 42.5403 	 34.4176 	 
H 	 -6.69713 	 42.8523 	 32.458 	 
C 	 -8.12486 	 40.7869 	 31.208 	 
H 	 -8.37973 	 41.748 	 30.6994 	 
H 	 -9.0851 	 40.3031 	 30.9842 	 
C 	 -6.87374 	 39.9987 	 30.4869 	 
H 	 -6.11434 	 40.7748 	 30.4673 	 
H 	 -6.53563 	 39.1399 	 31.0752 	 
C 	 -7.12439 	 39.5576 	 29.0091 	 
H 	 -7.40534 	 40.3563 	 28.4725 	 
H 	 -6.18279 	 39.1625 	 28.6426 	 
H 	 -7.89741 	 38.8124 	 28.8937 	 
S 	 -8.08125 	 44.6482 	 35.988 	 
C 	 -7.03889 	 45.9759 	 36.2164 	 
C 	 -5.85131 	 45.8968 	 35.4986 	 
C 	 -5.69773 	 44.6128 	 34.8119 	 
C 	 -6.89879 	 43.8389 	 34.9177 	 
H 	 -5.14637 	 46.7 	 35.5917 	 
C 	 -4.37737 	 44.1938 	 34.1675 	 
H 	 -3.74474 	 45.0976 	 34.0845 	 
H 	 -4.63158 	 43.8292 	 33.1064 	 
C 	 -3.61302 	 43.0389 	 34.9125 	 
H 	 -4.16331 	 42.1114 	 34.7892 	 
H 	 -3.67134 	 43.1456 	 36.0229 	 
C 	 -2.18405 	 42.8709 	 34.3929 	 
H 	 -2.279 	 42.4411 	 33.3895 	 
H 	 -1.44749 	 42.3721 	 35.0258 	 
H 	 -1.89976 	 43.9295 	 34.3266 	 
H 	 -9.31689 	 39.6321 	 33.7513 	 
H 	 -7.42602 	 46.8763 	 36.6499 	 
*
