! wB97X-D3 SP def2-SVP
%pal
nprocs 16
end

* xyz 0 1
S 	 58.1526 	 12.9883 	 55.9071 	 
C 	 57.8155 	 14.625 	 56.3529 	 
C 	 58.7614 	 15.4713 	 55.7369 	 
C 	 59.5849 	 14.7855 	 54.8192 	 
C 	 59.237 	 13.4134 	 54.7014 	 
H 	 60.3451 	 15.1973 	 54.1496 	 
C 	 58.8459 	 16.88 	 56.164 	 
H 	 58.0984 	 17.3199 	 55.4692 	 
H 	 59.8264 	 17.2356 	 55.7448 	 
C 	 58.4912 	 17.2845 	 57.6527 	 
H 	 57.446 	 16.9195 	 57.9163 	 
H 	 59.1104 	 16.7227 	 58.3169 	 
C 	 58.6179 	 18.8469 	 57.7396 	 
H 	 59.0979 	 19.1733 	 58.663 	 
H 	 59.2077 	 19.2988 	 56.9356 	 
H 	 57.6837 	 19.3373 	 57.5523 	 
S 	 60.7159 	 11.1289 	 54.8112 	 
C 	 61.3107 	 10.4252 	 53.3131 	 
C 	 60.8534 	 11.0933 	 52.1639 	 
C 	 60.1179 	 12.2436 	 52.5466 	 
C 	 59.9386 	 12.4073 	 53.9193 	 
H 	 60.9839 	 10.8516 	 51.1182 	 
C 	 59.4795 	 13.1245 	 51.439 	 
H 	 60.1301 	 13.9903 	 51.1153 	 
H 	 58.6463 	 13.6835 	 51.958 	 
C 	 59.0039 	 12.5919 	 50.0698 	 
H 	 59.8606 	 12.2379 	 49.4505 	 
H 	 58.6078 	 13.5247 	 49.613 	 
C 	 57.7929 	 11.5607 	 50.0969 	 
H 	 56.8709 	 11.7932 	 50.6424 	 
H 	 58.1224 	 10.6888 	 50.5878 	 
H 	 57.5403 	 11.3508 	 48.9853 	 
H 	 57.1254 	 14.9876 	 57.0987 	 
H 	 61.9742 	 9.63727 	 53.1947 	 
*
