! wB97X-D3 SP def2-SVP
%pal
nprocs 16
end

* xyz 0 1
S 	 -66.0177 	 52.0192 	 124.244 	 
C 	 -65.8097 	 51.9217 	 126.004 	 
C 	 -67.0726 	 52.0323 	 126.706 	 
C 	 -68.1249 	 52.1888 	 125.765 	 
C 	 -67.7924 	 52.195 	 124.416 	 
H 	 -69.2256 	 52.2271 	 126.048 	 
C 	 -67.2724 	 51.8242 	 128.187 	 
H 	 -68.1603 	 52.408 	 128.503 	 
H 	 -66.4369 	 52.4151 	 128.593 	 
C 	 -67.2926 	 50.3359 	 128.644 	 
H 	 -68.3095 	 49.894 	 128.527 	 
H 	 -66.5323 	 49.8239 	 128.071 	 
C 	 -66.943 	 49.9922 	 130.095 	 
H 	 -65.9609 	 50.2223 	 130.437 	 
H 	 -67.5927 	 50.6801 	 130.697 	 
H 	 -66.9835 	 48.8903 	 130.297 	 
S 	 -68.459 	 53.7547 	 122.252 	 
C 	 -69.7893 	 53.2305 	 121.212 	 
C 	 -70.1818 	 51.9647 	 121.448 	 
C 	 -69.4317 	 51.3749 	 122.564 	 
C 	 -68.5798 	 52.2676 	 123.181 	 
H 	 -70.9284 	 51.524 	 120.783 	 
C 	 -69.7546 	 49.8977 	 122.977 	 
H 	 -70.2765 	 49.3166 	 122.195 	 
H 	 -70.4627 	 49.906 	 123.849 	 
C 	 -68.5411 	 49.0348 	 123.37 	 
H 	 -67.9316 	 49.5154 	 124.129 	 
H 	 -67.9244 	 48.8608 	 122.507 	 
C 	 -68.9708 	 47.7338 	 124.032 	 
H 	 -68.1356 	 47.287 	 124.596 	 
H 	 -69.4586 	 47.0082 	 123.326 	 
H 	 -69.865 	 47.7908 	 124.75 	 
H 	 -64.9373 	 51.7036 	 126.575 	 
H 	 -70.3385 	 53.8378 	 120.486 	 
*
