! wB97X-D3 SP def2-SVP
%pal
nprocs 16
end

* xyz 0 1
S 	 -5.34615 	 -12.1266 	 84.1659 	 
C 	 -4.80729 	 -10.7265 	 83.2871 	 
C 	 -5.58287 	 -9.66008 	 83.7402 	 
C 	 -6.64502 	 -10.004 	 84.5889 	 
C 	 -6.72059 	 -11.3048 	 84.8721 	 
H 	 -7.38168 	 -9.32059 	 85.0441 	 
C 	 -5.18877 	 -8.21276 	 83.4896 	 
H 	 -6.11755 	 -7.72278 	 83.0872 	 
H 	 -4.50019 	 -8.34844 	 82.6242 	 
C 	 -4.44749 	 -7.41951 	 84.5673 	 
H 	 -5.02299 	 -7.28766 	 85.4573 	 
H 	 -3.61836 	 -7.99963 	 84.9056 	 
C 	 -3.97579 	 -6.04818 	 84.1436 	 
H 	 -3.20318 	 -6.1889 	 83.5444 	 
H 	 -4.8543 	 -5.44556 	 83.6886 	 
H 	 -3.60613 	 -5.35327 	 84.9383 	 
S 	 -7.13726 	 -12.7834 	 87.1726 	 
C 	 -8.68237 	 -13.2535 	 87.6817 	 
C 	 -9.61983 	 -12.7086 	 86.9136 	 
C 	 -9.13106 	 -11.9194 	 85.8103 	 
C 	 -7.76913 	 -11.9416 	 85.771 	 
H 	 -10.6351 	 -12.8436 	 87.2413 	 
C 	 -10.0301 	 -11.1822 	 84.8001 	 
H 	 -10.3405 	 -11.9271 	 83.9851 	 
H 	 -9.38538 	 -10.3316 	 84.3923 	 
C 	 -11.3665 	 -10.6883 	 85.3416 	 
H 	 -11.1239 	 -9.79315 	 86.0271 	 
H 	 -11.8576 	 -11.5314 	 85.8807 	 
C 	 -12.1578 	 -10.1859 	 84.1213 	 
H 	 -11.6277 	 -9.47708 	 83.5198 	 
H 	 -13.0888 	 -9.71443 	 84.4359 	 
H 	 -12.3574 	 -10.9766 	 83.3807 	 
H 	 -4.05361 	 -10.7499 	 82.553 	 
H 	 -8.82283 	 -13.7492 	 88.6884 	 
*
