! wB97X-D3 SP def2-SVP
%pal
nprocs 16
end

* xyz 0 1
S 	 -100.91 	 41.3297 	 128.324 	 
C 	 -99.1916 	 40.9456 	 128.755 	 
C 	 -98.332 	 41.6023 	 127.856 	 
C 	 -99.0744 	 42.5044 	 127.014 	 
C 	 -100.464 	 42.3786 	 127.046 	 
H 	 -98.6096 	 43.1764 	 126.319 	 
C 	 -96.8826 	 41.6888 	 127.906 	 
H 	 -96.5758 	 42.0408 	 126.935 	 
H 	 -96.4378 	 40.6973 	 128.021 	 
C 	 -96.3836 	 42.6654 	 129.089 	 
H 	 -96.72 	 43.64 	 128.839 	 
H 	 -96.8343 	 42.4909 	 130.053 	 
C 	 -94.8174 	 42.6144 	 129.269 	 
H 	 -94.3165 	 42.7684 	 128.332 	 
H 	 -94.3891 	 43.4682 	 129.831 	 
H 	 -94.446 	 41.656 	 129.687 	 
S 	 -102.601 	 44.1765 	 126.916 	 
C 	 -103.485 	 44.3959 	 125.436 	 
C 	 -102.816 	 43.7899 	 124.427 	 
C 	 -101.577 	 43.2354 	 124.799 	 
C 	 -101.468 	 43.0748 	 126.19 	 
H 	 -103.125 	 44.0345 	 123.424 	 
C 	 -100.597 	 42.5953 	 123.824 	 
H 	 -101.129 	 41.9644 	 123.064 	 
H 	 -100.045 	 41.8774 	 124.496 	 
C 	 -99.7349 	 43.7787 	 123.145 	 
H 	 -99.2962 	 44.3804 	 123.946 	 
H 	 -100.434 	 44.4819 	 122.733 	 
C 	 -98.6066 	 43.3463 	 122.15 	 
H 	 -99.008 	 42.8571 	 121.341 	 
H 	 -97.8195 	 42.8251 	 122.619 	 
H 	 -98.0261 	 44.1904 	 121.798 	 
H 	 -98.8767 	 40.2471 	 129.498 	 
H 	 -104.277 	 45.0938 	 125.334 	 
*
