! wB97X-D3 SP def2-SVP
%pal
nprocs 16
end

* xyz 0 1
S 	 0.0940811 	 -16.4306 	 91.5936 	 
C 	 0.34698 	 -15.4489 	 90.2334 	 
C 	 0.451689 	 -16.212 	 89.0894 	 
C 	 0.453813 	 -17.637 	 89.3495 	 
C 	 0.407202 	 -17.933 	 90.7056 	 
H 	 0.528847 	 -18.3889 	 88.6218 	 
C 	 0.204587 	 -15.6226 	 87.6878 	 
H 	 0.942982 	 -16.1493 	 87.073 	 
H 	 0.529762 	 -14.6365 	 87.8403 	 
C 	 -1.2182 	 -15.8082 	 87.1653 	 
H 	 -1.27269 	 -15.3787 	 86.1318 	 
H 	 -1.50439 	 -16.8252 	 86.8615 	 
C 	 -2.32759 	 -15.2645 	 88.0541 	 
H 	 -2.54165 	 -15.9601 	 88.8459 	 
H 	 -2.12752 	 -14.2969 	 88.4406 	 
H 	 -3.23778 	 -15.267 	 87.4649 	 
S 	 1.31414 	 -19.3274 	 92.858 	 
C 	 1.66085 	 -21.0009 	 92.7416 	 
C 	 1.16491 	 -21.5409 	 91.5593 	 
C 	 0.491064 	 -20.5575 	 90.7756 	 
C 	 0.605075 	 -19.2521 	 91.2751 	 
H 	 1.45186 	 -22.5145 	 91.2902 	 
C 	 -0.0703949 	 -20.885 	 89.4057 	 
H 	 -0.750997 	 -19.9998 	 89.126 	 
H 	 -0.798356 	 -21.6487 	 89.3184 	 
C 	 0.957554 	 -21.1319 	 88.312 	 
H 	 1.35124 	 -22.1764 	 88.4547 	 
H 	 1.82125 	 -20.3699 	 88.4401 	 
C 	 0.396051 	 -21.1283 	 86.9236 	 
H 	 0.367761 	 -20.1726 	 86.4952 	 
H 	 -0.488026 	 -21.7811 	 86.9091 	 
H 	 1.19394 	 -21.5759 	 86.3268 	 
H 	 0.21071 	 -14.4027 	 90.2886 	 
H 	 2.44224 	 -21.6016 	 93.2883 	 
*
