! wB97X-D3 SP def2-SVP
%pal
nprocs 16
end

* xyz 0 1
S 	 -82.0079 	 35.0898 	 135.409 	 
C 	 -80.3489 	 34.8604 	 135.902 	 
C 	 -79.7723 	 36.1376 	 136.196 	 
C 	 -80.5862 	 37.2136 	 135.781 	 
C 	 -81.8062 	 36.8271 	 135.292 	 
H 	 -80.4696 	 38.2917 	 135.847 	 
C 	 -78.4345 	 36.4239 	 136.78 	 
H 	 -78.3959 	 37.4945 	 136.923 	 
H 	 -77.6853 	 36.2592 	 136.034 	 
C 	 -78.041 	 35.585 	 138.055 	 
H 	 -77.9027 	 34.5408 	 137.732 	 
H 	 -77.1122 	 35.8372 	 138.386 	 
C 	 -78.9724 	 35.6541 	 139.244 	 
H 	 -78.8194 	 36.6433 	 139.671 	 
H 	 -80.0453 	 35.4892 	 138.934 	 
H 	 -78.7292 	 34.8658 	 139.98 	 
S 	 -84.3752 	 37.6317 	 135.923 	 
C 	 -85.0821 	 38.9585 	 135.025 	 
C 	 -84.2135 	 39.5196 	 134.104 	 
C 	 -82.9464 	 38.8649 	 134.109 	 
C 	 -82.9404 	 37.7322 	 134.943 	 
H 	 -84.4912 	 40.4566 	 133.605 	 
C 	 -81.8863 	 39.343 	 133.164 	 
H 	 -82.4138 	 39.6964 	 132.22 	 
H 	 -81.3431 	 38.4361 	 132.786 	 
C 	 -80.9196 	 40.4732 	 133.648 	 
H 	 -80.3691 	 40.2395 	 134.624 	 
H 	 -81.4229 	 41.3966 	 133.73 	 
C 	 -79.7981 	 40.7006 	 132.602 	 
H 	 -80.0558 	 40.8909 	 131.53 	 
H 	 -79.0539 	 39.8378 	 132.612 	 
H 	 -79.2482 	 41.6345 	 132.741 	 
H 	 -79.9817 	 33.9321 	 136.278 	 
H 	 -85.9612 	 39.5631 	 135.253 	 
*
