! wB97X-D3 SP def2-SVP
%pal
nprocs 16
end

* xyz 0 1
S 	 -26.994 	 -6.91815 	 87.9969 	 
C 	 -28.6905 	 -7.15422 	 88.0877 	 
C 	 -29.3378 	 -6.19497 	 88.8574 	 
C 	 -28.4108 	 -5.22161 	 89.3912 	 
C 	 -27.0536 	 -5.4352 	 88.992 	 
H 	 -28.5976 	 -4.41713 	 90.0272 	 
C 	 -30.8378 	 -6.08445 	 89.1787 	 
H 	 -30.9971 	 -5.6255 	 90.1232 	 
H 	 -31.2717 	 -7.11307 	 89.2809 	 
C 	 -31.6825 	 -5.26838 	 88.1681 	 
H 	 -31.6697 	 -5.7315 	 87.1641 	 
H 	 -32.7263 	 -5.44035 	 88.3714 	 
C 	 -31.3695 	 -3.77866 	 88.3133 	 
H 	 -31.8845 	 -3.21214 	 87.5668 	 
H 	 -31.6948 	 -3.53405 	 89.2664 	 
H 	 -30.3025 	 -3.55839 	 88.1395 	 
S 	 -24.4855 	 -6.07816 	 90.013 	 
C 	 -23.6343 	 -4.90641 	 90.8267 	 
C 	 -24.2301 	 -3.68019 	 90.7673 	 
C 	 -25.4395 	 -3.66123 	 90.0384 	 
C 	 -25.8142 	 -4.90542 	 89.5948 	 
H 	 -23.8696 	 -2.8754 	 91.4163 	 
C 	 -26.4303 	 -2.44101 	 90.0241 	 
H 	 -26.6995 	 -2.34416 	 91.049 	 
H 	 -27.317 	 -2.63855 	 89.4523 	 
C 	 -25.8298 	 -1.17411 	 89.5265 	 
H 	 -25.6027 	 -1.40046 	 88.5054 	 
H 	 -24.8302 	 -1.03939 	 90.0843 	 
C 	 -26.6793 	 0.0959611 	 89.541 	 
H 	 -26.0078 	 0.829761 	 89.0347 	 
H 	 -26.9928 	 0.50471 	 90.5395 	 
H 	 -27.5066 	 0.0225226 	 88.8571 	 
H 	 -29.2946 	 -7.90791 	 87.5789 	 
H 	 -22.7753 	 -5.16761 	 91.4867 	 
*
