! wB97X-D3 SP def2-SVP
%pal
nprocs 16
end

* xyz 0 1
S 	 -45.3543 	 26.1028 	 86.1407 	 
C 	 -46.8066 	 26.9506 	 85.5656 	 
C 	 -46.6602 	 27.6416 	 84.3543 	 
C 	 -45.3399 	 27.4501 	 83.9093 	 
C 	 -44.5119 	 26.7137 	 84.7345 	 
H 	 -44.9479 	 27.8625 	 82.9834 	 
C 	 -47.6464 	 28.5133 	 83.7313 	 
H 	 -47.1456 	 28.9928 	 82.8733 	 
H 	 -47.9886 	 29.36 	 84.3805 	 
C 	 -48.7905 	 27.7844 	 83.032 	 
H 	 -48.4603 	 26.9153 	 82.4781 	 
H 	 -49.5467 	 27.4794 	 83.792 	 
C 	 -49.6055 	 28.6585 	 82.1083 	 
H 	 -49.0314 	 29.0586 	 81.2619 	 
H 	 -50.2821 	 27.9057 	 81.7229 	 
H 	 -50.1952 	 29.4867 	 82.4873 	 
S 	 -42.7383 	 25.5947 	 83.0326 	 
C 	 -41.1168 	 25.2416 	 83.4864 	 
C 	 -40.8644 	 25.723 	 84.7548 	 
C 	 -42.0298 	 26.4264 	 85.334 	 
C 	 -43.1247 	 26.3252 	 84.5098 	 
H 	 -39.8876 	 25.511 	 85.2349 	 
C 	 -41.9887 	 26.9943 	 86.7413 	 
H 	 -41.0566 	 26.6542 	 87.161 	 
H 	 -42.7219 	 26.4303 	 87.2168 	 
C 	 -42.3293 	 28.5179 	 87.0551 	 
H 	 -42.5041 	 28.782 	 88.1167 	 
H 	 -43.2566 	 28.8949 	 86.5064 	 
C 	 -41.2531 	 29.3549 	 86.5239 	 
H 	 -41.3239 	 30.4169 	 86.8359 	 
H 	 -41.137 	 29.2183 	 85.5126 	 
H 	 -40.3415 	 29.1006 	 86.9485 	 
H 	 -47.6313 	 27.1418 	 86.2929 	 
H 	 -40.3977 	 24.8237 	 82.7911 	 
*
