! wB97X-D3 SP def2-SVP
%pal
nprocs 16
end

* xyz 0 1
S 	 12.3325 	 -2.68401 	 62.494 	 
C 	 12.3133 	 -3.86688 	 61.1028 	 
C 	 12.2025 	 -3.22611 	 59.8975 	 
C 	 12.1645 	 -1.79728 	 60.0534 	 
C 	 12.3749 	 -1.32772 	 61.3596 	 
H 	 12.0989 	 -1.00569 	 59.2475 	 
C 	 12.0702 	 -3.93148 	 58.5713 	 
H 	 11.9884 	 -3.26183 	 57.7699 	 
H 	 11.0774 	 -4.47016 	 58.6198 	 
C 	 13.2742 	 -4.91663 	 58.3322 	 
H 	 14.0825 	 -4.26005 	 57.9133 	 
H 	 13.6947 	 -5.42557 	 59.2026 	 
C 	 12.9988 	 -5.929 	 57.1676 	 
H 	 12.9304 	 -5.35973 	 56.1752 	 
H 	 13.9205 	 -6.47698 	 57.1367 	 
H 	 12.1364 	 -6.58239 	 57.2796 	 
S 	 13.7445 	 0.820786 	 62.5403 	 
C 	 12.7843 	 2.19872 	 63.0651 	 
C 	 11.5781 	 2.1932 	 62.4518 	 
C 	 11.3228 	 1.00204 	 61.6558 	 
C 	 12.2929 	 0.0518502 	 61.8534 	 
H 	 10.9412 	 3.0413 	 62.6562 	 
C 	 10.0319 	 0.838273 	 60.9795 	 
H 	 10.2368 	 0.650502 	 59.8743 	 
H 	 9.4332 	 1.75036 	 60.786 	 
C 	 9.21464 	 -0.362927 	 61.5385 	 
H 	 9.40775 	 -0.19048 	 62.6787 	 
H 	 9.71515 	 -1.3486 	 61.4983 	 
C 	 7.8342 	 -0.625926 	 61.1241 	 
H 	 7.43456 	 -1.46269 	 61.7342 	 
H 	 7.6552 	 -0.810707 	 60.0249 	 
H 	 7.11631 	 0.228803 	 61.3006 	 
H 	 12.1167 	 -4.95755 	 61.2086 	 
H 	 13.2336 	 3.09319 	 63.5256 	 
*
