! wB97X-D3 SP def2-SVP
%pal
nprocs 16
end

* xyz 0 1
S 	 8.47848 	 -18.0078 	 86.2466 	 
C 	 7.59707 	 -19.5026 	 86.515 	 
C 	 6.24659 	 -19.319 	 86.2728 	 
C 	 5.92383 	 -17.9122 	 86.0486 	 
C 	 7.00041 	 -17.0505 	 85.9614 	 
H 	 4.90023 	 -17.5627 	 85.8979 	 
C 	 5.24966 	 -20.4909 	 86.2871 	 
H 	 5.26599 	 -20.9395 	 87.2665 	 
H 	 5.57857 	 -21.2723 	 85.6534 	 
C 	 3.74358 	 -20.2036 	 86.1354 	 
H 	 3.23929 	 -21.13 	 86.4149 	 
H 	 3.34451 	 -19.3893 	 86.8177 	 
C 	 3.29411 	 -20.0158 	 84.7121 	 
H 	 3.56997 	 -19.092 	 84.1764 	 
H 	 3.4224 	 -20.9074 	 84.0273 	 
H 	 2.26727 	 -19.833 	 84.7335 	 
S 	 5.93929 	 -15.0836 	 84.3022 	 
C 	 6.41065 	 -13.3967 	 84.5452 	 
C 	 7.27026 	 -13.3321 	 85.6532 	 
C 	 7.58541 	 -14.5699 	 86.1988 	 
C 	 6.98658 	 -15.6501 	 85.6022 	 
H 	 7.54636 	 -12.3819 	 86.0679 	 
C 	 8.60986 	 -14.6564 	 87.3774 	 
H 	 8.5932 	 -15.6389 	 87.8793 	 
H 	 8.26726 	 -14.0043 	 88.2597 	 
C 	 10.075 	 -14.3447 	 86.9688 	 
H 	 10.736 	 -14.5142 	 87.7846 	 
H 	 10.1803 	 -13.3194 	 86.8291 	 
C 	 10.4938 	 -15.1613 	 85.8232 	 
H 	 10.5643 	 -16.229 	 86.0675 	 
H 	 11.5399 	 -14.913 	 85.4639 	 
H 	 9.87097 	 -14.9903 	 84.9309 	 
H 	 8.14756 	 -20.4372 	 86.7247 	 
H 	 6.12623 	 -12.6019 	 83.9384 	 
*
