! wB97X-D3 SP def2-SVP
%pal
nprocs 16
end

* xyz 0 1
S 	 -82.7214 	 37.9102 	 130.712 	 
C 	 -81.9498 	 37.4384 	 132.247 	 
C 	 -82.257 	 38.2887 	 133.337 	 
C 	 -83.1287 	 39.3636 	 132.908 	 
C 	 -83.4871 	 39.3564 	 131.581 	 
H 	 -83.5468 	 40.2158 	 133.478 	 
C 	 -81.5356 	 38.2074 	 134.68 	 
H 	 -81.6692 	 39.1584 	 135.224 	 
H 	 -80.4686 	 38.1413 	 134.593 	 
C 	 -81.8743 	 37.1858 	 135.759 	 
H 	 -81.4836 	 36.2422 	 135.492 	 
H 	 -81.5203 	 37.3987 	 136.767 	 
C 	 -83.4307 	 37.0704 	 136 	 
H 	 -83.6725 	 36.2615 	 136.601 	 
H 	 -83.6745 	 38.0274 	 136.518 	 
H 	 -84.1272 	 36.9728 	 135.199 	 
S 	 -85.549 	 39.8488 	 129.931 	 
C 	 -85.7998 	 41.4576 	 129.473 	 
C 	 -84.9426 	 42.4148 	 129.92 	 
C 	 -83.9496 	 41.7957 	 130.722 	 
C 	 -84.1316 	 40.428 	 130.788 	 
H 	 -85.0209 	 43.458 	 129.779 	 
C 	 -83.0391 	 42.5865 	 131.614 	 
H 	 -82.6104 	 43.3454 	 130.98 	 
H 	 -82.3058 	 41.8619 	 131.963 	 
C 	 -83.6559 	 43.3076 	 132.81 	 
H 	 -84.3873 	 42.6045 	 133.218 	 
H 	 -84.2498 	 44.1871 	 132.57 	 
C 	 -82.7857 	 43.6356 	 133.958 	 
H 	 -82.135 	 44.4997 	 133.799 	 
H 	 -82.1482 	 42.7647 	 134.242 	 
H 	 -83.4165 	 43.7734 	 134.85 	 
H 	 -81.1649 	 36.6705 	 132.438 	 
H 	 -86.6294 	 41.7505 	 128.817 	 
*
