! wB97X-D3 SP def2-SVP
%pal
nprocs 16
end

* xyz 0 1
S 	 -69.2527 	 60.3903 	 127.949 	 
C 	 -67.6745 	 61.1561 	 127.897 	 
C 	 -67.5294 	 62.0652 	 126.902 	 
C 	 -68.6518 	 62.0125 	 125.994 	 
C 	 -69.6496 	 61.1942 	 126.456 	 
H 	 -68.7151 	 62.6432 	 125.092 	 
C 	 -66.2963 	 62.8748 	 126.607 	 
H 	 -66.1614 	 62.6986 	 125.528 	 
H 	 -65.4933 	 62.3981 	 127.041 	 
C 	 -66.1171 	 64.3939 	 126.942 	 
H 	 -65.3431 	 64.826 	 126.285 	 
H 	 -66.9744 	 64.9183 	 126.638 	 
C 	 -65.746 	 64.7067 	 128.406 	 
H 	 -65.1754 	 63.8599 	 128.817 	 
H 	 -65.1883 	 65.6347 	 128.349 	 
H 	 -66.6383 	 64.8549 	 129.032 	 
S 	 -72.3074 	 60.5595 	 126.79 	 
C 	 -73.3234 	 60.3878 	 125.282 	 
C 	 -72.6818 	 60.7169 	 124.17 	 
C 	 -71.2626 	 60.9466 	 124.404 	 
C 	 -70.8773 	 60.8578 	 125.771 	 
H 	 -73.131 	 60.638 	 123.241 	 
C 	 -70.312 	 61.2131 	 123.297 	 
H 	 -70.4314 	 60.4736 	 122.592 	 
H 	 -69.2653 	 61.0191 	 123.567 	 
C 	 -70.4827 	 62.5416 	 122.63 	 
H 	 -70.3433 	 63.2268 	 123.442 	 
H 	 -71.4739 	 62.7464 	 122.225 	 
C 	 -69.4783 	 62.845 	 121.442 	 
H 	 -68.413 	 62.8498 	 121.727 	 
H 	 -69.7156 	 63.7627 	 120.866 	 
H 	 -69.5997 	 62.1344 	 120.586 	 
H 	 -66.9031 	 60.9582 	 128.699 	 
H 	 -74.4571 	 60.2511 	 125.369 	 
*
