! wB97X-D3 SP def2-SVP
%pal
nprocs 16
end

* xyz 0 1
S 	 70.5532 	 23.1917 	 77.6329 	 
C 	 72.2348 	 22.9969 	 78.0537 	 
C 	 73.0463 	 23.5562 	 77.0389 	 
C 	 72.3314 	 24.1997 	 75.9509 	 
C 	 70.9447 	 24.1896 	 76.2066 	 
H 	 72.7863 	 24.7595 	 75.106 	 
C 	 74.4554 	 23.5971 	 77.255 	 
H 	 75.0313 	 23.5905 	 76.3671 	 
H 	 74.8633 	 22.7041 	 77.7502 	 
C 	 74.9863 	 24.8158 	 78.0152 	 
H 	 74.7086 	 24.7158 	 79.0856 	 
H 	 76.0834 	 24.7087 	 78.0723 	 
C 	 74.4397 	 26.1256 	 77.4539 	 
H 	 74.755 	 27.0487 	 77.9371 	 
H 	 74.6949 	 26.4022 	 76.3868 	 
H 	 73.3704 	 26.0493 	 77.4987 	 
S 	 68.6154 	 23.7729 	 74.8083 	 
C 	 68.0264 	 25.0336 	 73.7704 	 
C 	 68.828 	 26.1259 	 73.7874 	 
C 	 69.851 	 26.0674 	 74.7824 	 
C 	 69.9104 	 24.8096 	 75.3667 	 
H 	 68.5724 	 26.9384 	 73.1141 	 
C 	 70.8627 	 27.1529 	 74.9789 	 
H 	 70.5977 	 27.8825 	 74.2472 	 
H 	 71.7778 	 26.8557 	 74.7446 	 
C 	 70.9928 	 27.8122 	 76.346 	 
H 	 71.1703 	 27.0705 	 77.074 	 
H 	 69.9616 	 28.1171 	 76.5926 	 
C 	 71.8091 	 29.1959 	 76.3972 	 
H 	 71.6447 	 29.5763 	 75.4193 	 
H 	 72.8275 	 28.9053 	 76.6384 	 
H 	 71.3676 	 29.7874 	 77.1924 	 
H 	 72.4914 	 22.5023 	 78.9405 	 
H 	 67.0479 	 24.9212 	 73.2066 	 
*
