! wB97X-D3 SP def2-SVP
%pal
nprocs 16
end

* xyz 0 1
S 	 -51.5763 	 58.5386 	 130.402 	 
C 	 -51.0673 	 57.1026 	 131.215 	 
C 	 -50.437 	 57.4228 	 132.446 	 
C 	 -50.3229 	 58.8363 	 132.677 	 
C 	 -50.8599 	 59.5483 	 131.639 	 
H 	 -49.938 	 59.2415 	 133.564 	 
C 	 -50.0763 	 56.3703 	 133.459 	 
H 	 -50.7642 	 55.567 	 133.299 	 
H 	 -50.2994 	 56.852 	 134.478 	 
C 	 -48.7031 	 55.8292 	 133.206 	 
H 	 -48.7294 	 55.4202 	 132.233 	 
H 	 -47.9389 	 56.59 	 133.004 	 
C 	 -48.124 	 54.7961 	 134.15 	 
H 	 -48.9359 	 54.1793 	 134.531 	 
H 	 -47.3983 	 54.0913 	 133.737 	 
H 	 -47.7715 	 55.2799 	 135.13 	 
S 	 -49.997 	 61.4962 	 129.781 	 
C 	 -50.0429 	 63.155 	 130.043 	 
C 	 -50.5218 	 63.3866 	 131.318 	 
C 	 -50.8044 	 62.1652 	 132.075 	 
C 	 -50.7364 	 61.0197 	 131.325 	 
H 	 -50.6914 	 64.3762 	 131.619 	 
C 	 -51.4732 	 62.2544 	 133.462 	 
H 	 -50.784 	 62.8516 	 134.065 	 
H 	 -51.4985 	 61.2959 	 133.928 	 
C 	 -52.8548 	 62.9782 	 133.633 	 
H 	 -53.634 	 62.4551 	 133.068 	 
H 	 -52.798 	 63.967 	 133.163 	 
C 	 -53.2537 	 63.083 	 135.104 	 
H 	 -54.1197 	 63.8373 	 135.206 	 
H 	 -52.4591 	 63.5139 	 135.686 	 
H 	 -53.6708 	 62.1546 	 135.472 	 
H 	 -51.4243 	 56.176 	 130.84 	 
H 	 -49.8304 	 63.9689 	 129.376 	 
*
