! wB97X-D3 SP def2-SVP
%pal
nprocs 16
end

* xyz 0 1
S 	 -84.5619 	 52.7475 	 136.33 	 
C 	 -84.909 	 52.2243 	 137.947 	 
C 	 -83.8341 	 52.522 	 138.796 	 
C 	 -82.7019 	 53.0517 	 138.117 	 
C 	 -82.9522 	 53.2492 	 136.761 	 
H 	 -81.7487 	 53.3353 	 138.576 	 
C 	 -83.8262 	 52.3793 	 140.328 	 
H 	 -84.8441 	 52.1165 	 140.627 	 
H 	 -83.822 	 53.4181 	 140.617 	 
C 	 -82.5541 	 51.8248 	 141.047 	 
H 	 -82.559 	 50.7895 	 140.676 	 
H 	 -81.6477 	 52.4633 	 140.87 	 
C 	 -82.6147 	 51.6624 	 142.56 	 
H 	 -81.8496 	 51.0096 	 142.928 	 
H 	 -82.3296 	 52.7046 	 143.008 	 
H 	 -83.6161 	 51.4308 	 142.826 	 
S 	 -82.9959 	 54.9945 	 134.612 	 
C 	 -81.5337 	 55.3575 	 133.78 	 
C 	 -80.5181 	 54.5323 	 134.179 	 
C 	 -80.7915 	 53.8218 	 135.424 	 
C 	 -82.153 	 53.9948 	 135.764 	 
H 	 -79.616 	 54.4205 	 133.541 	 
C 	 -79.8814 	 52.7174 	 135.911 	 
H 	 -79.6934 	 52.1019 	 135.018 	 
H 	 -80.4374 	 52.1582 	 136.648 	 
C 	 -78.4848 	 53.1488 	 136.444 	 
H 	 -78.07 	 53.8712 	 135.764 	 
H 	 -77.7517 	 52.3501 	 136.37 	 
C 	 -78.5775 	 53.7452 	 137.943 	 
H 	 -77.6714 	 54.2216 	 138.237 	 
H 	 -78.6471 	 52.9783 	 138.6 	 
H 	 -79.3815 	 54.5261 	 137.937 	 
H 	 -85.9249 	 51.9492 	 138.33 	 
H 	 -81.5191 	 55.8453 	 132.825 	 
*
