! wB97X-D3 SP def2-SVP
%pal
nprocs 16
end

* xyz 0 1
S 	 -37.6216 	 68.8604 	 144.141 	 
C 	 -37.7083 	 68.0651 	 142.583 	 
C 	 -37.4351 	 66.719 	 142.699 	 
C 	 -36.9335 	 66.3799 	 143.998 	 
C 	 -37.1239 	 67.3821 	 144.937 	 
H 	 -36.6349 	 65.3919 	 144.304 	 
C 	 -37.5031 	 65.6718 	 141.601 	 
H 	 -36.9276 	 64.8475 	 142.033 	 
H 	 -36.997 	 66.0634 	 140.762 	 
C 	 -38.8512 	 65.1349 	 141.163 	 
H 	 -39.5955 	 65.898 	 141.034 	 
H 	 -38.691 	 64.6792 	 140.085 	 
C 	 -39.2986 	 64.0735 	 142.23 	 
H 	 -38.477 	 63.4003 	 142.441 	 
H 	 -39.6116 	 64.5667 	 143.099 	 
H 	 -40.0545 	 63.4606 	 141.838 	 
S 	 -38.8196 	 66.9629 	 147.156 	 
C 	 -38.0429 	 67.2189 	 148.778 	 
C 	 -36.6745 	 67.4048 	 148.717 	 
C 	 -36.2088 	 67.3503 	 147.364 	 
C 	 -37.2277 	 67.2712 	 146.394 	 
H 	 -36.135 	 67.8149 	 149.511 	 
C 	 -34.7083 	 67.6862 	 147 	 
H 	 -34.5096 	 68.6522 	 147.539 	 
H 	 -34.642 	 67.8356 	 145.93 	 
C 	 -33.6772 	 66.6746 	 147.475 	 
H 	 -33.7659 	 65.7112 	 146.962 	 
H 	 -33.886 	 66.3686 	 148.473 	 
C 	 -32.2493 	 67.0809 	 147.274 	 
H 	 -31.5086 	 66.2697 	 147.461 	 
H 	 -31.849 	 67.8136 	 147.937 	 
H 	 -32.0826 	 67.3569 	 146.171 	 
H 	 -38.0485 	 68.5768 	 141.719 	 
H 	 -38.5225 	 67.4358 	 149.707 	 
*
