! wB97X-D3 SP def2-SVP
%pal
nprocs 16
end

* xyz 0 1
S 	 -32.363 	 38.8609 	 102.007 	 
C 	 -32.5874 	 37.481 	 100.876 	 
C 	 -33.6591 	 37.7285 	 100.025 	 
C 	 -34.3649 	 38.9592 	 100.412 	 
C 	 -33.8183 	 39.6772 	 101.427 	 
H 	 -35.2651 	 39.2537 	 99.9444 	 
C 	 -34.0358 	 36.786 	 98.9241 	 
H 	 -33.1316 	 36.2379 	 98.6351 	 
H 	 -34.3458 	 37.4251 	 98.1172 	 
C 	 -35.1953 	 35.7836 	 99.2542 	 
H 	 -34.9788 	 35.1123 	 100.072 	 
H 	 -35.9743 	 36.4763 	 99.6513 	 
C 	 -35.7153 	 35.0782 	 97.9843 	 
H 	 -36.301 	 35.7562 	 97.367 	 
H 	 -34.8425 	 34.8185 	 97.3695 	 
H 	 -36.1865 	 34.1273 	 98.2355 	 
S 	 -35.0738 	 42.0317 	 101.054 	 
C 	 -35.4816 	 43.0407 	 102.313 	 
C 	 -35.194 	 42.4586 	 103.571 	 
C 	 -34.623 	 41.1732 	 103.434 	 
C 	 -34.4965 	 40.7771 	 102.108 	 
H 	 -35.4083 	 42.9449 	 104.474 	 
C 	 -34.2359 	 40.2974 	 104.618 	 
H 	 -34.067 	 39.2838 	 104.19 	 
H 	 -35.0373 	 40.3071 	 105.392 	 
C 	 -32.9121 	 40.6757 	 105.357 	 
H 	 -32.8922 	 41.7454 	 105.645 	 
H 	 -32.0306 	 40.5681 	 104.722 	 
C 	 -32.6517 	 39.9194 	 106.689 	 
H 	 -31.6549 	 40.0775 	 107.097 	 
H 	 -32.7401 	 38.9166 	 106.558 	 
H 	 -33.3595 	 40.1545 	 107.474 	 
H 	 -32.1278 	 36.5299 	 101.058 	 
H 	 -35.8615 	 44.0236 	 102.184 	 
*
