! wB97X-D3 SP def2-SVP
%pal
nprocs 16
end

* xyz 0 1
S 	 -57.2558 	 39.0082 	 117.486 	 
C 	 -57.7053 	 37.5032 	 118.344 	 
C 	 -57.4186 	 36.477 	 117.5 	 
C 	 -56.9562 	 36.9198 	 116.221 	 
C 	 -56.6173 	 38.2294 	 116.116 	 
H 	 -56.8367 	 36.2008 	 115.438 	 
C 	 -57.7058 	 35.0596 	 117.956 	 
H 	 -58.8063 	 34.969 	 118.031 	 
H 	 -57.4198 	 34.9842 	 118.981 	 
C 	 -57.2132 	 33.8151 	 117.244 	 
H 	 -57.5482 	 32.9779 	 117.912 	 
H 	 -57.7452 	 33.7165 	 116.269 	 
C 	 -55.7252 	 33.8073 	 117.018 	 
H 	 -55.2982 	 33.8 	 118.042 	 
H 	 -55.56 	 32.8559 	 116.396 	 
H 	 -55.4256 	 34.6963 	 116.435 	 
S 	 -57.1417 	 40.1083 	 114.203 	 
C 	 -56.0128 	 40.4203 	 112.917 	 
C 	 -54.8629 	 39.6657 	 113.003 	 
C 	 -54.9281 	 38.8088 	 114.188 	 
C 	 -56.1666 	 38.8504 	 114.871 	 
H 	 -54.0498 	 39.7679 	 112.23 	 
C 	 -53.6356 	 38.0762 	 114.62 	 
H 	 -53.7909 	 37.7091 	 115.64 	 
H 	 -52.8509 	 38.8192 	 114.689 	 
C 	 -53.1762 	 36.8878 	 113.738 	 
H 	 -52.1059 	 36.6912 	 113.924 	 
H 	 -53.259 	 37.2747 	 112.696 	 
C 	 -53.9785 	 35.6431 	 113.711 	 
H 	 -53.7202 	 35.0272 	 114.535 	 
H 	 -53.875 	 34.9037 	 112.884 	 
H 	 -55.0253 	 35.9101 	 113.784 	 
H 	 -58.152 	 37.3041 	 119.324 	 
H 	 -56.2259 	 41.0682 	 111.983 	 
*
