! wB97X-D3 SP def2-SVP
%pal
nprocs 16
end

* xyz 0 1
S 	 -69.3173 	 36.2025 	 136.355 	 
C 	 -68.4545 	 36.7787 	 134.998 	 
C 	 -67.0939 	 36.5956 	 135.133 	 
C 	 -66.8495 	 35.7614 	 136.283 	 
C 	 -67.9697 	 35.4515 	 137.017 	 
H 	 -65.8481 	 35.3441 	 136.488 	 
C 	 -66.0738 	 36.9665 	 134.102 	 
H 	 -66.4901 	 37.0541 	 133.168 	 
H 	 -65.2952 	 36.157 	 133.959 	 
C 	 -65.2933 	 38.261 	 134.417 	 
H 	 -64.7196 	 38.6453 	 133.606 	 
H 	 -65.9506 	 39.0908 	 134.514 	 
C 	 -64.2702 	 38.0661 	 135.508 	 
H 	 -64.7407 	 37.9729 	 136.487 	 
H 	 -63.719 	 37.3326 	 135.174 	 
H 	 -63.5893 	 38.9399 	 135.501 	 
S 	 -67.0204 	 35.0478 	 139.543 	 
C 	 -67.31 	 33.5176 	 140.413 	 
C 	 -68.3085 	 32.7755 	 139.736 	 
C 	 -68.7154 	 33.3637 	 138.472 	 
C 	 -68.0796 	 34.5869 	 138.191 	 
H 	 -68.6193 	 31.8069 	 140.102 	 
C 	 -69.7415 	 32.6833 	 137.588 	 
H 	 -70.436 	 33.3799 	 137.239 	 
H 	 -70.453 	 31.9905 	 138.149 	 
C 	 -69.0278 	 32.019 	 136.397 	 
H 	 -68.5416 	 32.8133 	 135.869 	 
H 	 -69.8735 	 31.6709 	 135.75 	 
C 	 -68.1691 	 30.781 	 136.763 	 
H 	 -67.3148 	 30.8896 	 137.382 	 
H 	 -67.9515 	 30.3385 	 135.849 	 
H 	 -68.8056 	 30.0674 	 137.187 	 
H 	 -68.9092 	 37.2569 	 134.15 	 
H 	 -66.929 	 33.2586 	 141.373 	 
*
