! wB97X-D3 SP def2-SVP
%pal
nprocs 16
end

* xyz 0 1
S 	 -98.8169 	 56.9819 	 113.77 	 
C 	 -98.8802 	 56.3566 	 112.209 	 
C 	 -99.5423 	 55.1689 	 112.158 	 
C 	 -99.9524 	 54.7886 	 113.487 	 
C 	 -99.6338 	 55.6693 	 114.491 	 
H 	 -100.498 	 53.8417 	 113.643 	 
C 	 -99.8076 	 54.342 	 110.955 	 
H 	 -99.5722 	 54.8212 	 110.008 	 
H 	 -100.874 	 54.2163 	 110.919 	 
C 	 -99.1442 	 52.9338 	 110.951 	 
H 	 -98.1436 	 53.1457 	 110.568 	 
H 	 -98.9398 	 52.5582 	 111.917 	 
C 	 -99.9927 	 51.983 	 110.021 	 
H 	 -101.003 	 51.6851 	 110.401 	 
H 	 -99.929 	 52.3934 	 109.044 	 
H 	 -99.4047 	 51.0566 	 110.012 	 
S 	 -101.445 	 55.0383 	 116.41 	 
C 	 -101.166 	 55.4666 	 118.016 	 
C 	 -99.9825 	 56.2135 	 118.198 	 
C 	 -99.1981 	 56.2931 	 116.97 	 
C 	 -99.8577 	 55.6425 	 115.899 	 
H 	 -99.6583 	 56.6333 	 119.175 	 
C 	 -97.8031 	 56.9765 	 116.897 	 
H 	 -97.8575 	 58.0596 	 116.678 	 
H 	 -97.2949 	 56.5106 	 116.075 	 
C 	 -96.796 	 56.7376 	 118.051 	 
H 	 -97.2582 	 56.8294 	 119.039 	 
H 	 -95.9994 	 57.5492 	 117.976 	 
C 	 -96.1831 	 55.2438 	 117.89 	 
H 	 -97.0398 	 54.5592 	 117.934 	 
H 	 -95.455 	 54.8431 	 118.612 	 
H 	 -95.6782 	 55.1054 	 116.912 	 
H 	 -98.5837 	 56.9632 	 111.3 	 
H 	 -101.854 	 55.337 	 118.791 	 
*
