! wB97X-D3 SP def2-SVP
%pal
nprocs 16
end

* xyz 0 1
S 	 -1.75585 	 -13.4296 	 93.8826 	 
C 	 -3.43162 	 -13.9624 	 94.2683 	 
C 	 -4.15009 	 -14.1959 	 93.1209 	 
C 	 -3.39889 	 -13.8619 	 91.9218 	 
C 	 -2.13296 	 -13.4016 	 92.1573 	 
H 	 -3.87695 	 -13.9396 	 90.9144 	 
C 	 -5.6268 	 -14.7107 	 93.0239 	 
H 	 -5.77915 	 -15.2246 	 93.9736 	 
H 	 -5.52244 	 -15.3893 	 92.2033 	 
C 	 -6.72416 	 -13.7539 	 92.7889 	 
H 	 -6.53529 	 -13.3425 	 91.7864 	 
H 	 -7.70872 	 -14.2273 	 92.8459 	 
C 	 -6.85365 	 -12.6773 	 93.9201 	 
H 	 -7.75971 	 -12.1559 	 93.8229 	 
H 	 -6.84264 	 -13.1637 	 94.9599 	 
H 	 -6.01716 	 -12.0171 	 93.8781 	 
S 	 -0.410763 	 -11.3173 	 91.4196 	 
C 	 0.205632 	 -11.3685 	 89.8093 	 
C 	 -0.185706 	 -12.4149 	 89.0692 	 
C 	 -1.095 	 -13.2233 	 89.8329 	 
C 	 -1.27296 	 -12.7874 	 91.0979 	 
H 	 0.0216282 	 -12.4733 	 88.0007 	 
C 	 -1.85343 	 -14.2447 	 89.0921 	 
H 	 -2.26928 	 -14.9744 	 89.759 	 
H 	 -1.21334 	 -14.7844 	 88.45 	 
C 	 -2.94261 	 -13.6472 	 88.2052 	 
H 	 -2.44369 	 -13.2413 	 87.307 	 
H 	 -3.49809 	 -12.8846 	 88.7235 	 
C 	 -3.97267 	 -14.6643 	 87.7308 	 
H 	 -4.47921 	 -15.0009 	 88.5878 	 
H 	 -3.61789 	 -15.5627 	 87.2435 	 
H 	 -4.66441 	 -14.0853 	 87.0833 	 
H 	 -3.82942 	 -14.0978 	 95.267 	 
H 	 0.672391 	 -10.4712 	 89.3918 	 
*
