! wB97X-D3 SP def2-SVP
%pal
nprocs 16
end

* xyz 0 1
S 	 0.52475 	 15.4551 	 89.1216 	 
C 	 -0.761581 	 15.3526 	 87.9776 	 
C 	 -2.00268 	 15.0976 	 88.4892 	 
C 	 -1.89134 	 14.8952 	 89.9117 	 
C 	 -0.609987 	 14.8294 	 90.386 	 
H 	 -2.69114 	 14.9376 	 90.5789 	 
C 	 -3.32922 	 15.4537 	 87.7874 	 
H 	 -4.13918 	 14.9556 	 88.3744 	 
H 	 -3.21567 	 14.9112 	 86.8145 	 
C 	 -3.76838 	 16.9228 	 87.5959 	 
H 	 -3.93514 	 17.3566 	 88.5634 	 
H 	 -2.91928 	 17.4501 	 87.1045 	 
C 	 -5.04671 	 17.0324 	 86.8041 	 
H 	 -5.37 	 18.0499 	 86.7574 	 
H 	 -4.94901 	 16.6624 	 85.7132 	 
H 	 -5.74774 	 16.4159 	 87.329 	 
S 	 0.466463 	 16.1837 	 92.5141 	 
C 	 0.480402 	 15.503 	 94.0812 	 
C 	 0.16948 	 14.1706 	 94.0554 	 
C 	 -0.372521 	 13.7503 	 92.768 	 
C 	 -0.298098 	 14.7249 	 91.7928 	 
H 	 0.332932 	 13.7114 	 94.9793 	 
C 	 -0.984536 	 12.413 	 92.5808 	 
H 	 -2.0056 	 12.5212 	 92.2775 	 
H 	 -0.951418 	 11.9453 	 93.6275 	 
C 	 -0.262668 	 11.4366 	 91.5975 	 
H 	 -0.48684 	 11.7467 	 90.5909 	 
H 	 -0.786767 	 10.4704 	 91.5953 	 
C 	 1.24858 	 11.313 	 91.9112 	 
H 	 1.44846 	 10.8367 	 92.8789 	 
H 	 1.60369 	 12.3061 	 92.0517 	 
H 	 1.90657 	 10.8211 	 91.1896 	 
H 	 -0.55726 	 15.6725 	 86.9517 	 
H 	 0.794968 	 15.9394 	 94.9612 	 
*
