! wB97X-D3 SP def2-SVP
%pal
nprocs 16
end

* xyz 0 1
S 	 4.71999 	 76.2038 	 47.9881 	 
C 	 4.17654 	 74.7456 	 47.1492 	 
C 	 5.34797 	 74.2602 	 46.5226 	 
C 	 6.54839 	 74.925 	 46.8945 	 
C 	 6.4691 	 75.9441 	 47.739 	 
H 	 7.46612 	 74.5702 	 46.4969 	 
C 	 5.34703 	 73.0674 	 45.6624 	 
H 	 6.37215 	 73.01 	 45.3249 	 
H 	 4.79247 	 73.225 	 44.7061 	 
C 	 4.86584 	 71.7628 	 46.3496 	 
H 	 5.46339 	 71.6345 	 47.2568 	 
H 	 3.85398 	 71.8731 	 46.6491 	 
C 	 5.12427 	 70.6184 	 45.4843 	 
H 	 6.14754 	 70.637 	 45.1475 	 
H 	 4.98692 	 69.6763 	 46.1204 	 
H 	 4.35527 	 70.6902 	 44.6647 	 
S 	 7.39498 	 78.3026 	 46.9473 	 
C 	 9.05064 	 78.8137 	 47.2463 	 
C 	 9.58138 	 78.0351 	 48.2423 	 
C 	 8.75369 	 76.8994 	 48.6014 	 
C 	 7.53635 	 76.9274 	 47.9897 	 
H 	 10.4935 	 78.3415 	 48.5846 	 
C 	 9.08236 	 75.8717 	 49.6768 	 
H 	 10.21 	 76.034 	 49.7212 	 
H 	 8.8606 	 74.894 	 49.3689 	 
C 	 8.26691 	 75.9193 	 50.9849 	 
H 	 8.37013 	 75.0053 	 51.5463 	 
H 	 7.22916 	 75.891 	 50.7597 	 
C 	 8.35907 	 77.1552 	 51.933 	 
H 	 9.32444 	 77.1314 	 52.4339 	 
H 	 7.56572 	 77.1168 	 52.6936 	 
H 	 8.32118 	 78.0501 	 51.4238 	 
H 	 3.29921 	 74.1382 	 47.2411 	 
H 	 9.39056 	 79.7245 	 46.8721 	 
*
