! wB97X-D3 SP def2-SVP
%pal
nprocs 16
end

* xyz 0 1
S 	 54.2167 	 13.8945 	 77.5313 	 
C 	 55.6157 	 14.0532 	 78.5741 	 
C 	 56.511 	 12.9682 	 78.3657 	 
C 	 56.1008 	 12.117 	 77.328 	 
C 	 54.8736 	 12.5119 	 76.7157 	 
H 	 56.6666 	 11.2699 	 76.9559 	 
C 	 57.8182 	 12.6592 	 79.0509 	 
H 	 57.7386 	 11.6464 	 79.4734 	 
H 	 58.1525 	 13.1753 	 79.9119 	 
C 	 59.0077 	 12.6638 	 78.0709 	 
H 	 58.963 	 11.8975 	 77.2865 	 
H 	 59.0618 	 13.6073 	 77.486 	 
C 	 60.3944 	 12.4404 	 78.7694 	 
H 	 60.4367 	 13.1622 	 79.5702 	 
H 	 60.422 	 11.3679 	 79.0681 	 
H 	 61.1573 	 12.5897 	 78.0942 	 
S 	 52.5643 	 11.5879 	 75.5622 	 
C 	 52.535 	 11.046 	 73.9544 	 
C 	 53.8017 	 10.868 	 73.4564 	 
C 	 54.8884 	 11.197 	 74.3916 	 
C 	 54.3287 	 11.7801 	 75.5768 	 
H 	 53.9268 	 10.5346 	 72.3982 	 
C 	 56.365 	 11.2313 	 74.0989 	 
H 	 56.7997 	 12.2422 	 74.4355 	 
H 	 56.3559 	 11.2362 	 72.9914 	 
C 	 57.1153 	 9.94147 	 74.4498 	 
H 	 56.8397 	 9.1808 	 73.7158 	 
H 	 56.8254 	 9.50095 	 75.4507 	 
C 	 58.6301 	 10.1335 	 74.4508 	 
H 	 59.0032 	 10.3464 	 73.4753 	 
H 	 59.1363 	 9.16552 	 74.789 	 
H 	 58.9261 	 10.906 	 75.1168 	 
H 	 55.9874 	 14.884 	 79.1717 	 
H 	 51.6261 	 10.8143 	 73.3165 	 
*
