! wB97X-D3 SP def2-SVP
%pal
nprocs 16
end

* xyz 0 1
S 	 -69.7225 	 38.0719 	 117.998 	 
C 	 -71.2206 	 37.5917 	 118.691 	 
C 	 -72.316 	 38.3965 	 118.286 	 
C 	 -71.8332 	 39.4741 	 117.455 	 
C 	 -70.4367 	 39.5075 	 117.316 	 
H 	 -72.3955 	 40.2825 	 116.944 	 
C 	 -73.8313 	 38.1618 	 118.489 	 
H 	 -73.9725 	 37.9877 	 119.557 	 
H 	 -74.0329 	 37.2013 	 118.019 	 
C 	 -74.8106 	 39.2369 	 117.89 	 
H 	 -74.7088 	 40.1667 	 118.537 	 
H 	 -74.4975 	 39.4421 	 116.868 	 
C 	 -76.306 	 39.0569 	 117.93 	 
H 	 -76.7339 	 38.7747 	 118.844 	 
H 	 -76.7962 	 39.985 	 117.651 	 
H 	 -76.6216 	 38.3547 	 117.123 	 
S 	 -68.2379 	 39.8317 	 115.673 	 
C 	 -67.9132 	 41.3845 	 114.927 	 
C 	 -68.7776 	 42.3223 	 115.36 	 
C 	 -69.8368 	 41.8299 	 116.19 	 
C 	 -69.6288 	 40.4698 	 116.573 	 
H 	 -68.6576 	 43.31 	 114.974 	 
C 	 -70.8838 	 42.773 	 116.646 	 
H 	 -70.2672 	 43.6902 	 116.812 	 
H 	 -71.4007 	 42.4723 	 117.51 	 
C 	 -71.9987 	 43.0419 	 115.545 	 
H 	 -72.5544 	 42.2072 	 115.317 	 
H 	 -71.5349 	 43.3365 	 114.636 	 
C 	 -72.8417 	 44.2257 	 115.996 	 
H 	 -73.1026 	 43.9249 	 116.99 	 
H 	 -73.7326 	 44.3024 	 115.467 	 
H 	 -72.2157 	 45.1147 	 115.9 	 
H 	 -71.3547 	 36.6544 	 119.16 	 
H 	 -67.2392 	 41.6055 	 114.142 	 
*
