! wB97X-D3 SP def2-SVP
%pal
nprocs 16
end

* xyz 0 1
S 	 -69.3744 	 41.3313 	 120.908 	 
C 	 -69.9219 	 41.785 	 122.584 	 
C 	 -69.3835 	 40.9024 	 123.518 	 
C 	 -68.7034 	 39.8155 	 122.858 	 
C 	 -68.822 	 39.7779 	 121.494 	 
H 	 -68.1664 	 39.0714 	 123.381 	 
C 	 -69.4731 	 41.0997 	 125.04 	 
H 	 -70.3505 	 41.8058 	 125.186 	 
H 	 -68.4819 	 41.6251 	 125.406 	 
C 	 -69.8943 	 39.896 	 125.951 	 
H 	 -70.8677 	 39.3387 	 125.632 	 
H 	 -69.2058 	 39.1665 	 125.848 	 
C 	 -70.0044 	 40.2544 	 127.468 	 
H 	 -70.478 	 39.4473 	 127.96 	 
H 	 -69.0352 	 40.3474 	 127.869 	 
H 	 -70.5168 	 41.2217 	 127.608 	 
S 	 -67.0486 	 39.5359 	 119.54 	 
C 	 -66.8705 	 38.0588 	 118.736 	 
C 	 -67.5032 	 36.9927 	 119.353 	 
C 	 -68.3438 	 37.4657 	 120.402 	 
C 	 -68.1757 	 38.8435 	 120.581 	 
H 	 -67.4025 	 35.8931 	 119.006 	 
C 	 -69.3976 	 36.576 	 121.089 	 
H 	 -69.76 	 35.8829 	 120.27 	 
H 	 -70.2159 	 37.2162 	 121.535 	 
C 	 -68.8009 	 35.5855 	 122.14 	 
H 	 -68.1642 	 34.847 	 121.629 	 
H 	 -69.6865 	 34.9228 	 122.508 	 
C 	 -68.0856 	 36.1595 	 123.325 	 
H 	 -67.8312 	 35.3867 	 124.079 	 
H 	 -68.6652 	 36.8868 	 123.901 	 
H 	 -67.1413 	 36.6633 	 123.023 	 
H 	 -70.4685 	 42.7053 	 122.758 	 
H 	 -66.4046 	 38.0308 	 117.762 	 
*
