! wB97X-D3 SP def2-SVP
%pal
nprocs 16
end

* xyz 0 1
S 	 -37.1271 	 53.6102 	 105.096 	 
C 	 -38.0819 	 52.3844 	 104.294 	 
C 	 -37.7044 	 52.3197 	 102.919 	 
C 	 -36.724 	 53.3593 	 102.557 	 
C 	 -36.4769 	 54.2372 	 103.589 	 
H 	 -36.1921 	 53.5549 	 101.569 	 
C 	 -38.3454 	 51.4643 	 101.869 	 
H 	 -38.9829 	 52.0708 	 101.22 	 
H 	 -38.9826 	 50.8073 	 102.416 	 
C 	 -37.4334 	 50.5173 	 101.002 	 
H 	 -36.9593 	 51.1769 	 100.311 	 
H 	 -36.6044 	 50.0463 	 101.583 	 
C 	 -38.2432 	 49.4303 	 100.29 	 
H 	 -37.5378 	 48.767 	 99.8877 	 
H 	 -38.88 	 48.8489 	 100.942 	 
H 	 -38.9684 	 49.8304 	 99.5502 	 
S 	 -33.9291 	 55.1379 	 103.316 	 
C 	 -33.5831 	 56.7634 	 103.019 	 
C 	 -34.7417 	 57.5903 	 103.153 	 
C 	 -35.9001 	 56.7479 	 103.437 	 
C 	 -35.6288 	 55.4171 	 103.514 	 
H 	 -34.6423 	 58.6675 	 103.124 	 
C 	 -37.2825 	 57.3569 	 103.68 	 
H 	 -37.9843 	 56.5241 	 103.943 	 
H 	 -37.7572 	 57.8527 	 102.789 	 
C 	 -37.3169 	 58.3544 	 104.898 	 
H 	 -36.5717 	 59.1509 	 104.763 	 
H 	 -37.0765 	 57.7017 	 105.789 	 
C 	 -38.6775 	 59.0524 	 105.121 	 
H 	 -39.046 	 59.6828 	 104.292 	 
H 	 -38.6433 	 59.7762 	 105.901 	 
H 	 -39.4511 	 58.3553 	 105.422 	 
H 	 -38.6893 	 51.6594 	 104.873 	 
H 	 -32.5657 	 57.0849 	 102.779 	 
*
