! wB97X-D3 SP def2-SVP
%pal
nprocs 16
end

* xyz 0 1
S 	 6.88241 	 -13.2703 	 77.2997 	 
C 	 5.35367 	 -12.4336 	 77.7 	 
C 	 4.77251 	 -11.9308 	 76.5921 	 
C 	 5.61966 	 -12.0115 	 75.4556 	 
C 	 6.86321 	 -12.5745 	 75.729 	 
H 	 5.47871 	 -11.5844 	 74.4949 	 
C 	 3.37193 	 -11.3273 	 76.5119 	 
H 	 2.7942 	 -12.2366 	 76.1411 	 
H 	 3.38758 	 -10.4872 	 75.8157 	 
C 	 2.70108 	 -10.8308 	 77.8328 	 
H 	 2.39248 	 -11.6559 	 78.4939 	 
H 	 3.54594 	 -10.2476 	 78.2852 	 
C 	 1.40898 	 -10.1339 	 77.6221 	 
H 	 0.77934 	 -10.8281 	 77.1011 	 
H 	 0.783822 	 -9.90751 	 78.4846 	 
H 	 1.49973 	 -9.28517 	 77.025 	 
S 	 8.72336 	 -11.6709 	 73.95 	 
C 	 9.95821 	 -12.6619 	 73.2591 	 
C 	 9.78347 	 -13.9783 	 73.6848 	 
C 	 8.61209 	 -14.1287 	 74.558 	 
C 	 7.95114 	 -12.9262 	 74.8153 	 
H 	 10.4312 	 -14.7335 	 73.215 	 
C 	 8.15028 	 -15.5402 	 75.0438 	 
H 	 7.73687 	 -15.5122 	 76.0599 	 
H 	 8.97235 	 -16.2183 	 74.9944 	 
C 	 7.24972 	 -16.1836 	 74.058 	 
H 	 7.62087 	 -16.4193 	 73.0581 	 
H 	 6.44148 	 -15.5077 	 73.824 	 
C 	 6.65918 	 -17.4716 	 74.6946 	 
H 	 7.36348 	 -18.3059 	 74.5986 	 
H 	 5.91926 	 -17.7447 	 73.9719 	 
H 	 6.2959 	 -17.2879 	 75.7709 	 
H 	 4.98155 	 -12.3209 	 78.6987 	 
H 	 10.6522 	 -12.1962 	 72.5798 	 
*
