! wB97X-D3 SP def2-SVP
%pal
nprocs 16
end

* xyz 0 1
S 	 36.7143 	 29.8537 	 92.6589 	 
C 	 35.6296 	 30.2172 	 91.3263 	 
C 	 34.3128 	 30.0035 	 91.6743 	 
C 	 34.2606 	 29.2426 	 92.8935 	 
C 	 35.4812 	 28.9588 	 93.5004 	 
H 	 33.4771 	 28.8425 	 93.4531 	 
C 	 33.1412 	 30.4303 	 90.7951 	 
H 	 33.4464 	 31.2787 	 90.269 	 
H 	 32.3949 	 30.6843 	 91.4455 	 
C 	 32.634 	 29.3703 	 89.8155 	 
H 	 32.2401 	 28.53 	 90.3547 	 
H 	 31.7757 	 29.7707 	 89.2593 	 
C 	 33.6946 	 28.7861 	 88.9536 	 
H 	 33.2849 	 27.8763 	 88.4557 	 
H 	 33.9565 	 29.4903 	 88.1768 	 
H 	 34.5396 	 28.4655 	 89.5651 	 
S 	 36.7976 	 29.214 	 95.9535 	 
C 	 37.1228 	 27.7617 	 96.8632 	 
C 	 36.4972 	 26.7129 	 96.2744 	 
C 	 35.826 	 27.0392 	 95.066 	 
C 	 35.7413 	 28.3757 	 94.8188 	 
H 	 36.6777 	 25.7635 	 96.7546 	 
C 	 35.1533 	 25.9775 	 94.2751 	 
H 	 34.8098 	 26.4585 	 93.4063 	 
H 	 34.3102 	 25.6786 	 94.8596 	 
C 	 35.9883 	 24.6156 	 93.9984 	 
H 	 36.7585 	 24.3937 	 94.7888 	 
H 	 36.7421 	 24.7988 	 93.2076 	 
C 	 35.1613 	 23.3629 	 93.6233 	 
H 	 34.8064 	 23.4442 	 92.5786 	 
H 	 34.3358 	 23.1643 	 94.2851 	 
H 	 35.8103 	 22.5066 	 93.6101 	 
H 	 35.9532 	 30.3696 	 90.295 	 
H 	 37.7706 	 27.6356 	 97.7496 	 
*
