! wB97X-D3 SP def2-SVP
%pal
nprocs 16
end

* xyz 0 1
S 	 7.94561 	 -13.7685 	 66.839 	 
C 	 7.26796 	 -15.3968 	 66.5188 	 
C 	 6.64452 	 -15.8995 	 67.6543 	 
C 	 6.78376 	 -15.0336 	 68.7664 	 
C 	 7.55161 	 -13.9001 	 68.5508 	 
H 	 6.35662 	 -15.1036 	 69.7551 	 
C 	 5.91171 	 -17.2105 	 67.6355 	 
H 	 5.65493 	 -17.4772 	 66.6083 	 
H 	 4.94054 	 -17.1481 	 68.08 	 
C 	 6.69657 	 -18.3977 	 68.2265 	 
H 	 6.79471 	 -18.1858 	 69.3262 	 
H 	 6.11614 	 -19.3438 	 68.0547 	 
C 	 8.03092 	 -18.5848 	 67.5161 	 
H 	 8.594 	 -19.3759 	 68.0185 	 
H 	 8.03321 	 -18.7128 	 66.4214 	 
H 	 8.67691 	 -17.7046 	 67.7243 	 
S 	 8.45573 	 -11.3265 	 69.0194 	 
C 	 9.19514 	 -10.9017 	 70.5607 	 
C 	 8.98462 	 -11.9077 	 71.4919 	 
C 	 8.33651 	 -13.0711 	 70.9355 	 
C 	 8.08243 	 -13.0011 	 69.5698 	 
H 	 9.18908 	 -11.6207 	 72.5159 	 
C 	 7.91588 	 -14.1324 	 71.9145 	 
H 	 7.99427 	 -15.0388 	 71.297 	 
H 	 6.89018 	 -13.9776 	 72.1893 	 
C 	 8.76223 	 -14.4215 	 73.1884 	 
H 	 8.2759 	 -15.2354 	 73.6783 	 
H 	 8.7105 	 -13.5934 	 73.8736 	 
C 	 10.2281 	 -14.7842 	 73.0247 	 
H 	 10.8873 	 -13.9657 	 72.822 	 
H 	 10.2368 	 -15.5387 	 72.2358 	 
H 	 10.5867 	 -15.1297 	 74.0269 	 
H 	 7.23779 	 -15.885 	 65.5282 	 
H 	 9.78566 	 -10.0603 	 70.8233 	 
*
