! wB97X-D3 SP def2-SVP
%pal
nprocs 16
end

* xyz 0 1
S 	 -95.9033 	 61.5749 	 125.167 	 
C 	 -95.5673 	 60.0794 	 124.321 	 
C 	 -94.2703 	 59.6173 	 124.457 	 
C 	 -93.5684 	 60.5827 	 125.32 	 
C 	 -94.2488 	 61.7118 	 125.715 	 
H 	 -92.5708 	 60.399 	 125.57 	 
C 	 -93.658 	 58.2489 	 123.996 	 
H 	 -92.689 	 58.3441 	 123.445 	 
H 	 -94.3883 	 57.8167 	 123.342 	 
C 	 -93.446 	 57.3615 	 125.201 	 
H 	 -92.7744 	 57.9305 	 125.855 	 
H 	 -94.3477 	 57.2813 	 125.707 	 
C 	 -92.7745 	 56.028 	 124.899 	 
H 	 -91.7095 	 56.148 	 124.696 	 
H 	 -92.9987 	 55.4761 	 125.786 	 
H 	 -93.2217 	 55.6517 	 124.018 	 
S 	 -95.0864 	 63.5505 	 127.63 	 
C 	 -93.8479 	 64.4347 	 128.538 	 
C 	 -92.5946 	 64.2194 	 128.061 	 
C 	 -92.5218 	 63.0617 	 127.214 	 
C 	 -93.7988 	 62.6586 	 126.784 	 
H 	 -91.7443 	 64.7305 	 128.495 	 
C 	 -91.2174 	 62.497 	 126.744 	 
H 	 -91.269 	 62.417 	 125.618 	 
H 	 -91.3333 	 61.4608 	 127.041 	 
C 	 -89.8711 	 62.9974 	 127.31 	 
H 	 -89.8236 	 62.9717 	 128.413 	 
H 	 -89.7761 	 64.0723 	 127.064 	 
C 	 -88.661 	 62.167 	 126.834 	 
H 	 -88.5809 	 61.2638 	 127.413 	 
H 	 -87.7541 	 62.7475 	 126.892 	 
H 	 -88.6851 	 61.72 	 125.809 	 
H 	 -96.3894 	 59.4755 	 123.938 	 
H 	 -94.1437 	 65.1177 	 129.332 	 
*
