! wB97X-D3 SP def2-SVP
%pal
nprocs 16
end

* xyz 0 1
S 	 0.958881 	 2.63984 	 80.9126 	 
C 	 0.763288 	 0.933783 	 81.0029 	 
C 	 1.32814 	 0.329607 	 82.1337 	 
C 	 2.02058 	 1.27942 	 82.9132 	 
C 	 1.9788 	 2.5692 	 82.3545 	 
H 	 2.5479 	 1.00645 	 83.7832 	 
C 	 1.28236 	 -1.18618 	 82.2867 	 
H 	 2.08513 	 -1.4611 	 82.9024 	 
H 	 1.48854 	 -1.72284 	 81.3573 	 
C 	 -0.0693515 	 -1.74289 	 82.8836 	 
H 	 -0.0319214 	 -1.45543 	 83.9727 	 
H 	 -0.95534 	 -1.24262 	 82.3697 	 
C 	 -0.180691 	 -3.32647 	 82.6991 	 
H 	 -1.09175 	 -3.74845 	 83.1362 	 
H 	 -0.119578 	 -3.69234 	 81.7145 	 
H 	 0.617988 	 -3.85422 	 83.1423 	 
S 	 3.11276 	 4.99619 	 81.9007 	 
C 	 3.50547 	 6.05656 	 83.2768 	 
C 	 2.96836 	 5.55993 	 84.4573 	 
C 	 2.26148 	 4.28954 	 84.311 	 
C 	 2.45166 	 3.80075 	 83.0153 	 
H 	 3.09041 	 6.18041 	 85.3371 	 
C 	 1.49881 	 3.68804 	 85.4365 	 
H 	 0.728725 	 3.07346 	 85.0084 	 
H 	 0.979925 	 4.39266 	 86.1189 	 
C 	 2.38889 	 2.85792 	 86.3453 	 
H 	 2.95331 	 2.1435 	 85.7567 	 
H 	 1.86033 	 2.33077 	 87.1056 	 
C 	 3.42619 	 3.66119 	 87.1403 	 
H 	 4.10771 	 4.08435 	 86.3955 	 
H 	 4.10448 	 2.91929 	 87.7005 	 
H 	 2.95601 	 4.46247 	 87.7763 	 
H 	 0.0886802 	 0.369769 	 80.3274 	 
H 	 4.04482 	 6.92558 	 83.2205 	 
*
