! wB97X-D3 SP def2-SVP
%pal
nprocs 16
end

* xyz 0 1
S 	 -2.58067 	 43.8302 	 34.9648 	 
C 	 -2.62199 	 42.3765 	 35.9513 	 
C 	 -3.84029 	 42.164 	 36.4851 	 
C 	 -4.64113 	 43.3354 	 36.2925 	 
C 	 -4.11718 	 44.3397 	 35.5316 	 
H 	 -5.59789 	 43.4267 	 36.85 	 
C 	 -4.19278 	 40.9754 	 37.3794 	 
H 	 -3.43003 	 40.2052 	 37.2553 	 
H 	 -5.12141 	 40.5976 	 37.0186 	 
C 	 -4.36662 	 41.2933 	 38.9076 	 
H 	 -3.48847 	 41.8928 	 39.1899 	 
H 	 -5.2196 	 41.8013 	 39.2563 	 
C 	 -4.50245 	 39.9895 	 39.6752 	 
H 	 -5.36782 	 39.495 	 39.3151 	 
H 	 -3.65497 	 39.349 	 39.6033 	 
H 	 -4.64538 	 40.1398 	 40.7574 	 
S 	 -3.82566 	 46.9711 	 36.2352 	 
C 	 -5.1236 	 47.9902 	 35.8511 	 
C 	 -6.19207 	 47.3748 	 35.2152 	 
C 	 -5.95485 	 46.0043 	 34.8511 	 
C 	 -4.69542 	 45.6755 	 35.3951 	 
H 	 -7.1135 	 47.9327 	 35.0586 	 
C 	 -6.98432 	 45.0693 	 34.1857 	 
H 	 -8.03916 	 45.2001 	 34.4945 	 
H 	 -6.81242 	 44.0657 	 34.5992 	 
C 	 -7.0541 	 45.1546 	 32.6768 	 
H 	 -7.86081 	 44.4996 	 32.3225 	 
H 	 -6.16739 	 44.7703 	 32.3744 	 
C 	 -7.19977 	 46.5188 	 32.0216 	 
H 	 -7.21754 	 46.5289 	 30.9782 	 
H 	 -6.39777 	 47.2659 	 32.3071 	 
H 	 -8.08441 	 46.9128 	 32.4344 	 
H 	 -1.75187 	 41.7293 	 36.0399 	 
H 	 -5.21959 	 49.0021 	 36.2527 	 
*
