! wB97X-D3 SP def2-SVP
%pal
nprocs 16
end

* xyz 0 1
S 	 -6.05182 	 32.0246 	 56.8312 	 
C 	 -6.29373 	 30.4408 	 57.525 	 
C 	 -5.94841 	 29.4599 	 56.6068 	 
C 	 -5.6582 	 30.0198 	 55.3248 	 
C 	 -5.58809 	 31.3619 	 55.2847 	 
H 	 -5.27652 	 29.4546 	 54.464 	 
C 	 -5.90603 	 27.9898 	 56.8044 	 
H 	 -6.79456 	 27.6242 	 56.3648 	 
H 	 -5.99438 	 27.7258 	 57.8471 	 
C 	 -4.80577 	 27.2213 	 56.0654 	 
H 	 -4.8305 	 26.1254 	 56.3133 	 
H 	 -4.91092 	 27.3807 	 54.9689 	 
C 	 -3.32475 	 27.6231 	 56.4069 	 
H 	 -3.23431 	 28.7346 	 56.4313 	 
H 	 -3.19162 	 27.4057 	 57.4575 	 
H 	 -2.51704 	 27.1787 	 55.8181 	 
S 	 -4.66804 	 33.8743 	 54.6255 	 
C 	 -4.2652 	 34.1638 	 52.9384 	 
C 	 -4.36426 	 32.9603 	 52.1896 	 
C 	 -4.81288 	 31.8817 	 52.9002 	 
C 	 -5.04306 	 32.1928 	 54.2492 	 
H 	 -4.07407 	 32.9525 	 51.1747 	 
C 	 -5.06659 	 30.5931 	 52.1465 	 
H 	 -4.42563 	 29.8133 	 52.5361 	 
H 	 -4.69636 	 30.717 	 51.15 	 
C 	 -6.54189 	 30.1255 	 52.0695 	 
H 	 -6.89747 	 29.8566 	 53.0138 	 
H 	 -6.55073 	 29.3681 	 51.277 	 
C 	 -7.45996 	 31.1498 	 51.4024 	 
H 	 -7.13583 	 31.5419 	 50.4534 	 
H 	 -7.55321 	 32.0034 	 52.0372 	 
H 	 -8.44785 	 30.7105 	 51.3026 	 
H 	 -6.57553 	 30.259 	 58.5032 	 
H 	 -3.96628 	 35.0783 	 52.4819 	 
*
