! wB97X-D3 SP def2-SVP
%pal
nprocs 16
end

* xyz 0 1
S 	 37.2755 	 17.7314 	 78.5358 	 
C 	 36.6868 	 16.8549 	 77.0384 	 
C 	 36.0909 	 15.6527 	 77.4401 	 
C 	 36.3355 	 15.4043 	 78.8278 	 
C 	 37.0273 	 16.3472 	 79.4779 	 
H 	 35.9346 	 14.5751 	 79.3998 	 
C 	 35.2494 	 14.713 	 76.5852 	 
H 	 34.8909 	 15.1708 	 75.662 	 
H 	 34.2312 	 14.6325 	 77.0129 	 
C 	 35.9875 	 13.4539 	 76.1719 	 
H 	 36.9979 	 13.7345 	 75.8685 	 
H 	 35.9708 	 12.766 	 77.0177 	 
C 	 35.3823 	 12.6696 	 75.0122 	 
H 	 36.1228 	 11.8885 	 74.7901 	 
H 	 34.4999 	 12.1284 	 75.3199 	 
H 	 35.2019 	 13.3246 	 74.1444 	 
S 	 38.9936 	 16.6978 	 81.2701 	 
C 	 38.5635 	 16.5788 	 83.0015 	 
C 	 37.3036 	 16.0012 	 83.1744 	 
C 	 36.4843 	 15.9899 	 81.9668 	 
C 	 37.2808 	 16.359 	 80.8715 	 
H 	 36.8562 	 15.8074 	 84.1484 	 
C 	 35.0474 	 15.728 	 81.8799 	 
H 	 35.0052 	 14.6554 	 82.0167 	 
H 	 34.7943 	 16.0481 	 80.8292 	 
C 	 34.1446 	 16.4937 	 82.8306 	 
H 	 34.3261 	 17.5058 	 82.7102 	 
H 	 34.546 	 16.2184 	 83.7835 	 
C 	 32.6749 	 16.1914 	 82.7496 	 
H 	 32.065 	 16.7823 	 83.4736 	 
H 	 32.468 	 15.1312 	 82.9123 	 
H 	 32.3171 	 16.3898 	 81.745 	 
H 	 36.603 	 17.3304 	 76.1029 	 
H 	 39.3077 	 16.6327 	 83.8206 	 
*
