! wB97X-D3 SP def2-SVP
%pal
nprocs 16
end

* xyz 0 1
S 	 0.165527 	 -9.28866 	 90.8653 	 
C 	 -1.56244 	 -9.45935 	 90.8736 	 
C 	 -2.00136 	 -10.7203 	 90.4075 	 
C 	 -0.894487 	 -11.4447 	 89.8218 	 
C 	 0.361886 	 -10.8265 	 89.9672 	 
H 	 -1.0486 	 -12.3393 	 89.2283 	 
C 	 -3.45526 	 -11.1269 	 90.5773 	 
H 	 -3.72323 	 -11.7256 	 89.7742 	 
H 	 -4.02013 	 -10.2282 	 90.5438 	 
C 	 -3.69254 	 -12.0139 	 91.8129 	 
H 	 -3.12766 	 -12.9703 	 91.7038 	 
H 	 -3.27909 	 -11.4614 	 92.6887 	 
C 	 -5.15265 	 -12.3321 	 92.0858 	 
H 	 -5.77753 	 -11.4156 	 92.367 	 
H 	 -5.67026 	 -12.9364 	 91.2286 	 
H 	 -5.17192 	 -12.9736 	 92.9945 	 
S 	 2.91497 	 -10.0182 	 89.2189 	 
C 	 4.03906 	 -11.2778 	 88.7227 	 
C 	 3.55904 	 -12.5109 	 89.0867 	 
C 	 2.18151 	 -12.5356 	 89.3829 	 
C 	 1.69324 	 -11.2652 	 89.5224 	 
H 	 4.1661 	 -13.3092 	 89.0268 	 
C 	 1.49187 	 -13.9168 	 89.7044 	 
H 	 0.393142 	 -13.6959 	 89.9117 	 
H 	 1.90493 	 -14.335 	 90.5883 	 
C 	 1.67321 	 -14.9707 	 88.6458 	 
H 	 2.69943 	 -15.1259 	 88.4796 	 
H 	 1.26114 	 -14.7199 	 87.6836 	 
C 	 1.31309 	 -16.3644 	 89.1415 	 
H 	 1.44529 	 -17.157 	 88.4305 	 
H 	 0.271269 	 -16.4032 	 89.5631 	 
H 	 1.86528 	 -16.5737 	 90.0584 	 
H 	 -2.23094 	 -8.71521 	 91.2982 	 
H 	 5.06689 	 -11.0148 	 88.5652 	 
*
