! wB97X-D3 SP def2-SVP
%pal
nprocs 16
end

* xyz 0 1
S 	 -23.4935 	 59.103 	 105.24 	 
C 	 -25.172 	 59.1235 	 104.79 	 
C 	 -26.1216 	 59.3728 	 105.839 	 
C 	 -25.3678 	 59.3566 	 107.094 	 
C 	 -24.0655 	 59.0912 	 106.915 	 
H 	 -25.7381 	 59.5368 	 108.133 	 
C 	 -27.6293 	 59.2507 	 105.791 	 
H 	 -27.9884 	 58.5014 	 106.472 	 
H 	 -27.8871 	 58.9175 	 104.73 	 
C 	 -28.4386 	 60.5017 	 106.294 	 
H 	 -29.5071 	 60.3119 	 106.387 	 
H 	 -28.0434 	 60.7927 	 107.246 	 
C 	 -28.3646 	 61.6444 	 105.303 	 
H 	 -28.7387 	 61.3091 	 104.386 	 
H 	 -29.0432 	 62.4929 	 105.568 	 
H 	 -27.3261 	 62.0951 	 105.144 	 
S 	 -21.8879 	 60.4264 	 107.826 	 
C 	 -21.2955 	 60.0265 	 109.431 	 
C 	 -22.0783 	 59.0575 	 110.073 	 
C 	 -23.1284 	 58.5997 	 109.263 	 
C 	 -23.1201 	 59.1986 	 108.006 	 
H 	 -21.8176 	 58.6344 	 111.103 	 
C 	 -24.1641 	 57.5657 	 109.643 	 
H 	 -23.6375 	 56.6855 	 109.851 	 
H 	 -24.7665 	 57.3598 	 108.797 	 
C 	 -24.926 	 57.8528 	 110.984 	 
H 	 -24.1037 	 57.8168 	 111.706 	 
H 	 -25.6465 	 57.0914 	 111.194 	 
C 	 -25.6459 	 59.2453 	 110.993 	 
H 	 -25.0308 	 60.0317 	 110.513 	 
H 	 -25.9102 	 59.6078 	 112.052 	 
H 	 -26.6744 	 59.2021 	 110.476 	 
H 	 -25.4222 	 58.883 	 103.744 	 
H 	 -20.5047 	 60.6171 	 109.9 	 
*
