! wB97X-D3 SP def2-SVP
%pal
nprocs 16
end

* xyz 0 1
S 	 -94.6943 	 57.3943 	 131.424 	 
C 	 -93.3401 	 58.5578 	 131.599 	 
C 	 -93.8748 	 59.8229 	 131.816 	 
C 	 -95.292 	 59.7626 	 132.061 	 
C 	 -95.8442 	 58.5317 	 131.893 	 
H 	 -95.8759 	 60.5995 	 132.452 	 
C 	 -93.2726 	 61.1389 	 131.901 	 
H 	 -92.2182 	 60.9371 	 131.906 	 
H 	 -93.4951 	 61.6543 	 132.836 	 
C 	 -93.5479 	 61.9857 	 130.648 	 
H 	 -93.2451 	 61.5536 	 129.74 	 
H 	 -94.677 	 62.0928 	 130.616 	 
C 	 -92.9661 	 63.3771 	 130.776 	 
H 	 -93.6268 	 64.1784 	 130.562 	 
H 	 -92.6491 	 63.4184 	 131.832 	 
H 	 -92.0329 	 63.4372 	 130.176 	 
S 	 -97.7497 	 57.3459 	 133.558 	 
C 	 -99.3639 	 57.2266 	 132.946 	 
C 	 -99.4505 	 57.7272 	 131.663 	 
C 	 -98.2849 	 58.3878 	 131.167 	 
C 	 -97.1992 	 58.2027 	 132.074 	 
H 	 -100.363 	 57.5953 	 131.026 	 
C 	 -98.1886 	 58.9302 	 129.731 	 
H 	 -98.3526 	 58.1546 	 129.022 	 
H 	 -97.1161 	 59.2232 	 129.707 	 
C 	 -98.9939 	 60.2118 	 129.492 	 
H 	 -98.6106 	 61.0894 	 130.061 	 
H 	 -100.008 	 60.0601 	 129.911 	 
C 	 -99.0841 	 60.7443 	 128.018 	 
H 	 -99.4953 	 60.0303 	 127.318 	 
H 	 -98.1418 	 61.1831 	 127.685 	 
H 	 -99.8122 	 61.5843 	 127.94 	 
H 	 -92.2795 	 58.4271 	 131.58 	 
H 	 -100.038 	 56.4649 	 133.384 	 
*
