! wB97X-D3 SP def2-SVP
%pal
nprocs 16
end

* xyz 0 1
S 	 -0.0179796 	 32.28 	 40.9116 	 
C 	 1.2148 	 31.682 	 39.8672 	 
C 	 0.767162 	 31.0207 	 38.7231 	 
C 	 -0.679616 	 30.9351 	 38.725 	 
C 	 -1.24795 	 31.572 	 39.8195 	 
H 	 -1.28257 	 30.4334 	 37.9858 	 
C 	 1.69318 	 30.385 	 37.7359 	 
H 	 2.38716 	 31.155 	 37.3355 	 
H 	 1.11026 	 30.1913 	 36.7856 	 
C 	 2.2418 	 29.0479 	 38.1419 	 
H 	 2.8172 	 29.2467 	 39.0577 	 
H 	 1.42661 	 28.3553 	 38.4123 	 
C 	 3.30594 	 28.5329 	 37.1385 	 
H 	 3.06372 	 28.5724 	 36.05 	 
H 	 4.28626 	 29.1094 	 37.2873 	 
H 	 3.52156 	 27.5217 	 37.2192 	 
S 	 -3.17469 	 32.118 	 41.7832 	 
C 	 -4.87799 	 32.0967 	 41.3769 	 
C 	 -5.01411 	 31.967 	 40.0075 	 
C 	 -3.79469 	 31.6636 	 39.3037 	 
C 	 -2.67749 	 31.7047 	 40.1396 	 
H 	 -6.01957 	 32.2562 	 39.6867 	 
C 	 -3.90385 	 31.2862 	 37.7795 	 
H 	 -4.97138 	 31.2814 	 37.5801 	 
H 	 -3.47954 	 30.2939 	 37.6783 	 
C 	 -3.19042 	 32.1959 	 36.7549 	 
H 	 -2.06249 	 32.1975 	 36.9694 	 
H 	 -3.53898 	 33.2693 	 36.8187 	 
C 	 -3.37047 	 31.7044 	 35.226 	 
H 	 -3.00783 	 30.7051 	 35.1184 	 
H 	 -2.76774 	 32.3596 	 34.5923 	 
H 	 -4.44555 	 31.7603 	 35.0016 	 
H 	 2.29777 	 31.7555 	 39.9501 	 
H 	 -5.64622 	 32.591 	 41.9174 	 
*
