! wB97X-D3 SP def2-SVP
%pal
nprocs 16
end

* xyz 0 1
S 	 57.3181 	 11.7744 	 58.1367 	 
C 	 56.1399 	 12.9473 	 58.5453 	 
C 	 56.7227 	 14.1728 	 58.8682 	 
C 	 58.1384 	 14.203 	 58.7549 	 
C 	 58.6516 	 12.9548 	 58.4817 	 
H 	 58.816 	 15.0615 	 59.0215 	 
C 	 55.9273 	 15.4623 	 59.1382 	 
H 	 55.9204 	 15.5382 	 60.1955 	 
H 	 54.944 	 15.2732 	 58.8268 	 
C 	 56.4701 	 16.7331 	 58.4938 	 
H 	 57.3606 	 16.912 	 58.9846 	 
H 	 56.6296 	 16.576 	 57.4118 	 
C 	 55.6932 	 17.9657 	 58.566 	 
H 	 56.0337 	 18.8256 	 57.902 	 
H 	 54.6503 	 17.8112 	 58.2341 	 
H 	 55.6499 	 18.3432 	 59.6338 	 
S 	 60.6092 	 11.1992 	 59.231 	 
C 	 62.3302 	 11.5164 	 59.134 	 
C 	 62.4459 	 12.6391 	 58.324 	 
C 	 61.2209 	 13.3101 	 57.9068 	 
C 	 60.0838 	 12.6264 	 58.3581 	 
H 	 63.386 	 12.8253 	 57.9038 	 
C 	 61.2768 	 14.5098 	 57.0731 	 
H 	 62.3759 	 14.7291 	 57.0873 	 
H 	 60.753 	 15.3667 	 57.5189 	 
C 	 60.9162 	 14.3684 	 55.6207 	 
H 	 61.5492 	 13.519 	 55.2879 	 
H 	 61.3209 	 15.1825 	 55.0926 	 
C 	 59.4786 	 14.0237 	 55.3952 	 
H 	 58.8462 	 14.5344 	 56.0774 	 
H 	 59.3151 	 12.9905 	 55.4914 	 
H 	 59.0851 	 14.3102 	 54.4551 	 
H 	 55.0826 	 12.7723 	 58.7175 	 
H 	 63.1321 	 10.8748 	 59.4816 	 
*
