! wB97X-D3 SP def2-SVP
%pal
nprocs 16
end

* xyz 0 1
S 	 15.2814 	 6.75657 	 82.3142 	 
C 	 15.6588 	 8.42971 	 81.8763 	 
C 	 14.8268 	 9.32524 	 82.5301 	 
C 	 13.8343 	 8.66991 	 83.3382 	 
C 	 13.8733 	 7.34915 	 83.2411 	 
H 	 13.0844 	 9.13415 	 83.9972 	 
C 	 14.8156 	 10.8268 	 82.296 	 
H 	 15.712 	 11.1616 	 81.7373 	 
H 	 14.9293 	 11.1623 	 83.2589 	 
C 	 13.4902 	 11.3888 	 81.7006 	 
H 	 12.7336 	 11.1095 	 82.3984 	 
H 	 13.4769 	 12.5269 	 81.7502 	 
C 	 13.1567 	 11.0225 	 80.2003 	 
H 	 13.4527 	 10.0278 	 79.8297 	 
H 	 12.0766 	 10.898 	 80.051 	 
H 	 13.6408 	 11.7148 	 79.4435 	 
S 	 13.3013 	 6.3131 	 85.6628 	 
C 	 11.8915 	 5.25629 	 85.6518 	 
C 	 11.3423 	 4.99809 	 84.4543 	 
C 	 12.0835 	 5.65882 	 83.4787 	 
C 	 13.0707 	 6.45407 	 83.9856 	 
H 	 10.3602 	 4.46239 	 84.3982 	 
C 	 11.5865 	 5.75491 	 82.0414 	 
H 	 11.1969 	 4.79057 	 81.7727 	 
H 	 12.4329 	 5.94988 	 81.4145 	 
C 	 10.4503 	 6.72706 	 81.6199 	 
H 	 9.62908 	 6.53578 	 82.2331 	 
H 	 10.1687 	 6.45678 	 80.5864 	 
C 	 10.7932 	 8.2398 	 81.6345 	 
H 	 11.7286 	 8.50123 	 81.0725 	 
H 	 10.9296 	 8.55241 	 82.717 	 
H 	 9.89687 	 8.73164 	 81.3638 	 
H 	 16.4814 	 8.79871 	 81.2671 	 
H 	 11.3928 	 4.90416 	 86.5254 	 
*
