! wB97X-D3 SP def2-SVP
%pal
nprocs 16
end

* xyz 0 1
S 	 -6.41795 	 35.2701 	 36.2707 	 
C 	 -5.89311 	 34.9775 	 34.6068 	 
C 	 -6.93206 	 35.4094 	 33.7471 	 
C 	 -8.09346 	 35.8521 	 34.4892 	 
C 	 -8.05224 	 35.8597 	 35.8438 	 
H 	 -9.00774 	 36.2411 	 34.096 	 
C 	 -6.97913 	 35.5579 	 32.2379 	 
H 	 -7.65108 	 36.3871 	 31.9866 	 
H 	 -7.23726 	 34.5227 	 31.8467 	 
C 	 -5.63112 	 35.98 	 31.5341 	 
H 	 -5.26058 	 36.8667 	 32.075 	 
H 	 -4.93791 	 35.1603 	 31.4241 	 
C 	 -5.82994 	 36.4855 	 30.0378 	 
H 	 -4.86697 	 36.5491 	 29.535 	 
H 	 -6.50262 	 35.8903 	 29.4649 	 
H 	 -6.42439 	 37.4079 	 30.0958 	 
S 	 -8.0333 	 37.5871 	 37.9662 	 
C 	 -9.49439 	 37.7399 	 38.8547 	 
C 	 -10.5852 	 37.2239 	 38.1219 	 
C 	 -10.2151 	 36.4055 	 37.0373 	 
C 	 -8.8872 	 36.5811 	 36.777 	 
H 	 -11.6484 	 37.3558 	 38.4004 	 
C 	 -11.19 	 35.4356 	 36.3998 	 
H 	 -11.8611 	 35.0693 	 37.1006 	 
H 	 -10.5785 	 34.6163 	 36.1686 	 
C 	 -11.9711 	 35.9035 	 35.1654 	 
H 	 -12.3882 	 35.0183 	 34.7689 	 
H 	 -11.4013 	 36.4018 	 34.358 	 
C 	 -13.1146 	 36.9148 	 35.5151 	 
H 	 -14.012 	 36.3873 	 35.7012 	 
H 	 -13.3627 	 37.6107 	 34.7303 	 
H 	 -12.8259 	 37.4101 	 36.4594 	 
H 	 -4.87372 	 34.7847 	 34.3098 	 
H 	 -9.5897 	 38.2866 	 39.7783 	 
*
