! wB97X-D3 SP def2-SVP
%pal
nprocs 16
end

* xyz 0 1
S 	 -16.3385 	 -8.51705 	 90.1759 	 
C 	 -17.3359 	 -8.02554 	 88.811 	 
C 	 -16.6547 	 -8.24278 	 87.6198 	 
C 	 -15.4904 	 -9.04203 	 87.8046 	 
C 	 -15.232 	 -9.35659 	 89.1222 	 
H 	 -14.8751 	 -9.57168 	 87.0992 	 
C 	 -17.0708 	 -7.66708 	 86.2364 	 
H 	 -16.4823 	 -6.66446 	 86.1137 	 
H 	 -18.1641 	 -7.5059 	 86.1905 	 
C 	 -16.8439 	 -8.5514 	 84.9966 	 
H 	 -15.8111 	 -8.83888 	 84.6697 	 
H 	 -17.454 	 -9.46255 	 85.1042 	 
C 	 -17.2675 	 -7.75166 	 83.7181 	 
H 	 -17.31 	 -8.39488 	 82.8283 	 
H 	 -18.2552 	 -7.40908 	 83.8913 	 
H 	 -16.5577 	 -6.96302 	 83.5752 	 
S 	 -13.3646 	 -9.44434 	 91.1169 	 
C 	 -12.2758 	 -10.7267 	 91.0702 	 
C 	 -12.5116 	 -11.696 	 90.1 	 
C 	 -13.5173 	 -11.3131 	 89.1853 	 
C 	 -14.0656 	 -10.1314 	 89.6352 	 
H 	 -11.9084 	 -12.6305 	 90.1348 	 
C 	 -13.9776 	 -12.1615 	 88.0116 	 
H 	 -13.1714 	 -12.8767 	 87.7788 	 
H 	 -13.9259 	 -11.5077 	 87.0927 	 
C 	 -15.3478 	 -12.8737 	 88.0974 	 
H 	 -15.772 	 -12.8055 	 87.1382 	 
H 	 -16.1074 	 -12.3496 	 88.7002 	 
C 	 -15.2981 	 -14.3788 	 88.5844 	 
H 	 -14.9929 	 -14.5172 	 89.605 	 
H 	 -14.573 	 -14.9332 	 88.0164 	 
H 	 -16.2014 	 -14.9904 	 88.355 	 
H 	 -18.1654 	 -7.33249 	 88.7589 	 
H 	 -11.3306 	 -10.7219 	 91.6637 	 
*
