! wB97X-D3 SP def2-SVP
%pal
nprocs 16
end

* xyz 0 1
S 	 50.4873 	 21.6572 	 45.5476 	 
C 	 50.6776 	 20.2993 	 44.364 	 
C 	 49.5705 	 20.2231 	 43.5213 	 
C 	 48.6089 	 21.2379 	 43.8858 	 
C 	 48.9304 	 22.0852 	 44.9143 	 
H 	 47.6775 	 21.4527 	 43.367 	 
C 	 49.2884 	 19.2482 	 42.3169 	 
H 	 48.2412 	 19.1471 	 42.2633 	 
H 	 49.6287 	 18.2599 	 42.552 	 
C 	 49.8549 	 19.6225 	 40.9782 	 
H 	 49.4669 	 20.6266 	 40.7656 	 
H 	 50.935 	 19.7993 	 40.9333 	 
C 	 49.5391 	 18.5226 	 39.9774 	 
H 	 49.4757 	 17.5317 	 40.4756 	 
H 	 48.5178 	 18.6663 	 39.632 	 
H 	 50.1414 	 18.6316 	 39.1048 	 
S 	 47.5003 	 24.2776 	 43.9574 	 
C 	 46.7746 	 25.3303 	 45.0703 	 
C 	 46.8284 	 24.8394 	 46.3339 	 
C 	 47.6528 	 23.7026 	 46.4998 	 
C 	 48.0778 	 23.2088 	 45.2582 	 
H 	 46.2963 	 25.3985 	 47.1401 	 
C 	 47.9618 	 23.0781 	 47.8545 	 
H 	 48.1139 	 22.0258 	 47.6548 	 
H 	 47.0455 	 23.0409 	 48.5146 	 
C 	 49.1402 	 23.7355 	 48.6034 	 
H 	 49.8725 	 23.8969 	 47.7621 	 
H 	 49.6978 	 23.1598 	 49.3993 	 
C 	 48.8743 	 25.1716 	 49.148 	 
H 	 48.0797 	 25.1699 	 49.8901 	 
H 	 48.5658 	 25.8105 	 48.3752 	 
H 	 49.7967 	 25.6651 	 49.4603 	 
H 	 51.6347 	 19.7729 	 44.3233 	 
H 	 46.036 	 26.1016 	 44.8032 	 
*
