! wB97X-D3 SP def2-SVP
%pal
nprocs 16
end

* xyz 0 1
S 	 -53.9956 	 20.6676 	 90.5939 	 
C 	 -52.2657 	 20.5006 	 90.8053 	 
C 	 -51.7676 	 21.638 	 91.4066 	 
C 	 -52.7324 	 22.6001 	 91.7824 	 
C 	 -53.9717 	 22.2758 	 91.3768 	 
H 	 -52.458 	 23.5169 	 92.2622 	 
C 	 -50.1938 	 21.869 	 91.6507 	 
H 	 -49.9847 	 22.911 	 91.3228 	 
H 	 -49.5921 	 21.2831 	 90.9598 	 
C 	 -49.7028 	 21.5971 	 93.171 	 
H 	 -48.7006 	 21.1513 	 93.2415 	 
H 	 -49.7334 	 22.4571 	 93.8822 	 
C 	 -50.4768 	 20.3527 	 93.6695 	 
H 	 -51.4907 	 20.5362 	 93.8806 	 
H 	 -50.3247 	 19.4693 	 93.0791 	 
H 	 -50.1656 	 20.1424 	 94.6672 	 
S 	 -56.1381 	 23.2732 	 89.9405 	 
C 	 -57.384 	 24.1918 	 90.8211 	 
C 	 -56.9347 	 24.5247 	 92.1403 	 
C 	 -55.6852 	 23.9452 	 92.4572 	 
C 	 -55.202 	 23.055 	 91.4731 	 
H 	 -57.5154 	 25.2129 	 92.7731 	 
C 	 -55.101 	 24.1821 	 93.8646 	 
H 	 -55.6269 	 24.9622 	 94.3471 	 
H 	 -54.0585 	 24.4974 	 93.7513 	 
C 	 -55.1562 	 22.9751 	 94.8092 	 
H 	 -54.8195 	 21.9904 	 94.3867 	 
H 	 -56.2012 	 22.6062 	 94.9512 	 
C 	 -54.4111 	 23.0745 	 96.0837 	 
H 	 -53.3629 	 23.4537 	 95.9279 	 
H 	 -54.4184 	 22.1602 	 96.6541 	 
H 	 -54.8584 	 23.8016 	 96.6716 	 
H 	 -51.7216 	 19.7513 	 90.3303 	 
H 	 -58.3194 	 24.4744 	 90.3381 	 
*
