! wB97X-D3 SP def2-SVP
%pal
nprocs 16
end

* xyz 0 1
S 	 0.0321631 	 10.3883 	 86.8114 	 
C 	 -1.00965 	 10.4225 	 85.415 	 
C 	 -0.467502 	 11.1969 	 84.4126 	 
C 	 0.83244 	 11.5773 	 84.7528 	 
C 	 1.32025 	 11.1902 	 85.9697 	 
H 	 1.28363 	 12.1893 	 84.0799 	 
C 	 -1.15626 	 11.5742 	 83.1459 	 
H 	 -0.814484 	 12.5413 	 82.7594 	 
H 	 -2.20974 	 11.7497 	 83.4978 	 
C 	 -1.08367 	 10.5254 	 82.0268 	 
H 	 -0.0762657 	 10.3435 	 81.6839 	 
H 	 -1.32605 	 9.58171 	 82.4164 	 
C 	 -1.95269 	 10.9594 	 80.749 	 
H 	 -1.59304 	 10.4307 	 79.8099 	 
H 	 -3.008 	 10.844 	 81.0464 	 
H 	 -1.72318 	 12.009 	 80.6025 	 
S 	 2.25899 	 12.2747 	 88.2819 	 
C 	 3.72079 	 13.1199 	 88.3018 	 
C 	 4.34476 	 13.0935 	 87.0778 	 
C 	 3.82083 	 12.1728 	 86.1922 	 
C 	 2.50457 	 11.7478 	 86.6127 	 
H 	 5.25567 	 13.6472 	 87.0125 	 
C 	 4.38498 	 12.0683 	 84.8382 	 
H 	 3.75486 	 11.2976 	 84.2668 	 
H 	 5.41043 	 11.8807 	 84.7505 	 
C 	 4.22549 	 13.4103 	 84.0321 	 
H 	 4.3916 	 14.2414 	 84.6511 	 
H 	 3.21573 	 13.5754 	 83.8422 	 
C 	 5.0353 	 13.3069 	 82.6558 	 
H 	 5.93304 	 12.7465 	 82.6477 	 
H 	 5.30538 	 14.3379 	 82.2899 	 
H 	 4.49517 	 12.7937 	 81.8474 	 
H 	 -1.93786 	 9.88315 	 85.1561 	 
H 	 4.08988 	 13.7729 	 89.1093 	 
*
