! wB97X-D3 SP def2-SVP
%pal
nprocs 16
end

* xyz 0 1
S 	 -42.5842 	 28.0419 	 88.9772 	 
C 	 -44.3131 	 27.8771 	 88.5467 	 
C 	 -44.6771 	 28.8573 	 87.6017 	 
C 	 -43.524 	 29.5664 	 87.1665 	 
C 	 -42.3358 	 29.2814 	 87.7969 	 
H 	 -43.4972 	 30.407 	 86.4289 	 
C 	 -46.0315 	 29.0215 	 86.9091 	 
H 	 -45.9508 	 30.0138 	 86.5318 	 
H 	 -46.7713 	 28.8656 	 87.6474 	 
C 	 -46.3503 	 28.0662 	 85.787 	 
H 	 -47.2014 	 28.4795 	 85.197 	 
H 	 -45.4649 	 27.9705 	 85.1429 	 
C 	 -46.6741 	 26.6471 	 86.1825 	 
H 	 -47.0074 	 26.152 	 85.2906 	 
H 	 -45.8682 	 26.1209 	 86.6462 	 
H 	 -47.4133 	 26.7011 	 87.0329 	 
S 	 -40.0489 	 30.3918 	 88.9097 	 
C 	 -38.8714 	 31.1174 	 87.9019 	 
C 	 -39.056 	 30.6378 	 86.6202 	 
C 	 -40.2826 	 29.964 	 86.321 	 
C 	 -41.0138 	 29.7972 	 87.4874 	 
H 	 -38.2966 	 30.7752 	 85.8838 	 
C 	 -40.7007 	 29.4629 	 84.944 	 
H 	 -39.909 	 29.6691 	 84.2303 	 
H 	 -41.5265 	 30.0839 	 84.5802 	 
C 	 -41.0584 	 27.9166 	 84.6642 	 
H 	 -41.6347 	 27.7178 	 83.7976 	 
H 	 -41.868 	 27.6004 	 85.3322 	 
C 	 -39.6689 	 27.1613 	 84.7473 	 
H 	 -38.9497 	 27.3768 	 85.6633 	 
H 	 -39.1224 	 27.3169 	 83.8292 	 
H 	 -39.811 	 26.0688 	 84.8107 	 
H 	 -44.9796 	 27.2166 	 89.0097 	 
H 	 -37.9119 	 31.6137 	 88.1115 	 
*
