! wB97X-D3 SP def2-SVP
%pal
nprocs 16
end

* xyz 0 1
S 	 -55.5493 	 39.8174 	 107.575 	 
C 	 -54.6502 	 39.6304 	 106.105 	 
C 	 -53.5446 	 38.8941 	 106.331 	 
C 	 -53.464 	 38.4409 	 107.687 	 
C 	 -54.5112 	 38.8739 	 108.539 	 
H 	 -52.6767 	 37.8105 	 108.127 	 
C 	 -52.4767 	 38.5224 	 105.323 	 
H 	 -51.5796 	 38.9865 	 105.574 	 
H 	 -52.6671 	 38.9956 	 104.35 	 
C 	 -52.2481 	 37.1189 	 104.935 	 
H 	 -51.7965 	 36.5745 	 105.802 	 
H 	 -53.2281 	 36.7407 	 104.744 	 
C 	 -51.3697 	 36.9153 	 103.606 	 
H 	 -51.9895 	 37.1324 	 102.674 	 
H 	 -50.4286 	 37.4741 	 103.418 	 
H 	 -50.9893 	 35.9086 	 103.661 	 
S 	 -53.7603 	 39.2904 	 111.136 	 
C 	 -54.3286 	 38.2528 	 112.415 	 
C 	 -55.3134 	 37.4037 	 111.944 	 
C 	 -55.5553 	 37.5274 	 110.547 	 
C 	 -54.7266 	 38.4452 	 109.913 	 
H 	 -55.8523 	 36.7336 	 112.593 	 
C 	 -56.2612 	 36.507 	 109.732 	 
H 	 -55.6418 	 35.5564 	 109.732 	 
H 	 -56.2907 	 36.8221 	 108.728 	 
C 	 -57.7205 	 36.1187 	 110.067 	 
H 	 -58.3774 	 37.0357 	 109.998 	 
H 	 -57.729 	 35.9052 	 111.085 	 
C 	 -58.3262 	 34.9864 	 109.158 	 
H 	 -59.3117 	 34.7633 	 109.489 	 
H 	 -57.725 	 34.0765 	 109.222 	 
H 	 -58.2933 	 35.2875 	 108.165 	 
H 	 -54.9884 	 40.0125 	 105.151 	 
H 	 -53.9419 	 38.3252 	 113.423 	 
*
