! wB97X-D3 SP def2-SVP
%pal
nprocs 16
end

* xyz 0 1
S 	 -52.8175 	 26.2166 	 96.6871 	 
C 	 -51.1114 	 26.1007 	 96.5481 	 
C 	 -50.6136 	 26.4793 	 95.3019 	 
C 	 -51.6239 	 27.1044 	 94.4412 	 
C 	 -52.845 	 27.1159 	 95.1156 	 
H 	 -51.5539 	 27.5225 	 93.4124 	 
C 	 -49.158 	 26.3087 	 94.8713 	 
H 	 -48.6718 	 27.1827 	 95.1044 	 
H 	 -48.9809 	 26.1739 	 93.8168 	 
C 	 -48.4923 	 25.1186 	 95.4838 	 
H 	 -48.4612 	 25.351 	 96.523 	 
H 	 -48.9092 	 24.1784 	 95.3821 	 
C 	 -47.0285 	 25.1298 	 95.0666 	 
H 	 -46.438 	 24.414 	 95.5606 	 
H 	 -46.9397 	 25.0023 	 93.999 	 
H 	 -46.6249 	 26.0834 	 95.4707 	 
S 	 -55.1353 	 26.7264 	 93.6051 	 
C 	 -56.1048 	 28.1117 	 93.2509 	 
C 	 -55.7273 	 29.2209 	 93.9934 	 
C 	 -54.4993 	 29.0593 	 94.723 	 
C 	 -54.0828 	 27.7443 	 94.6442 	 
H 	 -56.1768 	 30.0925 	 93.6575 	 
C 	 -53.6903 	 30.1723 	 95.3862 	 
H 	 -53.0996 	 30.622 	 94.5591 	 
H 	 -52.8368 	 29.8152 	 95.9586 	 
C 	 -54.4692 	 31.3339 	 96.154 	 
H 	 -54.8388 	 31.0685 	 97.1665 	 
H 	 -55.446 	 31.4591 	 95.6384 	 
C 	 -53.632 	 32.5965 	 96.2328 	 
H 	 -52.6125 	 32.2929 	 96.4336 	 
H 	 -53.8335 	 33.3615 	 96.9706 	 
H 	 -53.6772 	 33.0313 	 95.2591 	 
H 	 -50.5297 	 25.536 	 97.3198 	 
H 	 -57.0378 	 28.1385 	 92.6794 	 
*
