! wB97X-D3 SP def2-SVP
%pal
nprocs 16
end

* xyz 0 1
S 	 65.1433 	 23.9017 	 73.6811 	 
C 	 66.2225 	 22.6161 	 73.4064 	 
C 	 67.2786 	 22.7549 	 74.3125 	 
C 	 67.1328 	 23.8046 	 75.3037 	 
C 	 65.9854 	 24.5072 	 75.0746 	 
H 	 67.7165 	 24.0286 	 76.1488 	 
C 	 68.3946 	 21.7171 	 74.4301 	 
H 	 69.2395 	 22.1818 	 74.9365 	 
H 	 68.79 	 21.6227 	 73.3832 	 
C 	 67.9866 	 20.3577 	 74.9427 	 
H 	 67.8684 	 20.3153 	 76.0308 	 
H 	 67.0459 	 20.1337 	 74.4424 	 
C 	 68.9133 	 19.1549 	 74.5902 	 
H 	 69.9036 	 19.3871 	 74.9101 	 
H 	 68.6167 	 18.2057 	 75.1108 	 
H 	 68.8661 	 18.917 	 73.5088 	 
S 	 65.012 	 27.0765 	 74.8378 	 
C 	 64.3627 	 27.9148 	 76.2555 	 
C 	 64.4693 	 27.0674 	 77.3683 	 
C 	 65.1154 	 25.8108 	 77.1731 	 
C 	 65.4223 	 25.6557 	 75.8233 	 
H 	 64.1297 	 27.3993 	 78.3389 	 
C 	 65.4744 	 24.8507 	 78.2774 	 
H 	 65.6976 	 23.853 	 77.8203 	 
H 	 64.6106 	 24.747 	 78.9076 	 
C 	 66.7421 	 25.3138 	 78.9451 	 
H 	 66.5179 	 26.3596 	 79.1539 	 
H 	 67.5463 	 25.2241 	 78.1606 	 
C 	 67.1939 	 24.6029 	 80.2279 	 
H 	 68.1439 	 25.0392 	 80.6385 	 
H 	 67.4165 	 23.486 	 80.0313 	 
H 	 66.3934 	 24.7282 	 80.9741 	 
H 	 66.1258 	 21.8814 	 72.6337 	 
H 	 63.8647 	 28.8324 	 76.2345 	 
*
