! wB97X-D3 SP def2-SVP
%pal
nprocs 16
end

* xyz 0 1
S 	 -13.6995 	 39.6642 	 37.5568 	 
C 	 -12.6649 	 40.15 	 36.2482 	 
C 	 -11.5595 	 39.2804 	 36.112 	 
C 	 -11.6725 	 38.2671 	 37.1379 	 
C 	 -12.7836 	 38.2709 	 37.942 	 
H 	 -10.8995 	 37.534 	 37.3656 	 
C 	 -10.421 	 39.5666 	 35.1148 	 
H 	 -9.56577 	 39.0074 	 35.4517 	 
H 	 -10.1575 	 40.6191 	 35.1208 	 
C 	 -10.6773 	 39.0201 	 33.6882 	 
H 	 -11.5268 	 39.5377 	 33.3343 	 
H 	 -9.83392 	 39.3645 	 33.082 	 
C 	 -10.9257 	 37.4558 	 33.5711 	 
H 	 -10.137 	 36.9754 	 34.1158 	 
H 	 -11.8319 	 37.316 	 34.1624 	 
H 	 -11.0087 	 37.045 	 32.5567 	 
S 	 -13.4256 	 38.1422 	 40.641 	 
C 	 -13.4775 	 36.5948 	 41.454 	 
C 	 -13.417 	 35.5818 	 40.5599 	 
C 	 -13.1361 	 35.9874 	 39.1783 	 
C 	 -13.0592 	 37.3858 	 39.1012 	 
H 	 -13.5549 	 34.5018 	 40.8659 	 
C 	 -12.8577 	 34.9451 	 38.1064 	 
H 	 -12.6855 	 35.4952 	 37.2107 	 
H 	 -13.7834 	 34.3592 	 37.9951 	 
C 	 -11.7445 	 33.9499 	 38.4652 	 
H 	 -11.7535 	 33.592 	 39.5381 	 
H 	 -10.779 	 34.445 	 38.393 	 
C 	 -11.5141 	 32.8321 	 37.4234 	 
H 	 -12.3875 	 32.1623 	 37.3845 	 
H 	 -10.654 	 32.3253 	 37.7413 	 
H 	 -11.2808 	 33.303 	 36.4804 	 
H 	 -12.7917 	 41.0482 	 35.5494 	 
H 	 -13.7885 	 36.4211 	 42.4641 	 
*
