! wB97X-D3 SP def2-SVP
%pal
nprocs 16
end

* xyz 0 1
S 	 1.66876 	 -20.2314 	 85.6675 	 
C 	 1.2749 	 -20.8633 	 87.2308 	 
C 	 2.0938 	 -21.9452 	 87.6041 	 
C 	 3.11536 	 -22.1024 	 86.6804 	 
C 	 3.11546 	 -21.2577 	 85.5898 	 
H 	 3.89375 	 -22.817 	 86.6851 	 
C 	 2.0151 	 -22.645 	 88.9079 	 
H 	 2.25044 	 -23.7663 	 88.721 	 
H 	 0.920616 	 -22.7317 	 89.2227 	 
C 	 2.93346 	 -22.261 	 90.0626 	 
H 	 2.57129 	 -22.7952 	 90.9309 	 
H 	 3.92787 	 -22.5699 	 89.8099 	 
C 	 3.00561 	 -20.7696 	 90.5438 	 
H 	 3.47616 	 -20.7318 	 91.5797 	 
H 	 3.49042 	 -20.1604 	 89.7203 	 
H 	 1.91795 	 -20.4136 	 90.4613 	 
S 	 4.77223 	 -22.81 	 83.9439 	 
C 	 5.81708 	 -22.0367 	 82.772 	 
C 	 5.46827 	 -20.6939 	 82.6954 	 
C 	 4.49753 	 -20.2534 	 83.6462 	 
C 	 4.07036 	 -21.3119 	 84.4532 	 
H 	 5.96939 	 -19.9534 	 82.0746 	 
C 	 4.08945 	 -18.7832 	 83.8745 	 
H 	 4.86761 	 -18.2239 	 83.496 	 
H 	 4.19416 	 -18.4445 	 84.9176 	 
C 	 2.87063 	 -18.3675 	 83.0696 	 
H 	 2.15446 	 -19.1782 	 83.075 	 
H 	 3.11617 	 -18.1256 	 82.0549 	 
C 	 2.14359 	 -17.1246 	 83.5914 	 
H 	 1.23446 	 -16.8882 	 83.0487 	 
H 	 2.79804 	 -16.236 	 83.5555 	 
H 	 1.87332 	 -17.3747 	 84.598 	 
H 	 0.530834 	 -20.3787 	 87.9482 	 
H 	 6.70394 	 -22.4523 	 82.2784 	 
*
