! wB97X-D3 SP def2-SVP
%pal
nprocs 16
end

* xyz 0 1
S 	 -97.8966 	 43.117 	 126.554 	 
C 	 -98.2293 	 42.4419 	 128.186 	 
C 	 -97.1346 	 41.7928 	 128.624 	 
C 	 -96.1271 	 41.6134 	 127.643 	 
C 	 -96.4971 	 42.0334 	 126.399 	 
H 	 -95.1761 	 41.1453 	 127.729 	 
C 	 -96.87 	 41.5342 	 130.127 	 
H 	 -97.2818 	 42.3951 	 130.66 	 
H 	 -95.8262 	 41.6251 	 130.425 	 
C 	 -97.5402 	 40.2979 	 130.749 	 
H 	 -97.084 	 40.1247 	 131.723 	 
H 	 -98.5629 	 40.6387 	 130.973 	 
C 	 -97.5034 	 39.0454 	 129.804 	 
H 	 -96.5315 	 39.0537 	 129.239 	 
H 	 -97.6404 	 38.102 	 130.406 	 
H 	 -98.3603 	 39.18 	 129.09 	 
S 	 -95.1381 	 40.2176 	 124.783 	 
C 	 -94.2642 	 40.8185 	 123.431 	 
C 	 -94.5711 	 42.0773 	 123.08 	 
C 	 -95.3689 	 42.6513 	 124.104 	 
C 	 -95.6417 	 41.8369 	 125.19 	 
H 	 -94.2616 	 42.6642 	 122.23 	 
C 	 -95.8428 	 44.1123 	 123.925 	 
H 	 -96.0698 	 44.4818 	 124.947 	 
H 	 -96.8933 	 44.1251 	 123.39 	 
C 	 -94.9678 	 45.2416 	 123.393 	 
H 	 -94.6701 	 45.0695 	 122.343 	 
H 	 -94.0514 	 45.1812 	 124.05 	 
C 	 -95.725 	 46.5625 	 123.395 	 
H 	 -96.7339 	 46.445 	 122.93 	 
H 	 -95.2622 	 47.4283 	 122.882 	 
H 	 -95.686 	 46.8658 	 124.394 	 
H 	 -99.1597 	 42.5661 	 128.741 	 
H 	 -93.5529 	 40.158 	 122.84 	 
*
