! wB97X-D3 SP def2-SVP
%pal
nprocs 16
end

* xyz 0 1
S 	 36.6228 	 29.646 	 92.2841 	 
C 	 35.2552 	 30.606 	 91.7717 	 
C 	 34.1192 	 30.2494 	 92.4625 	 
C 	 34.3016 	 29.139 	 93.3174 	 
C 	 35.603 	 28.6801 	 93.3455 	 
H 	 33.4901 	 28.611 	 93.8972 	 
C 	 32.7456 	 30.9141 	 92.1857 	 
H 	 32.8939 	 31.7612 	 91.5419 	 
H 	 32.2546 	 31.1801 	 93.0474 	 
C 	 31.6582 	 30.0562 	 91.4403 	 
H 	 31.3712 	 29.1074 	 91.911 	 
H 	 30.7178 	 30.5652 	 91.3826 	 
C 	 32.1587 	 29.6044 	 90.1076 	 
H 	 32.6353 	 28.6129 	 90.1858 	 
H 	 31.3494 	 29.4468 	 89.4685 	 
H 	 32.774 	 30.3096 	 89.6388 	 
S 	 37.5036 	 27.9304 	 95.1706 	 
C 	 37.4806 	 26.3382 	 95.9082 	 
C 	 36.4664 	 25.5869 	 95.35 	 
C 	 35.6331 	 26.2963 	 94.4453 	 
C 	 36.1123 	 27.5707 	 94.1398 	 
H 	 36.2665 	 24.5656 	 95.5837 	 
C 	 34.365 	 25.7535 	 93.8786 	 
H 	 33.5189 	 26.5164 	 94.1396 	 
H 	 34.0308 	 24.8839 	 94.4709 	 
C 	 34.1957 	 25.3635 	 92.4154 	 
H 	 34.9603 	 24.6441 	 92.275 	 
H 	 34.5304 	 26.1673 	 91.6613 	 
C 	 32.8287 	 24.7722 	 92.131 	 
H 	 32.0204 	 25.4458 	 92.3477 	 
H 	 32.726 	 23.7959 	 92.613 	 
H 	 32.77 	 24.6423 	 91.0799 	 
H 	 35.2136 	 31.4295 	 91.047 	 
H 	 38.2104 	 26.065 	 96.6364 	 
*
