! wB97X-D3 SP def2-SVP
%pal
nprocs 16
end

* xyz 0 1
S 	 -65.033 	 45.4635 	 121.31 	 
C 	 -65.7025 	 44.2773 	 122.417 	 
C 	 -66.0208 	 44.8179 	 123.68 	 
C 	 -65.9292 	 46.2212 	 123.57 	 
C 	 -65.5493 	 46.7569 	 122.354 	 
H 	 -66.2109 	 46.8806 	 124.384 	 
C 	 -66.5367 	 44.1173 	 124.922 	 
H 	 -65.7024 	 44.0157 	 125.607 	 
H 	 -66.9528 	 43.1911 	 124.643 	 
C 	 -67.6442 	 44.8814 	 125.732 	 
H 	 -67.1834 	 45.7842 	 126.197 	 
H 	 -68.449 	 45.2446 	 125.034 	 
C 	 -68.1746 	 43.9023 	 126.779 	 
H 	 -69.0685 	 44.256 	 127.193 	 
H 	 -68.5464 	 42.9677 	 126.414 	 
H 	 -67.4292 	 43.6148 	 127.404 	 
S 	 -66.042 	 48.684 	 120.348 	 
C 	 -65.5563 	 50.3384 	 120.64 	 
C 	 -65.2039 	 50.5236 	 121.926 	 
C 	 -65.0361 	 49.3356 	 122.64 	 
C 	 -65.4812 	 48.1703 	 121.929 	 
H 	 -65.1031 	 51.5654 	 122.139 	 
C 	 -64.4657 	 49.3705 	 124.11 	 
H 	 -63.7779 	 48.5265 	 124.32 	 
H 	 -65.2743 	 49.0516 	 124.712 	 
C 	 -64.0656 	 50.7026 	 124.742 	 
H 	 -64.949 	 51.4201 	 124.652 	 
H 	 -63.1854 	 51.1188 	 124.172 	 
C 	 -63.8671 	 50.6173 	 126.277 	 
H 	 -64.7094 	 50.2766 	 126.869 	 
H 	 -63.6694 	 51.6695 	 126.738 	 
H 	 -62.9511 	 50.0518 	 126.564 	 
H 	 -65.7198 	 43.2051 	 122.311 	 
H 	 -65.6104 	 51.2591 	 120.005 	 
*
