! wB97X-D3 SP def2-SVP
%pal
nprocs 16
end

* xyz 0 1
S 	 51.9485 	 1.71322 	 92.9843 	 
C 	 53.4192 	 2.70077 	 93.2222 	 
C 	 53.294 	 3.88995 	 92.4809 	 
C 	 51.9765 	 4.07433 	 91.9218 	 
C 	 51.1043 	 3.05276 	 92.189 	 
H 	 51.7518 	 4.95251 	 91.3724 	 
C 	 54.385 	 4.88246 	 92.3051 	 
H 	 54.4535 	 5.01963 	 91.15 	 
H 	 55.3174 	 4.40806 	 92.5528 	 
C 	 54.2419 	 6.22432 	 92.9469 	 
H 	 55.0361 	 6.80825 	 92.5763 	 
H 	 53.352 	 6.77432 	 92.6491 	 
C 	 54.2345 	 6.21702 	 94.4472 	 
H 	 54.5856 	 7.26497 	 94.708 	 
H 	 53.26 	 5.79944 	 94.7425 	 
H 	 55.0279 	 5.56828 	 94.7832 	 
S 	 49.4519 	 1.59266 	 90.5671 	 
C 	 47.83 	 1.98783 	 90.3727 	 
C 	 47.4892 	 3.11423 	 91.0947 	 
C 	 48.5397 	 3.59336 	 91.8977 	 
C 	 49.7266 	 2.93556 	 91.6323 	 
H 	 46.4543 	 3.42901 	 90.9283 	 
C 	 48.4409 	 4.75132 	 92.8273 	 
H 	 47.8128 	 5.44262 	 92.297 	 
H 	 49.4208 	 5.33238 	 92.9313 	 
C 	 47.7812 	 4.43415 	 94.1437 	 
H 	 46.8975 	 3.75744 	 94.0075 	 
H 	 47.4905 	 5.27481 	 94.7137 	 
C 	 48.9007 	 3.82784 	 94.9614 	 
H 	 49.0835 	 2.83852 	 94.5837 	 
H 	 48.5499 	 3.58326 	 95.9848 	 
H 	 49.7847 	 4.43278 	 95.1148 	 
H 	 54.3543 	 2.32839 	 93.6463 	 
H 	 47.2015 	 1.56987 	 89.6493 	 
*
