! wB97X-D3 SP def2-SVP
%pal
nprocs 16
end

* xyz 0 1
S 	 0.158678 	 -11.8533 	 81.0104 	 
C 	 -0.750222 	 -12.3532 	 82.4701 	 
C 	 -2.1044 	 -12.2058 	 82.4054 	 
C 	 -2.4574 	 -11.5317 	 81.1868 	 
C 	 -1.37647 	 -11.2692 	 80.3644 	 
H 	 -3.46576 	 -11.3065 	 80.8147 	 
C 	 -3.14567 	 -12.5694 	 83.4497 	 
H 	 -3.82784 	 -11.6584 	 83.6508 	 
H 	 -2.60497 	 -12.6606 	 84.368 	 
C 	 -3.97727 	 -13.749 	 82.9949 	 
H 	 -4.55135 	 -13.5056 	 82.0933 	 
H 	 -3.30769 	 -14.6368 	 82.6992 	 
C 	 -4.97944 	 -14.2388 	 83.9929 	 
H 	 -5.74626 	 -13.4837 	 84.2503 	 
H 	 -5.52007 	 -15.1388 	 83.6125 	 
H 	 -4.5137 	 -14.4152 	 84.9209 	 
S 	 -0.584781 	 -11.8091 	 77.8037 	 
C 	 -1.10946 	 -10.7129 	 76.5164 	 
C 	 -2.01969 	 -9.82645 	 76.9664 	 
C 	 -2.09328 	 -9.72174 	 78.3703 	 
C 	 -1.38231 	 -10.7785 	 79.0026 	 
H 	 -2.56889 	 -9.22516 	 76.2888 	 
C 	 -3.03521 	 -8.71534 	 78.9732 	 
H 	 -4.08239 	 -9.1088 	 78.994 	 
H 	 -3.1968 	 -7.94831 	 78.2302 	 
C 	 -2.68263 	 -8.10961 	 80.3547 	 
H 	 -1.58057 	 -7.99442 	 80.3303 	 
H 	 -2.95568 	 -8.76932 	 81.162 	 
C 	 -3.23692 	 -6.71555 	 80.6533 	 
H 	 -2.87093 	 -6.03184 	 79.9233 	 
H 	 -2.8604 	 -6.18296 	 81.5941 	 
H 	 -4.34013 	 -6.71866 	 80.664 	 
H 	 -0.209166 	 -12.783 	 83.3193 	 
H 	 -1.02309 	 -10.9241 	 75.4848 	 
*
