! wB97X-D3 SP def2-SVP
%pal
nprocs 16
end

* xyz 0 1
S 	 3.48675 	 -18.4682 	 86.6189 	 
C 	 3.52078 	 -19.7836 	 87.7779 	 
C 	 4.40757 	 -19.5163 	 88.8212 	 
C 	 4.99577 	 -18.1981 	 88.693 	 
C 	 4.66123 	 -17.5714 	 87.5214 	 
H 	 5.71985 	 -17.6872 	 89.3768 	 
C 	 4.72993 	 -20.4527 	 89.9673 	 
H 	 5.36452 	 -19.8688 	 90.6285 	 
H 	 5.42412 	 -21.2212 	 89.6267 	 
C 	 3.45775 	 -20.9859 	 90.8206 	 
H 	 3.68368 	 -21.0876 	 91.9117 	 
H 	 2.73793 	 -20.1366 	 90.8315 	 
C 	 2.70417 	 -22.1934 	 90.1877 	 
H 	 1.64484 	 -22.1834 	 90.4864 	 
H 	 2.61578 	 -22.087 	 89.1189 	 
H 	 3.12573 	 -23.1899 	 90.4716 	 
S 	 5.83541 	 -16.2954 	 85.2939 	 
C 	 6.03537 	 -14.5906 	 85.3353 	 
C 	 5.81876 	 -14.1418 	 86.5933 	 
C 	 5.37709 	 -15.1291 	 87.5376 	 
C 	 5.22075 	 -16.3457 	 86.986 	 
H 	 6.02029 	 -13.118 	 86.842 	 
C 	 4.95413 	 -14.6701 	 88.8889 	 
H 	 4.37333 	 -15.4539 	 89.3274 	 
H 	 4.21862 	 -13.9041 	 88.7732 	 
C 	 6.04466 	 -14.213 	 89.988 	 
H 	 5.57395 	 -13.9635 	 90.9329 	 
H 	 6.40603 	 -13.1657 	 89.7598 	 
C 	 7.19914 	 -15.3374 	 90.1798 	 
H 	 7.46355 	 -15.8447 	 89.2204 	 
H 	 6.94694 	 -16.0397 	 90.938 	 
H 	 8.14184 	 -14.9446 	 90.5578 	 
H 	 2.94301 	 -20.7053 	 87.7477 	 
H 	 6.24878 	 -14.0054 	 84.5194 	 
*
