! wB97X-D3 SP def2-SVP
%pal
nprocs 16
end

* xyz 0 1
S 	 51.6871 	 9.85498 	 92.5217 	 
C 	 51.1972 	 11.6403 	 92.6587 	 
C 	 51.1263 	 12.1633 	 91.3873 	 
C 	 51.2796 	 11.1756 	 90.3353 	 
C 	 51.5627 	 9.96181 	 90.8299 	 
H 	 51.2843 	 11.2255 	 89.2926 	 
C 	 50.649 	 13.5431 	 91.0709 	 
H 	 49.5747 	 13.7206 	 91.2862 	 
H 	 50.7563 	 13.7123 	 90.0095 	 
C 	 51.364 	 14.6584 	 91.8195 	 
H 	 50.9623 	 15.675 	 91.5862 	 
H 	 51.2086 	 14.5864 	 92.8505 	 
C 	 52.8794 	 14.7204 	 91.4326 	 
H 	 52.961 	 14.9718 	 90.3619 	 
H 	 53.4217 	 15.5564 	 91.9135 	 
H 	 53.3722 	 13.805 	 91.6151 	 
S 	 53.2408 	 7.97119 	 90.022 	 
C 	 52.5993 	 6.85632 	 88.8635 	 
C 	 51.2433 	 6.9336 	 88.7213 	 
C 	 50.6581 	 8.03747 	 89.4339 	 
C 	 51.6139 	 8.77483 	 90.0862 	 
H 	 50.742 	 6.29847 	 87.9776 	 
C 	 49.1799 	 8.28719 	 89.2047 	 
H 	 48.8744 	 7.67392 	 88.3706 	 
H 	 49.1937 	 9.30249 	 88.7236 	 
C 	 48.2285 	 8.31004 	 90.4726 	 
H 	 48.419 	 9.30466 	 91.0019 	 
H 	 48.457 	 7.44665 	 91.1421 	 
C 	 46.7595 	 8.16008 	 90.041 	 
H 	 46.3991 	 9.16212 	 89.9352 	 
H 	 46.1724 	 7.70257 	 90.8609 	 
H 	 46.5131 	 7.62984 	 89.0378 	 
H 	 50.981 	 12.2171 	 93.5329 	 
H 	 53.1669 	 6.03741 	 88.4609 	 
*
