! wB97X-D3 SP def2-SVP
%pal
nprocs 16
end

* xyz 0 1
S 	 50.7081 	 10.0034 	 88.7178 	 
C 	 50.8838 	 11.1885 	 90.0311 	 
C 	 52.2328 	 11.506 	 90.2418 	 
C 	 53.0286 	 10.9789 	 89.1451 	 
C 	 52.2961 	 10.2064 	 88.2186 	 
H 	 54.1259 	 11.0594 	 89.1205 	 
C 	 52.8514 	 12.4904 	 91.2056 	 
H 	 52.0424 	 13.1711 	 91.4507 	 
H 	 53.4828 	 13.1747 	 90.6045 	 
C 	 53.4821 	 12.0481 	 92.4695 	 
H 	 54.0259 	 12.9043 	 92.9512 	 
H 	 52.6667 	 11.7198 	 93.0076 	 
C 	 54.441 	 10.8834 	 92.2699 	 
H 	 55.2428 	 11.069 	 91.5152 	 
H 	 55.0839 	 10.6914 	 93.1202 	 
H 	 53.8832 	 9.9626 	 91.9943 	 
S 	 54.35 	 8.51651 	 87.4586 	 
C 	 54.5539 	 8.16712 	 85.7799 	 
C 	 53.5368 	 8.69074 	 85.012 	 
C 	 52.5769 	 9.47908 	 85.742 	 
C 	 52.9443 	 9.55929 	 87.0827 	 
H 	 53.5155 	 8.51946 	 83.911 	 
C 	 51.4871 	 10.313 	 85.0099 	 
H 	 51.9051 	 11.1692 	 84.5121 	 
H 	 50.825 	 10.7204 	 85.7811 	 
C 	 50.6484 	 9.47245 	 84.0791 	 
H 	 50.3283 	 8.52713 	 84.6092 	 
H 	 51.1032 	 9.11436 	 83.2059 	 
C 	 49.3893 	 10.2215 	 83.5424 	 
H 	 49.7294 	 10.9078 	 82.7263 	 
H 	 49.0034 	 10.9209 	 84.2912 	 
H 	 48.5914 	 9.5014 	 83.2754 	 
H 	 50.0984 	 11.549 	 90.6246 	 
H 	 55.2744 	 7.4688 	 85.3929 	 
*
