! wB97X-D3 SP def2-SVP
%pal
nprocs 16
end

* xyz 0 1
S 	 -42.8467 	 25.5313 	 88.0272 	 
C 	 -42.7896 	 27.212 	 88.5039 	 
C 	 -42.366 	 28.0471 	 87.4625 	 
C 	 -42.2046 	 27.2921 	 86.296 	 
C 	 -42.6356 	 25.9619 	 86.3948 	 
H 	 -42.0119 	 27.6481 	 85.3017 	 
C 	 -42.1557 	 29.5676 	 87.5789 	 
H 	 -41.3597 	 29.7539 	 86.877 	 
H 	 -41.7089 	 29.7555 	 88.5427 	 
C 	 -43.4526 	 30.3759 	 87.2972 	 
H 	 -44.0659 	 30.1685 	 86.4317 	 
H 	 -44.0592 	 30.0222 	 88.1347 	 
C 	 -43.0921 	 31.8874 	 87.4371 	 
H 	 -42.6224 	 32.2779 	 86.547 	 
H 	 -44.0368 	 32.3614 	 87.6657 	 
H 	 -42.4745 	 32.212 	 88.2511 	 
S 	 -44.2618 	 25.4104 	 84.2859 	 
C 	 -43.9264 	 24.0467 	 83.294 	 
C 	 -42.8201 	 23.3307 	 83.7384 	 
C 	 -42.1413 	 23.9568 	 84.8288 	 
C 	 -42.8344 	 25.0954 	 85.2937 	 
H 	 -42.5758 	 22.4402 	 83.2384 	 
C 	 -40.8677 	 23.3931 	 85.4362 	 
H 	 -40.6945 	 22.3508 	 85.1883 	 
H 	 -40.8615 	 23.4274 	 86.5598 	 
C 	 -39.6844 	 24.2757 	 84.9413 	 
H 	 -38.8054 	 23.9841 	 85.4902 	 
H 	 -39.7458 	 25.3627 	 85.2488 	 
C 	 -39.3596 	 24.191 	 83.4546 	 
H 	 -38.7928 	 23.2761 	 83.2155 	 
H 	 -38.8051 	 25.0476 	 83.1021 	 
H 	 -40.2785 	 24.1895 	 82.8891 	 
H 	 -43.0586 	 27.6217 	 89.493 	 
H 	 -44.4435 	 23.7138 	 82.3976 	 
*
