! wB97X-D3 SP def2-SVP
%pal
nprocs 16
end

* xyz 0 1
S 	 3.24289 	 -20.8775 	 54.6308 	 
C 	 1.77603 	 -21.7551 	 54.1545 	 
C 	 2.11988 	 -22.9428 	 53.5562 	 
C 	 3.58359 	 -23.1521 	 53.6036 	 
C 	 4.34199 	 -22.1327 	 54.0806 	 
H 	 4.08984 	 -24.0203 	 53.2096 	 
C 	 1.145 	 -23.8344 	 52.7882 	 
H 	 1.65537 	 -24.0897 	 51.8683 	 
H 	 0.267207 	 -23.3848 	 52.4123 	 
C 	 0.672383 	 -25.14 	 53.4359 	 
H 	 0.420864 	 -25.9234 	 52.7557 	 
H 	 1.47072 	 -25.5679 	 54.0385 	 
C 	 -0.717286 	 -25.0766 	 54.2222 	 
H 	 -1.55982 	 -24.62 	 53.6367 	 
H 	 -0.957094 	 -26.1309 	 54.3871 	 
H 	 -0.636304 	 -24.5678 	 55.1933 	 
S 	 6.49742 	 -22.3817 	 52.4302 	 
C 	 8.09205 	 -21.8424 	 52.9072 	 
C 	 8.0236 	 -21.1639 	 54.1457 	 
C 	 6.73749 	 -21.3224 	 54.7476 	 
C 	 5.76665 	 -22.0086 	 53.9585 	 
H 	 8.82351 	 -20.7198 	 54.6738 	 
C 	 6.42603 	 -20.6568 	 56.0801 	 
H 	 5.34504 	 -20.6245 	 56.2781 	 
H 	 6.65784 	 -19.5574 	 56.0761 	 
C 	 7.05334 	 -21.2971 	 57.3898 	 
H 	 6.52502 	 -20.8633 	 58.3227 	 
H 	 8.05819 	 -21.0089 	 57.4281 	 
C 	 6.91648 	 -22.8182 	 57.4731 	 
H 	 5.93952 	 -23.2743 	 57.4549 	 
H 	 7.26355 	 -23.2363 	 58.4283 	 
H 	 7.61992 	 -23.3112 	 56.8072 	 
H 	 0.804096 	 -21.4202 	 54.2179 	 
H 	 8.97587 	 -22.0403 	 52.3545 	 
*
