! wB97X-D3 SP def2-SVP
%pal
nprocs 16
end

* xyz 0 1
S 	 45.7302 	 16.5644 	 86.2279 	 
C 	 46.1331 	 18.2306 	 85.8826 	 
C 	 45.2828 	 19.1395 	 86.5174 	 
C 	 44.326 	 18.4227 	 87.3047 	 
C 	 44.4608 	 17.0754 	 87.3182 	 
H 	 43.5697 	 18.9085 	 87.933 	 
C 	 45.2878 	 20.6472 	 86.3844 	 
H 	 44.3093 	 21.0576 	 86.2033 	 
H 	 45.9362 	 20.8319 	 85.5248 	 
C 	 45.7825 	 21.3905 	 87.6027 	 
H 	 44.9642 	 21.2013 	 88.2777 	 
H 	 46.6559 	 20.8369 	 88.1687 	 
C 	 45.9636 	 22.9538 	 87.398 	 
H 	 46.8169 	 23.2622 	 86.7997 	 
H 	 45.1146 	 23.3451 	 86.8064 	 
H 	 45.952 	 23.4732 	 88.3982 	 
S 	 43.0706 	 14.6458 	 87.5557 	 
C 	 42.2903 	 14.2097 	 88.9937 	 
C 	 42.6636 	 14.9868 	 90.0617 	 
C 	 43.5157 	 16.0838 	 89.5979 	 
C 	 43.7551 	 16.1071 	 88.2058 	 
H 	 42.1686 	 14.819 	 91.0102 	 
C 	 44.117 	 16.9957 	 90.6123 	 
H 	 43.3441 	 17.409 	 91.291 	 
H 	 44.5071 	 17.7627 	 89.9631 	 
C 	 45.2663 	 16.3941 	 91.4036 	 
H 	 45.7764 	 15.6807 	 90.7555 	 
H 	 44.8594 	 15.7189 	 92.1222 	 
C 	 46.3091 	 17.3077 	 92.0139 	 
H 	 46.8971 	 16.7768 	 92.7719 	 
H 	 45.8645 	 18.2182 	 92.4617 	 
H 	 47.048 	 17.6056 	 91.2575 	 
H 	 47.0494 	 18.5774 	 85.3695 	 
H 	 41.6829 	 13.352 	 89.1699 	 
*
