! wB97X-D3 SP def2-SVP
%pal
nprocs 16
end

* xyz 0 1
S 	 26.8662 	 13.3632 	 67.048 	 
C 	 26.2848 	 14.9549 	 67.5885 	 
C 	 25.413 	 14.766 	 68.6954 	 
C 	 25.6546 	 13.4488 	 69.2827 	 
C 	 26.5543 	 12.65 	 68.6107 	 
H 	 25.2983 	 13.2047 	 70.2372 	 
C 	 24.53 	 15.7953 	 69.2562 	 
H 	 23.5596 	 15.5723 	 68.7704 	 
H 	 24.7952 	 16.7707 	 68.871 	 
C 	 24.3116 	 15.8895 	 70.7601 	 
H 	 23.9314 	 14.95 	 71.2301 	 
H 	 25.3083 	 16.0685 	 71.1901 	 
C 	 23.2624 	 16.9637 	 71.103 	 
H 	 23.3934 	 17.9666 	 70.6726 	 
H 	 22.2513 	 16.6338 	 70.8195 	 
H 	 23.0406 	 17.0297 	 72.1382 	 
S 	 27.3512 	 10.2979 	 67.5393 	 
C 	 27.482 	 8.90676 	 68.5485 	 
C 	 27.3999 	 9.23106 	 69.8712 	 
C 	 27.1673 	 10.6106 	 70.1486 	 
C 	 26.9717 	 11.2865 	 68.9465 	 
H 	 27.5501 	 8.43972 	 70.5422 	 
C 	 26.862 	 11.0714 	 71.6014 	 
H 	 27.0096 	 12.1674 	 71.4623 	 
H 	 27.5455 	 10.7023 	 72.302 	 
C 	 25.419 	 10.7151 	 71.9849 	 
H 	 25.3433 	 9.70331 	 72.1797 	 
H 	 24.7208 	 10.9497 	 71.1967 	 
C 	 24.9675 	 11.4974 	 73.2827 	 
H 	 23.9945 	 11.1472 	 73.6976 	 
H 	 24.7686 	 12.5152 	 73.0795 	 
H 	 25.7488 	 11.4583 	 74.1454 	 
H 	 26.0898 	 15.805 	 66.9543 	 
H 	 27.6741 	 7.92861 	 68.1304 	 
*
