! wB97X-D3 SP def2-SVP
%pal
nprocs 16
end

* xyz 0 1
S 	 -14.424 	 31.2159 	 36.3311 	 
C 	 -13.0733 	 32.3709 	 36.1866 	 
C 	 -13.2512 	 33.0394 	 34.9749 	 
C 	 -14.2106 	 32.4049 	 34.1289 	 
C 	 -14.9075 	 31.3477 	 34.6754 	 
H 	 -14.6212 	 32.819 	 33.1354 	 
C 	 -12.499 	 34.2196 	 34.5023 	 
H 	 -11.5777 	 34.1634 	 35.1224 	 
H 	 -13.0328 	 35.1436 	 34.8557 	 
C 	 -12.1998 	 34.3052 	 33.0138 	 
H 	 -11.7987 	 33.3974 	 32.5683 	 
H 	 -13.1519 	 34.4963 	 32.5225 	 
C 	 -11.3291 	 35.4394 	 32.6232 	 
H 	 -10.5112 	 35.2537 	 31.8788 	 
H 	 -11.8852 	 36.1831 	 32.1058 	 
H 	 -10.788 	 35.8465 	 33.505 	 
S 	 -17.3096 	 30.1775 	 35.2507 	 
C 	 -18.2936 	 29.5348 	 33.9544 	 
C 	 -17.7044 	 29.6303 	 32.7525 	 
C 	 -16.3953 	 30.3418 	 32.8356 	 
C 	 -16.0357 	 30.5686 	 34.1456 	 
H 	 -18.217 	 29.3108 	 31.8696 	 
C 	 -15.5474 	 30.5845 	 31.5653 	 
H 	 -15.3301 	 29.6424 	 31.0575 	 
H 	 -14.5857 	 30.9779 	 31.9674 	 
C 	 -16.1564 	 31.5941 	 30.5577 	 
H 	 -17.2042 	 31.3307 	 30.4321 	 
H 	 -15.6218 	 31.4657 	 29.6708 	 
C 	 -15.9937 	 33.0354 	 30.8627 	 
H 	 -16.3994 	 33.78 	 30.1062 	 
H 	 -14.9291 	 33.208 	 31.0538 	 
H 	 -16.5339 	 33.3446 	 31.7359 	 
H 	 -12.4346 	 32.6372 	 37.053 	 
H 	 -19.2231 	 28.9587 	 34.0679 	 
*
