! wB97X-D3 SP def2-SVP
%pal
nprocs 16
end

* xyz 0 1
S 	 -40.6678 	 28.1072 	 93.3761 	 
C 	 -41.7105 	 28.4892 	 94.6903 	 
C 	 -42.5652 	 29.5287 	 94.4953 	 
C 	 -42.2457 	 30.113 	 93.2393 	 
C 	 -41.2057 	 29.6007 	 92.5299 	 
H 	 -42.7684 	 31.0878 	 92.9229 	 
C 	 -43.7568 	 29.9835 	 95.3959 	 
H 	 -43.9126 	 29.265 	 96.1775 	 
H 	 -44.6274 	 29.9017 	 94.759 	 
C 	 -43.7506 	 31.4395 	 96.0056 	 
H 	 -44.7732 	 31.7081 	 96.3072 	 
H 	 -43.2221 	 31.5265 	 96.9247 	 
C 	 -43.0377 	 32.5851 	 95.2035 	 
H 	 -43.377 	 32.7521 	 94.1758 	 
H 	 -43.2022 	 33.5536 	 95.6308 	 
H 	 -41.9939 	 32.4785 	 95.2149 	 
S 	 -38.9782 	 30.2001 	 91.1378 	 
C 	 -39.1078 	 30.1432 	 89.3476 	 
C 	 -40.4518 	 30.1329 	 88.9351 	 
C 	 -41.3734 	 29.9347 	 90.0064 	 
C 	 -40.7038 	 29.9034 	 91.1998 	 
H 	 -40.6483 	 30.1748 	 87.8538 	 
C 	 -42.8447 	 29.794 	 89.7429 	 
H 	 -43.0718 	 29.8607 	 88.6194 	 
H 	 -43.3957 	 30.6811 	 90.036 	 
C 	 -43.5489 	 28.4955 	 90.3008 	 
H 	 -44.6219 	 28.5758 	 90.2323 	 
H 	 -43.4794 	 28.5446 	 91.3311 	 
C 	 -43.0866 	 27.1763 	 89.5715 	 
H 	 -42.0329 	 26.9736 	 89.9046 	 
H 	 -43.1295 	 27.2122 	 88.4695 	 
H 	 -43.7223 	 26.3677 	 89.9125 	 
H 	 -41.7478 	 27.782 	 95.513 	 
H 	 -38.2407 	 30.3975 	 88.6892 	 
*
