! wB97X-D3 SP def2-SVP
%pal
nprocs 16
end

* xyz 0 1
S 	 40.2135 	 14.0438 	 81.5539 	 
C 	 41.3722 	 14.4933 	 80.3027 	 
C 	 42.5598 	 13.7706 	 80.456 	 
C 	 42.6596 	 13.1242 	 81.688 	 
C 	 41.5208 	 13.1517 	 82.4316 	 
H 	 43.5264 	 12.5298 	 82.0207 	 
C 	 43.5535 	 13.7565 	 79.342 	 
H 	 44.5818 	 13.6975 	 79.7477 	 
H 	 43.5527 	 14.7324 	 78.7716 	 
C 	 43.3382 	 12.5415 	 78.3921 	 
H 	 42.4418 	 12.7738 	 77.8239 	 
H 	 44.1938 	 12.7436 	 77.7906 	 
C 	 43.3324 	 11.1265 	 78.9341 	 
H 	 43.254 	 10.3779 	 78.2605 	 
H 	 44.3515 	 11.1402 	 79.318 	 
H 	 42.6802 	 11.0344 	 79.7884 	 
S 	 42.3926 	 12.183 	 84.9083 	 
C 	 41.2388 	 11.4129 	 85.933 	 
C 	 39.9841 	 11.3727 	 85.3541 	 
C 	 39.9665 	 11.7425 	 83.9699 	 
C 	 41.1777 	 12.3236 	 83.604 	 
H 	 39.075 	 11.0584 	 85.937 	 
C 	 38.7731 	 11.5686 	 83.1455 	 
H 	 39.014 	 11.297 	 82.167 	 
H 	 38.4217 	 12.5225 	 83.0305 	 
C 	 37.767 	 10.5655 	 83.698 	 
H 	 37.2864 	 11.0366 	 84.4966 	 
H 	 38.3806 	 9.86482 	 84.1207 	 
C 	 36.6294 	 10.2735 	 82.6846 	 
H 	 35.843 	 9.84628 	 83.171 	 
H 	 36.9285 	 9.70499 	 81.8162 	 
H 	 36.2247 	 11.2918 	 82.3046 	 
H 	 41.1611 	 15.1118 	 79.4147 	 
H 	 41.4204 	 11.1979 	 86.9811 	 
*
