! wB97X-D3 SP def2-SVP
%pal
nprocs 16
end

* xyz 0 1
S 	 -7.28315 	 41.405 	 36.8007 	 
C 	 -7.37927 	 39.9085 	 35.8727 	 
C 	 -6.23735 	 39.1228 	 36.0568 	 
C 	 -5.18437 	 39.9061 	 36.6723 	 
C 	 -5.55652 	 41.1367 	 36.9636 	 
H 	 -4.27139 	 39.5287 	 36.9809 	 
C 	 -5.91045 	 37.7131 	 35.6991 	 
H 	 -4.91935 	 37.5572 	 35.256 	 
H 	 -6.63701 	 37.4197 	 34.991 	 
C 	 -5.84706 	 36.7183 	 36.847 	 
H 	 -4.92045 	 37.0219 	 37.378 	 
H 	 -6.66608 	 36.9541 	 37.5123 	 
C 	 -5.87599 	 35.2763 	 36.3863 	 
H 	 -6.78923 	 34.9756 	 35.8781 	 
H 	 -5.09517 	 35.0886 	 35.6681 	 
H 	 -5.88848 	 34.5031 	 37.1661 	 
S 	 -5.00214 	 42.543 	 39.2855 	 
C 	 -3.67932 	 43.6921 	 39.2342 	 
C 	 -3.12973 	 43.7431 	 37.9919 	 
C 	 -3.63602 	 42.7637 	 37.0838 	 
C 	 -4.69992 	 42.104 	 37.6233 	 
H 	 -2.26851 	 44.4006 	 37.8565 	 
C 	 -3.02053 	 42.541 	 35.6997 	 
H 	 -3.22673 	 43.4194 	 35.011 	 
H 	 -3.52731 	 41.7647 	 35.1231 	 
C 	 -1.49829 	 42.3113 	 35.6877 	 
H 	 -1.23653 	 41.5524 	 36.4524 	 
H 	 -0.930178 	 43.234 	 35.9991 	 
C 	 -0.891219 	 41.844 	 34.3713 	 
H 	 -1.19043 	 42.4686 	 33.5374 	 
H 	 -1.29669 	 40.8803 	 34.0964 	 
H 	 0.191847 	 41.7116 	 34.5054 	 
H 	 -8.28089 	 39.4312 	 35.5657 	 
H 	 -3.29335 	 44.1264 	 40.1356 	 
*
