! wB97X-D3 SP def2-SVP
%pal
nprocs 16
end

* xyz 0 1
S 	 -45.5136 	 54.3067 	 100.357 	 
C 	 -46.7369 	 52.9745 	 100.166 	 
C 	 -46.8553 	 52.5232 	 98.8464 	 
C 	 -46.0387 	 53.2279 	 97.9983 	 
C 	 -45.2644 	 54.1905 	 98.6322 	 
H 	 -45.9814 	 53.2215 	 96.9251 	 
C 	 -47.8594 	 51.4781 	 98.3586 	 
H 	 -48.8155 	 51.9297 	 97.9817 	 
H 	 -48.1435 	 50.8506 	 99.1951 	 
C 	 -47.3442 	 50.5151 	 97.3127 	 
H 	 -48.2221 	 49.9406 	 97.1721 	 
H 	 -46.9101 	 50.972 	 96.3987 	 
C 	 -46.2174 	 49.6164 	 97.8698 	 
H 	 -46.6023 	 48.979 	 98.7356 	 
H 	 -45.7751 	 48.9368 	 97.1585 	 
H 	 -45.4071 	 50.1505 	 98.4086 	 
S 	 -44.8134 	 56.4403 	 97.1462 	 
C 	 -43.1995 	 56.8091 	 96.7053 	 
C 	 -42.2833 	 56.0516 	 97.3597 	 
C 	 -42.8531 	 54.9612 	 98.0363 	 
C 	 -44.2638 	 55.0337 	 97.9967 	 
H 	 -41.2395 	 56.3359 	 97.2445 	 
C 	 -42.0578 	 53.862 	 98.6789 	 
H 	 -41.9934 	 53.1083 	 97.8754 	 
H 	 -42.6381 	 53.4007 	 99.4787 	 
C 	 -40.8291 	 54.3234 	 99.3655 	 
H 	 -40.153 	 54.9353 	 98.664 	 
H 	 -40.2391 	 53.5106 	 99.642 	 
C 	 -41.0871 	 55.2881 	 100.537 	 
H 	 -40.1429 	 55.4741 	 101.205 	 
H 	 -41.781 	 54.8376 	 101.259 	 
H 	 -41.4853 	 56.1904 	 100.172 	 
H 	 -47.2589 	 52.5977 	 100.982 	 
H 	 -42.8873 	 57.6019 	 96.0189 	 
*
