! wB97X-D3 SP def2-SVP
%pal
nprocs 16
end

* xyz 0 1
S 	 -8.93307 	 42.0437 	 36.5421 	 
C 	 -8.59776 	 40.5925 	 35.5308 	 
C 	 -7.37092 	 40.7784 	 34.9219 	 
C 	 -6.67112 	 41.9145 	 35.3159 	 
C 	 -7.36705 	 42.7481 	 36.2108 	 
H 	 -5.72066 	 42.1939 	 34.9835 	 
C 	 -6.67495 	 39.8352 	 33.9336 	 
H 	 -5.88336 	 40.3315 	 33.3894 	 
H 	 -7.39256 	 39.66 	 33.1345 	 
C 	 -6.13182 	 38.6203 	 34.7002 	 
H 	 -5.36996 	 38.8984 	 35.4951 	 
H 	 -6.91996 	 38.079 	 35.1566 	 
C 	 -5.4196 	 37.5881 	 33.766 	 
H 	 -5.49649 	 37.9806 	 32.7445 	 
H 	 -4.33853 	 37.5643 	 34.0037 	 
H 	 -5.93236 	 36.6422 	 33.7034 	 
S 	 -7.82225 	 45.4487 	 36.5727 	 
C 	 -6.57593 	 46.4512 	 37.0946 	 
C 	 -5.41257 	 45.7412 	 37.5423 	 
C 	 -5.61244 	 44.3487 	 37.2707 	 
C 	 -6.91582 	 44.0078 	 36.8003 	 
H 	 -4.57404 	 46.1826 	 38.1005 	 
C 	 -4.58588 	 43.3521 	 37.7343 	 
H 	 -5.0116 	 42.4136 	 37.901 	 
H 	 -4.23708 	 43.6891 	 38.7369 	 
C 	 -3.35253 	 43.2547 	 36.8279 	 
H 	 -2.84522 	 44.1508 	 36.7827 	 
H 	 -3.66758 	 43.0301 	 35.8036 	 
C 	 -2.45844 	 42.1333 	 37.3335 	 
H 	 -1.99648 	 42.1961 	 38.2522 	 
H 	 -1.55722 	 42.1337 	 36.6223 	 
H 	 -2.82895 	 41.1885 	 37.1072 	 
H 	 -9.17721 	 39.7966 	 35.1597 	 
H 	 -6.67751 	 47.5124 	 37.2671 	 
*
