! wB97X-D3 SP def2-SVP
%pal
nprocs 16
end

* xyz 0 1
S 	 43.0542 	 18.1647 	 78.0385 	 
C 	 42.8566 	 18.3079 	 79.737 	 
C 	 44.0427 	 18.0293 	 80.4051 	 
C 	 45.0844 	 17.6696 	 79.4421 	 
C 	 44.6793 	 17.6962 	 78.1052 	 
H 	 46.1136 	 17.4051 	 79.722 	 
C 	 44.2951 	 17.9471 	 81.8978 	 
H 	 45.1921 	 17.3398 	 82.0538 	 
H 	 43.4843 	 17.3587 	 82.2596 	 
C 	 44.3687 	 19.3792 	 82.5689 	 
H 	 43.4911 	 19.9685 	 82.3613 	 
H 	 44.4277 	 19.1339 	 83.6317 	 
C 	 45.6694 	 20.068 	 82.2498 	 
H 	 45.7682 	 20.1952 	 81.1554 	 
H 	 45.7341 	 21.0297 	 82.751 	 
H 	 46.5193 	 19.4573 	 82.4964 	 
S 	 45.1909 	 16.3782 	 75.7149 	 
C 	 46.6597 	 16.7745 	 74.8113 	 
C 	 47.3347 	 17.8168 	 75.4637 	 
C 	 46.675 	 18.392 	 76.6391 	 
C 	 45.5022 	 17.6536 	 76.8863 	 
H 	 48.2979 	 18.1783 	 75.1555 	 
C 	 47.2673 	 19.4677 	 77.4975 	 
H 	 46.6614 	 19.6828 	 78.3301 	 
H 	 47.1058 	 20.4157 	 76.9427 	 
C 	 48.7584 	 19.3076 	 77.8466 	 
H 	 49.1292 	 20.2022 	 78.2681 	 
H 	 49.3536 	 19.2103 	 76.9972 	 
C 	 49.1218 	 18.3193 	 78.9139 	 
H 	 48.8574 	 17.2911 	 78.6159 	 
H 	 48.2864 	 18.4239 	 79.7128 	 
H 	 50.1654 	 18.4079 	 79.2322 	 
H 	 41.9178 	 18.2554 	 80.2676 	 
H 	 47.152 	 16.2769 	 73.9844 	 
*
