! wB97X-D3 SP def2-SVP
%pal
nprocs 16
end

* xyz 0 1
S 	 17.0286 	 25.468 	 62.5703 	 
C 	 17.3702 	 23.9045 	 61.856 	 
C 	 16.2468 	 23.3102 	 61.3647 	 
C 	 15.0292 	 24.1168 	 61.586 	 
C 	 15.2529 	 25.3166 	 62.2942 	 
H 	 13.9754 	 23.7898 	 61.4198 	 
C 	 16.2421 	 21.8905 	 60.7977 	 
H 	 17.0577 	 21.9705 	 60.0449 	 
H 	 15.2964 	 21.6155 	 60.2965 	 
C 	 16.4695 	 20.703 	 61.6925 	 
H 	 16.4366 	 19.7259 	 61.0972 	 
H 	 17.4583 	 20.8114 	 62.1991 	 
C 	 15.5645 	 20.7175 	 62.9179 	 
H 	 15.6567 	 21.5787 	 63.5858 	 
H 	 14.5235 	 20.6166 	 62.6842 	 
H 	 15.7886 	 19.8753 	 63.4539 	 
S 	 14.8075 	 26.9288 	 64.3635 	 
C 	 13.3411 	 27.9327 	 64.4791 	 
C 	 12.4427 	 27.6542 	 63.4607 	 
C 	 13.0134 	 26.8004 	 62.4815 	 
C 	 14.3114 	 26.2953 	 62.842 	 
H 	 11.5052 	 28.1342 	 63.4945 	 
C 	 12.306 	 26.3863 	 61.2203 	 
H 	 12.8014 	 25.5592 	 60.68 	 
H 	 12.4151 	 27.2126 	 60.5442 	 
C 	 10.7389 	 26.28 	 61.4069 	 
H 	 10.3533 	 27.2355 	 61.6186 	 
H 	 10.4476 	 25.6127 	 62.2342 	 
C 	 9.99436 	 25.638 	 60.1323 	 
H 	 9.94098 	 26.3097 	 59.2661 	 
H 	 8.94155 	 25.4255 	 60.5034 	 
H 	 10.3838 	 24.6543 	 59.9117 	 
H 	 18.3809 	 23.3979 	 61.9446 	 
H 	 13.1221 	 28.6052 	 65.2734 	 
*
