! wB97X-D3 SP def2-SVP
%pal
nprocs 16
end

* xyz 0 1
S 	 -0.942286 	 -12.3086 	 75.4955 	 
C 	 -2.53835 	 -12.8451 	 74.9405 	 
C 	 -3.44005 	 -12.9248 	 76.0244 	 
C 	 -2.77157 	 -12.557 	 77.252 	 
C 	 -1.43667 	 -12.2812 	 77.1307 	 
H 	 -3.28931 	 -12.5703 	 78.2202 	 
C 	 -4.94187 	 -13.2564 	 75.8632 	 
H 	 -5.54029 	 -12.7813 	 76.6434 	 
H 	 -5.05245 	 -14.2821 	 75.9931 	 
C 	 -5.59529 	 -12.9666 	 74.4956 	 
H 	 -5.14542 	 -13.5504 	 73.6668 	 
H 	 -6.63176 	 -13.199 	 74.5323 	 
C 	 -5.52926 	 -11.4985 	 74.0647 	 
H 	 -4.50794 	 -11.2004 	 74.0093 	 
H 	 -5.89355 	 -11.2897 	 73.1245 	 
H 	 -5.94629 	 -10.7905 	 74.7585 	 
S 	 0.208289 	 -12.892 	 79.2282 	 
C 	 0.921429 	 -11.5254 	 80.0831 	 
C 	 0.311269 	 -10.3251 	 79.8047 	 
C 	 -0.639757 	 -10.534 	 78.7596 	 
C 	 -0.584027 	 -11.8113 	 78.2161 	 
H 	 0.563185 	 -9.50568 	 80.4494 	 
C 	 -1.46374 	 -9.35668 	 78.199 	 
H 	 -1.72328 	 -9.59788 	 77.1819 	 
H 	 -0.729387 	 -8.51359 	 78.0699 	 
C 	 -2.60232 	 -8.98447 	 79.1099 	 
H 	 -2.27432 	 -9.19338 	 80.1436 	 
H 	 -3.44948 	 -9.6109 	 78.9423 	 
C 	 -3.15138 	 -7.49166 	 79.0162 	 
H 	 -3.62913 	 -7.18175 	 79.9044 	 
H 	 -3.94434 	 -7.43641 	 78.254 	 
H 	 -2.39745 	 -6.68712 	 78.8716 	 
H 	 -2.74131 	 -12.9811 	 73.8727 	 
H 	 1.5559 	 -11.5846 	 80.9099 	 
*
