! wB97X-D3 SP def2-SVP
%pal
nprocs 16
end

* xyz 0 1
S 	 -101.877 	 56.6004 	 121.125 	 
C 	 -102.679 	 55.2677 	 120.311 	 
C 	 -103.876 	 54.9704 	 120.872 	 
C 	 -104.152 	 55.7809 	 121.981 	 
C 	 -103.235 	 56.8599 	 122.131 	 
H 	 -105.019 	 55.5729 	 122.513 	 
C 	 -104.645 	 53.6884 	 120.518 	 
H 	 -104.204 	 53.2925 	 119.607 	 
H 	 -105.643 	 54.0974 	 120.271 	 
C 	 -104.677 	 52.7473 	 121.733 	 
H 	 -103.814 	 52.2572 	 121.952 	 
H 	 -104.654 	 53.3623 	 122.619 	 
C 	 -105.943 	 51.8352 	 121.882 	 
H 	 -105.846 	 51.0068 	 121.15 	 
H 	 -106.09 	 51.3971 	 122.871 	 
H 	 -106.883 	 52.2986 	 121.662 	 
S 	 -102.992 	 59.53 	 122.258 	 
C 	 -103.618 	 60.3315 	 123.703 	 
C 	 -103.985 	 59.4007 	 124.654 	 
C 	 -103.796 	 58.0642 	 124.282 	 
C 	 -103.316 	 58.0145 	 122.984 	 
H 	 -104.35 	 59.6109 	 125.643 	 
C 	 -104.199 	 56.9239 	 125.187 	 
H 	 -104.731 	 56.2897 	 124.504 	 
H 	 -104.832 	 57.3207 	 125.952 	 
C 	 -103.019 	 56.0985 	 125.859 	 
H 	 -102.329 	 55.8972 	 125.035 	 
H 	 -103.617 	 55.1423 	 126.113 	 
C 	 -102.501 	 56.7845 	 127.179 	 
H 	 -101.734 	 56.1599 	 127.618 	 
H 	 -103.273 	 56.8983 	 128.005 	 
H 	 -101.916 	 57.685 	 126.947 	 
H 	 -102.189 	 54.6563 	 119.56 	 
H 	 -103.842 	 61.3842 	 123.867 	 
*
