! wB97X-D3 SP def2-SVP
%pal
nprocs 16
end

* xyz 0 1
S 	 34.7479 	 3.28243 	 87.3572 	 
C 	 33.8663 	 4.068 	 85.9599 	 
C 	 34.5193 	 3.6857 	 84.7715 	 
C 	 35.7326 	 2.91876 	 84.9786 	 
C 	 35.933 	 2.64203 	 86.3149 	 
H 	 36.5106 	 2.69146 	 84.2747 	 
C 	 34.033 	 4.10796 	 83.3801 	 
H 	 33.1223 	 4.63728 	 83.5292 	 
H 	 33.7765 	 3.08653 	 82.9953 	 
C 	 35.0526 	 4.71441 	 82.4673 	 
H 	 35.987 	 4.11125 	 82.5684 	 
H 	 34.7158 	 4.67312 	 81.4059 	 
C 	 35.5064 	 6.11962 	 82.7647 	 
H 	 35.6629 	 6.36494 	 83.8369 	 
H 	 36.4138 	 6.3028 	 82.239 	 
H 	 34.8125 	 6.82365 	 82.3438 	 
S 	 36.9186 	 0.757705 	 88.2698 	 
C 	 38.6242 	 0.73847 	 88.4982 	 
C 	 39.3574 	 1.59889 	 87.7023 	 
C 	 38.4446 	 2.27774 	 86.7344 	 
C 	 37.095 	 2.01837 	 86.9617 	 
H 	 40.4045 	 1.72478 	 87.784 	 
C 	 39.0495 	 3.31722 	 85.7822 	 
H 	 38.6145 	 3.07906 	 84.8041 	 
H 	 40.1432 	 3.13263 	 85.8822 	 
C 	 38.6571 	 4.79631 	 86.1281 	 
H 	 38.8313 	 4.87148 	 87.181 	 
H 	 37.6034 	 4.92573 	 86.1157 	 
C 	 39.3725 	 5.91334 	 85.2745 	 
H 	 38.8527 	 6.83631 	 85.3991 	 
H 	 39.2238 	 5.72514 	 84.2305 	 
H 	 40.4008 	 6.10166 	 85.5691 	 
H 	 33.0078 	 4.69081 	 85.9844 	 
H 	 39.0644 	 0.108831 	 89.1839 	 
*
