! wB97X-D3 SP def2-SVP
%pal
nprocs 16
end

* xyz 0 1
S 	 -9.36262 	 45.6463 	 41.2626 	 
C 	 -10.4131 	 46.0943 	 42.5616 	 
C 	 -9.78895 	 46.8809 	 43.4917 	 
C 	 -8.47146 	 47.2139 	 43.0789 	 
C 	 -8.11606 	 46.7161 	 41.8598 	 
H 	 -7.8875 	 47.8792 	 43.6436 	 
C 	 -10.2904 	 47.2705 	 44.8555 	 
H 	 -9.59941 	 46.827 	 45.5951 	 
H 	 -11.2101 	 46.7308 	 45.1632 	 
C 	 -10.4918 	 48.706 	 45.2293 	 
H 	 -10.6826 	 48.7283 	 46.2759 	 
H 	 -9.6319 	 49.2933 	 44.9936 	 
C 	 -11.57 	 49.3594 	 44.3735 	 
H 	 -11.8419 	 50.385 	 44.648 	 
H 	 -11.1888 	 49.322 	 43.3401 	 
H 	 -12.5649 	 48.895 	 44.4234 	 
S 	 -6.21067 	 45.3193 	 40.4401 	 
C 	 -4.63382 	 46.0405 	 40.1826 	 
C 	 -4.50011 	 47.2346 	 40.8996 	 
C 	 -5.6754 	 47.6422 	 41.5395 	 
C 	 -6.77061 	 46.7833 	 41.3466 	 
H 	 -3.57063 	 47.8429 	 40.8799 	 
C 	 -5.75687 	 48.9973 	 42.3382 	 
H 	 -6.78374 	 49.2274 	 42.3132 	 
H 	 -5.23803 	 49.7755 	 41.6906 	 
C 	 -5.14681 	 49.0215 	 43.7715 	 
H 	 -4.09906 	 48.8445 	 43.6487 	 
H 	 -5.62249 	 48.1717 	 44.3345 	 
C 	 -5.33231 	 50.4208 	 44.3988 	 
H 	 -4.98844 	 50.4043 	 45.3993 	 
H 	 -6.39174 	 50.5989 	 44.4221 	 
H 	 -4.97632 	 51.2379 	 43.7578 	 
H 	 -11.4736 	 45.8304 	 42.608 	 
H 	 -3.82627 	 45.4958 	 39.6359 	 
*
