! wB97X-D3 SP def2-SVP
%pal
nprocs 16
end

* xyz 0 1
S 	 -4.56987 	 9.97673 	 80.5895 	 
C 	 -6.19708 	 9.44605 	 80.3497 	 
C 	 -7.18548 	 10.379 	 80.698 	 
C 	 -6.56557 	 11.6076 	 80.995 	 
C 	 -5.16325 	 11.5824 	 81.1014 	 
H 	 -7.04218 	 12.5008 	 81.2623 	 
C 	 -8.65855 	 10.1685 	 80.7171 	 
H 	 -8.97001 	 10.6082 	 81.6463 	 
H 	 -8.83191 	 9.10073 	 80.6853 	 
C 	 -9.49217 	 10.6583 	 79.5547 	 
H 	 -10.5357 	 10.3811 	 79.8248 	 
H 	 -9.46488 	 11.7084 	 79.381 	 
C 	 -9.28296 	 9.93775 	 78.1961 	 
H 	 -8.24473 	 9.87726 	 77.9057 	 
H 	 -9.60881 	 8.88605 	 78.3485 	 
H 	 -9.89919 	 10.3992 	 77.37 	 
S 	 -2.91037 	 12.1544 	 82.5636 	 
C 	 -2.37702 	 13.8449 	 82.7214 	 
C 	 -3.23047 	 14.7105 	 82.0569 	 
C 	 -4.31517 	 14.067 	 81.4595 	 
C 	 -4.26753 	 12.6732 	 81.5293 	 
H 	 -3.04564 	 15.7859 	 81.9572 	 
C 	 -5.42981 	 14.812 	 80.781 	 
H 	 -5.09859 	 15.8522 	 80.933 	 
H 	 -6.36342 	 14.8891 	 81.3403 	 
C 	 -5.73772 	 14.4593 	 79.3178 	 
H 	 -5.86384 	 13.3642 	 79.203 	 
H 	 -4.84538 	 14.7105 	 78.6494 	 
C 	 -6.96471 	 15.1238 	 78.7753 	 
H 	 -7.89274 	 14.9151 	 79.2911 	 
H 	 -7.16934 	 14.8815 	 77.774 	 
H 	 -6.82822 	 16.2072 	 78.8716 	 
H 	 -6.51722 	 8.48648 	 80.0778 	 
H 	 -1.46447 	 14.0913 	 83.2904 	 
*
