! wB97X-D3 SP def2-SVP
%pal
nprocs 16
end

* xyz 0 1
S 	 -21.5553 	 31.4559 	 42.5688 	 
C 	 -20.3061 	 32.0646 	 43.6047 	 
C 	 -19.8422 	 33.3007 	 43.0978 	 
C 	 -20.3867 	 33.646 	 41.8605 	 
C 	 -21.2598 	 32.7163 	 41.3905 	 
H 	 -20.1283 	 34.4921 	 41.3743 	 
C 	 -18.902 	 34.2999 	 43.7716 	 
H 	 -19.0742 	 34.1965 	 44.8205 	 
H 	 -19.1236 	 35.3414 	 43.5952 	 
C 	 -17.4434 	 34.0914 	 43.3404 	 
H 	 -16.9745 	 33.1269 	 43.5299 	 
H 	 -17.3022 	 34.3061 	 42.2708 	 
C 	 -16.4756 	 34.922 	 44.2064 	 
H 	 -16.7409 	 35.9791 	 44.2991 	 
H 	 -16.5184 	 34.5679 	 45.2372 	 
H 	 -15.4353 	 34.7523 	 43.9478 	 
S 	 -23.6605 	 33.5758 	 40.2758 	 
C 	 -23.8489 	 33.4924 	 38.5904 	 
C 	 -22.74 	 33.0252 	 37.928 	 
C 	 -21.7209 	 32.5781 	 38.8534 	 
C 	 -22.0675 	 32.794 	 40.1574 	 
H 	 -22.7358 	 32.9108 	 36.8605 	 
C 	 -20.3798 	 32.1361 	 38.4652 	 
H 	 -20.3854 	 31.2244 	 37.9345 	 
H 	 -19.7308 	 32.0542 	 39.3835 	 
C 	 -19.6462 	 33.192 	 37.6167 	 
H 	 -19.5026 	 34.085 	 38.1833 	 
H 	 -20.2219 	 33.3307 	 36.6728 	 
C 	 -18.249 	 32.8279 	 37.2197 	 
H 	 -17.9176 	 33.6148 	 36.4487 	 
H 	 -18.1211 	 31.7991 	 36.908 	 
H 	 -17.5719 	 33.0296 	 38.0939 	 
H 	 -19.9671 	 31.5803 	 44.4559 	 
H 	 -24.6989 	 33.8084 	 38.1257 	 
*
