! wB97X-D3 SP def2-SVP
%pal
nprocs 16
end

* xyz 0 1
S 	 -101.863 	 57.102 	 117.144 	 
C 	 -100.664 	 55.8394 	 117.659 	 
C 	 -100.501 	 54.8034 	 116.684 	 
C 	 -101.419 	 54.9711 	 115.57 	 
C 	 -102.181 	 56.1432 	 115.672 	 
H 	 -101.5 	 54.2983 	 114.722 	 
C 	 -99.499 	 53.6743 	 116.753 	 
H 	 -98.679 	 53.9144 	 117.435 	 
H 	 -98.9305 	 53.4454 	 115.784 	 
C 	 -100.094 	 52.2901 	 117.264 	 
H 	 -99.3277 	 51.6456 	 117.594 	 
H 	 -100.644 	 52.5009 	 118.227 	 
C 	 -100.958 	 51.5353 	 116.3 	 
H 	 -101.762 	 52.2095 	 115.961 	 
H 	 -100.295 	 51.2706 	 115.483 	 
H 	 -101.411 	 50.6407 	 116.705 	 
S 	 -102.674 	 58.2944 	 113.984 	 
C 	 -104.188 	 58.2668 	 113.143 	 
C 	 -104.896 	 57.0568 	 113.2 	 
C 	 -104.244 	 56.1707 	 114.044 	 
C 	 -103.049 	 56.669 	 114.607 	 
H 	 -105.817 	 56.9943 	 112.683 	 
C 	 -104.912 	 54.8732 	 114.403 	 
H 	 -105.699 	 55.203 	 115.05 	 
H 	 -104.097 	 54.3289 	 114.883 	 
C 	 -105.553 	 54.0353 	 113.198 	 
H 	 -106.252 	 54.7254 	 112.711 	 
H 	 -106.215 	 53.1733 	 113.604 	 
C 	 -104.542 	 53.57 	 112.183 	 
H 	 -103.651 	 53.2273 	 112.599 	 
H 	 -104.333 	 54.4828 	 111.648 	 
H 	 -104.925 	 52.7982 	 111.466 	 
H 	 -100.155 	 55.916 	 118.611 	 
H 	 -104.646 	 59.081 	 112.664 	 
*
