! wB97X-D3 SP def2-SVP
%pal
nprocs 16
end

* xyz 0 1
S 	 -74.0818 	 41.2059 	 123.108 	 
C 	 -74.6897 	 42.3137 	 124.337 	 
C 	 -73.7006 	 42.5767 	 125.267 	 
C 	 -72.402 	 42.0366 	 124.939 	 
C 	 -72.4316 	 41.3482 	 123.753 	 
H 	 -71.5191 	 42.1005 	 125.587 	 
C 	 -73.9491 	 43.1298 	 126.631 	 
H 	 -74.797 	 43.6964 	 126.674 	 
H 	 -73.1864 	 43.8417 	 126.75 	 
C 	 -73.8607 	 42.2482 	 127.879 	 
H 	 -73.1323 	 41.4523 	 127.658 	 
H 	 -73.4923 	 42.7598 	 128.687 	 
C 	 -75.1565 	 41.6396 	 128.276 	 
H 	 -75.7398 	 42.5606 	 128.557 	 
H 	 -75.6981 	 41.1261 	 127.497 	 
H 	 -75.0523 	 41.0118 	 129.212 	 
S 	 -71.4413 	 41.0143 	 121.204 	 
C 	 -70.0328 	 40.1395 	 120.896 	 
C 	 -69.5919 	 39.4782 	 122.005 	 
C 	 -70.238 	 39.9267 	 123.205 	 
C 	 -71.2768 	 40.8452 	 122.951 	 
H 	 -68.7502 	 38.7741 	 121.986 	 
C 	 -69.8533 	 39.3832 	 124.569 	 
H 	 -70.0595 	 38.2897 	 124.692 	 
H 	 -70.4528 	 39.9208 	 125.348 	 
C 	 -68.3183 	 39.5779 	 124.962 	 
H 	 -67.7116 	 39.1255 	 124.113 	 
H 	 -68.0768 	 39.0054 	 125.841 	 
C 	 -67.8663 	 40.9969 	 125.112 	 
H 	 -68.5177 	 41.4763 	 125.852 	 
H 	 -67.9525 	 41.547 	 124.216 	 
H 	 -66.8579 	 40.9537 	 125.512 	 
H 	 -75.7539 	 42.5266 	 124.532 	 
H 	 -69.5275 	 39.9711 	 119.942 	 
*
