! wB97X-D3 SP def2-SVP
%pal
nprocs 16
end

* xyz 0 1
S 	 -66.6498 	 38.2508 	 135.413 	 
C 	 -65.0256 	 38.9333 	 135.272 	 
C 	 -64.1736 	 38.3112 	 136.163 	 
C 	 -64.797 	 37.3831 	 137.019 	 
C 	 -66.1297 	 37.1517 	 136.676 	 
H 	 -64.4425 	 36.8136 	 137.82 	 
C 	 -62.6377 	 38.5792 	 136.301 	 
H 	 -62.1478 	 37.5824 	 136.522 	 
H 	 -62.4246 	 39.131 	 137.163 	 
C 	 -61.9667 	 39.1425 	 135.074 	 
H 	 -62.2179 	 38.534 	 134.218 	 
H 	 -62.2986 	 40.1496 	 134.903 	 
C 	 -60.3568 	 39.1205 	 135.227 	 
H 	 -59.9077 	 38.2041 	 135.064 	 
H 	 -60.0094 	 39.8153 	 134.385 	 
H 	 -59.9839 	 39.502 	 136.225 	 
S 	 -68.1664 	 36.7518 	 138.425 	 
C 	 -68.8031 	 35.1993 	 138.821 	 
C 	 -68.031 	 34.2008 	 138.246 	 
C 	 -66.9786 	 34.7163 	 137.397 	 
C 	 -67.0383 	 36.1643 	 137.292 	 
H 	 -68.133 	 33.1918 	 138.444 	 
C 	 -66.0962 	 33.8662 	 136.461 	 
H 	 -65.2986 	 34.3885 	 136.034 	 
H 	 -66.7799 	 33.5068 	 135.696 	 
C 	 -65.6482 	 32.6214 	 137.076 	 
H 	 -65.2008 	 32.1185 	 136.212 	 
H 	 -66.5054 	 31.9726 	 137.417 	 
C 	 -64.6969 	 32.7538 	 138.22 	 
H 	 -65.0152 	 33.5259 	 138.916 	 
H 	 -63.7233 	 33.015 	 137.851 	 
H 	 -64.5034 	 31.8328 	 138.725 	 
H 	 -64.615 	 39.7085 	 134.59 	 
H 	 -69.5944 	 35.0195 	 139.561 	 
*
