! wB97X-D3 SP def2-SVP
%pal
nprocs 16
end

* xyz 0 1
S 	 -43.1262 	 54.0595 	 102.658 	 
C 	 -43.5359 	 52.3995 	 102.262 	 
C 	 -42.4214 	 51.6033 	 102.216 	 
C 	 -41.2116 	 52.3207 	 102.601 	 
C 	 -41.4543 	 53.6425 	 102.925 	 
H 	 -40.1852 	 51.9602 	 102.652 	 
C 	 -42.3311 	 50.1062 	 101.908 	 
H 	 -41.5317 	 49.9686 	 101.188 	 
H 	 -43.2693 	 49.7637 	 101.376 	 
C 	 -42.0682 	 49.3094 	 103.117 	 
H 	 -41.9229 	 48.3554 	 102.773 	 
H 	 -41.1025 	 49.5771 	 103.603 	 
C 	 -43.1816 	 49.4297 	 104.168 	 
H 	 -43.4837 	 50.4138 	 104.602 	 
H 	 -44.1706 	 49.0835 	 103.867 	 
H 	 -42.956 	 48.8405 	 105.006 	 
S 	 -40.2451 	 56.1322 	 102.816 	 
C 	 -39.0542 	 56.5347 	 104.079 	 
C 	 -39.0043 	 55.563 	 105.033 	 
C 	 -39.76 	 54.4142 	 104.762 	 
C 	 -40.4846 	 54.5289 	 103.557 	 
H 	 -38.5772 	 55.7801 	 105.975 	 
C 	 -39.8273 	 53.2589 	 105.668 	 
H 	 -38.887 	 52.9854 	 106.126 	 
H 	 -40.037 	 52.3679 	 105.013 	 
C 	 -40.9306 	 53.3732 	 106.663 	 
H 	 -41.8791 	 53.6067 	 106.159 	 
H 	 -40.731 	 54.2528 	 107.332 	 
C 	 -41.2941 	 52.0341 	 107.391 	 
H 	 -41.8125 	 51.311 	 106.709 	 
H 	 -42.0215 	 52.0781 	 108.193 	 
H 	 -40.3066 	 51.6398 	 107.687 	 
H 	 -44.4826 	 51.9205 	 102.099 	 
H 	 -38.6771 	 57.5515 	 104.293 	 
*
