! wB97X-D3 SP def2-SVP
%pal
nprocs 16
end

* xyz 0 1
S 	 -57.8061 	 43.7794 	 114.5 	 
C 	 -57.8245 	 44.229 	 112.802 	 
C 	 -56.9857 	 43.4148 	 112.112 	 
C 	 -56.3068 	 42.4302 	 112.852 	 
C 	 -56.7504 	 42.4886 	 114.146 	 
H 	 -55.568 	 41.7379 	 112.48 	 
C 	 -56.979 	 43.5199 	 110.662 	 
H 	 -56.111 	 42.9586 	 110.284 	 
H 	 -56.7619 	 44.5353 	 110.368 	 
C 	 -58.2649 	 43.0581 	 109.932 	 
H 	 -58.4705 	 42.0491 	 110.153 	 
H 	 -59.1673 	 43.5338 	 110.199 	 
C 	 -58.2036 	 43.1392 	 108.431 	 
H 	 -59.0874 	 42.6624 	 107.97 	 
H 	 -58.1079 	 44.2008 	 107.993 	 
H 	 -57.2568 	 42.6463 	 108.043 	 
S 	 -54.7608 	 42.5685 	 115.985 	 
C 	 -54.4836 	 41.2348 	 117.073 	 
C 	 -55.3698 	 40.1878 	 116.807 	 
C 	 -56.2452 	 40.5162 	 115.707 	 
C 	 -56.1049 	 41.8034 	 115.273 	 
H 	 -55.3485 	 39.3064 	 117.404 	 
C 	 -57.1912 	 39.5636 	 115.091 	 
H 	 -56.7331 	 38.8873 	 114.398 	 
H 	 -57.9176 	 40.2019 	 114.527 	 
C 	 -58.0831 	 38.8505 	 116.166 	 
H 	 -57.5294 	 38.0753 	 116.726 	 
H 	 -58.7795 	 38.3011 	 115.555 	 
C 	 -58.7981 	 39.8343 	 117.135 	 
H 	 -59.1006 	 40.732 	 116.569 	 
H 	 -58.2098 	 40.1131 	 118.071 	 
H 	 -59.6176 	 39.2541 	 117.466 	 
H 	 -58.4531 	 44.9965 	 112.417 	 
H 	 -53.8831 	 41.3251 	 118.003 	 
*
