! wB97X-D3 SP def2-SVP
%pal
nprocs 16
end

* xyz 0 1
S 	 -42.0129 	 26.1716 	 88.1936 	 
C 	 -42.0548 	 27.7726 	 88.8795 	 
C 	 -42.9629 	 28.615 	 88.2161 	 
C 	 -43.5678 	 27.932 	 87.105 	 
C 	 -43.249 	 26.5865 	 87.0269 	 
H 	 -44.1302 	 28.4759 	 86.3769 	 
C 	 -43.1459 	 30.0941 	 88.3247 	 
H 	 -42.9445 	 30.5636 	 87.3499 	 
H 	 -42.3851 	 30.5237 	 88.9893 	 
C 	 -44.5649 	 30.5465 	 88.8341 	 
H 	 -45.3252 	 30.4417 	 88.0309 	 
H 	 -44.9511 	 29.8875 	 89.6361 	 
C 	 -44.5569 	 31.9466 	 89.461 	 
H 	 -44.1439 	 32.5555 	 88.6949 	 
H 	 -45.5702 	 32.1468 	 89.7976 	 
H 	 -43.8604 	 31.9107 	 90.2788 	 
S 	 -45.1787 	 24.7733 	 86.2693 	 
C 	 -45.0976 	 24.3436 	 84.5834 	 
C 	 -43.9563 	 24.7535 	 83.9947 	 
C 	 -43.0915 	 25.5008 	 84.8071 	 
C 	 -43.6479 	 25.6522 	 86.0283 	 
H 	 -43.8092 	 24.4771 	 83.0035 	 
C 	 -41.7556 	 26.082 	 84.4209 	 
H 	 -41.2415 	 25.4951 	 83.7267 	 
H 	 -41.0824 	 26.1128 	 85.3169 	 
C 	 -41.7906 	 27.3549 	 83.6231 	 
H 	 -40.7316 	 27.5707 	 83.5087 	 
H 	 -42.2588 	 28.1588 	 84.2004 	 
C 	 -42.2873 	 27.3257 	 82.1904 	 
H 	 -41.6792 	 26.7379 	 81.4367 	 
H 	 -42.3432 	 28.4131 	 81.9218 	 
H 	 -43.3102 	 26.9177 	 82.1645 	 
H 	 -41.4153 	 28.0469 	 89.6823 	 
H 	 -45.8897 	 23.7371 	 84.1535 	 
*
