! wB97X-D3 SP def2-SVP
%pal
nprocs 16
end

* xyz 0 1
S 	 -15.7825 	 52.7521 	 63.6952 	 
C 	 -15.5468 	 51.4633 	 62.6035 	 
C 	 -14.7654 	 51.8964 	 61.5445 	 
C 	 -14.3446 	 53.2918 	 61.6667 	 
C 	 -14.9 	 53.933 	 62.6985 	 
H 	 -13.6346 	 53.7146 	 60.9043 	 
C 	 -14.2182 	 51.1292 	 60.3725 	 
H 	 -14.4336 	 51.7451 	 59.4881 	 
H 	 -14.9946 	 50.4147 	 60.1111 	 
C 	 -12.9362 	 50.3809 	 60.24 	 
H 	 -12.048 	 50.9849 	 60.2619 	 
H 	 -12.6941 	 49.6965 	 61.0609 	 
C 	 -12.9892 	 49.5757 	 58.8796 	 
H 	 -12.2209 	 48.753 	 58.8882 	 
H 	 -13.9495 	 49.0527 	 58.7454 	 
H 	 -12.928 	 50.1911 	 58.006 	 
S 	 -14.7123 	 56.6115 	 62.2395 	 
C 	 -14.2873 	 57.7433 	 63.4346 	 
C 	 -13.8546 	 57.1126 	 64.5773 	 
C 	 -13.9261 	 55.6422 	 64.4681 	 
C 	 -14.4522 	 55.2274 	 63.2834 	 
H 	 -13.4339 	 57.6271 	 65.4431 	 
C 	 -13.5543 	 54.7409 	 65.6366 	 
H 	 -14.3969 	 54.1826 	 65.9222 	 
H 	 -13.2591 	 55.3478 	 66.4816 	 
C 	 -12.421 	 53.7911 	 65.3605 	 
H 	 -11.5084 	 54.4211 	 65.3385 	 
H 	 -12.5114 	 53.2398 	 64.4581 	 
C 	 -12.3411 	 52.8262 	 66.6279 	 
H 	 -13.3364 	 52.4352 	 66.8667 	 
H 	 -12.0704 	 53.2976 	 67.5423 	 
H 	 -11.6188 	 52.0118 	 66.5745 	 
H 	 -15.7212 	 50.4923 	 62.8803 	 
H 	 -14.2101 	 58.7703 	 63.2074 	 
*
