! wB97X-D3 SP def2-SVP
%pal
nprocs 16
end

* xyz 0 1
S 	 1.71635 	 2.64321 	 81.0216 	 
C 	 2.98717 	 3.4434 	 80.2067 	 
C 	 2.50936 	 4.45707 	 79.4203 	 
C 	 1.07578 	 4.39987 	 79.3099 	 
C 	 0.468085 	 3.45471 	 80.1673 	 
H 	 0.416641 	 5.03158 	 78.6551 	 
C 	 3.31776 	 5.36253 	 78.5679 	 
H 	 3.07508 	 5.13654 	 77.5592 	 
H 	 4.36247 	 5.10693 	 78.6325 	 
C 	 3.13137 	 6.81787 	 78.9696 	 
H 	 2.12029 	 7.16901 	 78.7085 	 
H 	 3.46079 	 6.85941 	 80.0386 	 
C 	 4.05267 	 7.71807 	 78.1556 	 
H 	 3.80017 	 8.72723 	 78.493 	 
H 	 5.14657 	 7.50205 	 78.3521 	 
H 	 3.68312 	 7.56605 	 77.0874 	 
S 	 -1.38928 	 1.45847 	 80.1882 	 
C 	 -3.0099 	 1.86535 	 80.0433 	 
C 	 -3.25205 	 3.22581 	 80.0037 	 
C 	 -2.04872 	 3.98289 	 80.2353 	 
C 	 -0.96742 	 3.16849 	 80.3068 	 
H 	 -4.24803 	 3.65398 	 79.8508 	 
C 	 -2.0435 	 5.49968 	 80.2456 	 
H 	 -0.988888 	 5.78282 	 80.5858 	 
H 	 -2.72397 	 5.92783 	 80.9458 	 
C 	 -2.43973 	 6.09791 	 78.8725 	 
H 	 -3.50636 	 5.8293 	 78.693 	 
H 	 -1.93056 	 5.48132 	 78.1887 	 
C 	 -2.21458 	 7.61001 	 78.8554 	 
H 	 -1.21509 	 7.80337 	 79.1995 	 
H 	 -2.76936 	 8.02157 	 79.6731 	 
H 	 -2.50154 	 8.10652 	 77.951 	 
H 	 4.00397 	 3.24148 	 80.2897 	 
H 	 -3.77981 	 1.13364 	 79.9572 	 
*
