! wB97X-D3 SP def2-SVP
%pal
nprocs 16
end

* xyz 0 1
S 	 -39.1314 	 2.98274 	 99.0002 	 
C 	 -37.6208 	 3.62854 	 98.4525 	 
C 	 -37.4509 	 3.42285 	 97.0745 	 
C 	 -38.5085 	 2.63086 	 96.5223 	 
C 	 -39.4608 	 2.27991 	 97.4586 	 
H 	 -38.5625 	 2.34763 	 95.5136 	 
C 	 -36.3774 	 4.02269 	 96.1994 	 
H 	 -37.0371 	 4.33927 	 95.4118 	 
H 	 -35.5919 	 3.41342 	 95.8098 	 
C 	 -35.6355 	 5.26396 	 96.8392 	 
H 	 -36.3439 	 5.99017 	 97.1939 	 
H 	 -35.3008 	 5.00145 	 97.8263 	 
C 	 -34.5782 	 5.92229 	 95.9041 	 
H 	 -34.9066 	 6.28016 	 94.9379 	 
H 	 -34.1789 	 6.88959 	 96.1488 	 
H 	 -33.8503 	 5.18719 	 95.6898 	 
S 	 -42.1888 	 2.3218 	 96.857 	 
C 	 -42.9593 	 0.731828 	 96.8674 	 
C 	 -42.0722 	 -0.313468 	 96.6436 	 
C 	 -40.6693 	 0.0638259 	 96.8851 	 
C 	 -40.6582 	 1.44076 	 97.2161 	 
H 	 -42.4155 	 -1.29825 	 96.3528 	 
C 	 -39.4988 	 -0.927844 	 96.8862 	 
H 	 -39.8627 	 -1.87641 	 97.1612 	 
H 	 -38.7145 	 -0.658503 	 97.6411 	 
C 	 -38.7727 	 -0.979784 	 95.5651 	 
H 	 -38.2416 	 -0.0355128 	 95.4055 	 
H 	 -39.5247 	 -1.08217 	 94.7974 	 
C 	 -37.805 	 -2.18347 	 95.4835 	 
H 	 -37.2136 	 -2.35627 	 96.4274 	 
H 	 -37.2261 	 -2.19447 	 94.5825 	 
H 	 -38.348 	 -3.05794 	 95.3525 	 
H 	 -36.9915 	 4.16652 	 99.1346 	 
H 	 -44.0351 	 0.58047 	 96.6484 	 
*
