! wB97X-D3 SP def2-SVP
%pal
nprocs 16
end

* xyz 0 1
S 	 -1.99354 	 -14.2414 	 54.2956 	 
C 	 -2.02221 	 -13.2828 	 52.797 	 
C 	 -2.94122 	 -12.2147 	 52.8586 	 
C 	 -3.79763 	 -12.3369 	 53.9894 	 
C 	 -3.50534 	 -13.4259 	 54.8579 	 
H 	 -4.73467 	 -11.746 	 54.2108 	 
C 	 -3.064 	 -11.0373 	 51.8999 	 
H 	 -1.99041 	 -10.8351 	 51.4967 	 
H 	 -3.30552 	 -10.2076 	 52.5379 	 
C 	 -3.98824 	 -11.095 	 50.7115 	 
H 	 -3.65844 	 -10.4931 	 49.8161 	 
H 	 -4.07982 	 -12.0741 	 50.1975 	 
C 	 -5.4153 	 -10.6962 	 51.0666 	 
H 	 -5.88081 	 -11.3896 	 51.7403 	 
H 	 -5.43302 	 -9.72557 	 51.4363 	 
H 	 -6.23008 	 -10.6752 	 50.323 	 
S 	 -3.95276 	 -15.5625 	 56.3073 	 
C 	 -5.04477 	 -15.6382 	 57.6647 	 
C 	 -5.42993 	 -14.3569 	 57.9497 	 
C 	 -5.08936 	 -13.3873 	 56.9397 	 
C 	 -4.17872 	 -13.9326 	 56.0694 	 
H 	 -6.1096 	 -14.2487 	 58.7573 	 
C 	 -5.55812 	 -11.9288 	 56.9695 	 
H 	 -6.21488 	 -11.8344 	 57.797 	 
H 	 -6.14724 	 -11.5784 	 56.1979 	 
C 	 -4.51607 	 -10.9348 	 57.298 	 
H 	 -3.74837 	 -10.8113 	 56.5672 	 
H 	 -3.85299 	 -11.3021 	 58.1314 	 
C 	 -5.06348 	 -9.58682 	 57.6932 	 
H 	 -4.19526 	 -8.90803 	 57.8826 	 
H 	 -5.78189 	 -9.69354 	 58.5461 	 
H 	 -5.61633 	 -9.14916 	 56.7919 	 
H 	 -1.27901 	 -13.3244 	 51.9947 	 
H 	 -5.18695 	 -16.4767 	 58.3918 	 
*
