! wB97X-D3 SP def2-SVP
%pal
nprocs 16
end

* xyz 0 1
S 	 45.8735 	 10.2496 	 76.7831 	 
C 	 45.4517 	 9.54611 	 78.3137 	 
C 	 46.0906 	 10.1916 	 79.3523 	 
C 	 46.8089 	 11.3534 	 78.8711 	 
C 	 46.8104 	 11.5603 	 77.5293 	 
H 	 47.301 	 12.128 	 79.4238 	 
C 	 46.0137 	 9.82492 	 80.8146 	 
H 	 45.037 	 10.1092 	 81.1696 	 
H 	 46.7273 	 10.5346 	 81.2158 	 
C 	 46.3015 	 8.34404 	 81.1667 	 
H 	 45.8122 	 7.6468 	 80.445 	 
H 	 47.3367 	 8.20027 	 80.8934 	 
C 	 46.2501 	 8.01051 	 82.7051 	 
H 	 45.3663 	 8.24886 	 83.2579 	 
H 	 46.3458 	 6.97121 	 82.9083 	 
H 	 47.1289 	 8.29812 	 83.2236 	 
S 	 48.4142 	 11.8884 	 75.346 	 
C 	 48.9067 	 13.5485 	 74.8309 	 
C 	 48.6176 	 14.4194 	 75.869 	 
C 	 47.8797 	 13.8426 	 76.9622 	 
C 	 47.6191 	 12.502 	 76.7664 	 
H 	 48.91 	 15.4597 	 75.7483 	 
C 	 47.3882 	 14.653 	 78.1527 	 
H 	 48.1312 	 14.4554 	 78.9021 	 
H 	 46.4451 	 14.2748 	 78.4688 	 
C 	 47.184 	 16.1723 	 77.9825 	 
H 	 46.5391 	 16.4745 	 78.8026 	 
H 	 46.5527 	 16.4008 	 77.0793 	 
C 	 48.4916 	 17.0312 	 78.1918 	 
H 	 48.2842 	 18.0648 	 78.4906 	 
H 	 49.043 	 16.9201 	 77.3114 	 
H 	 49.0287 	 16.5777 	 79.017 	 
H 	 44.9353 	 8.60372 	 78.462 	 
H 	 49.4746 	 13.7267 	 73.9228 	 
*
