! wB97X-D3 SP def2-SVP
%pal
nprocs 16
end

* xyz 0 1
S 	 -36.0478 	 73.1204 	 168.262 	 
C 	 -35.4837 	 72.4825 	 166.745 	 
C 	 -36.1516 	 73.1009 	 165.737 	 
C 	 -37.175 	 73.9985 	 166.193 	 
C 	 -37.2246 	 74.1583 	 167.562 	 
H 	 -37.841 	 74.4472 	 165.529 	 
C 	 -35.8881 	 72.8981 	 164.275 	 
H 	 -36.8702 	 72.9511 	 163.777 	 
H 	 -35.5289 	 71.8805 	 164.392 	 
C 	 -34.8036 	 73.7483 	 163.611 	 
H 	 -34.876 	 74.8167 	 163.863 	 
H 	 -33.7944 	 73.3675 	 163.844 	 
C 	 -34.7991 	 73.5681 	 162.157 	 
H 	 -34.5679 	 72.5196 	 161.983 	 
H 	 -35.7864 	 73.8875 	 161.821 	 
H 	 -34.0276 	 74.1783 	 161.721 	 
S 	 -38.5975 	 74.0718 	 170.008 	 
C 	 -39.5128 	 75.5294 	 170.46 	 
C 	 -39.5282 	 76.5229 	 169.447 	 
C 	 -38.8431 	 76.0533 	 168.282 	 
C 	 -38.1856 	 74.8432 	 168.434 	 
H 	 -40.18 	 77.3501 	 169.615 	 
C 	 -38.8851 	 76.8741 	 167.038 	 
H 	 -38.0148 	 76.6087 	 166.403 	 
H 	 -38.6657 	 77.8775 	 167.345 	 
C 	 -40.2363 	 76.8785 	 166.235 	 
H 	 -40.2384 	 77.7173 	 165.552 	 
H 	 -41.0785 	 77.0481 	 166.877 	 
C 	 -40.3055 	 75.661 	 165.366 	 
H 	 -40.4237 	 74.7525 	 165.999 	 
H 	 -39.5256 	 75.5759 	 164.627 	 
H 	 -41.2214 	 75.6741 	 164.766 	 
H 	 -34.7528 	 71.6734 	 166.517 	 
H 	 -40.0878 	 75.6943 	 171.344 	 
*
