! wB97X-D3 SP def2-SVP
%pal
nprocs 16
end

* xyz 0 1
S 	 -1.53562 	 -17.7489 	 90.1725 	 
C 	 -1.41211 	 -16.5919 	 88.892 	 
C 	 -0.0771406 	 -16.4002 	 88.5661 	 
C 	 0.85054 	 -17.2061 	 89.2095 	 
C 	 0.209446 	 -18.0743 	 90.0909 	 
H 	 1.91003 	 -17.2624 	 88.9666 	 
C 	 0.334466 	 -15.5513 	 87.4594 	 
H 	 1.34263 	 -15.378 	 87.5907 	 
H 	 -0.0432204 	 -14.5836 	 87.5205 	 
C 	 0.0856844 	 -15.9853 	 86.091 	 
H 	 0.639519 	 -16.8763 	 85.9997 	 
H 	 -0.967493 	 -16.1602 	 86.0267 	 
C 	 0.654486 	 -15.0932 	 84.9509 	 
H 	 1.71091 	 -15.216 	 84.8208 	 
H 	 0.192317 	 -15.2624 	 84.0355 	 
H 	 0.41974 	 -14.0309 	 85.2352 	 
S 	 0.230212 	 -19.383 	 92.5119 	 
C 	 1.13078 	 -20.8209 	 92.7831 	 
C 	 1.8865 	 -21.0833 	 91.6674 	 
C 	 1.69894 	 -20.2439 	 90.5712 	 
C 	 0.733181 	 -19.2546 	 90.8198 	 
H 	 2.60842 	 -21.9467 	 91.7123 	 
C 	 2.42059 	 -20.3798 	 89.3238 	 
H 	 3.45753 	 -20.8752 	 89.5583 	 
H 	 2.61739 	 -19.3304 	 88.9963 	 
C 	 1.64104 	 -21.1233 	 88.184 	 
H 	 1.07641 	 -20.2481 	 87.8049 	 
H 	 0.9646 	 -21.8102 	 88.7025 	 
C 	 2.44449 	 -21.7234 	 87.0508 	 
H 	 3.16288 	 -20.9151 	 86.69 	 
H 	 1.93909 	 -22.2409 	 86.1963 	 
H 	 3.0852 	 -22.4731 	 87.4283 	 
H 	 -2.2656 	 -16.1012 	 88.4964 	 
H 	 1.15372 	 -21.4241 	 93.6264 	 
*
