! wB97X-D3 SP def2-SVP
%pal
nprocs 16
end

* xyz 0 1
S 	 8.58259 	 -24.3903 	 82.6906 	 
C 	 8.16797 	 -22.8019 	 83.2013 	 
C 	 8.80828 	 -21.875 	 82.4195 	 
C 	 9.60505 	 -22.3857 	 81.3875 	 
C 	 9.55825 	 -23.7848 	 81.3707 	 
H 	 10.0599 	 -21.7524 	 80.5791 	 
C 	 8.52084 	 -20.4184 	 82.5593 	 
H 	 9.52489 	 -19.8957 	 82.8294 	 
H 	 8.05048 	 -20.328 	 83.503 	 
C 	 7.72639 	 -19.7383 	 81.4385 	 
H 	 7.89618 	 -20.0011 	 80.3831 	 
H 	 6.64852 	 -20.0241 	 81.5526 	 
C 	 7.86245 	 -18.2289 	 81.371 	 
H 	 7.67992 	 -17.7786 	 80.3943 	 
H 	 7.08745 	 -17.8869 	 82.0261 	 
H 	 8.84641 	 -17.951 	 81.7942 	 
S 	 9.41703 	 -25.1005 	 78.9881 	 
C 	 10.8439 	 -25.9211 	 78.3451 	 
C 	 11.8431 	 -25.8815 	 79.2456 	 
C 	 11.616 	 -25.0855 	 80.413 	 
C 	 10.2969 	 -24.6626 	 80.4666 	 
H 	 12.6765 	 -26.4593 	 79.0405 	 
C 	 12.7107 	 -24.9107 	 81.3827 	 
H 	 13.5727 	 -25.4261 	 80.9913 	 
H 	 12.3837 	 -25.5356 	 82.2854 	 
C 	 13.1426 	 -23.4321 	 81.6353 	 
H 	 12.3412 	 -22.9363 	 82.2922 	 
H 	 13.0925 	 -22.8545 	 80.6979 	 
C 	 14.5545 	 -23.4762 	 82.3367 	 
H 	 15.2513 	 -23.4457 	 81.4544 	 
H 	 14.8652 	 -24.2947 	 82.978 	 
H 	 14.6418 	 -22.558 	 82.9196 	 
H 	 7.38345 	 -22.6897 	 83.979 	 
H 	 10.9605 	 -26.386 	 77.3799 	 
*
