! wB97X-D3 SP def2-SVP
%pal
nprocs 16
end

* xyz 0 1
S 	 -21.3593 	 -3.04015 	 80.7996 	 
C 	 -20.5698 	 -4.03411 	 79.6513 	 
C 	 -20.2011 	 -5.26906 	 80.1249 	 
C 	 -20.2066 	 -5.17125 	 81.5919 	 
C 	 -20.6987 	 -4.01714 	 82.1511 	 
H 	 -19.853 	 -5.94922 	 82.3066 	 
C 	 -19.6746 	 -6.49025 	 79.3051 	 
H 	 -18.7005 	 -6.78649 	 79.6851 	 
H 	 -19.578 	 -6.15193 	 78.21 	 
C 	 -20.6387 	 -7.68473 	 79.168 	 
H 	 -21.6663 	 -7.24336 	 79.1837 	 
H 	 -20.5444 	 -8.25733 	 78.2627 	 
C 	 -20.3541 	 -8.6185 	 80.3271 	 
H 	 -19.6285 	 -9.44299 	 80.1017 	 
H 	 -19.9344 	 -8.01229 	 81.1341 	 
H 	 -21.213 	 -9.2795 	 80.7066 	 
S 	 -22.6297 	 -4.14022 	 84.0657 	 
C 	 -22.2485 	 -3.60373 	 85.6616 	 
C 	 -20.9386 	 -3.17929 	 85.8182 	 
C 	 -20.2085 	 -3.12355 	 84.5822 	 
C 	 -20.9972 	 -3.6982 	 83.5724 	 
H 	 -20.645 	 -2.76862 	 86.7747 	 
C 	 -18.8322 	 -2.54307 	 84.4585 	 
H 	 -18.7133 	 -1.91247 	 85.3334 	 
H 	 -19.0303 	 -1.92197 	 83.5998 	 
C 	 -17.6452 	 -3.56801 	 84.3028 	 
H 	 -17.911 	 -4.20731 	 83.3919 	 
H 	 -17.4996 	 -4.22193 	 85.1999 	 
C 	 -16.2305 	 -2.93671 	 84.0525 	 
H 	 -16.207 	 -2.68 	 82.9778 	 
H 	 -15.4184 	 -3.58255 	 84.2994 	 
H 	 -15.9918 	 -2.08766 	 84.6056 	 
H 	 -20.52 	 -3.7961 	 78.6082 	 
H 	 -22.9169 	 -3.61459 	 86.5665 	 
*
