! wB97X-D3 SP def2-SVP
%pal
nprocs 16
end

* xyz 0 1
S 	 -18.4804 	 56.6339 	 62.0221 	 
C 	 -17.7638 	 55.1393 	 61.4656 	 
C 	 -16.8533 	 55.3342 	 60.453 	 
C 	 -16.4765 	 56.7069 	 60.4269 	 
C 	 -17.2388 	 57.481 	 61.2516 	 
H 	 -15.7411 	 57.1414 	 59.822 	 
C 	 -16.1568 	 54.3109 	 59.6631 	 
H 	 -15.8582 	 53.4774 	 60.3914 	 
H 	 -15.2824 	 54.7897 	 59.153 	 
C 	 -17.1251 	 53.7633 	 58.5602 	 
H 	 -18.0497 	 53.3296 	 59.0052 	 
H 	 -17.4896 	 54.6655 	 57.9739 	 
C 	 -16.5768 	 52.6525 	 57.6932 	 
H 	 -16.5563 	 51.6944 	 58.2865 	 
H 	 -17.2804 	 52.4117 	 56.9214 	 
H 	 -15.6089 	 52.7849 	 57.239 	 
S 	 -17.523 	 59.7277 	 59.8777 	 
C 	 -17.501 	 61.2908 	 60.7041 	 
C 	 -17.0364 	 61.1304 	 62.0347 	 
C 	 -16.8993 	 59.7352 	 62.4031 	 
C 	 -17.188 	 58.9087 	 61.378 	 
H 	 -16.9975 	 61.9536 	 62.6906 	 
C 	 -16.727 	 59.2476 	 63.8127 	 
H 	 -15.6346 	 59.2015 	 63.9162 	 
H 	 -17.195 	 58.2837 	 64.0359 	 
C 	 -17.2802 	 60.1198 	 64.9935 	 
H 	 -16.7472 	 61.0644 	 64.9339 	 
H 	 -16.9913 	 59.7344 	 65.9388 	 
C 	 -18.8061 	 60.2723 	 64.9981 	 
H 	 -19.1766 	 60.7197 	 64.0695 	 
H 	 -19.1929 	 60.9878 	 65.7313 	 
H 	 -19.4213 	 59.351 	 65.1241 	 
H 	 -18.1708 	 54.1667 	 61.759 	 
H 	 -17.8477 	 62.1959 	 60.2651 	 
*
