! wB97X-D3 SP def2-SVP
%pal
nprocs 16
end

* xyz 0 1
S 	 -7.86709 	 10.9389 	 84.7155 	 
C 	 -8.80115 	 9.41207 	 84.8196 	 
C 	 -7.97084 	 8.34532 	 85.128 	 
C 	 -6.65886 	 8.85041 	 85.4653 	 
C 	 -6.40533 	 10.2049 	 85.2875 	 
H 	 -5.8381 	 8.3247 	 85.8624 	 
C 	 -8.33827 	 6.87445 	 85.3957 	 
H 	 -7.68668 	 6.22077 	 84.8534 	 
H 	 -9.35297 	 6.59578 	 85.0447 	 
C 	 -8.30113 	 6.47686 	 86.9073 	 
H 	 -7.45793 	 6.91042 	 87.3037 	 
H 	 -9.19522 	 6.83371 	 87.5212 	 
C 	 -8.36536 	 4.91907 	 87.0263 	 
H 	 -9.1508 	 4.30854 	 86.466 	 
H 	 -7.43631 	 4.48668 	 86.7683 	 
H 	 -8.45022 	 4.74759 	 88.1055 	 
S 	 -5.47769 	 12.304 	 86.7736 	 
C 	 -3.78211 	 12.6786 	 86.8848 	 
C 	 -3.08598 	 11.6082 	 86.3322 	 
C 	 -3.85945 	 10.5703 	 85.7046 	 
C 	 -5.20576 	 10.9344 	 85.6634 	 
H 	 -2.0051 	 11.6611 	 86.3569 	 
C 	 -3.11109 	 9.41976 	 84.9847 	 
H 	 -2.67835 	 9.89774 	 84.119 	 
H 	 -3.89834 	 8.78675 	 84.5614 	 
C 	 -2.03882 	 8.65657 	 85.7705 	 
H 	 -1.48566 	 9.43306 	 86.2705 	 
H 	 -1.29255 	 8.12706 	 85.0856 	 
C 	 -2.68733 	 7.72933 	 86.7976 	 
H 	 -1.98991 	 7.09576 	 87.3831 	 
H 	 -3.28097 	 7.08772 	 86.1461 	 
H 	 -3.32784 	 8.21649 	 87.5022 	 
H 	 -9.88058 	 9.48233 	 84.6732 	 
H 	 -3.24927 	 13.4323 	 87.3801 	 
*
