! wB97X-D3 SP def2-SVP
%pal
nprocs 16
end

* xyz 0 1
S 	 -103 	 56.0612 	 117.904 	 
C 	 -102.797 	 57.3885 	 116.784 	 
C 	 -103.982 	 58.0185 	 116.517 	 
C 	 -105.014 	 57.5703 	 117.448 	 
C 	 -104.603 	 56.6073 	 118.331 	 
H 	 -106.021 	 57.8787 	 117.478 	 
C 	 -104.199 	 59.0013 	 115.361 	 
H 	 -103.831 	 58.6391 	 114.494 	 
H 	 -103.558 	 59.8585 	 115.572 	 
C 	 -105.672 	 59.4683 	 115.195 	 
H 	 -105.976 	 59.8788 	 116.127 	 
H 	 -105.669 	 60.3814 	 114.525 	 
C 	 -106.689 	 58.4705 	 114.606 	 
H 	 -106.585 	 57.5209 	 115.077 	 
H 	 -107.737 	 58.7183 	 114.597 	 
H 	 -106.346 	 58.1983 	 113.588 	 
S 	 -104.238 	 56.1259 	 120.948 	 
C 	 -105.582 	 55.553 	 121.882 	 
C 	 -106.816 	 55.8211 	 121.299 	 
C 	 -106.674 	 56.1358 	 119.925 	 
C 	 -105.292 	 56.2824 	 119.598 	 
H 	 -107.72 	 55.653 	 121.87 	 
C 	 -107.827 	 56.5612 	 119.041 	 
H 	 -108.689 	 55.863 	 119.212 	 
H 	 -107.739 	 56.23 	 118.029 	 
C 	 -108.338 	 58.0054 	 119.208 	 
H 	 -107.508 	 58.6995 	 119.221 	 
H 	 -108.926 	 58.1071 	 120.058 	 
C 	 -109.202 	 58.4905 	 118.04 	 
H 	 -109.764 	 57.604 	 117.784 	 
H 	 -108.679 	 58.9617 	 117.177 	 
H 	 -109.97 	 59.1173 	 118.498 	 
H 	 -101.846 	 57.5318 	 116.335 	 
H 	 -105.398 	 55.2658 	 122.86 	 
*
