! wB97X-D3 SP def2-SVP
%pal
nprocs 16
end

* xyz 0 1
S 	 -38.8603 	 22.2589 	 78.891 	 
C 	 -38.8179 	 22.8669 	 80.4823 	 
C 	 -39.0336 	 24.2568 	 80.4745 	 
C 	 -39.4045 	 24.7685 	 79.1819 	 
C 	 -39.3253 	 23.7987 	 78.1868 	 
H 	 -39.7865 	 25.7642 	 78.9349 	 
C 	 -38.9354 	 25.1906 	 81.6521 	 
H 	 -38.4733 	 24.6025 	 82.5146 	 
H 	 -39.9097 	 25.6178 	 81.8338 	 
C 	 -38.0072 	 26.4405 	 81.3801 	 
H 	 -36.9442 	 26.102 	 81.4893 	 
H 	 -38.0499 	 26.7837 	 80.3025 	 
C 	 -38.4607 	 27.6233 	 82.2863 	 
H 	 -38.5485 	 27.2089 	 83.2868 	 
H 	 -37.7974 	 28.4813 	 82.1428 	 
H 	 -39.4614 	 27.9908 	 81.9954 	 
S 	 -38.7501 	 22.888 	 75.6615 	 
C 	 -39.7425 	 23.3858 	 74.3468 	 
C 	 -40.6585 	 24.4117 	 74.7147 	 
C 	 -40.7333 	 24.5291 	 76.1147 	 
C 	 -39.7071 	 23.8731 	 76.7856 	 
H 	 -41.3315 	 24.8653 	 73.9915 	 
C 	 -41.7911 	 25.3269 	 76.8068 	 
H 	 -41.4441 	 26.3968 	 76.8643 	 
H 	 -41.9359 	 25.0007 	 77.8271 	 
C 	 -43.2529 	 25.3455 	 76.2787 	 
H 	 -43.1995 	 25.7022 	 75.2615 	 
H 	 -43.867 	 25.9572 	 76.9158 	 
C 	 -43.8501 	 23.9161 	 76.2785 	 
H 	 -44.5703 	 23.8371 	 75.4836 	 
H 	 -44.3119 	 23.6579 	 77.2153 	 
H 	 -43.1561 	 23.1534 	 76.0763 	 
H 	 -38.4337 	 22.3192 	 81.3937 	 
H 	 -39.5822 	 23.0499 	 73.332 	 
*
