! wB97X-D3 SP def2-SVP
%pal
nprocs 16
end

* xyz 0 1
S 	 -54.4633 	 9.51644 	 90.0704 	 
C 	 -53.6346 	 10.2162 	 91.3999 	 
C 	 -52.5922 	 11.019 	 90.9613 	 
C 	 -52.5543 	 11.1486 	 89.5069 	 
C 	 -53.4411 	 10.39 	 88.839 	 
H 	 -51.8434 	 11.633 	 88.908 	 
C 	 -51.5249 	 11.635 	 91.8103 	 
H 	 -51.9142 	 11.872 	 92.7518 	 
H 	 -51.2344 	 12.6354 	 91.4234 	 
C 	 -50.2645 	 10.7236 	 92.0415 	 
H 	 -49.5467 	 11.3078 	 92.6264 	 
H 	 -50.55 	 9.85755 	 92.6657 	 
C 	 -49.4999 	 10.1999 	 90.8053 	 
H 	 -50.1319 	 9.99057 	 89.9397 	 
H 	 -48.7059 	 11.0641 	 90.4741 	 
H 	 -48.903 	 9.36035 	 91.0813 	 
S 	 -52.8181 	 8.58487 	 86.9323 	 
C 	 -53.5536 	 8.6509 	 85.2775 	 
C 	 -54.0602 	 9.89605 	 85.1206 	 
C 	 -54.0442 	 10.7435 	 86.2685 	 
C 	 -53.5253 	 10.0876 	 87.3862 	 
H 	 -54.4487 	 10.1698 	 84.1666 	 
C 	 -54.6362 	 12.1776 	 86.2479 	 
H 	 -54.191 	 12.727 	 87.1033 	 
H 	 -55.6709 	 11.9915 	 86.3377 	 
C 	 -54.2849 	 13.0958 	 85.0552 	 
H 	 -54.5769 	 14.0916 	 85.3059 	 
H 	 -54.7061 	 12.8399 	 84.1106 	 
C 	 -52.7587 	 13.2592 	 84.9424 	 
H 	 -52.48 	 13.8307 	 84.0707 	 
H 	 -52.2359 	 12.2398 	 84.831 	 
H 	 -52.3401 	 13.6993 	 85.8276 	 
H 	 -53.8062 	 10.081 	 92.4375 	 
H 	 -53.5322 	 7.85061 	 84.5641 	 
*
