! wB97X-D3 SP def2-SVP
%pal
nprocs 16
end

* xyz 0 1
S 	 -41.8792 	 28.4099 	 76.8788 	 
C 	 -41.3798 	 29.6304 	 78.0754 	 
C 	 -40.3335 	 29.1619 	 78.8565 	 
C 	 -39.9208 	 27.8583 	 78.5643 	 
C 	 -40.5847 	 27.3084 	 77.4887 	 
H 	 -39.1513 	 27.2811 	 79.0977 	 
C 	 -39.783 	 29.9032 	 80.0798 	 
H 	 -39.6803 	 29.3522 	 80.9203 	 
H 	 -40.6094 	 30.5005 	 80.4755 	 
C 	 -38.5346 	 30.7454 	 79.937 	 
H 	 -37.8865 	 30.3215 	 79.2269 	 
H 	 -38.9205 	 31.695 	 79.5316 	 
C 	 -37.6616 	 30.9048 	 81.2037 	 
H 	 -37.4126 	 29.8816 	 81.4413 	 
H 	 -36.7774 	 31.4735 	 81 	 
H 	 -38.2109 	 31.4957 	 82.0062 	 
S 	 -41.9305 	 24.9986 	 76.4915 	 
C 	 -40.9954 	 23.6479 	 75.9663 	 
C 	 -39.7133 	 23.8455 	 76.2427 	 
C 	 -39.4064 	 25.093 	 76.8686 	 
C 	 -40.5212 	 25.9079 	 77.0514 	 
H 	 -38.9821 	 23.0517 	 75.9341 	 
C 	 -37.9614 	 25.458 	 77.064 	 
H 	 -37.5541 	 24.7471 	 77.8423 	 
H 	 -37.8435 	 26.4539 	 77.5649 	 
C 	 -36.9168 	 25.2524 	 75.9431 	 
H 	 -36.929 	 24.2825 	 75.544 	 
H 	 -35.8544 	 25.3001 	 76.2285 	 
C 	 -37.0516 	 26.2846 	 74.838 	 
H 	 -36.1514 	 26.2117 	 74.2534 	 
H 	 -37.0436 	 27.3089 	 75.1431 	 
H 	 -37.9657 	 26.1052 	 74.2547 	 
H 	 -41.9509 	 30.5554 	 78.1719 	 
H 	 -41.3361 	 22.8382 	 75.3522 	 
*
