! wB97X-D3 SP def2-SVP
%pal
nprocs 16
end

* xyz 0 1
S 	 55.4888 	 -5.84087 	 86.6933 	 
C 	 53.7173 	 -5.76361 	 86.8526 	 
C 	 53.184 	 -4.6153 	 86.2726 	 
C 	 54.2286 	 -3.73766 	 85.8533 	 
C 	 55.5007 	 -4.25933 	 85.8731 	 
H 	 54.0284 	 -2.77584 	 85.3736 	 
C 	 51.7265 	 -4.11849 	 86.3608 	 
H 	 51.0536 	 -4.93018 	 85.9368 	 
H 	 51.6525 	 -3.2072 	 85.7501 	 
C 	 51.3656 	 -3.83198 	 87.8093 	 
H 	 51.6985 	 -4.7169 	 88.4783 	 
H 	 51.9935 	 -3.09951 	 88.3594 	 
C 	 49.8039 	 -3.50435 	 87.9429 	 
H 	 49.2331 	 -4.18209 	 87.363 	 
H 	 49.4099 	 -3.57358 	 88.9722 	 
H 	 49.5697 	 -2.45579 	 87.6151 	 
S 	 57.5645 	 -4.82159 	 84.1322 	 
C 	 58.8364 	 -3.69985 	 83.9224 	 
C 	 58.6235 	 -2.55119 	 84.6694 	 
C 	 57.4189 	 -2.59416 	 85.4671 	 
C 	 56.7454 	 -3.75678 	 85.2753 	 
H 	 59.2353 	 -1.75398 	 84.4782 	 
C 	 57.0345 	 -1.49606 	 86.4953 	 
H 	 57.3839 	 -1.77462 	 87.4641 	 
H 	 55.9627 	 -1.45141 	 86.6973 	 
C 	 57.6122 	 -0.0653803 	 86.0865 	 
H 	 57.4284 	 0.225544 	 85.0723 	 
H 	 58.6834 	 0.0312213 	 86.3407 	 
C 	 56.9373 	 1.07867 	 86.8991 	 
H 	 57.3679 	 2.0776 	 86.6367 	 
H 	 56.7941 	 0.935883 	 87.9994 	 
H 	 55.9043 	 1.11674 	 86.6192 	 
H 	 53.1556 	 -6.45838 	 87.3889 	 
H 	 59.6723 	 -3.82847 	 83.2724 	 
*
