! wB97X-D3 SP def2-SVP
%pal
nprocs 16
end

* xyz 0 1
S 	 51.4923 	 9.3398 	 88.0858 	 
C 	 50.3375 	 10.299 	 89.0456 	 
C 	 50.633 	 11.603 	 88.8491 	 
C 	 51.4101 	 11.8604 	 87.673 	 
C 	 51.9603 	 10.6845 	 87.1652 	 
H 	 51.6427 	 12.7594 	 87.1715 	 
C 	 50.0871 	 12.628 	 89.8128 	 
H 	 48.9884 	 12.4932 	 89.7575 	 
H 	 50.2062 	 13.6568 	 89.4621 	 
C 	 50.6198 	 12.746 	 91.259 	 
H 	 49.8683 	 13.2372 	 91.8421 	 
H 	 50.7827 	 11.7448 	 91.6786 	 
C 	 51.9061 	 13.5414 	 91.4077 	 
H 	 51.7843 	 14.489 	 91.01 	 
H 	 52.3585 	 13.4797 	 92.4172 	 
H 	 52.6694 	 13.2324 	 90.7298 	 
S 	 54.2668 	 11.5072 	 85.8734 	 
C 	 54.8419 	 10.5665 	 84.525 	 
C 	 53.8972 	 9.66729 	 84.0798 	 
C 	 52.7272 	 9.60335 	 84.9242 	 
C 	 52.8355 	 10.4979 	 85.9988 	 
H 	 54.1421 	 9.19525 	 83.1515 	 
C 	 51.5775 	 8.6561 	 84.7487 	 
H 	 51.504 	 8.14977 	 85.7057 	 
H 	 51.794 	 7.87128 	 83.9871 	 
C 	 50.1604 	 9.19539 	 84.4273 	 
H 	 50.2018 	 9.90615 	 83.5397 	 
H 	 49.8127 	 9.71671 	 85.2956 	 
C 	 49.0392 	 8.1918 	 84.144 	 
H 	 48.8907 	 7.56945 	 85.0308 	 
H 	 49.3274 	 7.63435 	 83.2231 	 
H 	 48.0654 	 8.7527 	 83.9679 	 
H 	 49.828 	 9.96573 	 89.8895 	 
H 	 55.7131 	 10.8056 	 83.9675 	 
*
