! wB97X-D3 SP def2-SVP
%pal
nprocs 16
end

* xyz 0 1
S 	 37.0121 	 18.3338 	 65.1284 	 
C 	 36.3872 	 18.8362 	 66.7588 	 
C 	 36.9582 	 17.9768 	 67.7108 	 
C 	 37.903 	 17.0605 	 67.1469 	 
C 	 37.9602 	 16.9894 	 65.7604 	 
H 	 38.3692 	 16.2926 	 67.74 	 
C 	 36.534 	 17.9742 	 69.1512 	 
H 	 36.3924 	 16.9199 	 69.4395 	 
H 	 35.5761 	 18.4485 	 69.3302 	 
C 	 37.5373 	 18.6242 	 70.0654 	 
H 	 38.5043 	 18.2091 	 69.8828 	 
H 	 37.6115 	 19.6939 	 69.7397 	 
C 	 37.0741 	 18.5784 	 71.5408 	 
H 	 37.0164 	 17.5888 	 72.0236 	 
H 	 37.6631 	 19.1957 	 72.1841 	 
H 	 36.1208 	 19.0048 	 71.6408 	 
S 	 39.2982 	 16.8672 	 63.4314 	 
C 	 40.1544 	 15.4683 	 62.9181 	 
C 	 40.0361 	 14.4664 	 63.8333 	 
C 	 39.1546 	 14.7971 	 64.9534 	 
C 	 38.7701 	 16.1373 	 64.8421 	 
H 	 40.5419 	 13.4919 	 63.7273 	 
C 	 38.6293 	 13.7482 	 65.9744 	 
H 	 37.5964 	 13.9592 	 66.3133 	 
H 	 39.2991 	 13.8416 	 66.866 	 
C 	 38.501 	 12.3337 	 65.3883 	 
H 	 38.2104 	 11.5856 	 66.1281 	 
H 	 39.4411 	 11.9678 	 65.0625 	 
C 	 37.4562 	 12.1338 	 64.3403 	 
H 	 36.4873 	 12.5802 	 64.5902 	 
H 	 37.3345 	 11.0532 	 64.1812 	 
H 	 37.7604 	 12.6693 	 63.4124 	 
H 	 35.3955 	 19.38 	 66.9707 	 
H 	 40.8253 	 15.3625 	 62.0633 	 
*
