! wB97X-D3 SP def2-SVP
%pal
nprocs 16
end

* xyz 0 1
S 	 -38.7622 	 44.25 	 95.4193 	 
C 	 -39.1628 	 44.3244 	 97.1371 	 
C 	 -38.2611 	 43.6485 	 97.8964 	 
C 	 -37.2643 	 43.0223 	 97.0633 	 
C 	 -37.4855 	 43.1208 	 95.6819 	 
H 	 -36.4882 	 42.4866 	 97.4713 	 
C 	 -38.0406 	 43.8974 	 99.3908 	 
H 	 -37.9838 	 44.9555 	 99.5291 	 
H 	 -37.0202 	 43.5612 	 99.57 	 
C 	 -39.1498 	 43.2129 	 100.232 	 
H 	 -40.1721 	 43.521 	 99.8429 	 
H 	 -39.1548 	 42.1548 	 100.175 	 
C 	 -38.9688 	 43.6642 	 101.725 	 
H 	 -38.8504 	 44.736 	 101.828 	 
H 	 -39.8523 	 43.4007 	 102.333 	 
H 	 -38.0033 	 43.2859 	 102.097 	 
S 	 -36.1549 	 43.7096 	 93.3381 	 
C 	 -35.3239 	 42.4264 	 92.523 	 
C 	 -35.4506 	 41.2417 	 93.2316 	 
C 	 -36.288 	 41.3174 	 94.3662 	 
C 	 -36.6817 	 42.5992 	 94.6334 	 
H 	 -34.9373 	 40.36 	 92.7867 	 
C 	 -36.4959 	 40.0717 	 95.2454 	 
H 	 -37.2194 	 40.3072 	 95.9685 	 
H 	 -35.5485 	 39.8979 	 95.7219 	 
C 	 -36.957 	 38.8203 	 94.4435 	 
H 	 -36.2097 	 38.5912 	 93.6664 	 
H 	 -37.8983 	 39.0771 	 93.8738 	 
C 	 -37.1098 	 37.6399 	 95.3834 	 
H 	 -37.2447 	 36.7697 	 94.8072 	 
H 	 -37.9992 	 37.824 	 95.9253 	 
H 	 -36.3004 	 37.4469 	 96.043 	 
H 	 -39.8452 	 44.9785 	 97.6098 	 
H 	 -34.7185 	 42.6103 	 91.5938 	 
*
