! wB97X-D3 SP def2-SVP
%pal
nprocs 16
end

* xyz 0 1
S 	 40.249 	 14.6683 	 81.3513 	 
C 	 39.0924 	 16.0798 	 81.4743 	 
C 	 38.82 	 16.5111 	 80.1892 	 
C 	 39.3936 	 15.6804 	 79.1531 	 
C 	 39.9996 	 14.5183 	 79.6281 	 
H 	 39.1161 	 15.743 	 78.0853 	 
C 	 37.9052 	 17.6783 	 79.784 	 
H 	 36.9009 	 17.2222 	 79.7101 	 
H 	 38.1643 	 17.889 	 78.7364 	 
C 	 38.0084 	 18.9347 	 80.6509 	 
H 	 37.9278 	 18.6441 	 81.7649 	 
H 	 39.0373 	 19.2798 	 80.5821 	 
C 	 37.2318 	 20.1452 	 80.1925 	 
H 	 37.4502 	 20.3766 	 79.1536 	 
H 	 36.1803 	 20.019 	 80.4615 	 
H 	 37.5568 	 21.0712 	 80.624 	 
S 	 39.8725 	 11.7517 	 79.4968 	 
C 	 40.5928 	 10.9881 	 78.1143 	 
C 	 41.2351 	 11.9073 	 77.3286 	 
C 	 41.0423 	 13.2622 	 77.6803 	 
C 	 40.4054 	 13.3663 	 78.8728 	 
H 	 41.8296 	 11.6116 	 76.5304 	 
C 	 41.6141 	 14.4887 	 76.953 	 
H 	 40.9693 	 15.3726 	 77.0671 	 
H 	 41.5451 	 14.3105 	 75.8594 	 
C 	 43.058 	 14.739 	 77.3581 	 
H 	 43.44 	 15.3672 	 76.6032 	 
H 	 43.6186 	 13.8647 	 77.3754 	 
C 	 43.3539 	 15.5637 	 78.6407 	 
H 	 42.6477 	 16.3359 	 78.8486 	 
H 	 44.3126 	 15.9249 	 78.6736 	 
H 	 43.4388 	 14.9751 	 79.5695 	 
H 	 38.8121 	 16.6942 	 82.2924 	 
H 	 40.5736 	 9.90338 	 77.9623 	 
*
