! wB97X-D3 SP def2-SVP
%pal
nprocs 16
end

* xyz 0 1
S 	 14.3597 	 8.42829 	 87.4096 	 
C 	 14.9091 	 8.71674 	 85.8272 	 
C 	 14.4055 	 9.86193 	 85.2057 	 
C 	 13.6136 	 10.6394 	 86.1629 	 
C 	 13.6058 	 10.1002 	 87.4118 	 
H 	 13.2406 	 11.6276 	 86.0745 	 
C 	 14.7744 	 10.4803 	 83.8757 	 
H 	 14.2047 	 11.4119 	 83.7044 	 
H 	 14.4311 	 9.65949 	 83.1503 	 
C 	 16.2205 	 10.7085 	 83.5017 	 
H 	 16.6926 	 9.77089 	 83.7948 	 
H 	 16.3615 	 10.8959 	 82.423 	 
C 	 16.8473 	 11.957 	 84.1227 	 
H 	 17.8754 	 12.0498 	 83.9332 	 
H 	 16.2901 	 12.7718 	 83.7905 	 
H 	 16.8593 	 12.0133 	 85.2221 	 
S 	 13.901 	 11.286 	 89.9421 	 
C 	 12.4288 	 11.5166 	 90.7799 	 
C 	 11.3059 	 11.4912 	 89.9264 	 
C 	 11.5945 	 10.9977 	 88.6681 	 
C 	 12.9269 	 10.6842 	 88.4932 	 
H 	 10.3572 	 11.8232 	 90.2451 	 
C 	 10.513 	 10.781 	 87.6381 	 
H 	 10.9559 	 10.3346 	 86.7345 	 
H 	 10.3633 	 11.8035 	 87.3835 	 
C 	 9.27053 	 9.95259 	 88.0426 	 
H 	 9.0013 	 10.2081 	 89.0455 	 
H 	 9.38504 	 8.84312 	 88.0316 	 
C 	 8.11761 	 10.2183 	 87.1053 	 
H 	 8.26724 	 10.1699 	 86.0472 	 
H 	 7.59821 	 11.228 	 87.2893 	 
H 	 7.43309 	 9.41179 	 87.3228 	 
H 	 15.7831 	 8.20961 	 85.3987 	 
H 	 12.3475 	 11.898 	 91.7847 	 
*
