! wB97X-D3 SP def2-SVP
%pal
nprocs 16
end

* xyz 0 1
S 	 32.2548 	 22.0158 	 48.2373 	 
C 	 31.6497 	 23.2606 	 49.1857 	 
C 	 32.2449 	 23.2702 	 50.4602 	 
C 	 33.2335 	 22.3056 	 50.6111 	 
C 	 33.3724 	 21.5094 	 49.5084 	 
H 	 33.7269 	 22.0139 	 51.5365 	 
C 	 31.9352 	 24.2641 	 51.6781 	 
H 	 31.2408 	 25.0353 	 51.3277 	 
H 	 32.8341 	 24.8467 	 51.8427 	 
C 	 31.4498 	 23.5145 	 52.9524 	 
H 	 30.5644 	 23.0154 	 52.7178 	 
H 	 32.0533 	 22.7073 	 53.3188 	 
C 	 31.0993 	 24.3731 	 54.1555 	 
H 	 31.58 	 25.3728 	 54.1628 	 
H 	 30.0079 	 24.6045 	 54.2367 	 
H 	 31.2381 	 23.8567 	 55.0984 	 
S 	 33.0178 	 18.8548 	 49.0716 	 
C 	 34.0937 	 17.7031 	 49.7968 	 
C 	 35.2148 	 18.3693 	 50.2553 	 
C 	 35.2374 	 19.766 	 50.0177 	 
C 	 34.0345 	 20.1999 	 49.4979 	 
H 	 35.9616 	 17.8335 	 50.8196 	 
C 	 36.4461 	 20.6434 	 50.4039 	 
H 	 36.4719 	 20.511 	 51.5022 	 
H 	 36.2098 	 21.701 	 50.212 	 
C 	 37.8406 	 20.3853 	 49.6423 	 
H 	 37.7393 	 20.3577 	 48.556 	 
H 	 38.3291 	 19.4618 	 49.7802 	 
C 	 38.8783 	 21.4567 	 49.9366 	 
H 	 39.7426 	 21.4041 	 49.267 	 
H 	 39.2329 	 21.1702 	 50.8974 	 
H 	 38.4609 	 22.477 	 49.9564 	 
H 	 30.9973 	 24.0286 	 48.754 	 
H 	 33.9035 	 16.6571 	 50.1181 	 
*
