! wB97X-D3 SP def2-SVP
%pal
nprocs 16
end

* xyz 0 1
S 	 -30.5342 	 58.113 	 104.943 	 
C 	 -29.1683 	 57.9844 	 106.086 	 
C 	 -29.2533 	 58.8744 	 107.147 	 
C 	 -30.4946 	 59.6368 	 107.045 	 
C 	 -31.2446 	 59.3481 	 105.865 	 
H 	 -30.8245 	 60.497 	 107.667 	 
C 	 -28.1168 	 59.1463 	 108.155 	 
H 	 -27.4251 	 58.381 	 108.14 	 
H 	 -28.6982 	 59.0292 	 109.035 	 
C 	 -27.3679 	 60.5261 	 108.091 	 
H 	 -28.0418 	 61.3726 	 108.273 	 
H 	 -26.726 	 60.5371 	 108.919 	 
C 	 -26.5242 	 60.6387 	 106.789 	 
H 	 -25.6104 	 59.9917 	 106.742 	 
H 	 -27.1271 	 60.3983 	 105.933 	 
H 	 -26.1893 	 61.6674 	 106.708 	 
S 	 -33.773 	 58.9311 	 104.855 	 
C 	 -34.6662 	 60.3081 	 104.321 	 
C 	 -34.1328 	 61.4663 	 104.84 	 
C 	 -32.8195 	 61.3128 	 105.394 	 
C 	 -32.4798 	 59.9575 	 105.474 	 
H 	 -34.7072 	 62.3802 	 104.682 	 
C 	 -32.0184 	 62.4729 	 105.832 	 
H 	 -31.0294 	 62.1345 	 106.197 	 
H 	 -32.5788 	 62.8417 	 106.71 	 
C 	 -31.8045 	 63.5258 	 104.703 	 
H 	 -32.722 	 63.6816 	 104.14 	 
H 	 -31.256 	 63.1077 	 103.871 	 
C 	 -31.337 	 64.8861 	 105.198 	 
H 	 -30.2708 	 64.7624 	 105.382 	 
H 	 -31.8471 	 65.227 	 106.053 	 
H 	 -31.441 	 65.6198 	 104.333 	 
H 	 -28.3581 	 57.3665 	 105.966 	 
H 	 -35.5655 	 60.4015 	 103.886 	 
*
