! wB97X-D3 SP def2-SVP
%pal
nprocs 16
end

* xyz 0 1
S 	 38.0045 	 11.1956 	 79.2279 	 
C 	 39.4869 	 10.3575 	 78.9477 	 
C 	 40.4095 	 11.1992 	 78.3775 	 
C 	 39.9076 	 12.5188 	 78.238 	 
C 	 38.6471 	 12.6897 	 78.6487 	 
H 	 40.4485 	 13.3996 	 77.8888 	 
C 	 41.751 	 10.7781 	 77.9147 	 
H 	 42.4185 	 10.4436 	 78.7773 	 
H 	 42.2834 	 11.6557 	 77.491 	 
C 	 41.7777 	 9.55916 	 76.9896 	 
H 	 42.8761 	 9.41455 	 76.7691 	 
H 	 41.384 	 8.74296 	 77.6323 	 
C 	 40.9035 	 9.65773 	 75.7095 	 
H 	 40.927 	 8.84187 	 75.0017 	 
H 	 39.8332 	 9.8869 	 75.8202 	 
H 	 41.274 	 10.4096 	 75.0476 	 
S 	 36.6818 	 14.055 	 77.297 	 
C 	 36.8649 	 15.796 	 77.3605 	 
C 	 37.5719 	 16.222 	 78.4975 	 
C 	 38.2477 	 15.1763 	 79.1664 	 
C 	 37.942 	 13.9376 	 78.5869 	 
H 	 37.6853 	 17.2462 	 78.599 	 
C 	 39.2923 	 15.3999 	 80.2509 	 
H 	 39.7776 	 14.4439 	 80.5362 	 
H 	 38.6577 	 15.6282 	 81.1182 	 
C 	 40.3029 	 16.5283 	 80.0055 	 
H 	 40.983 	 16.4656 	 80.8741 	 
H 	 39.8608 	 17.5331 	 80.1175 	 
C 	 41.1542 	 16.3291 	 78.7271 	 
H 	 41.995 	 17.0742 	 78.6824 	 
H 	 40.5265 	 16.469 	 77.8408 	 
H 	 41.5697 	 15.2872 	 78.7504 	 
H 	 39.7598 	 9.24503 	 78.9709 	 
H 	 36.4122 	 16.5438 	 76.6959 	 
*
