! wB97X-D3 SP def2-SVP
%pal
nprocs 16
end

* xyz 0 1
S 	 -2.47608 	 76.2135 	 56.0425 	 
C 	 -2.59378 	 74.698 	 56.8667 	 
C 	 -1.48829 	 73.864 	 56.4995 	 
C 	 -0.589853 	 74.4701 	 55.6252 	 
C 	 -0.88432 	 75.7961 	 55.3813 	 
H 	 0.330122 	 74.0998 	 55.2341 	 
C 	 -1.26721 	 72.4497 	 56.9706 	 
H 	 -0.535464 	 72.0286 	 56.2348 	 
H 	 -2.21653 	 71.9814 	 56.8169 	 
C 	 -0.832779 	 72.2033 	 58.4325 	 
H 	 0.0261955 	 72.8585 	 58.6991 	 
H 	 -1.50728 	 72.6744 	 59.1391 	 
C 	 -0.450066 	 70.8048 	 58.7629 	 
H 	 -0.0465251 	 70.6934 	 59.7628 	 
H 	 -1.26403 	 70.0907 	 58.6136 	 
H 	 0.355118 	 70.3646 	 58.061 	 
S 	 -0.754775 	 77.04 	 52.9959 	 
C 	 0.661817 	 77.9661 	 52.5929 	 
C 	 1.75407 	 77.7373 	 53.4534 	 
C 	 1.32688 	 76.9632 	 54.5973 	 
C 	 -0.0321874 	 76.5964 	 54.4961 	 
H 	 2.63202 	 78.2563 	 53.3088 	 
C 	 2.30272 	 76.6147 	 55.6942 	 
H 	 2.74042 	 75.6514 	 55.4728 	 
H 	 1.6437 	 76.5177 	 56.5254 	 
C 	 3.43712 	 77.5527 	 55.9814 	 
H 	 4.08455 	 77.5448 	 55.1054 	 
H 	 3.981 	 77.1946 	 56.8694 	 
C 	 2.94651 	 78.911 	 56.481 	 
H 	 3.82395 	 79.5507 	 56.4436 	 
H 	 2.50991 	 78.794 	 57.4708 	 
H 	 2.28274 	 79.3873 	 55.8266 	 
H 	 -3.46233 	 74.4296 	 57.552 	 
H 	 0.771318 	 78.4922 	 51.6404 	 
*
