! wB97X-D3 SP def2-SVP
%pal
nprocs 16
end

* xyz 0 1
S 	 45.2845 	 11.6137 	 103.78 	 
C 	 46.7109 	 11.1825 	 104.71 	 
C 	 47.2961 	 9.97676 	 104.218 	 
C 	 46.4904 	 9.36134 	 103.184 	 
C 	 45.28 	 10.0943 	 103.002 	 
H 	 46.6339 	 8.48315 	 102.576 	 
C 	 48.5869 	 9.33304 	 104.692 	 
H 	 49.1821 	 10.0974 	 104.966 	 
H 	 49.1305 	 8.8375 	 103.941 	 
C 	 48.4149 	 8.36368 	 105.874 	 
H 	 47.7925 	 7.5697 	 105.609 	 
H 	 49.3904 	 7.95588 	 106.091 	 
C 	 47.8392 	 8.96035 	 107.133 	 
H 	 46.7447 	 9.01805 	 107.149 	 
H 	 48.1162 	 8.46521 	 108.08 	 
H 	 48.1061 	 9.96287 	 107.183 	 
S 	 42.915 	 8.88817 	 102.639 	 
C 	 42.3382 	 8.61046 	 101.005 	 
C 	 43.2436 	 9.08448 	 100.013 	 
C 	 44.3385 	 9.78122 	 100.606 	 
C 	 44.2863 	 9.78887 	 102.009 	 
H 	 43.1674 	 8.86297 	 98.9467 	 
C 	 45.3011 	 10.4227 	 99.6707 	 
H 	 45.7957 	 9.54987 	 99.1798 	 
H 	 46.1024 	 10.8749 	 100.3 	 
C 	 44.7454 	 11.332 	 98.5795 	 
H 	 43.8869 	 10.8704 	 98.1205 	 
H 	 45.4579 	 11.3201 	 97.7263 	 
C 	 44.337 	 12.7497 	 99.0205 	 
H 	 45.0941 	 13.383 	 99.501 	 
H 	 43.5554 	 12.6551 	 99.6711 	 
H 	 44.0091 	 13.3474 	 98.2315 	 
H 	 47.2329 	 11.8417 	 105.407 	 
H 	 41.4912 	 8.00426 	 100.785 	 
*
