! wB97X-D3 SP def2-SVP
%pal
nprocs 16
end

* xyz 0 1
S 	 26.0961 	 33.3295 	 57.8743 	 
C 	 25.8318 	 31.6603 	 57.5963 	 
C 	 26.7049 	 31.2005 	 56.6097 	 
C 	 27.6602 	 32.1854 	 56.2124 	 
C 	 27.5752 	 33.3747 	 56.961 	 
H 	 28.5374 	 32.0163 	 55.5198 	 
C 	 26.8282 	 29.7186 	 56.0578 	 
H 	 26.4237 	 29.0297 	 56.8085 	 
H 	 27.936 	 29.5446 	 56.055 	 
C 	 26.0948 	 29.5458 	 54.7498 	 
H 	 25.0279 	 29.8692 	 54.8965 	 
H 	 26.4035 	 30.2016 	 53.983 	 
C 	 26.2645 	 28.1126 	 54.2587 	 
H 	 25.5093 	 28.0063 	 53.4375 	 
H 	 27.1401 	 27.9349 	 53.6325 	 
H 	 26.1221 	 27.3249 	 55.023 	 
S 	 27.8092 	 36.137 	 56.818 	 
C 	 29.2819 	 36.9309 	 57.27 	 
C 	 30.1587 	 36.0439 	 57.7926 	 
C 	 29.7896 	 34.691 	 57.5705 	 
C 	 28.4688 	 34.5402 	 57.0922 	 
H 	 31.0001 	 36.4351 	 58.3062 	 
C 	 30.5615 	 33.4655 	 58.0964 	 
H 	 30.0678 	 32.5346 	 57.878 	 
H 	 30.7687 	 33.5992 	 59.1093 	 
C 	 31.9923 	 33.3098 	 57.5668 	 
H 	 32.4764 	 32.6905 	 58.2614 	 
H 	 32.5399 	 34.2492 	 57.4391 	 
C 	 32.0425 	 32.6107 	 56.2326 	 
H 	 31.4729 	 33.0946 	 55.4862 	 
H 	 31.54 	 31.574 	 56.2266 	 
H 	 33.076 	 32.367 	 55.8486 	 
H 	 25.0095 	 31.101 	 57.9475 	 
H 	 29.4005 	 38.0268 	 57.3406 	 
*
