! wB97X-D3 SP def2-SVP
%pal
nprocs 16
end

* xyz 0 1
S 	 -95.8012 	 52.4611 	 124.818 	 
C 	 -94.5815 	 51.2514 	 125.123 	 
C 	 -95.0892 	 50.0717 	 125.639 	 
C 	 -96.5225 	 50.2496 	 125.854 	 
C 	 -97.075 	 51.4093 	 125.29 	 
H 	 -97.2643 	 49.7228 	 126.446 	 
C 	 -94.2881 	 48.875 	 126.03 	 
H 	 -94.9471 	 48.2989 	 126.675 	 
H 	 -93.4538 	 49.2445 	 126.664 	 
C 	 -93.6905 	 48.1268 	 124.825 	 
H 	 -93.0822 	 48.7868 	 124.22 	 
H 	 -93.0829 	 47.3043 	 125.191 	 
C 	 -94.692 	 47.398 	 123.871 	 
H 	 -95.3027 	 48.0289 	 123.233 	 
H 	 -94.0587 	 46.8528 	 123.14 	 
H 	 -95.3276 	 46.6858 	 124.477 	 
S 	 -98.818 	 53.4814 	 125.571 	 
C 	 -100.466 	 53.2546 	 125.219 	 
C 	 -100.714 	 51.9404 	 124.926 	 
C 	 -99.5584 	 51.1229 	 124.798 	 
C 	 -98.4115 	 51.7847 	 125.197 	 
H 	 -101.761 	 51.6529 	 124.878 	 
C 	 -99.6146 	 49.6654 	 124.271 	 
H 	 -98.5454 	 49.4254 	 124.144 	 
H 	 -100.043 	 49.5929 	 123.299 	 
C 	 -100.374 	 48.6066 	 125.134 	 
H 	 -101.357 	 49.053 	 125.28 	 
H 	 -99.8384 	 48.5845 	 126.083 	 
C 	 -100.55 	 47.2243 	 124.421 	 
H 	 -99.6385 	 47.0537 	 123.868 	 
H 	 -101.384 	 47.2771 	 123.748 	 
H 	 -100.743 	 46.3272 	 125.068 	 
H 	 -93.5559 	 51.3853 	 125.012 	 
H 	 -101.269 	 53.914 	 125.46 	 
*
