! wB97X-D3 SP def2-SVP
%pal
nprocs 16
end

* xyz 0 1
S 	 9.42317 	 21.014 	 38.0271 	 
C 	 10.5346 	 21.6664 	 36.7596 	 
C 	 11.6508 	 22.2906 	 37.3471 	 
C 	 11.4084 	 22.5609 	 38.7209 	 
C 	 10.336 	 21.9956 	 39.2908 	 
H 	 12.0375 	 23.1191 	 39.3776 	 
C 	 12.9175 	 22.7768 	 36.5959 	 
H 	 12.8816 	 22.3075 	 35.5504 	 
H 	 13.817 	 22.3133 	 36.9928 	 
C 	 13.1063 	 24.3225 	 36.6361 	 
H 	 12.1785 	 24.7453 	 36.365 	 
H 	 13.3668 	 24.6779 	 37.6321 	 
C 	 14.1476 	 24.7264 	 35.5316 	 
H 	 13.9987 	 25.7985 	 35.3656 	 
H 	 15.1958 	 24.4949 	 35.8691 	 
H 	 13.8882 	 24.2272 	 34.6321 	 
S 	 9.07354 	 20.7824 	 41.2903 	 
C 	 8.94472 	 21.5677 	 42.8282 	 
C 	 9.55978 	 22.7861 	 42.8425 	 
C 	 10.0364 	 23.2116 	 41.5573 	 
C 	 9.85759 	 22.2001 	 40.6104 	 
H 	 9.66678 	 23.4078 	 43.7002 	 
C 	 10.6769 	 24.5479 	 41.3001 	 
H 	 9.95491 	 25.3934 	 41.3994 	 
H 	 10.7901 	 24.5849 	 40.1983 	 
C 	 11.9668 	 24.8464 	 42.1022 	 
H 	 12.6517 	 24.0029 	 42.0123 	 
H 	 11.784 	 24.971 	 43.1515 	 
C 	 12.6724 	 26.1413 	 41.5296 	 
H 	 13.6938 	 26.3167 	 41.7433 	 
H 	 12.1925 	 27.0782 	 41.9592 	 
H 	 12.6726 	 26.1106 	 40.4393 	 
H 	 10.5123 	 21.5964 	 35.659 	 
H 	 8.58272 	 21.0832 	 43.7074 	 
*
