! wB97X-D3 SP def2-SVP
%pal
nprocs 16
end

* xyz 0 1
S 	 -43.9758 	 40.6791 	 84.8883 	 
C 	 -45.3233 	 40.8101 	 85.9534 	 
C 	 -46.0649 	 39.6407 	 85.8699 	 
C 	 -45.7942 	 38.8909 	 84.6686 	 
C 	 -44.7015 	 39.3966 	 83.9925 	 
H 	 -46.1382 	 37.958 	 84.2509 	 
C 	 -47.0032 	 39.0969 	 86.8781 	 
H 	 -46.6007 	 39.3515 	 87.8436 	 
H 	 -46.9465 	 37.9585 	 86.7173 	 
C 	 -48.5064 	 39.5247 	 86.7438 	 
H 	 -49.1288 	 39.2879 	 87.5919 	 
H 	 -48.4968 	 40.5911 	 86.5806 	 
C 	 -49.2219 	 38.7981 	 85.5631 	 
H 	 -50.0888 	 39.3535 	 85.2868 	 
H 	 -48.6382 	 38.815 	 84.6427 	 
H 	 -49.4286 	 37.8001 	 85.7933 	 
S 	 -42.2355 	 38.9242 	 82.7823 	 
C 	 -42.1332 	 37.9201 	 81.3837 	 
C 	 -43.4511 	 37.5813 	 81.025 	 
C 	 -44.4597 	 38.0922 	 81.8098 	 
C 	 -43.9689 	 38.7868 	 82.8737 	 
H 	 -43.4383 	 37.0124 	 80.1148 	 
C 	 -45.9724 	 37.8599 	 81.3308 	 
H 	 -46.367 	 36.9806 	 81.9712 	 
H 	 -45.9092 	 37.4501 	 80.3529 	 
C 	 -46.9043 	 39.1071 	 81.3908 	 
H 	 -47.0925 	 39.3364 	 82.4589 	 
H 	 -47.8508 	 38.7342 	 80.976 	 
C 	 -46.4365 	 40.4516 	 80.7902 	 
H 	 -45.3191 	 40.5612 	 80.8352 	 
H 	 -47.0233 	 41.2836 	 81.1765 	 
H 	 -46.7326 	 40.4796 	 79.7507 	 
H 	 -45.2737 	 41.3663 	 86.882 	 
H 	 -41.2622 	 37.5693 	 80.7297 	 
*
