! wB97X-D3 SP def2-SVP
%pal
nprocs 16
end

* xyz 0 1
S 	 -6.27696 	 15.4547 	 85.3526 	 
C 	 -7.92418 	 15.2203 	 84.7404 	 
C 	 -8.78659 	 14.9763 	 85.7702 	 
C 	 -8.19348 	 15.1417 	 87.0605 	 
C 	 -6.86693 	 15.5718 	 87.0234 	 
H 	 -8.64242 	 14.9613 	 88.0467 	 
C 	 -10.207 	 14.4929 	 85.6684 	 
H 	 -10.3238 	 14.412 	 84.6102 	 
H 	 -10.9 	 15.2083 	 86.006 	 
C 	 -10.5683 	 13.1231 	 86.1314 	 
H 	 -11.6113 	 12.786 	 85.849 	 
H 	 -9.929 	 12.4215 	 85.6088 	 
C 	 -10.4731 	 12.9286 	 87.625 	 
H 	 -9.43456 	 12.5649 	 87.8606 	 
H 	 -10.7668 	 13.7476 	 88.2129 	 
H 	 -11.1744 	 12.1229 	 87.898 	 
S 	 -6.38417 	 17.0322 	 89.2949 	 
C 	 -4.76102 	 17.1203 	 89.941 	 
C 	 -4.03822 	 16.0937 	 89.3867 	 
C 	 -4.72423 	 15.3457 	 88.3904 	 
C 	 -5.96137 	 15.8574 	 88.088 	 
H 	 -3.02692 	 15.9964 	 89.6587 	 
C 	 -4.10832 	 14.1134 	 87.7363 	 
H 	 -3.54829 	 14.3747 	 86.8734 	 
H 	 -4.92284 	 13.5153 	 87.2941 	 
C 	 -3.17198 	 13.2021 	 88.6473 	 
H 	 -2.39071 	 13.7902 	 89.0331 	 
H 	 -2.68246 	 12.4266 	 88.0522 	 
C 	 -3.77026 	 12.478 	 89.8534 	 
H 	 -4.68687 	 11.9236 	 89.6713 	 
H 	 -3.91779 	 13.1047 	 90.7163 	 
H 	 -2.98084 	 11.7291 	 90.1067 	 
H 	 -8.20467 	 15.4142 	 83.6792 	 
H 	 -4.48907 	 17.8826 	 90.6766 	 
*
