! wB97X-D3 SP def2-SVP
%pal
nprocs 16
end

* xyz 0 1
S 	 -57.4384 	 37.5154 	 92.0105 	 
C 	 -58.7421 	 36.2959 	 92.3853 	 
C 	 -59.3302 	 35.9496 	 91.147 	 
C 	 -58.8911 	 36.7198 	 90.0185 	 
C 	 -57.7731 	 37.58 	 90.2288 	 
H 	 -59.3887 	 36.6872 	 89.0546 	 
C 	 -60.5437 	 35.0037 	 90.9327 	 
H 	 -61.1471 	 35.5002 	 90.1177 	 
H 	 -61.1787 	 35.0455 	 91.8359 	 
C 	 -60.1592 	 33.5823 	 90.4624 	 
H 	 -59.8444 	 33.0403 	 91.3845 	 
H 	 -61.0116 	 33.0186 	 90.0219 	 
C 	 -58.9704 	 33.4036 	 89.4957 	 
H 	 -58.8274 	 32.2612 	 89.4886 	 
H 	 -59.1531 	 33.6908 	 88.4667 	 
H 	 -58.0024 	 33.8855 	 89.8325 	 
S 	 -56.9101 	 40.1948 	 89.8752 	 
C 	 -55.8284 	 40.5179 	 88.4858 	 
C 	 -55.8623 	 39.433 	 87.5972 	 
C 	 -56.5773 	 38.2984 	 88.0704 	 
C 	 -57.0169 	 38.4716 	 89.3759 	 
H 	 -55.3967 	 39.482 	 86.6948 	 
C 	 -56.634 	 36.9566 	 87.414 	 
H 	 -56.2897 	 37.2812 	 86.4625 	 
H 	 -57.6985 	 36.7679 	 87.3054 	 
C 	 -56.0692 	 35.6754 	 87.9799 	 
H 	 -56.3954 	 34.9184 	 87.2565 	 
H 	 -56.4197 	 35.2637 	 88.8425 	 
C 	 -54.5988 	 35.8273 	 88.1521 	 
H 	 -54.2283 	 36.6429 	 88.7487 	 
H 	 -54.0721 	 35.9316 	 87.2663 	 
H 	 -54.1963 	 34.9572 	 88.7066 	 
H 	 -58.8375 	 35.6785 	 93.2338 	 
H 	 -55.2335 	 41.3727 	 88.2351 	 
*
