! wB97X-D3 SP def2-SVP
%pal
nprocs 16
end

* xyz 0 1
S 	 -16.6876 	 40.8438 	 58.8796 	 
C 	 -15.2299 	 41.1794 	 57.996 	 
C 	 -15.449 	 41.3748 	 56.6294 	 
C 	 -16.835 	 41.3992 	 56.3431 	 
C 	 -17.6496 	 41.0499 	 57.4306 	 
H 	 -17.2685 	 41.5629 	 55.3604 	 
C 	 -14.4243 	 41.6766 	 55.6025 	 
H 	 -14.8289 	 41.0495 	 54.7981 	 
H 	 -13.3874 	 41.3129 	 55.7952 	 
C 	 -14.3615 	 43.1243 	 55.1198 	 
H 	 -13.7674 	 43.1359 	 54.2182 	 
H 	 -15.3436 	 43.5357 	 54.8173 	 
C 	 -13.7252 	 44.0841 	 56.2062 	 
H 	 -12.7776 	 43.7036 	 56.581 	 
H 	 -13.5486 	 45.1158 	 55.9558 	 
H 	 -14.2983 	 44.0244 	 57.1487 	 
S 	 -19.6752 	 42.3513 	 58.5209 	 
C 	 -21.2984 	 41.6325 	 58.427 	 
C 	 -21.4286 	 40.6612 	 57.4691 	 
C 	 -20.1382 	 40.35 	 56.8921 	 
C 	 -19.0898 	 41.0272 	 57.5228 	 
H 	 -22.4241 	 40.272 	 57.1661 	 
C 	 -19.9581 	 39.2693 	 55.8974 	 
H 	 -20.5454 	 38.3532 	 56.2359 	 
H 	 -18.8672 	 39.0429 	 55.9084 	 
C 	 -20.2235 	 39.6796 	 54.3846 	 
H 	 -19.6634 	 40.5595 	 54.2031 	 
H 	 -21.1898 	 40.068 	 54.0453 	 
C 	 -19.8523 	 38.6106 	 53.3197 	 
H 	 -19.4401 	 39.109 	 52.4256 	 
H 	 -20.5941 	 37.9539 	 53.0291 	 
H 	 -19.0197 	 37.9956 	 53.6343 	 
H 	 -14.2519 	 41.1764 	 58.4581 	 
H 	 -22.0395 	 41.9824 	 59.1406 	 
*
