! wB97X-D3 SP def2-SVP
%pal
nprocs 16
end

* xyz 0 1
S 	 39.889 	 25.1726 	 98.1044 	 
C 	 39.5499 	 25.2038 	 96.3835 	 
C 	 40.2798 	 24.1975 	 95.7828 	 
C 	 41.122 	 23.4135 	 96.6605 	 
C 	 41.0317 	 23.8392 	 97.9436 	 
H 	 41.6873 	 22.5411 	 96.3543 	 
C 	 40.1814 	 23.9647 	 94.2793 	 
H 	 41.2374 	 23.8852 	 93.9426 	 
H 	 39.7615 	 24.8767 	 93.9255 	 
C 	 39.2338 	 22.7629 	 93.8711 	 
H 	 38.2364 	 23.0837 	 94.1778 	 
H 	 39.1193 	 22.7383 	 92.781 	 
C 	 39.6216 	 21.4303 	 94.4208 	 
H 	 39.1182 	 20.5691 	 94.0962 	 
H 	 40.6199 	 21.3281 	 94.2174 	 
H 	 39.6271 	 21.436 	 95.5394 	 
S 	 42.5031 	 24.7146 	 100.095 	 
C 	 43.1384 	 23.5612 	 101.198 	 
C 	 42.8023 	 22.2791 	 100.812 	 
C 	 42.1046 	 22.2038 	 99.5945 	 
C 	 41.7517 	 23.4484 	 99.1204 	 
H 	 43.2595 	 21.4236 	 101.405 	 
C 	 41.5807 	 20.9186 	 98.9806 	 
H 	 41.7448 	 20.7902 	 97.921 	 
H 	 40.5409 	 20.9401 	 99.0094 	 
C 	 42.1236 	 19.571 	 99.5771 	 
H 	 41.5048 	 18.7448 	 99.2391 	 
H 	 41.9944 	 19.6102 	 100.632 	 
C 	 43.5987 	 19.309 	 99.1558 	 
H 	 43.7596 	 19.2634 	 98.0691 	 
H 	 44.0107 	 18.3655 	 99.6928 	 
H 	 44.2921 	 20.2209 	 99.3628 	 
H 	 38.9515 	 25.9255 	 95.9264 	 
H 	 43.7913 	 23.8301 	 101.993 	 
*
