! wB97X-D3 SP def2-SVP
%pal
nprocs 16
end

* xyz 0 1
S 	 6.47524 	 -13.9203 	 61.7674 	 
C 	 8.18755 	 -13.9576 	 61.7385 	 
C 	 8.69418 	 -13.4278 	 62.8987 	 
C 	 7.68624 	 -12.9814 	 63.7806 	 
C 	 6.4141 	 -13.1157 	 63.3393 	 
H 	 7.88703 	 -12.5182 	 64.7433 	 
C 	 10.187 	 -13.2539 	 63.1452 	 
H 	 10.4117 	 -12.2752 	 63.4841 	 
H 	 10.712 	 -13.349 	 62.1574 	 
C 	 10.8655 	 -14.3227 	 64.0441 	 
H 	 10.8052 	 -15.2351 	 63.5205 	 
H 	 11.9572 	 -14.0593 	 64.187 	 
C 	 10.208 	 -14.41 	 65.4482 	 
H 	 10.4012 	 -13.4731 	 65.9875 	 
H 	 9.12343 	 -14.5944 	 65.4135 	 
H 	 10.8419 	 -15.1064 	 65.9453 	 
S 	 4.15436 	 -11.5284 	 63.0988 	 
C 	 3.16634 	 -11.2496 	 64.5609 	 
C 	 3.5725 	 -11.9015 	 65.6775 	 
C 	 4.77634 	 -12.6663 	 65.3912 	 
C 	 5.18541 	 -12.6507 	 64.0347 	 
H 	 3.03072 	 -11.8405 	 66.6119 	 
C 	 5.45562 	 -13.6182 	 66.426 	 
H 	 5.78924 	 -13.0456 	 67.3412 	 
H 	 6.43746 	 -13.915 	 66.0239 	 
C 	 4.38647 	 -14.6536 	 66.9317 	 
H 	 3.57017 	 -14.2461 	 67.3975 	 
H 	 4.73247 	 -15.2615 	 67.8101 	 
C 	 3.85702 	 -15.6376 	 65.9181 	 
H 	 3.47901 	 -15.0063 	 65.1824 	 
H 	 3.12227 	 -16.3625 	 66.3647 	 
H 	 4.64301 	 -16.2069 	 65.4123 	 
H 	 8.77078 	 -14.2693 	 60.8266 	 
H 	 2.25786 	 -10.6435 	 64.5928 	 
*
