! wB97X-D3 SP def2-SVP
%pal
nprocs 16
end

* xyz 0 1
S 	 -68.9539 	 50.2587 	 121.042 	 
C 	 -68.5445 	 50.3474 	 122.741 	 
C 	 -69.125 	 51.53 	 123.303 	 
C 	 -69.9783 	 52.225 	 122.394 	 
C 	 -69.9777 	 51.6852 	 121.133 	 
H 	 -70.6202 	 53.0123 	 122.608 	 
C 	 -69.2178 	 51.86 	 124.78 	 
H 	 -69.5338 	 50.9107 	 125.249 	 
H 	 -70.023 	 52.5473 	 124.976 	 
C 	 -67.9768 	 52.407 	 125.56 	 
H 	 -67.0927 	 51.7694 	 125.477 	 
H 	 -67.6223 	 53.3308 	 125.274 	 
C 	 -68.3427 	 52.5506 	 127.016 	 
H 	 -68.7038 	 51.6448 	 127.302 	 
H 	 -67.5229 	 52.8901 	 127.693 	 
H 	 -69.2308 	 53.2608 	 127.12 	 
S 	 -70.8973 	 53.5895 	 119.445 	 
C 	 -72.1162 	 53.2573 	 118.267 	 
C 	 -72.662 	 51.9722 	 118.42 	 
C 	 -71.876 	 51.2131 	 119.382 	 
C 	 -71.0001 	 52.01 	 120.089 	 
H 	 -73.5399 	 51.6268 	 117.911 	 
C 	 -72.198 	 49.8032 	 119.711 	 
H 	 -73.1742 	 49.633 	 119.288 	 
H 	 -72.2959 	 49.5897 	 120.734 	 
C 	 -71.209 	 48.8519 	 118.94 	 
H 	 -70.1406 	 48.8593 	 119.186 	 
H 	 -71.3386 	 49.0663 	 117.874 	 
C 	 -71.7366 	 47.426 	 119.008 	 
H 	 -71.146 	 46.7348 	 118.447 	 
H 	 -72.7354 	 47.2371 	 118.619 	 
H 	 -71.6613 	 47.0692 	 120.003 	 
H 	 -67.9598 	 49.6864 	 123.26 	 
H 	 -72.5962 	 53.9396 	 117.577 	 
*
