! wB97X-D3 SP def2-SVP
%pal
nprocs 16
end

* xyz 0 1
S 	 -45.9984 	 50.9123 	 103.198 	 
C 	 -44.871 	 52.0141 	 103.932 	 
C 	 -43.6477 	 51.4533 	 103.882 	 
C 	 -43.6166 	 50.2294 	 103.125 	 
C 	 -44.794 	 49.7793 	 102.66 	 
H 	 -42.739 	 49.6337 	 102.938 	 
C 	 -42.4001 	 52.0756 	 104.406 	 
H 	 -41.7394 	 51.3979 	 104.942 	 
H 	 -42.7006 	 52.77 	 105.155 	 
C 	 -41.6164 	 52.9118 	 103.37 	 
H 	 -41.3597 	 52.3347 	 102.468 	 
H 	 -42.2276 	 53.7734 	 103.032 	 
C 	 -40.3514 	 53.5186 	 103.984 	 
H 	 -40.3691 	 54.1722 	 104.808 	 
H 	 -39.5457 	 52.7399 	 104.031 	 
H 	 -39.8854 	 54.1477 	 103.17 	 
S 	 -45.8109 	 48.5607 	 100.451 	 
C 	 -45.5398 	 46.7882 	 100.16 	 
C 	 -44.8937 	 46.2317 	 101.282 	 
C 	 -44.663 	 47.1969 	 102.356 	 
C 	 -45.1304 	 48.4772 	 102.054 	 
H 	 -44.7371 	 45.2196 	 101.321 	 
C 	 -44.0573 	 46.8074 	 103.713 	 
H 	 -43.0564 	 47.1646 	 103.639 	 
H 	 -43.9645 	 45.7583 	 103.789 	 
C 	 -44.7753 	 47.3468 	 105.016 	 
H 	 -45.7835 	 46.9993 	 105.081 	 
H 	 -45.0165 	 48.3936 	 105.044 	 
C 	 -43.9866 	 46.9513 	 106.303 	 
H 	 -42.9911 	 47.436 	 106.41 	 
H 	 -43.8402 	 45.8904 	 106.198 	 
H 	 -44.5482 	 47.1186 	 107.213 	 
H 	 -45.1285 	 53.0112 	 104.365 	 
H 	 -45.9254 	 46.2637 	 99.2665 	 
*
