! wB97X-D3 SP def2-SVP
%pal
nprocs 16
end

* xyz 0 1
S 	 -19.3317 	 55.9103 	 65.0822 	 
C 	 -18.3668 	 54.8554 	 64.1137 	 
C 	 -17.0102 	 55.0777 	 64.1907 	 
C 	 -16.8442 	 56.2941 	 64.9515 	 
C 	 -17.9758 	 56.976 	 65.3037 	 
H 	 -15.913 	 56.8107 	 65.1166 	 
C 	 -15.8851 	 54.3088 	 63.6012 	 
H 	 -14.936 	 54.7314 	 63.94 	 
H 	 -15.9891 	 54.4813 	 62.5717 	 
C 	 -15.9097 	 52.8326 	 63.8173 	 
H 	 -15.4354 	 52.7116 	 64.7838 	 
H 	 -16.9003 	 52.3843 	 63.7667 	 
C 	 -15.0893 	 52.018 	 62.7257 	 
H 	 -14.0495 	 52.3437 	 62.5798 	 
H 	 -15.0617 	 50.9732 	 62.9695 	 
H 	 -15.5902 	 52.1614 	 61.7471 	 
S 	 -17.4699 	 59.6852 	 65.3175 	 
C 	 -17.9008 	 60.6424 	 66.7126 	 
C 	 -18.3581 	 59.8808 	 67.7285 	 
C 	 -18.4435 	 58.4874 	 67.3753 	 
C 	 -18.0794 	 58.2231 	 66.0421 	 
H 	 -18.5858 	 60.3779 	 68.6694 	 
C 	 -19.0392 	 57.4853 	 68.3383 	 
H 	 -18.7509 	 57.7219 	 69.3993 	 
H 	 -18.5716 	 56.5296 	 68.1397 	 
C 	 -20.5665 	 57.3497 	 68.3707 	 
H 	 -20.9143 	 57.157 	 67.3619 	 
H 	 -21.0903 	 58.2303 	 68.6601 	 
C 	 -20.9826 	 56.2126 	 69.269 	 
H 	 -20.5427 	 56.2591 	 70.2469 	 
H 	 -20.6344 	 55.2345 	 68.795 	 
H 	 -22.0066 	 56.1424 	 69.4768 	 
H 	 -18.8003 	 54.0389 	 63.5635 	 
H 	 -17.8279 	 61.6939 	 66.7504 	 
*
