! wB97X-D3 SP def2-SVP
%pal
nprocs 16
end

* xyz 0 1
S 	 8.91152 	 18.1646 	 41.497 	 
C 	 10.2866 	 17.2964 	 42.2002 	 
C 	 11.1872 	 18.2145 	 42.7437 	 
C 	 10.7597 	 19.5769 	 42.5323 	 
C 	 9.55715 	 19.7027 	 41.8571 	 
H 	 11.3533 	 20.351 	 42.8932 	 
C 	 12.5542 	 17.9598 	 43.3715 	 
H 	 12.4103 	 17.4324 	 44.2994 	 
H 	 12.8943 	 18.9589 	 43.4798 	 
C 	 13.7162 	 17.285 	 42.5355 	 
H 	 13.7705 	 17.9625 	 41.6785 	 
H 	 14.6739 	 17.2777 	 43.0198 	 
C 	 13.425 	 15.9315 	 41.9679 	 
H 	 12.5384 	 15.8758 	 41.3058 	 
H 	 14.27 	 15.5906 	 41.3928 	 
H 	 13.1767 	 15.321 	 42.8353 	 
S 	 7.11363 	 20.966 	 41.6454 	 
C 	 6.96831 	 22.5986 	 40.9814 	 
C 	 8.21979 	 23.1892 	 40.8776 	 
C 	 9.31615 	 22.2554 	 41.1775 	 
C 	 8.84002 	 20.9448 	 41.4757 	 
H 	 8.28908 	 24.2018 	 40.589 	 
C 	 10.766 	 22.6542 	 40.9009 	 
H 	 11.3273 	 22.2557 	 41.6471 	 
H 	 10.8167 	 23.6997 	 40.9839 	 
C 	 11.2896 	 22.1204 	 39.5664 	 
H 	 10.8453 	 22.6637 	 38.6893 	 
H 	 10.9576 	 21.1014 	 39.5181 	 
C 	 12.856 	 22.0895 	 39.4177 	 
H 	 13.2512 	 23.0741 	 39.6318 	 
H 	 13.1065 	 21.6758 	 38.4107 	 
H 	 13.3718 	 21.4212 	 40.1935 	 
H 	 10.4926 	 16.2064 	 42.0913 	 
H 	 6.09719 	 23.2629 	 41.0234 	 
*
