! wB97X-D3 SP def2-SVP
%pal
nprocs 16
end

* xyz 0 1
S 	 45.6403 	 24.1803 	 90.6656 	 
C 	 46.1275 	 23.2542 	 91.9893 	 
C 	 45.1947 	 23.2649 	 92.9872 	 
C 	 44.2053 	 24.2052 	 92.7982 	 
C 	 44.2223 	 24.8008 	 91.4938 	 
H 	 43.3873 	 24.4754 	 93.4511 	 
C 	 45.4286 	 22.5793 	 94.2959 	 
H 	 46.5057 	 22.2944 	 94.297 	 
H 	 44.8548 	 21.6177 	 94.2413 	 
C 	 45.0262 	 23.2671 	 95.6081 	 
H 	 45.4469 	 24.2774 	 95.725 	 
H 	 43.9436 	 23.4795 	 95.6841 	 
C 	 45.48 	 22.4928 	 96.8208 	 
H 	 45.2789 	 21.4144 	 96.7771 	 
H 	 46.5845 	 22.6032 	 96.9256 	 
H 	 45.0232 	 22.9154 	 97.7191 	 
S 	 43.8936 	 27.2546 	 90.2883 	 
C 	 42.2159 	 27.9294 	 89.9789 	 
C 	 41.2641 	 27.0468 	 90.3207 	 
C 	 41.8391 	 25.8667 	 90.9726 	 
C 	 43.2136 	 25.7715 	 90.9204 	 
H 	 40.2378 	 27.3302 	 90.2965 	 
C 	 40.9604 	 24.8022 	 91.6084 	 
H 	 41.5685 	 24.1353 	 92.2526 	 
H 	 40.4318 	 24.2922 	 90.8179 	 
C 	 39.8435 	 25.3985 	 92.4386 	 
H 	 39.4391 	 26.3153 	 92.061 	 
H 	 40.257 	 25.6351 	 93.3543 	 
C 	 38.6012 	 24.5176 	 92.6975 	 
H 	 38.0359 	 24.4521 	 91.7715 	 
H 	 38.0037 	 24.8938 	 93.4932 	 
H 	 38.9199 	 23.5062 	 92.8733 	 
H 	 47.1124 	 22.7497 	 92.0446 	 
H 	 42.0524 	 28.9914 	 89.7705 	 
*
