! wB97X-D3 SP def2-SVP
%pal
nprocs 16
end

* xyz 0 1
S 	 33.7232 	 -1.2189 	 67.1214 	 
C 	 34.3508 	 0.390138 	 66.8679 	 
C 	 33.5463 	 1.27662 	 67.5487 	 
C 	 32.2563 	 0.75736 	 67.9057 	 
C 	 32.2102 	 -0.599036 	 67.6463 	 
H 	 31.4452 	 1.17546 	 68.4715 	 
C 	 33.9065 	 2.70035 	 67.845 	 
H 	 34.9391 	 2.75826 	 67.8715 	 
H 	 33.5055 	 2.96494 	 68.7761 	 
C 	 33.3247 	 3.68727 	 66.8331 	 
H 	 32.3508 	 3.2146 	 66.4883 	 
H 	 33.1688 	 4.63528 	 67.2635 	 
C 	 34.2138 	 4.00174 	 65.6663 	 
H 	 34.6401 	 3.08856 	 65.2331 	 
H 	 33.6027 	 4.4234 	 64.8439 	 
H 	 35.0978 	 4.54497 	 65.9015 	 
S 	 31.1647 	 -3.02283 	 68.3496 	 
C 	 29.4319 	 -3.42372 	 68.1669 	 
C 	 28.7448 	 -2.29505 	 67.7401 	 
C 	 29.6388 	 -1.16368 	 67.5297 	 
C 	 30.9825 	 -1.36088 	 67.8214 	 
H 	 27.7564 	 -2.28239 	 67.5642 	 
C 	 28.9986 	 0.0405209 	 66.8562 	 
H 	 28.6582 	 -0.246687 	 65.803 	 
H 	 29.7635 	 0.788452 	 66.8604 	 
C 	 27.6955 	 0.598561 	 67.4643 	 
H 	 27.8742 	 0.726396 	 68.5822 	 
H 	 26.817 	 -0.0381308 	 67.3097 	 
C 	 27.5357 	 2.06614 	 66.962 	 
H 	 28.342 	 2.75174 	 67.2658 	 
H 	 26.6567 	 2.36936 	 67.3991 	 
H 	 27.2906 	 2.07803 	 65.8758 	 
H 	 35.3543 	 0.630218 	 66.465 	 
H 	 28.9803 	 -4.34367 	 68.4857 	 
*
