! wB97X-D3 SP def2-SVP
%pal
nprocs 16
end

* xyz 0 1
S 	 -47.8379 	 66.5461 	 125.391 	 
C 	 -47.0442 	 66.0539 	 123.858 	 
C 	 -46.4059 	 64.7918 	 124.099 	 
C 	 -46.389 	 64.3985 	 125.428 	 
C 	 -46.9922 	 65.3214 	 126.321 	 
H 	 -46.0925 	 63.4511 	 125.825 	 
C 	 -45.6826 	 63.8991 	 123.115 	 
H 	 -46.2643 	 63.9478 	 122.206 	 
H 	 -45.7318 	 62.8552 	 123.3 	 
C 	 -44.2234 	 64.1904 	 122.68 	 
H 	 -44.0225 	 65.1883 	 122.355 	 
H 	 -43.5829 	 63.9221 	 123.545 	 
C 	 -43.8542 	 63.2046 	 121.612 	 
H 	 -43.7276 	 62.2202 	 121.982 	 
H 	 -44.6213 	 63.2158 	 120.835 	 
H 	 -42.929 	 63.5546 	 121.161 	 
S 	 -45.4262 	 65.4612 	 128.619 	 
C 	 -46.2287 	 65.4963 	 130.218 	 
C 	 -47.615 	 65.6599 	 130.045 	 
C 	 -48.078 	 65.4666 	 128.691 	 
C 	 -47.0026 	 65.3351 	 127.802 	 
H 	 -48.2569 	 65.8795 	 130.855 	 
C 	 -49.5355 	 65.7793 	 128.321 	 
H 	 -49.6457 	 65.959 	 127.225 	 
H 	 -49.7299 	 66.8111 	 128.731 	 
C 	 -50.6181 	 64.8028 	 128.8 	 
H 	 -50.3261 	 64.6915 	 129.875 	 
H 	 -50.569 	 63.8045 	 128.331 	 
C 	 -52.0478 	 65.302 	 128.702 	 
H 	 -52.1789 	 66.2816 	 129.087 	 
H 	 -52.7344 	 64.5526 	 129.117 	 
H 	 -52.3995 	 65.3829 	 127.675 	 
H 	 -47.3835 	 66.4122 	 122.908 	 
H 	 -45.7002 	 65.5343 	 131.148 	 
*
