! wB97X-D3 SP def2-SVP
%pal
nprocs 16
end

* xyz 0 1
S 	 33.3414 	 4.45548 	 72.2577 	 
C 	 31.6696 	 3.89369 	 72.1149 	 
C 	 31.4196 	 2.95864 	 73.1759 	 
C 	 32.5432 	 2.77355 	 74.0657 	 
C 	 33.5946 	 3.62686 	 73.7457 	 
H 	 32.6387 	 2.08176 	 74.9412 	 
C 	 30.1897 	 2.08512 	 73.2689 	 
H 	 29.5102 	 2.34435 	 72.4351 	 
H 	 29.6533 	 2.41513 	 74.2098 	 
C 	 30.3887 	 0.544531 	 73.2202 	 
H 	 31.0325 	 0.297613 	 74.0933 	 
H 	 29.4298 	 0.0665364 	 73.3458 	 
C 	 31.029 	 0.0641002 	 71.9817 	 
H 	 31.3426 	 -1.00132 	 72.2109 	 
H 	 30.3865 	 0.0396927 	 71.1912 	 
H 	 31.9699 	 0.501176 	 71.6373 	 
S 	 36.2974 	 3.68166 	 74.0303 	 
C 	 37.0247 	 3.79044 	 75.596 	 
C 	 36.1051 	 4.25544 	 76.5199 	 
C 	 34.7431 	 4.31172 	 76.0056 	 
C 	 34.7446 	 3.91774 	 74.6597 	 
H 	 36.4667 	 4.45993 	 77.5097 	 
C 	 33.5514 	 4.57717 	 76.897 	 
H 	 32.654 	 4.46115 	 76.2844 	 
H 	 33.5872 	 5.63142 	 77.1868 	 
C 	 33.4039 	 3.75646 	 78.2156 	 
H 	 34.4106 	 3.52588 	 78.5859 	 
H 	 33.0227 	 2.75689 	 77.9957 	 
C 	 32.5937 	 4.49248 	 79.356 	 
H 	 33.133 	 5.28354 	 79.765 	 
H 	 32.6956 	 3.7122 	 80.1417 	 
H 	 31.5258 	 4.63939 	 79.0847 	 
H 	 30.9769 	 4.05884 	 71.3576 	 
H 	 38.0929 	 3.60472 	 75.8443 	 
*
