! wB97X-D3 SP def2-SVP
%pal
nprocs 16
end

* xyz 0 1
S 	 -14.4304 	 -6.60857 	 82.5005 	 
C 	 -14.7492 	 -8.24617 	 81.8971 	 
C 	 -13.5543 	 -8.82126 	 81.5003 	 
C 	 -12.4611 	 -7.93112 	 81.6289 	 
C 	 -12.7438 	 -6.76754 	 82.2735 	 
H 	 -11.3634 	 -8.17327 	 81.4748 	 
C 	 -13.4814 	 -10.2599 	 81.0792 	 
H 	 -12.5283 	 -10.3208 	 80.491 	 
H 	 -14.3024 	 -10.4347 	 80.4458 	 
C 	 -13.2854 	 -11.2247 	 82.2753 	 
H 	 -12.3848 	 -10.8571 	 82.7796 	 
H 	 -14.2032 	 -11.1891 	 82.9042 	 
C 	 -13.1344 	 -12.6455 	 81.7428 	 
H 	 -12.9461 	 -13.4206 	 82.4975 	 
H 	 -14.0235 	 -13.0048 	 81.2028 	 
H 	 -12.313 	 -12.6936 	 81.1164 	 
S 	 -11.7411 	 -5.59976 	 84.6257 	 
C 	 -10.1877 	 -4.76908 	 84.5193 	 
C 	 -9.75887 	 -4.7105 	 83.2251 	 
C 	 -10.6905 	 -5.23469 	 82.302 	 
C 	 -11.7667 	 -5.85654 	 82.8663 	 
H 	 -8.91878 	 -4.12782 	 82.9398 	 
C 	 -10.3125 	 -5.36292 	 80.7986 	 
H 	 -11.0471 	 -4.55428 	 80.4184 	 
H 	 -10.6436 	 -6.27814 	 80.3197 	 
C 	 -8.92401 	 -5.08359 	 80.3634 	 
H 	 -8.47502 	 -4.17885 	 80.6221 	 
H 	 -8.95308 	 -5.0372 	 79.2958 	 
C 	 -8.07129 	 -6.2681 	 80.7146 	 
H 	 -7.2072 	 -6.21619 	 80.1066 	 
H 	 -8.55955 	 -7.22814 	 80.4641 	 
H 	 -7.82511 	 -6.29978 	 81.7798 	 
H 	 -15.6529 	 -8.80356 	 81.9998 	 
H 	 -9.48548 	 -4.50083 	 85.3686 	 
*
