! wB97X-D3 SP def2-SVP
%pal
nprocs 16
end

* xyz 0 1
S 	 68.2725 	 21.5803 	 76.4974 	 
C 	 69.7239 	 20.5885 	 76.8733 	 
C 	 70.832 	 21.3458 	 76.6802 	 
C 	 70.5524 	 22.5453 	 75.9499 	 
C 	 69.2235 	 22.7585 	 75.6547 	 
H 	 71.3156 	 23.3471 	 75.7207 	 
C 	 72.1737 	 20.9795 	 77.2427 	 
H 	 72.1166 	 20.8308 	 78.3103 	 
H 	 72.834 	 21.8573 	 77.0968 	 
C 	 72.8976 	 19.758 	 76.4989 	 
H 	 72.2363 	 18.8505 	 76.6107 	 
H 	 73.1099 	 20.0146 	 75.4289 	 
C 	 74.2598 	 19.3439 	 77.0649 	 
H 	 75.0318 	 20.1214 	 77.1264 	 
H 	 74.185 	 19.1462 	 78.1042 	 
H 	 74.7268 	 18.5491 	 76.5838 	 
S 	 68.2928 	 23.8029 	 73.2699 	 
C 	 67.9639 	 25.4877 	 73.1032 	 
C 	 67.9614 	 26.0828 	 74.344 	 
C 	 68.2668 	 25.1793 	 75.4005 	 
C 	 68.6175 	 23.9268 	 74.9794 	 
H 	 67.8166 	 27.1728 	 74.2663 	 
C 	 68.3362 	 25.6786 	 76.854 	 
H 	 69.2458 	 26.3611 	 76.8161 	 
H 	 68.5119 	 24.8598 	 77.5797 	 
C 	 67.0962 	 26.5245 	 77.3334 	 
H 	 66.239 	 25.8528 	 77.245 	 
H 	 66.8145 	 27.3246 	 76.5979 	 
C 	 67.4307 	 27.1486 	 78.7059 	 
H 	 66.6623 	 27.8491 	 79.0236 	 
H 	 68.3624 	 27.6686 	 78.6516 	 
H 	 67.7051 	 26.523 	 79.492 	 
H 	 69.7159 	 19.5881 	 77.3608 	 
H 	 67.8766 	 25.9925 	 72.1527 	 
*
