! wB97X-D3 SP def2-SVP
%pal
nprocs 16
end

* xyz 0 1
S 	 14.0228 	 26.0137 	 61.3842 	 
C 	 14.7191 	 24.4937 	 60.8446 	 
C 	 13.7725 	 23.4777 	 60.9988 	 
C 	 12.5729 	 23.9226 	 61.6376 	 
C 	 12.5778 	 25.233 	 61.9957 	 
H 	 11.7374 	 23.3264 	 62.0039 	 
C 	 14.1161 	 21.9973 	 60.6768 	 
H 	 14.5597 	 21.8892 	 59.6545 	 
H 	 13.2615 	 21.3009 	 60.7469 	 
C 	 15.1836 	 21.3406 	 61.5197 	 
H 	 15.3404 	 20.3455 	 61.1501 	 
H 	 16.1745 	 21.8475 	 61.5212 	 
C 	 14.7199 	 21.1572 	 62.9919 	 
H 	 14.6923 	 22.1088 	 63.5318 	 
H 	 13.7305 	 20.6903 	 62.9456 	 
H 	 15.3574 	 20.5544 	 63.5918 	 
S 	 12.3295 	 26.2116 	 64.5166 	 
C 	 10.7709 	 26.8942 	 65.0843 	 
C 	 9.85467 	 26.7418 	 64.0442 	 
C 	 10.3622 	 26.2667 	 62.8417 	 
C 	 11.689 	 25.8827 	 62.9273 	 
H 	 8.83932 	 27.0624 	 64.1623 	 
C 	 9.39887 	 26.002 	 61.6316 	 
H 	 9.94906 	 25.7874 	 60.7731 	 
H 	 8.98367 	 26.9231 	 61.3137 	 
C 	 8.26819 	 24.9025 	 61.789 	 
H 	 7.77947 	 24.8278 	 60.7931 	 
H 	 7.5158 	 25.2346 	 62.4874 	 
C 	 8.70764 	 23.5197 	 62.1932 	 
H 	 9.56544 	 23.2405 	 61.5503 	 
H 	 7.86852 	 22.7947 	 62.3221 	 
H 	 9.19886 	 23.5964 	 63.136 	 
H 	 15.7723 	 24.4776 	 60.4746 	 
H 	 10.5663 	 27.3146 	 66.0559 	 
*
