! wB97X-D3 SP def2-SVP
%pal
nprocs 16
end

* xyz 0 1
S 	 -5.45773 	 31.7503 	 49.7918 	 
C 	 -6.38105 	 30.4426 	 50.4204 	 
C 	 -7.74371 	 30.9071 	 50.6299 	 
C 	 -7.97695 	 32.2434 	 50.1594 	 
C 	 -6.8055 	 32.8761 	 49.7518 	 
H 	 -8.86321 	 32.7792 	 49.9501 	 
C 	 -8.7736 	 29.953 	 51.1443 	 
H 	 -8.41488 	 28.9274 	 50.9804 	 
H 	 -9.58609 	 30.0541 	 50.4744 	 
C 	 -9.15399 	 30.1768 	 52.6526 	 
H 	 -9.34879 	 31.1797 	 52.7501 	 
H 	 -9.93746 	 29.5892 	 53.0436 	 
C 	 -8.02283 	 29.7469 	 53.5736 	 
H 	 -7.66136 	 28.7118 	 53.3392 	 
H 	 -7.0886 	 30.242 	 53.4398 	 
H 	 -8.26819 	 29.6747 	 54.683 	 
S 	 -7.9755 	 34.7035 	 48.0138 	 
C 	 -7.25978 	 36.2587 	 47.7343 	 
C 	 -6.0064 	 36.264 	 48.2792 	 
C 	 -5.58374 	 35.0567 	 48.9282 	 
C 	 -6.68081 	 34.1759 	 49.0821 	 
H 	 -5.39179 	 37.1891 	 48.1712 	 
C 	 -4.24417 	 34.9251 	 49.4959 	 
H 	 -3.84078 	 33.9483 	 49.298 	 
H 	 -4.3745 	 35.0096 	 50.5872 	 
C 	 -3.11413 	 35.8749 	 49.0294 	 
H 	 -3.26628 	 36.882 	 49.2601 	 
H 	 -3.00924 	 35.7906 	 47.9345 	 
C 	 -1.70112 	 35.4984 	 49.5595 	 
H 	 -1.65209 	 35.4519 	 50.5845 	 
H 	 -0.965096 	 36.2693 	 49.2642 	 
H 	 -1.42974 	 34.5077 	 49.1517 	 
H 	 -6.0049 	 29.491 	 50.794 	 
H 	 -7.76405 	 37.1366 	 47.3644 	 
*
