! wB97X-D3 SP def2-SVP
%pal
nprocs 16
end

* xyz 0 1
S 	 -17.4211 	 32.3816 	 37.8695 	 
C 	 -18.6186 	 32.0731 	 36.6472 	 
C 	 -18.9718 	 33.1948 	 35.9801 	 
C 	 -18.1888 	 34.335 	 36.3327 	 
C 	 -17.2137 	 34.0512 	 37.2544 	 
H 	 -18.368 	 35.3585 	 35.9689 	 
C 	 -19.904 	 33.2494 	 34.8305 	 
H 	 -19.7419 	 32.3147 	 34.2104 	 
H 	 -19.5848 	 34.0066 	 34.1155 	 
C 	 -21.421 	 33.3778 	 35.0785 	 
H 	 -21.7762 	 34.2604 	 35.7143 	 
H 	 -21.9532 	 33.353 	 34.0957 	 
C 	 -21.886 	 32.0409 	 35.7429 	 
H 	 -21.3484 	 31.7287 	 36.6434 	 
H 	 -22.9906 	 32.1221 	 35.9683 	 
H 	 -21.7598 	 31.2035 	 35.0322 	 
S 	 -14.5846 	 34.7425 	 37.3394 	 
C 	 -14.0769 	 35.9759 	 38.4417 	 
C 	 -15.0985 	 36.5459 	 39.1694 	 
C 	 -16.3569 	 35.9349 	 38.8397 	 
C 	 -16.2308 	 34.916 	 37.8807 	 
H 	 -14.8041 	 37.2596 	 39.8829 	 
C 	 -17.7029 	 36.4507 	 39.4227 	 
H 	 -17.512 	 37.0408 	 40.2572 	 
H 	 -18.2506 	 35.5695 	 39.8294 	 
C 	 -18.5793 	 37.3522 	 38.4986 	 
H 	 -19.3885 	 37.7558 	 39.1427 	 
H 	 -18.943 	 36.7448 	 37.6909 	 
C 	 -17.9288 	 38.5757 	 37.9818 	 
H 	 -17.2359 	 38.2992 	 37.1901 	 
H 	 -17.3796 	 39.0815 	 38.8347 	 
H 	 -18.6346 	 39.3452 	 37.5541 	 
H 	 -18.9704 	 31.0961 	 36.4011 	 
H 	 -13.0248 	 36.2788 	 38.5564 	 
*
