! wB97X-D3 SP def2-SVP
%pal
nprocs 16
end

* xyz 0 1
S 	 7.45245 	 25.7143 	 39.734 	 
C 	 5.85435 	 26.3753 	 40.3169 	 
C 	 5.44739 	 25.7366 	 41.4801 	 
C 	 6.40002 	 24.6927 	 41.7916 	 
C 	 7.50524 	 24.4714 	 41.0295 	 
H 	 6.3386 	 24.0471 	 42.6676 	 
C 	 4.26708 	 26.1399 	 42.338 	 
H 	 3.34017 	 25.7592 	 41.9 	 
H 	 4.16643 	 27.1951 	 42.1946 	 
C 	 4.15617 	 25.702 	 43.8383 	 
H 	 3.04104 	 25.7264 	 44.121 	 
H 	 4.4761 	 24.6477 	 43.7614 	 
C 	 5.08637 	 26.6088 	 44.6766 	 
H 	 4.86401 	 27.6513 	 44.674 	 
H 	 5.0164 	 26.368 	 45.7295 	 
H 	 6.08451 	 26.5646 	 44.3295 	 
S 	 10.2367 	 24.2131 	 41.2122 	 
C 	 10.8736 	 22.6665 	 41.5406 	 
C 	 9.86332 	 21.7138 	 41.5784 	 
C 	 8.53812 	 22.16 	 41.5004 	 
C 	 8.5633 	 23.5193 	 41.2314 	 
H 	 10.154 	 20.6798 	 41.6119 	 
C 	 7.35348 	 21.1648 	 41.5307 	 
H 	 6.8852 	 21.3184 	 42.4497 	 
H 	 7.68341 	 20.1293 	 41.5105 	 
C 	 6.42361 	 21.2497 	 40.3202 	 
H 	 7.13674 	 21.3244 	 39.4848 	 
H 	 5.80999 	 22.1383 	 40.4642 	 
C 	 5.49786 	 20.0201 	 40.0711 	 
H 	 6.17327 	 19.1224 	 40.059 	 
H 	 4.95116 	 19.9822 	 39.0769 	 
H 	 4.67535 	 19.7948 	 40.7895 	 
H 	 5.26667 	 27.1703 	 39.8531 	 
H 	 11.9279 	 22.4714 	 41.6381 	 
*
