! wB97X-D3 SP def2-SVP
%pal
nprocs 16
end

* xyz 0 1
S 	 -10.8654 	 60.3914 	 58.9831 	 
C 	 -10.8701 	 58.7737 	 59.7188 	 
C 	 -11.9498 	 58.7373 	 60.5806 	 
C 	 -12.7404 	 59.9258 	 60.6682 	 
C 	 -12.2245 	 60.9557 	 59.9013 	 
H 	 -13.6737 	 60.1824 	 61.2169 	 
C 	 -12.3723 	 57.5065 	 61.3753 	 
H 	 -11.8097 	 56.6559 	 60.8681 	 
H 	 -13.4147 	 57.2722 	 61.2732 	 
C 	 -11.8615 	 57.6627 	 62.8072 	 
H 	 -12.317 	 56.8838 	 63.499 	 
H 	 -10.7368 	 57.4455 	 62.7943 	 
C 	 -12.0283 	 59.0946 	 63.3539 	 
H 	 -11.182 	 59.6923 	 63.0591 	 
H 	 -12.9737 	 59.6182 	 63.0888 	 
H 	 -11.8182 	 58.9935 	 64.4124 	 
S 	 -13.8218 	 62.8786 	 61.2082 	 
C 	 -14.0741 	 64.4397 	 60.5099 	 
C 	 -13.4105 	 64.6204 	 59.2828 	 
C 	 -12.5453 	 63.4569 	 59.0088 	 
C 	 -12.7818 	 62.3501 	 59.8264 	 
H 	 -13.5224 	 65.5172 	 58.6823 	 
C 	 -11.8065 	 63.5018 	 57.6811 	 
H 	 -12.5427 	 63.7409 	 56.9273 	 
H 	 -11.5447 	 62.4351 	 57.4724 	 
C 	 -10.6686 	 64.4701 	 57.4781 	 
H 	 -10.8791 	 65.4177 	 58.026 	 
H 	 -10.7031 	 64.7856 	 56.4312 	 
C 	 -9.22905 	 63.8567 	 57.7516 	 
H 	 -9.25467 	 63.4358 	 58.741 	 
H 	 -8.4862 	 64.6491 	 57.6801 	 
H 	 -9.06646 	 63.1066 	 57.0654 	 
H 	 -10.186 	 57.9627 	 59.4907 	 
H 	 -14.7223 	 65.1995 	 60.9542 	 
*
