! wB97X-D3 SP def2-SVP
%pal
nprocs 16
end

* xyz 0 1
S 	 -53.6593 	 44.425 	 107.317 	 
C 	 -52.3879 	 45.6641 	 107.087 	 
C 	 -52.7828 	 46.8301 	 107.699 	 
C 	 -54.1535 	 46.78 	 108.086 	 
C 	 -54.7697 	 45.5953 	 107.827 	 
H 	 -54.7882 	 47.5473 	 108.459 	 
C 	 -51.9718 	 48.0367 	 107.925 	 
H 	 -51.0157 	 47.7539 	 108.208 	 
H 	 -52.397 	 48.5409 	 108.759 	 
C 	 -51.8804 	 48.976 	 106.718 	 
H 	 -51.4116 	 48.5156 	 105.894 	 
H 	 -52.8805 	 49.253 	 106.357 	 
C 	 -51.2127 	 50.2943 	 107.011 	 
H 	 -51.7895 	 51.0616 	 107.539 	 
H 	 -50.2508 	 50.138 	 107.527 	 
H 	 -51.059 	 50.7295 	 105.986 	 
S 	 -57.4077 	 45.1648 	 106.894 	 
C 	 -58.6577 	 44.7662 	 108.042 	 
C 	 -58.1244 	 44.8806 	 109.369 	 
C 	 -56.6829 	 45.0507 	 109.377 	 
C 	 -56.1271 	 45.2409 	 108.149 	 
H 	 -58.8121 	 44.6654 	 110.245 	 
C 	 -56.0151 	 45.2527 	 110.724 	 
H 	 -56.6999 	 45.7493 	 111.376 	 
H 	 -55.2222 	 45.9429 	 110.553 	 
C 	 -55.4941 	 44.024 	 111.544 	 
H 	 -54.7045 	 43.6714 	 110.909 	 
H 	 -56.2292 	 43.2268 	 111.702 	 
C 	 -54.8534 	 44.5723 	 112.822 	 
H 	 -55.4851 	 45.1783 	 113.521 	 
H 	 -53.9564 	 45.1393 	 112.604 	 
H 	 -54.5044 	 43.7136 	 113.346 	 
H 	 -51.4304 	 45.3744 	 106.578 	 
H 	 -59.6313 	 44.2691 	 107.903 	 
*
