! wB97X-D3 SP def2-SVP
%pal
nprocs 16
end

* xyz 0 1
S 	 -68.574 	 60.9722 	 127.861 	 
C 	 -67.5049 	 62.0579 	 128.569 	 
C 	 -67.4443 	 63.2962 	 127.953 	 
C 	 -68.5188 	 63.3965 	 126.987 	 
C 	 -69.1612 	 62.1623 	 126.766 	 
H 	 -68.7236 	 64.3286 	 126.457 	 
C 	 -66.3718 	 64.3937 	 128.322 	 
H 	 -65.441 	 63.9827 	 128.065 	 
H 	 -66.3831 	 64.4828 	 129.427 	 
C 	 -66.5512 	 65.7753 	 127.699 	 
H 	 -65.4977 	 66.0197 	 127.723 	 
H 	 -66.8445 	 65.577 	 126.707 	 
C 	 -67.5254 	 66.7487 	 128.275 	 
H 	 -67.3799 	 66.8981 	 129.307 	 
H 	 -67.367 	 67.6434 	 127.726 	 
H 	 -68.4693 	 66.3094 	 128.288 	 
S 	 -71.8844 	 61.265 	 126.648 	 
C 	 -72.8843 	 61.658 	 125.304 	 
C 	 -72.0305 	 61.9353 	 124.246 	 
C 	 -70.6977 	 62.2451 	 124.639 	 
C 	 -70.3726 	 61.9153 	 125.936 	 
H 	 -72.3648 	 62.0265 	 123.268 	 
C 	 -69.7837 	 62.7269 	 123.583 	 
H 	 -69.001 	 63.2155 	 124.119 	 
H 	 -70.2308 	 63.4794 	 122.948 	 
C 	 -69.1983 	 61.6183 	 122.609 	 
H 	 -69.9677 	 61.1903 	 122.005 	 
H 	 -68.644 	 60.8851 	 123.159 	 
C 	 -68.2132 	 62.1619 	 121.496 	 
H 	 -67.8291 	 61.3413 	 120.847 	 
H 	 -67.3225 	 62.6787 	 121.949 	 
H 	 -68.7105 	 62.9291 	 120.952 	 
H 	 -66.7732 	 61.6882 	 129.251 	 
H 	 -73.9095 	 61.3678 	 125.142 	 
*
