! wB97X-D3 SP def2-SVP
%pal
nprocs 16
end

* xyz 0 1
S 	 19.3549 	 34.3829 	 62.6284 	 
C 	 19.5393 	 35.2282 	 61.1401 	 
C 	 18.5387 	 34.8631 	 60.2557 	 
C 	 17.4748 	 34.2571 	 60.9444 	 
C 	 17.6639 	 34.0016 	 62.2811 	 
H 	 16.4809 	 34.0169 	 60.6196 	 
C 	 18.3601 	 35.4108 	 58.7885 	 
H 	 17.8781 	 34.6441 	 58.058 	 
H 	 19.3872 	 35.3368 	 58.3651 	 
C 	 17.7031 	 36.7844 	 58.598 	 
H 	 18.4051 	 37.5339 	 59.0564 	 
H 	 17.7025 	 36.9875 	 57.5372 	 
C 	 16.2949 	 36.9564 	 59.1463 	 
H 	 16.2849 	 37.0733 	 60.1908 	 
H 	 15.7935 	 37.7611 	 58.7231 	 
H 	 15.7644 	 36.0863 	 58.9164 	 
S 	 15.1635 	 34.3203 	 63.2942 	 
C 	 14.4574 	 33.2029 	 64.4119 	 
C 	 15.4548 	 32.3775 	 64.936 	 
C 	 16.7364 	 32.4884 	 64.2449 	 
C 	 16.7068 	 33.4919 	 63.26 	 
H 	 15.1982 	 31.7273 	 65.765 	 
C 	 17.9281 	 31.6027 	 64.558 	 
H 	 18.6771 	 31.5626 	 63.8561 	 
H 	 17.4821 	 30.6086 	 64.5441 	 
C 	 18.5294 	 31.7743 	 65.8981 	 
H 	 19.3993 	 31.1981 	 66.0071 	 
H 	 17.8954 	 31.3016 	 66.6647 	 
C 	 18.9246 	 33.2002 	 66.1767 	 
H 	 17.964 	 33.7161 	 66.3917 	 
H 	 19.4419 	 33.6054 	 65.3379 	 
H 	 19.6116 	 33.3034 	 66.9872 	 
H 	 20.4158 	 35.8453 	 60.9023 	 
H 	 13.4514 	 33.2719 	 64.7488 	 
*
