! wB97X-D3 SP def2-SVP
%pal
nprocs 16
end

* xyz 0 1
S 	 -8.65443 	 34.4877 	 36.8688 	 
C 	 -8.18269 	 34.453 	 35.1891 	 
C 	 -9.08524 	 35.0519 	 34.3201 	 
C 	 -10.1517 	 35.7139 	 35.0324 	 
C 	 -10.0293 	 35.5167 	 36.3881 	 
H 	 -10.9562 	 36.3275 	 34.6124 	 
C 	 -8.93115 	 35.1565 	 32.8168 	 
H 	 -7.88715 	 35.4045 	 32.8021 	 
H 	 -9.50251 	 35.9232 	 32.4694 	 
C 	 -9.35814 	 33.8778 	 32.0777 	 
H 	 -8.71985 	 33.0595 	 32.3426 	 
H 	 -10.4349 	 33.6384 	 32.3546 	 
C 	 -9.19086 	 34.1839 	 30.5644 	 
H 	 -9.36302 	 33.2321 	 30.0742 	 
H 	 -9.97999 	 34.8708 	 30.2394 	 
H 	 -8.27374 	 34.6709 	 30.1413 	 
S 	 -10.4433 	 37.6937 	 38.2096 	 
C 	 -11.9052 	 37.6212 	 39.2655 	 
C 	 -12.7459 	 36.6347 	 38.8567 	 
C 	 -12.1564 	 35.8113 	 37.8619 	 
C 	 -10.9104 	 36.2073 	 37.3834 	 
H 	 -13.6726 	 36.4921 	 39.3488 	 
C 	 -12.9232 	 34.5278 	 37.4915 	 
H 	 -13.4055 	 34.0872 	 38.37 	 
H 	 -12.221 	 33.7409 	 37.2837 	 
C 	 -13.9278 	 34.6885 	 36.3157 	 
H 	 -14.2378 	 33.653 	 36.0549 	 
H 	 -13.3163 	 35.0776 	 35.4645 	 
C 	 -15.2231 	 35.3962 	 36.4571 	 
H 	 -15.8471 	 34.9156 	 37.1945 	 
H 	 -15.8649 	 35.4771 	 35.623 	 
H 	 -15.0662 	 36.3729 	 36.9403 	 
H 	 -7.30888 	 33.8666 	 34.7712 	 
H 	 -12.0926 	 38.3526 	 40.0491 	 
*
