! wB97X-D3 SP def2-SVP
%pal
nprocs 16
end

* xyz 0 1
S 	 -14.9262 	 39.0012 	 57.1875 	 
C 	 -13.6894 	 38.4349 	 56.0044 	 
C 	 -14.2743 	 37.3201 	 55.4738 	 
C 	 -15.6008 	 36.9472 	 55.9195 	 
C 	 -16.1173 	 37.7499 	 56.8874 	 
H 	 -16.2909 	 36.1226 	 55.6125 	 
C 	 -13.6143 	 36.4264 	 54.4392 	 
H 	 -13.763 	 35.3184 	 54.7318 	 
H 	 -12.5343 	 36.6559 	 54.4069 	 
C 	 -14.1988 	 36.5501 	 53.0153 	 
H 	 -13.8003 	 35.7057 	 52.4025 	 
H 	 -15.3329 	 36.2867 	 53.027 	 
C 	 -14.1183 	 37.9098 	 52.2615 	 
H 	 -14.5616 	 37.8082 	 51.2849 	 
H 	 -14.6461 	 38.7026 	 52.8435 	 
H 	 -13.1449 	 38.401 	 52.1836 	 
S 	 -17.7054 	 39.3016 	 58.4445 	 
C 	 -19.2021 	 38.7041 	 59.1281 	 
C 	 -19.3151 	 37.3348 	 58.9529 	 
C 	 -18.237 	 36.781 	 58.1318 	 
C 	 -17.2541 	 37.7128 	 57.826 	 
H 	 -20.2732 	 36.8756 	 59.222 	 
C 	 -18.2815 	 35.3696 	 57.5042 	 
H 	 -18.3176 	 34.7663 	 58.4194 	 
H 	 -17.2779 	 35.0508 	 57.1434 	 
C 	 -19.3819 	 35.1641 	 56.4939 	 
H 	 -19.2927 	 35.8154 	 55.6483 	 
H 	 -20.3291 	 35.5015 	 56.8907 	 
C 	 -19.5734 	 33.6934 	 55.9619 	 
H 	 -20.0977 	 33.1059 	 56.6914 	 
H 	 -18.689 	 33.1564 	 55.6481 	 
H 	 -20.3009 	 33.693 	 55.0777 	 
H 	 -12.6756 	 38.7611 	 55.8926 	 
H 	 -20.0163 	 39.3275 	 59.4822 	 
*
