! wB97X-D3 SP def2-SVP
%pal
nprocs 16
end

* xyz 0 1
S 	 -38.9933 	 53.9209 	 109.309 	 
C 	 -38.647 	 54.2494 	 110.993 	 
C 	 -38.1808 	 53.1302 	 111.665 	 
C 	 -38.0728 	 52.0123 	 110.807 	 
C 	 -38.5159 	 52.2795 	 109.5 	 
H 	 -37.7098 	 50.9971 	 111.068 	 
C 	 -37.6846 	 53.1517 	 113.087 	 
H 	 -37.4138 	 54.234 	 113.278 	 
H 	 -36.8187 	 52.6475 	 113.297 	 
C 	 -38.7552 	 52.7899 	 114.151 	 
H 	 -39.0596 	 51.7604 	 113.882 	 
H 	 -38.4026 	 52.7135 	 115.185 	 
C 	 -40.008 	 53.7146 	 114.174 	 
H 	 -40.7471 	 53.4779 	 113.412 	 
H 	 -40.4792 	 53.6964 	 115.131 	 
H 	 -39.7551 	 54.8464 	 114.065 	 
S 	 -37.5949 	 51.6451 	 107.077 	 
C 	 -38.183 	 50.1927 	 106.263 	 
C 	 -39.0657 	 49.4941 	 107.031 	 
C 	 -39.3046 	 50.1389 	 108.295 	 
C 	 -38.6307 	 51.3399 	 108.379 	 
H 	 -39.4412 	 48.5554 	 106.603 	 
C 	 -40.1814 	 49.5953 	 109.433 	 
H 	 -40.6415 	 50.3972 	 109.857 	 
H 	 -39.5255 	 49.1975 	 110.237 	 
C 	 -41.2175 	 48.5408 	 108.951 	 
H 	 -41.7835 	 48.103 	 109.846 	 
H 	 -40.7508 	 47.7173 	 108.468 	 
C 	 -42.1302 	 49.1188 	 107.812 	 
H 	 -42.9746 	 48.5034 	 107.565 	 
H 	 -41.5547 	 49.1553 	 106.86 	 
H 	 -42.4531 	 50.1542 	 108.151 	 
H 	 -38.8749 	 55.1208 	 111.512 	 
H 	 -37.9805 	 49.9882 	 105.202 	 
*
