! wB97X-D3 SP def2-SVP
%pal
nprocs 16
end

* xyz 0 1
S 	 53.2983 	 21.366 	 93.3378 	 
C 	 51.5706 	 20.9762 	 93.3312 	 
C 	 51.3516 	 19.7103 	 92.8274 	 
C 	 52.5655 	 19.0548 	 92.4333 	 
C 	 53.7281 	 19.8164 	 92.6645 	 
H 	 52.6647 	 18.1311 	 92.0105 	 
C 	 50.0306 	 19.0326 	 92.7413 	 
H 	 50.1469 	 18.4129 	 91.8568 	 
H 	 49.288 	 19.8761 	 92.6402 	 
C 	 49.73 	 18.079 	 93.8868 	 
H 	 48.8471 	 17.485 	 93.6548 	 
H 	 50.6453 	 17.5044 	 93.9872 	 
C 	 49.4355 	 18.7788 	 95.2874 	 
H 	 48.5863 	 19.4641 	 95.3102 	 
H 	 49.2466 	 18.1116 	 96.0975 	 
H 	 50.2369 	 19.3891 	 95.5483 	 
S 	 55.9439 	 20.5016 	 91.3839 	 
C 	 57.2687 	 19.3971 	 91.3968 	 
C 	 57.0571 	 18.2783 	 92.162 	 
C 	 55.816 	 18.3605 	 92.9019 	 
C 	 55.0366 	 19.4092 	 92.3283 	 
H 	 57.8107 	 17.5151 	 92.2954 	 
C 	 55.3275 	 17.2892 	 93.8057 	 
H 	 56.1317 	 16.4977 	 93.9341 	 
H 	 54.5882 	 16.686 	 93.2357 	 
C 	 54.6213 	 17.793 	 95.1231 	 
H 	 54.2773 	 16.8877 	 95.6706 	 
H 	 53.7323 	 18.3495 	 94.882 	 
C 	 55.5205 	 18.6519 	 96.0143 	 
H 	 56.4527 	 18.1464 	 96.1939 	 
H 	 55.0299 	 18.7517 	 96.9908 	 
H 	 55.9219 	 19.5799 	 95.5821 	 
H 	 50.8277 	 21.5758 	 93.7741 	 
H 	 58.142 	 19.5916 	 90.7159 	 
*
