! wB97X-D3 SP def2-SVP
%pal
nprocs 16
end

* xyz 0 1
S 	 -48.7688 	 9.59198 	 80.89 	 
C 	 -47.9117 	 9.86271 	 82.3528 	 
C 	 -48.3291 	 10.9792 	 83.0563 	 
C 	 -49.2969 	 11.6914 	 82.3172 	 
C 	 -49.6961 	 11.0788 	 81.1463 	 
H 	 -49.8686 	 12.5268 	 82.7034 	 
C 	 -47.849 	 11.3566 	 84.437 	 
H 	 -47.7365 	 12.3795 	 84.4913 	 
H 	 -46.9066 	 10.8195 	 84.7745 	 
C 	 -48.8182 	 11.0078 	 85.6527 	 
H 	 -48.492 	 11.676 	 86.482 	 
H 	 -49.8218 	 11.2941 	 85.4186 	 
C 	 -48.9638 	 9.51635 	 86.0967 	 
H 	 -47.9777 	 9.11813 	 86.2389 	 
H 	 -49.5722 	 9.40919 	 87.0657 	 
H 	 -49.3818 	 8.9168 	 85.2906 	 
S 	 -50.6011 	 11.7984 	 78.5818 	 
C 	 -52.2707 	 11.8313 	 78.2739 	 
C 	 -53.0714 	 11.4247 	 79.3317 	 
C 	 -52.2285 	 11.2943 	 80.4859 	 
C 	 -50.8337 	 11.3742 	 80.2703 	 
H 	 -54.1065 	 11.3206 	 79.2431 	 
C 	 -52.8282 	 10.9311 	 81.8412 	 
H 	 -53.7669 	 11.4019 	 81.9387 	 
H 	 -52.146 	 11.2773 	 82.5895 	 
C 	 -53.0684 	 9.40892 	 82.0128 	 
H 	 -53.6419 	 9.17092 	 82.9549 	 
H 	 -52.0366 	 8.9951 	 82.086 	 
C 	 -53.8116 	 8.52146 	 80.9279 	 
H 	 -53.7385 	 7.5387 	 81.2412 	 
H 	 -53.308 	 8.56342 	 79.8937 	 
H 	 -54.8512 	 8.88878 	 80.8453 	 
H 	 -47.0488 	 9.24585 	 82.6971 	 
H 	 -52.7791 	 12.2076 	 77.3388 	 
*
