! wB97X-D3 SP def2-SVP
%pal
nprocs 16
end

* xyz 0 1
S 	 -72.057 	 35.9081 	 124.209 	 
C 	 -70.5702 	 35.1521 	 123.617 	 
C 	 -69.7222 	 36.1222 	 123.115 	 
C 	 -70.231 	 37.4573 	 123.248 	 
C 	 -71.4801 	 37.4915 	 123.878 	 
H 	 -69.7137 	 38.3823 	 122.997 	 
C 	 -68.3809 	 35.8777 	 122.422 	 
H 	 -68.3735 	 36.3278 	 121.414 	 
H 	 -68.4022 	 34.7645 	 122.309 	 
C 	 -67.0648 	 36.2749 	 123.085 	 
H 	 -66.2338 	 35.8243 	 122.65 	 
H 	 -66.8139 	 37.3493 	 122.996 	 
C 	 -67.1864 	 36.0912 	 124.661 	 
H 	 -67.7092 	 35.2196 	 124.971 	 
H 	 -66.1766 	 36.015 	 125.123 	 
H 	 -67.6956 	 37.009 	 125.09 	 
S 	 -73.2279 	 38.6534 	 125.636 	 
C 	 -73.715 	 40.3096 	 125.521 	 
C 	 -73.147 	 40.8472 	 124.393 	 
C 	 -72.4185 	 39.9366 	 123.533 	 
C 	 -72.228 	 38.7105 	 124.245 	 
H 	 -73.4155 	 41.8893 	 124.177 	 
C 	 -71.8888 	 40.3338 	 122.171 	 
H 	 -72.7213 	 40.7035 	 121.621 	 
H 	 -71.4579 	 39.482 	 121.619 	 
C 	 -70.7406 	 41.3773 	 122.135 	 
H 	 -69.9272 	 41.0609 	 122.779 	 
H 	 -71.1237 	 42.2528 	 122.612 	 
C 	 -70.2739 	 41.7155 	 120.799 	 
H 	 -69.7888 	 42.7249 	 120.716 	 
H 	 -71.1112 	 41.8379 	 120.132 	 
H 	 -69.5757 	 40.9085 	 120.469 	 
H 	 -70.2779 	 34.1229 	 123.509 	 
H 	 -74.4427 	 40.7749 	 126.203 	 
*
