! wB97X-D3 SP def2-SVP
%pal
nprocs 16
end

* xyz 0 1
S 	 -4.27432 	 -18.9931 	 78.7724 	 
C 	 -3.94232 	 -19.0174 	 80.5006 	 
C 	 -4.20258 	 -17.8279 	 81.0994 	 
C 	 -4.55586 	 -16.8532 	 80.1005 	 
C 	 -4.78669 	 -17.3417 	 78.8115 	 
H 	 -4.69853 	 -15.8017 	 80.321 	 
C 	 -4.00795 	 -17.3091 	 82.4974 	 
H 	 -4.05809 	 -18.1403 	 83.229 	 
H 	 -4.97633 	 -16.7846 	 82.7709 	 
C 	 -2.79851 	 -16.409 	 82.6717 	 
H 	 -1.82768 	 -16.8938 	 82.4703 	 
H 	 -2.80407 	 -15.654 	 81.9686 	 
C 	 -2.77523 	 -15.7718 	 84.0531 	 
H 	 -3.51256 	 -15.0254 	 84.3414 	 
H 	 -2.71289 	 -16.5225 	 84.8508 	 
H 	 -1.82457 	 -15.2299 	 84.1387 	 
S 	 -4.86497 	 -17.2864 	 76.0033 	 
C 	 -5.80342 	 -16.1476 	 75.1693 	 
C 	 -6.36061 	 -15.2112 	 76.035 	 
C 	 -5.96466 	 -15.4116 	 77.3749 	 
C 	 -5.18432 	 -16.5606 	 77.5818 	 
H 	 -6.93365 	 -14.3596 	 75.6207 	 
C 	 -6.32709 	 -14.3706 	 78.452 	 
H 	 -6.40103 	 -14.885 	 79.367 	 
H 	 -7.42705 	 -14.1866 	 78.5065 	 
C 	 -5.59393 	 -13.03 	 78.5112 	 
H 	 -5.96145 	 -12.5297 	 79.3836 	 
H 	 -5.82959 	 -12.3616 	 77.7083 	 
C 	 -4.06624 	 -13.258 	 78.6909 	 
H 	 -3.45655 	 -12.3603 	 78.8005 	 
H 	 -3.60248 	 -13.763 	 77.8391 	 
H 	 -3.84539 	 -13.8532 	 79.584 	 
H 	 -3.64891 	 -19.8894 	 81.0786 	 
H 	 -6.21273 	 -16.2501 	 74.1633 	 
*
