! wB97X-D3 SP def2-SVP
%pal
nprocs 16
end

* xyz 0 1
S 	 43.8911 	 13.1768 	 73.9175 	 
C 	 42.165 	 12.9225 	 74.4374 	 
C 	 41.5578 	 14.1798 	 74.4537 	 
C 	 42.4653 	 15.2211 	 74.3507 	 
C 	 43.8092 	 14.9128 	 74.1274 	 
H 	 42.1554 	 16.251 	 74.4606 	 
C 	 40.0384 	 14.4284 	 74.7941 	 
H 	 39.3789 	 13.6079 	 74.6152 	 
H 	 39.6408 	 15.2166 	 74.1372 	 
C 	 39.7642 	 14.7314 	 76.2586 	 
H 	 40.1727 	 14.0046 	 76.9801 	 
H 	 40.1723 	 15.6939 	 76.5808 	 
C 	 38.2667 	 14.7881 	 76.6381 	 
H 	 38.1701 	 14.6316 	 77.7309 	 
H 	 37.7904 	 15.7789 	 76.3883 	 
H 	 37.713 	 13.9968 	 76.2037 	 
S 	 46.0654 	 15.5135 	 72.6345 	 
C 	 47.1808 	 16.6977 	 73.3691 	 
C 	 46.532 	 17.3714 	 74.3874 	 
C 	 45.2652 	 16.8729 	 74.7844 	 
C 	 44.9116 	 15.8105 	 74.0102 	 
H 	 47.0312 	 18.2362 	 74.8762 	 
C 	 44.5143 	 17.4296 	 75.976 	 
H 	 43.5494 	 17.8528 	 75.6386 	 
H 	 45.0834 	 18.2536 	 76.3766 	 
C 	 44.3254 	 16.5132 	 77.1785 	 
H 	 45.1729 	 16.0987 	 77.5291 	 
H 	 43.7989 	 15.6076 	 76.8372 	 
C 	 43.5647 	 17.1984 	 78.3403 	 
H 	 44.3023 	 17.5545 	 79.0699 	 
H 	 42.9364 	 16.5496 	 78.8336 	 
H 	 42.9563 	 18.0358 	 77.8775 	 
H 	 41.6648 	 12.0067 	 74.5728 	 
H 	 48.1035 	 16.9594 	 73.0047 	 
*
