! wB97X-D3 SP def2-SVP
%pal
nprocs 16
end

* xyz 0 1
S 	 -13.8857 	 39.1671 	 55.3999 	 
C 	 -13.1969 	 40.1382 	 54.1799 	 
C 	 -13.7219 	 39.9576 	 52.8984 	 
C 	 -14.5041 	 38.7409 	 52.8985 	 
C 	 -14.8096 	 38.3155 	 54.2168 	 
H 	 -14.9675 	 38.2863 	 52.0398 	 
C 	 -13.2776 	 40.6871 	 51.6162 	 
H 	 -12.7737 	 39.9573 	 50.9472 	 
H 	 -12.5472 	 41.376 	 51.891 	 
C 	 -14.3526 	 41.5845 	 50.9857 	 
H 	 -14.0154 	 41.9522 	 50.0921 	 
H 	 -15.2832 	 40.9558 	 50.7322 	 
C 	 -14.809 	 42.7773 	 51.8835 	 
H 	 -15.6746 	 43.3419 	 51.3472 	 
H 	 -15.0815 	 42.4952 	 52.9509 	 
H 	 -14.0204 	 43.5114 	 51.9674 	 
S 	 -16.0199 	 37.1209 	 56.3406 	 
C 	 -16.9886 	 35.7019 	 56.1865 	 
C 	 -17.1672 	 35.384 	 54.8864 	 
C 	 -16.4134 	 36.2571 	 53.967 	 
C 	 -15.6894 	 37.2435 	 54.5912 	 
H 	 -17.8477 	 34.5585 	 54.6746 	 
C 	 -16.408 	 35.9767 	 52.4272 	 
H 	 -16.4616 	 34.9284 	 52.1263 	 
H 	 -15.3598 	 36.1283 	 51.9948 	 
C 	 -17.497 	 36.8113 	 51.655 	 
H 	 -17.3932 	 37.979 	 51.7672 	 
H 	 -18.4208 	 36.6479 	 52.1373 	 
C 	 -17.4454 	 36.4429 	 50.1502 	 
H 	 -17.8482 	 35.4335 	 49.9592 	 
H 	 -16.4071 	 36.3869 	 49.7256 	 
H 	 -17.8511 	 37.1519 	 49.5283 	 
H 	 -12.4324 	 40.8781 	 54.4195 	 
H 	 -17.6799 	 35.3857 	 56.9479 	 
*
