! wB97X-D3 SP def2-SVP
%pal
nprocs 16
end

* xyz 0 1
S 	 -4.03075 	 30.8297 	 47.9772 	 
C 	 -5.17811 	 29.6294 	 48.5601 	 
C 	 -6.08445 	 30.1053 	 49.4803 	 
C 	 -5.86613 	 31.4935 	 49.6483 	 
C 	 -4.84929 	 32.0263 	 48.9367 	 
H 	 -6.59901 	 32.1174 	 50.2104 	 
C 	 -7.07966 	 29.2619 	 50.2058 	 
H 	 -7.13149 	 28.321 	 49.6228 	 
H 	 -8.04888 	 29.7206 	 50.2143 	 
C 	 -6.6526 	 28.9304 	 51.6312 	 
H 	 -6.64493 	 29.8545 	 52.1774 	 
H 	 -7.4411 	 28.3315 	 52.1167 	 
C 	 -5.21695 	 28.3903 	 51.8186 	 
H 	 -4.86742 	 27.787 	 50.9416 	 
H 	 -4.50948 	 29.2762 	 51.8219 	 
H 	 -5.1006 	 27.7822 	 52.7709 	 
S 	 -4.98788 	 34.2428 	 47.2296 	 
C 	 -4.31947 	 35.7659 	 47.7615 	 
C 	 -3.81806 	 35.6386 	 49.0452 	 
C 	 -3.93718 	 34.2907 	 49.5697 	 
C 	 -4.53195 	 33.407 	 48.7149 	 
H 	 -3.43166 	 36.4488 	 49.6368 	 
C 	 -3.48553 	 33.9364 	 51.0488 	 
H 	 -2.49533 	 34.426 	 51.1333 	 
H 	 -3.30788 	 32.8496 	 51.0958 	 
C 	 -4.33028 	 34.3347 	 52.2394 	 
H 	 -5.32082 	 33.9565 	 52.0269 	 
H 	 -4.40874 	 35.4743 	 52.2526 	 
C 	 -3.73433 	 33.9983 	 53.6043 	 
H 	 -3.18297 	 33.0447 	 53.6175 	 
H 	 -4.59265 	 33.9083 	 54.2838 	 
H 	 -3.0805 	 34.8007 	 53.8919 	 
H 	 -5.13166 	 28.5836 	 48.1787 	 
H 	 -4.44725 	 36.749 	 47.3708 	 
*
