! wB97X-D3 SP def2-SVP
%pal
nprocs 16
end

* xyz 0 1
S 	 46.8403 	 13.2091 	 103.759 	 
C 	 47.9195 	 14.3127 	 102.977 	 
C 	 47.2192 	 15.1031 	 102.042 	 
C 	 45.9042 	 14.6786 	 101.863 	 
C 	 45.5375 	 13.6154 	 102.705 	 
H 	 45.1571 	 15.0911 	 101.13 	 
C 	 47.8844 	 16.1831 	 101.206 	 
H 	 47.763 	 16.0817 	 100.139 	 
H 	 48.9986 	 16.0324 	 101.318 	 
C 	 47.5444 	 17.6008 	 101.754 	 
H 	 47.1079 	 17.4358 	 102.707 	 
H 	 48.4549 	 18.1875 	 101.897 	 
C 	 46.6625 	 18.3774 	 100.82 	 
H 	 45.9092 	 17.8143 	 100.312 	 
H 	 46.1704 	 19.1676 	 101.327 	 
H 	 47.1094 	 18.8195 	 99.9511 	 
S 	 43.1762 	 13.929 	 103.986 	 
C 	 41.8311 	 12.8132 	 103.523 	 
C 	 42.1931 	 11.8171 	 102.619 	 
C 	 43.59 	 11.93 	 102.308 	 
C 	 44.1606 	 13.0654 	 102.848 	 
H 	 41.431 	 11.0421 	 102.399 	 
C 	 44.1997 	 10.899 	 101.395 	 
H 	 43.8271 	 9.92416 	 101.692 	 
H 	 45.3058 	 10.938 	 101.522 	 
C 	 43.8201 	 10.903 	 99.8906 	 
H 	 42.8965 	 11.3402 	 99.634 	 
H 	 43.859 	 9.90401 	 99.4392 	 
C 	 44.7996 	 11.8091 	 99.1399 	 
H 	 44.3578 	 12.1308 	 98.1414 	 
H 	 45.8223 	 11.488 	 98.9889 	 
H 	 44.8597 	 12.6844 	 99.7293 	 
H 	 48.9012 	 14.528 	 103.234 	 
H 	 40.8205 	 13.0088 	 103.802 	 
*
