! wB97X-D3 SP def2-SVP
%pal
nprocs 16
end

* xyz 0 1
S 	 6.98435 	 23.4812 	 41.7609 	 
C 	 5.63997 	 24.1379 	 40.9179 	 
C 	 5.03826 	 23.146 	 40.1123 	 
C 	 5.73283 	 21.8895 	 40.2315 	 
C 	 6.82284 	 21.8529 	 41.1134 	 
H 	 5.49497 	 20.9402 	 39.7068 	 
C 	 3.86593 	 23.3646 	 39.1695 	 
H 	 3.33546 	 24.2971 	 39.5654 	 
H 	 3.09153 	 22.6123 	 39.3475 	 
C 	 4.29908 	 23.5678 	 37.7643 	 
H 	 4.95307 	 24.4078 	 37.7509 	 
H 	 4.877 	 22.7771 	 37.3419 	 
C 	 3.04556 	 23.7868 	 36.9269 	 
H 	 2.33956 	 22.9201 	 37.0113 	 
H 	 2.48966 	 24.6644 	 37.33 	 
H 	 3.29489 	 24.0285 	 35.873 	 
S 	 7.74207 	 20.1289 	 43.0727 	 
C 	 9.00898 	 18.9989 	 42.7501 	 
C 	 9.14955 	 18.8571 	 41.3977 	 
C 	 8.44705 	 19.8609 	 40.5983 	 
C 	 7.71522 	 20.7082 	 41.4276 	 
H 	 9.80242 	 18.0632 	 40.9936 	 
C 	 8.52593 	 19.9037 	 39.0695 	 
H 	 8.91152 	 20.8997 	 38.821 	 
H 	 7.5163 	 19.9279 	 38.7797 	 
C 	 9.4074 	 18.8225 	 38.4044 	 
H 	 9.01073 	 17.8748 	 38.6645 	 
H 	 10.4395 	 18.7966 	 38.6751 	 
C 	 9.23216 	 18.894 	 36.8523 	 
H 	 9.81547 	 19.6688 	 36.3642 	 
H 	 8.24111 	 18.9987 	 36.5209 	 
H 	 9.65616 	 18.0399 	 36.4236 	 
H 	 5.24264 	 25.1753 	 40.9949 	 
H 	 9.49518 	 18.3444 	 43.4318 	 
*
