! wB97X-D3 SP def2-SVP
%pal
nprocs 16
end

* xyz 0 1
S 	 -35.7568 	 68.4893 	 107.947 	 
C 	 -35.4356 	 67.8441 	 106.313 	 
C 	 -35.059 	 68.815 	 105.391 	 
C 	 -34.9878 	 70.096 	 105.986 	 
C 	 -35.488 	 70.089 	 107.291 	 
H 	 -34.6099 	 70.9681 	 105.535 	 
C 	 -34.7212 	 68.674 	 103.897 	 
H 	 -35.5457 	 68.9655 	 103.276 	 
H 	 -34.6591 	 67.6109 	 103.685 	 
C 	 -33.6104 	 69.5042 	 103.267 	 
H 	 -33.8235 	 70.6034 	 103.44 	 
H 	 -32.6447 	 69.442 	 103.823 	 
C 	 -33.3861 	 69.0635 	 101.77 	 
H 	 -32.7648 	 69.7835 	 101.285 	 
H 	 -32.9807 	 68.0204 	 101.66 	 
H 	 -34.3293 	 69.0542 	 101.305 	 
S 	 -34.7518 	 71.2438 	 109.684 	 
C 	 -35.2156 	 72.8951 	 110.02 	 
C 	 -35.9906 	 73.4221 	 108.995 	 
C 	 -36.3178 	 72.4814 	 107.969 	 
C 	 -35.6911 	 71.2423 	 108.205 	 
H 	 -36.1792 	 74.4848 	 109.043 	 
C 	 -36.8755 	 72.9774 	 106.667 	 
H 	 -35.9443 	 72.9155 	 106.068 	 
H 	 -37.188 	 74.0376 	 106.714 	 
C 	 -38.1126 	 72.3376 	 106.082 	 
H 	 -38.9989 	 72.4552 	 106.749 	 
H 	 -37.8122 	 71.2462 	 106.082 	 
C 	 -38.7301 	 72.8548 	 104.82 	 
H 	 -37.9624 	 72.8556 	 104.069 	 
H 	 -39.0906 	 73.8971 	 104.842 	 
H 	 -39.5026 	 72.1655 	 104.568 	 
H 	 -35.5635 	 66.8763 	 105.986 	 
H 	 -34.9364 	 73.4026 	 110.914 	 
*
