! wB97X-D3 SP def2-SVP
%pal
nprocs 16
end

* xyz 0 1
S 	 -34.1748 	 55.0966 	 99.1438 	 
C 	 -33.2579 	 53.6944 	 99.629 	 
C 	 -33.6104 	 52.4832 	 98.9363 	 
C 	 -34.4832 	 52.8086 	 97.851 	 
C 	 -34.9551 	 54.1619 	 97.9054 	 
H 	 -35.0019 	 52.149 	 97.1604 	 
C 	 -33.0936 	 51.0545 	 99.3159 	 
H 	 -32.2055 	 51.1514 	 99.9781 	 
H 	 -32.7343 	 50.3937 	 98.5075 	 
C 	 -34.1504 	 50.2561 	 100.155 	 
H 	 -33.7761 	 49.3695 	 100.619 	 
H 	 -34.3443 	 50.9902 	 100.919 	 
C 	 -35.4594 	 49.9124 	 99.3919 	 
H 	 -35.3588 	 49.1763 	 98.6057 	 
H 	 -36.2154 	 49.5338 	 100.106 	 
H 	 -35.9978 	 50.7499 	 98.8332 	 
S 	 -35.5067 	 55.6324 	 95.5929 	 
C 	 -37.1816 	 56.124 	 95.3307 	 
C 	 -38.0421 	 55.4677 	 96.1486 	 
C 	 -37.3637 	 54.8934 	 97.2701 	 
C 	 -36.0185 	 54.8376 	 97.0634 	 
H 	 -39.0992 	 55.607 	 96.0143 	 
C 	 -38.1614 	 54.3047 	 98.4346 	 
H 	 -38.8015 	 55.0948 	 98.798 	 
H 	 -37.4847 	 54.1182 	 99.2304 	 
C 	 -38.9187 	 53.0419 	 98.2639 	 
H 	 -38.9931 	 52.5847 	 99.3036 	 
H 	 -38.3372 	 52.3173 	 97.7528 	 
C 	 -40.25 	 53.2016 	 97.5221 	 
H 	 -40.0403 	 53.3608 	 96.4443 	 
H 	 -40.8838 	 54.039 	 98.0377 	 
H 	 -40.7129 	 52.2019 	 97.6117 	 
H 	 -32.4998 	 53.7864 	 100.372 	 
H 	 -37.4833 	 56.7873 	 94.5093 	 
*
