! wB97X-D3 SP def2-SVP
%pal
nprocs 16
end

* xyz 0 1
S 	 -86.4943 	 44.2418 	 129.074 	 
C 	 -86.2261 	 42.8501 	 130.162 	 
C 	 -85.7461 	 41.7423 	 129.476 	 
C 	 -85.8179 	 41.9564 	 128.061 	 
C 	 -86.0905 	 43.2323 	 127.7 	 
H 	 -85.5261 	 41.1466 	 127.406 	 
C 	 -85.6771 	 40.3491 	 130.091 	 
H 	 -85.6773 	 39.7191 	 129.194 	 
H 	 -86.5721 	 40.1346 	 130.669 	 
C 	 -84.3359 	 39.9844 	 130.918 	 
H 	 -84.1798 	 40.7301 	 131.707 	 
H 	 -84.5607 	 39.0465 	 131.456 	 
C 	 -83.1147 	 39.7615 	 130.06 	 
H 	 -83.355 	 39.0948 	 129.225 	 
H 	 -82.7648 	 40.667 	 129.605 	 
H 	 -82.281 	 39.3154 	 130.624 	 
S 	 -84.8195 	 43.6832 	 125.2 	 
C 	 -85.6622 	 44.2681 	 123.809 	 
C 	 -86.9048 	 44.6488 	 124.199 	 
C 	 -87.2491 	 44.3316 	 125.578 	 
C 	 -86.1764 	 43.7446 	 126.317 	 
H 	 -87.5721 	 45.0184 	 123.418 	 
C 	 -88.5148 	 44.7684 	 126.264 	 
H 	 -88.4329 	 44.7419 	 127.312 	 
H 	 -89.2597 	 43.9295 	 126.143 	 
C 	 -89.1066 	 46.1686 	 125.959 	 
H 	 -89.2516 	 46.3253 	 124.881 	 
H 	 -88.3724 	 46.8314 	 126.214 	 
C 	 -90.5167 	 46.3197 	 126.554 	 
H 	 -90.99 	 47.2315 	 126.212 	 
H 	 -90.6526 	 46.3139 	 127.672 	 
H 	 -91.0496 	 45.5632 	 126.108 	 
H 	 -86.3293 	 42.919 	 131.245 	 
H 	 -85.3309 	 44.4647 	 122.797 	 
*
