! wB97X-D3 SP def2-SVP
%pal
nprocs 16
end

* xyz 0 1
S 	 -62.4393 	 48.9788 	 127.346 	 
C 	 -61.9253 	 47.7757 	 126.178 	 
C 	 -61.7263 	 48.3359 	 124.941 	 
C 	 -61.9649 	 49.7906 	 124.946 	 
C 	 -62.1911 	 50.3564 	 126.189 	 
H 	 -61.9411 	 50.4709 	 124.075 	 
C 	 -61.5467 	 47.5253 	 123.739 	 
H 	 -61.7804 	 46.4652 	 123.838 	 
H 	 -60.4871 	 47.5853 	 123.406 	 
C 	 -62.4895 	 47.9267 	 122.615 	 
H 	 -63.5711 	 48.0605 	 122.975 	 
H 	 -62.2236 	 48.8935 	 122.238 	 
C 	 -62.403 	 47.0241 	 121.372 	 
H 	 -62.8334 	 46.0316 	 121.67 	 
H 	 -63.0258 	 47.3724 	 120.574 	 
H 	 -61.3655 	 46.8691 	 121.017 	 
S 	 -63.7661 	 52.17 	 127.402 	 
C 	 -63.5038 	 53.8602 	 127.291 	 
C 	 -62.3389 	 54.097 	 126.677 	 
C 	 -61.6928 	 52.9132 	 126.159 	 
C 	 -62.3864 	 51.7706 	 126.493 	 
H 	 -61.9916 	 55.1206 	 126.552 	 
C 	 -60.366 	 52.8955 	 125.444 	 
H 	 -60.7133 	 52.6142 	 124.455 	 
H 	 -59.7806 	 52.0948 	 125.953 	 
C 	 -59.696 	 54.2551 	 125.31 	 
H 	 -59.5423 	 54.729 	 126.219 	 
H 	 -60.4198 	 54.9335 	 124.787 	 
C 	 -58.3785 	 54.2863 	 124.52 	 
H 	 -58.3991 	 53.9679 	 123.506 	 
H 	 -57.6355 	 53.6904 	 125.003 	 
H 	 -57.8877 	 55.287 	 124.613 	 
H 	 -61.798 	 46.7577 	 126.325 	 
H 	 -64.2517 	 54.5728 	 127.545 	 
*
