! wB97X-D3 SP def2-SVP
%pal
nprocs 16
end

* xyz 0 1
S 	 -75.7201 	 49.1471 	 136.882 	 
C 	 -76.2973 	 50.5422 	 137.659 	 
C 	 -75.3906 	 51.5799 	 137.441 	 
C 	 -74.171 	 51.1171 	 136.969 	 
C 	 -74.1909 	 49.8079 	 136.529 	 
H 	 -73.2136 	 51.7052 	 136.903 	 
C 	 -75.6255 	 52.9865 	 137.96 	 
H 	 -75.831 	 52.9437 	 139.038 	 
H 	 -76.625 	 53.3396 	 137.575 	 
C 	 -74.4973 	 54.0473 	 137.709 	 
H 	 -73.6346 	 53.7206 	 138.344 	 
H 	 -74.0864 	 54.3318 	 136.648 	 
C 	 -74.9909 	 55.4573 	 138.193 	 
H 	 -74.2021 	 56.2111 	 138.199 	 
H 	 -75.7621 	 55.9016 	 137.533 	 
H 	 -75.3909 	 55.3548 	 139.203 	 
S 	 -71.8299 	 48.8386 	 137.634 	 
C 	 -70.8656 	 47.8126 	 136.519 	 
C 	 -71.5239 	 47.4574 	 135.365 	 
C 	 -72.7433 	 48.108 	 135.304 	 
C 	 -73.0274 	 49.0019 	 136.337 	 
H 	 -71.1689 	 46.8639 	 134.535 	 
C 	 -73.62 	 47.9684 	 134.072 	 
H 	 -72.938 	 47.5213 	 133.329 	 
H 	 -73.9062 	 48.9563 	 133.71 	 
C 	 -74.9878 	 47.1382 	 134.077 	 
H 	 -75.7548 	 47.6613 	 134.607 	 
H 	 -74.7418 	 46.2193 	 134.617 	 
C 	 -75.4121 	 46.6715 	 132.62 	 
H 	 -74.801 	 46.0071 	 132.124 	 
H 	 -75.5638 	 47.6306 	 132.068 	 
H 	 -76.3691 	 46.1563 	 132.546 	 
H 	 -77.2044 	 50.7763 	 138.134 	 
H 	 -69.7736 	 47.5758 	 136.527 	 
*
