! wB97X-D3 SP def2-SVP
%pal
nprocs 16
end

* xyz 0 1
S 	 -10.4347 	 64.8754 	 52.3935 	 
C 	 -10.395 	 63.2727 	 51.7446 	 
C 	 -9.34329 	 62.4664 	 52.162 	 
C 	 -8.52721 	 63.2843 	 52.9719 	 
C 	 -8.81495 	 64.6274 	 52.8533 	 
H 	 -7.66833 	 63.0007 	 53.5387 	 
C 	 -9.21926 	 60.9935 	 51.9521 	 
H 	 -10.2039 	 60.7809 	 51.5391 	 
H 	 -9.16472 	 60.5612 	 52.9413 	 
C 	 -8.1201 	 60.4558 	 50.9534 	 
H 	 -8.41925 	 59.38 	 50.7726 	 
H 	 -8.12716 	 61.0553 	 50.0609 	 
C 	 -6.71534 	 60.5127 	 51.4121 	 
H 	 -6.4099 	 59.8735 	 52.2877 	 
H 	 -6.0856 	 60.2005 	 50.5977 	 
H 	 -6.29504 	 61.5258 	 51.5917 	 
S 	 -8.94484 	 67.1838 	 54.0082 	 
C 	 -7.398 	 68.0288 	 54.1623 	 
C 	 -6.3462 	 67.2996 	 53.6445 	 
C 	 -6.71022 	 65.9717 	 53.2124 	 
C 	 -8.09088 	 65.7151 	 53.4051 	 
H 	 -5.34932 	 67.7873 	 53.5451 	 
C 	 -5.67297 	 65.1872 	 52.456 	 
H 	 -5.0948 	 65.8861 	 51.8465 	 
H 	 -6.30292 	 64.5977 	 51.7472 	 
C 	 -4.82506 	 64.221 	 53.2369 	 
H 	 -5.52373 	 63.5084 	 53.7175 	 
H 	 -4.29149 	 64.7563 	 53.9885 	 
C 	 -3.79074 	 63.4978 	 52.2924 	 
H 	 -3.32085 	 62.6497 	 52.8769 	 
H 	 -3.12561 	 64.3534 	 51.97 	 
H 	 -4.31827 	 63.0787 	 51.467 	 
H 	 -11.2429 	 62.8751 	 51.25 	 
H 	 -7.30741 	 68.9928 	 54.5423 	 
*
