! wB97X-D3 SP def2-SVP
%pal
nprocs 16
end

* xyz 0 1
S 	 -47.3359 	 -3.20681 	 96.9586 	 
C 	 -49.0884 	 -3.37464 	 97.1688 	 
C 	 -49.6629 	 -2.22093 	 97.5757 	 
C 	 -48.701 	 -1.21265 	 97.8484 	 
C 	 -47.4349 	 -1.55912 	 97.5215 	 
H 	 -48.9755 	 -0.296091 	 98.2817 	 
C 	 -51.1493 	 -1.99468 	 97.6599 	 
H 	 -51.3663 	 -1.78424 	 98.641 	 
H 	 -51.5256 	 -2.97958 	 97.6127 	 
C 	 -51.7734 	 -1.0002 	 96.6246 	 
H 	 -52.8165 	 -0.732682 	 96.8579 	 
H 	 -51.1885 	 -0.116152 	 96.7235 	 
C 	 -51.6993 	 -1.36444 	 95.1537 	 
H 	 -50.7535 	 -1.28413 	 94.612 	 
H 	 -51.9747 	 -2.35178 	 94.9682 	 
H 	 -52.3237 	 -0.66069 	 94.6519 	 
S 	 -44.9443 	 -1.18536 	 98.5704 	 
C 	 -44.1412 	 0.355424 	 98.4108 	 
C 	 -44.8816 	 1.15742 	 97.6289 	 
C 	 -46.0577 	 0.603034 	 97.1038 	 
C 	 -46.292 	 -0.645095 	 97.6166 	 
H 	 -44.5108 	 2.09674 	 97.2263 	 
C 	 -47.0055 	 1.38755 	 96.2372 	 
H 	 -48.0228 	 1.23182 	 96.5617 	 
H 	 -47.0138 	 0.97103 	 95.1859 	 
C 	 -46.794 	 2.88621 	 96.0742 	 
H 	 -45.7636 	 3.13383 	 95.8847 	 
H 	 -47.1554 	 3.43646 	 96.9735 	 
C 	 -47.631 	 3.60553 	 94.9329 	 
H 	 -48.613 	 3.18645 	 94.6766 	 
H 	 -47.1334 	 3.54588 	 93.9554 	 
H 	 -47.7433 	 4.64238 	 95.2228 	 
H 	 -49.5338 	 -4.29828 	 96.8 	 
H 	 -43.2466 	 0.572992 	 98.9161 	 
*
