! wB97X-D3 SP def2-SVP
%pal
nprocs 16
end

* xyz 0 1
S 	 -32.8616 	 72.9147 	 171.612 	 
C 	 -32.1402 	 74.3937 	 171.875 	 
C 	 -32.9945 	 75.4578 	 171.613 	 
C 	 -34.3403 	 74.9949 	 171.496 	 
C 	 -34.4377 	 73.6012 	 171.551 	 
H 	 -35.0655 	 75.6921 	 171.157 	 
C 	 -32.6312 	 76.9124 	 171.657 	 
H 	 -31.5601 	 77.0091 	 171.908 	 
H 	 -33.2839 	 77.3888 	 172.431 	 
C 	 -32.8743 	 77.6831 	 170.333 	 
H 	 -32.1515 	 77.2505 	 169.603 	 
H 	 -33.8694 	 77.3985 	 169.996 	 
C 	 -32.6188 	 79.2112 	 170.491 	 
H 	 -32.8562 	 79.7007 	 169.597 	 
H 	 -33.3781 	 79.6774 	 171.164 	 
H 	 -31.6507 	 79.5428 	 170.78 	 
S 	 -35.4965 	 71.3052 	 170.53 	 
C 	 -37.2133 	 70.9448 	 170.83 	 
C 	 -37.885 	 72.0051 	 171.402 	 
C 	 -36.9988 	 73.0665 	 171.727 	 
C 	 -35.651 	 72.8256 	 171.329 	 
H 	 -38.9517 	 71.8435 	 171.495 	 
C 	 -37.507 	 74.3872 	 172.416 	 
H 	 -36.8636 	 75.2406 	 172.346 	 
H 	 -37.599 	 74.1985 	 173.475 	 
C 	 -38.8979 	 74.7481 	 171.996 	 
H 	 -39.2736 	 75.4333 	 172.799 	 
H 	 -39.5397 	 73.8468 	 171.934 	 
C 	 -38.984 	 75.4377 	 170.644 	 
H 	 -38.7416 	 74.7108 	 169.856 	 
H 	 -38.3795 	 76.3085 	 170.609 	 
H 	 -40.0225 	 75.7368 	 170.499 	 
H 	 -31.129 	 74.5719 	 172.027 	 
H 	 -37.7238 	 70.0208 	 170.587 	 
*
