! wB97X-D3 SP def2-SVP
%pal
nprocs 16
end

* xyz 0 1
S 	 -15.1241 	 -7.77892 	 90.7025 	 
C 	 -16.8521 	 -7.50269 	 90.2795 	 
C 	 -17.6221 	 -8.61034 	 90.684 	 
C 	 -16.9073 	 -9.53806 	 91.4498 	 
C 	 -15.4929 	 -9.29669 	 91.4919 	 
H 	 -17.3082 	 -10.4274 	 91.8925 	 
C 	 -19.0896 	 -8.68829 	 90.543 	 
H 	 -19.3392 	 -7.77896 	 90.065 	 
H 	 -19.5423 	 -8.59107 	 91.4587 	 
C 	 -19.6549 	 -10.012 	 89.8586 	 
H 	 -19.207 	 -10.0971 	 88.9282 	 
H 	 -19.2167 	 -10.9428 	 90.3118 	 
C 	 -21.1707 	 -10.0113 	 89.6467 	 
H 	 -21.4865 	 -11.0363 	 89.575 	 
H 	 -21.7531 	 -9.66988 	 90.5112 	 
H 	 -21.4652 	 -9.39047 	 88.7504 	 
S 	 -13.2057 	 -9.6018 	 92.9152 	 
C 	 -12.4563 	 -11.173 	 93.273 	 
C 	 -13.2408 	 -12.1554 	 92.6869 	 
C 	 -14.203 	 -11.6353 	 91.7425 	 
C 	 -14.4283 	 -10.2666 	 91.9342 	 
H 	 -12.8777 	 -13.1619 	 92.8145 	 
C 	 -15.036 	 -12.4866 	 90.7696 	 
H 	 -16.1557 	 -12.2593 	 90.6793 	 
H 	 -15.1071 	 -13.4951 	 91.1994 	 
C 	 -14.3702 	 -12.6338 	 89.432 	 
H 	 -13.3091 	 -12.6371 	 89.5013 	 
H 	 -14.5949 	 -11.6818 	 88.9183 	 
C 	 -15.0325 	 -13.6966 	 88.5768 	 
H 	 -14.7047 	 -14.7527 	 88.8207 	 
H 	 -14.8621 	 -13.4314 	 87.5734 	 
H 	 -16.121 	 -13.5887 	 88.7693 	 
H 	 -17.4948 	 -6.73474 	 89.8533 	 
H 	 -11.6008 	 -11.3449 	 93.8048 	 
*
