! wB97X-D3 SP def2-SVP
%pal
nprocs 16
end

* xyz 0 1
S 	 57.4557 	 25.729 	 39.164 	 
C 	 57.6987 	 27.4414 	 39.0959 	 
C 	 56.7899 	 28.1389 	 39.8391 	 
C 	 56.144 	 27.1576 	 40.6723 	 
C 	 56.5422 	 25.8493 	 40.5716 	 
H 	 55.5805 	 27.3708 	 41.5896 	 
C 	 56.6588 	 29.6605 	 39.8985 	 
H 	 57.6595 	 30.1424 	 39.9775 	 
H 	 56.1414 	 29.8491 	 40.8086 	 
C 	 55.8032 	 30.3959 	 38.7893 	 
H 	 56.166 	 30.114 	 37.8136 	 
H 	 54.7502 	 30.0475 	 38.8906 	 
C 	 55.9407 	 31.9819 	 38.8265 	 
H 	 55.6002 	 32.4094 	 39.7897 	 
H 	 56.9538 	 32.2835 	 38.6751 	 
H 	 55.2893 	 32.5423 	 38.135 	 
S 	 57.1706 	 23.9113 	 42.4741 	 
C 	 55.9886 	 22.694 	 42.7491 	 
C 	 54.7134 	 23.0065 	 42.2836 	 
C 	 54.715 	 24.2731 	 41.5826 	 
C 	 56.0274 	 24.7516 	 41.3812 	 
H 	 53.8627 	 22.3305 	 42.4086 	 
C 	 53.3944 	 24.8134 	 41.0289 	 
H 	 52.7339 	 23.9467 	 40.8522 	 
H 	 53.5996 	 25.1356 	 40.0259 	 
C 	 52.7925 	 25.8848 	 41.8444 	 
H 	 53.6697 	 26.5795 	 41.9862 	 
H 	 52.5562 	 25.5874 	 42.8403 	 
C 	 51.5802 	 26.6628 	 41.2485 	 
H 	 50.7027 	 26.0706 	 41.0547 	 
H 	 51.9105 	 26.9621 	 40.2555 	 
H 	 51.3462 	 27.6011 	 41.8723 	 
H 	 58.2454 	 27.9476 	 38.3662 	 
H 	 56.1942 	 21.8571 	 43.4427 	 
*
