! wB97X-D3 SP def2-SVP
%pal
nprocs 16
end

* xyz 0 1
S 	 -50.1972 	 31.9307 	 91.8892 	 
C 	 -50.8118 	 30.3335 	 91.5574 	 
C 	 -51.9457 	 30.1003 	 92.3197 	 
C 	 -52.1087 	 31.1468 	 93.2159 	 
C 	 -51.1854 	 32.157 	 93.2107 	 
H 	 -52.9249 	 31.3486 	 93.8973 	 
C 	 -52.9698 	 28.9946 	 92.1224 	 
H 	 -53.6007 	 29.0585 	 92.9939 	 
H 	 -52.605 	 27.9208 	 92.192 	 
C 	 -53.7885 	 29.1474 	 90.8466 	 
H 	 -52.9814 	 29.2535 	 90.1407 	 
H 	 -54.2456 	 28.1485 	 90.5557 	 
C 	 -54.786 	 30.3029 	 90.6936 	 
H 	 -55.5066 	 30.2523 	 89.854 	 
H 	 -55.3903 	 30.4567 	 91.5607 	 
H 	 -54.2575 	 31.2408 	 90.3914 	 
S 	 -51.8256 	 34.8087 	 93.1165 	 
C 	 -51.7981 	 35.7196 	 94.5813 	 
C 	 -51.3349 	 34.9599 	 95.6104 	 
C 	 -51.1428 	 33.6272 	 95.2588 	 
C 	 -51.3443 	 33.4043 	 93.9386 	 
H 	 -51.0392 	 35.3643 	 96.6039 	 
C 	 -50.7301 	 32.5937 	 96.2498 	 
H 	 -49.6922 	 32.6322 	 96.5726 	 
H 	 -50.6741 	 31.6711 	 95.646 	 
C 	 -51.6203 	 32.3106 	 97.4988 	 
H 	 -51.5211 	 31.2462 	 97.5879 	 
H 	 -52.6569 	 32.4741 	 97.4041 	 
C 	 -50.9888 	 32.8436 	 98.77 	 
H 	 -51.6303 	 32.5871 	 99.6153 	 
H 	 -50.9568 	 33.9108 	 98.9162 	 
H 	 -50.0325 	 32.4635 	 98.9672 	 
H 	 -50.5946 	 29.7781 	 90.6955 	 
H 	 -52.1334 	 36.7059 	 94.7118 	 
*
