! wB97X-D3 SP def2-SVP
%pal
nprocs 16
end

* xyz 0 1
S 	 -51.4801 	 29.4954 	 93.4723 	 
C 	 -50.1219 	 28.471 	 93.9054 	 
C 	 -49.994 	 27.4074 	 93.0157 	 
C 	 -51.0883 	 27.3851 	 92.0593 	 
C 	 -51.9094 	 28.5056 	 92.1144 	 
H 	 -51.3402 	 26.6568 	 91.2961 	 
C 	 -48.8745 	 26.2622 	 93.1434 	 
H 	 -48.1441 	 26.4953 	 93.9077 	 
H 	 -48.4373 	 26.2185 	 92.0978 	 
C 	 -49.5123 	 24.8397 	 93.3316 	 
H 	 -50.2168 	 24.5038 	 92.5095 	 
H 	 -48.7209 	 24.0816 	 93.3195 	 
C 	 -50.3201 	 24.6035 	 94.6145 	 
H 	 -50.3606 	 23.4971 	 94.8081 	 
H 	 -49.9909 	 25.2438 	 95.4703 	 
H 	 -51.3109 	 25.0169 	 94.4074 	 
S 	 -52.6336 	 30.4649 	 90.3299 	 
C 	 -54.0739 	 30.0989 	 89.396 	 
C 	 -54.5723 	 28.8257 	 89.6095 	 
C 	 -53.9158 	 28.0959 	 90.6387 	 
C 	 -52.8195 	 28.8863 	 91.0678 	 
H 	 -55.4889 	 28.4822 	 89.1465 	 
C 	 -54.3558 	 26.7486 	 91.2183 	 
H 	 -53.4336 	 26.152 	 91.5468 	 
H 	 -54.7824 	 26.1791 	 90.383 	 
C 	 -55.3616 	 26.8408 	 92.3548 	 
H 	 -56.1899 	 27.4779 	 92.0814 	 
H 	 -54.8047 	 27.354 	 93.1436 	 
C 	 -55.8902 	 25.4754 	 92.8526 	 
H 	 -56.2431 	 25.6913 	 93.8482 	 
H 	 -55.1599 	 24.692 	 93.0442 	 
H 	 -56.6189 	 25.0971 	 92.1561 	 
H 	 -49.4796 	 28.732 	 94.7224 	 
H 	 -54.5549 	 30.8281 	 88.7777 	 
*
