! wB97X-D3 SP def2-SVP
%pal
nprocs 16
end

* xyz 0 1
S 	 47.7607 	 11.3597 	 49.3968 	 
C 	 47.2986 	 11.9214 	 47.827 	 
C 	 46.9623 	 13.3033 	 47.861 	 
C 	 47.073 	 13.8726 	 49.1935 	 
C 	 47.5787 	 12.9638 	 50.1503 	 
H 	 46.7711 	 14.9306 	 49.4043 	 
C 	 46.6815 	 14.1547 	 46.6057 	 
H 	 47.112 	 13.5311 	 45.8696 	 
H 	 47.3305 	 15.064 	 46.5584 	 
C 	 45.2471 	 14.3392 	 46.1822 	 
H 	 44.7593 	 14.8209 	 47.0629 	 
H 	 45.0819 	 14.9815 	 45.3061 	 
C 	 44.5226 	 12.9917 	 45.8967 	 
H 	 44.2902 	 12.2403 	 46.6311 	 
H 	 43.5936 	 13.3008 	 45.4399 	 
H 	 45.087 	 12.4439 	 45.2455 	 
S 	 48.8917 	 12.0799 	 52.395 	 
C 	 48.8798 	 12.9864 	 53.8653 	 
C 	 48.1035 	 14.0723 	 53.7644 	 
C 	 47.5801 	 14.2085 	 52.4457 	 
C 	 47.9214 	 13.2085 	 51.5775 	 
H 	 47.9269 	 14.7113 	 54.5783 	 
C 	 46.7974 	 15.4504 	 52.0751 	 
H 	 47.345 	 16.0114 	 51.3092 	 
H 	 46.9326 	 16.1544 	 52.8469 	 
C 	 45.2989 	 15.3091 	 51.6238 	 
H 	 44.7704 	 14.7288 	 52.3737 	 
H 	 45.2949 	 14.5701 	 50.8342 	 
C 	 44.5554 	 16.5936 	 51.2639 	 
H 	 44.7586 	 16.7212 	 50.2068 	 
H 	 44.9598 	 17.5012 	 51.7084 	 
H 	 43.4767 	 16.4432 	 51.4667 	 
H 	 47.473 	 11.2826 	 46.9786 	 
H 	 49.4762 	 12.8388 	 54.7543 	 
*
