! wB97X-D3 SP def2-SVP
%pal
nprocs 16
end

* xyz 0 1
S 	 26.3494 	 32.6275 	 57.165 	 
C 	 24.9361 	 31.6894 	 56.6651 	 
C 	 24.5928 	 32.0229 	 55.3374 	 
C 	 25.6476 	 32.818 	 54.7367 	 
C 	 26.7174 	 33.1561 	 55.5003 	 
H 	 25.6542 	 33.1817 	 53.7618 	 
C 	 23.3744 	 31.6146 	 54.5103 	 
H 	 22.9281 	 32.5295 	 54.1505 	 
H 	 22.5794 	 31.1273 	 55.103 	 
C 	 23.6154 	 30.8602 	 53.2552 	 
H 	 24.1075 	 31.476 	 52.5212 	 
H 	 24.2843 	 30.0067 	 53.4878 	 
C 	 22.4303 	 30.201 	 52.5613 	 
H 	 22.5915 	 29.8981 	 51.5335 	 
H 	 22.0845 	 29.4133 	 53.0794 	 
H 	 21.7141 	 31.0035 	 52.5081 	 
S 	 27.8619 	 35.5092 	 54.7972 	 
C 	 29.5203 	 35.4545 	 54.2766 	 
C 	 29.9972 	 34.1505 	 54.1889 	 
C 	 29.0726 	 33.1613 	 54.5799 	 
C 	 27.9151 	 33.7789 	 55.0358 	 
H 	 30.9704 	 33.8699 	 53.764 	 
C 	 29.4297 	 31.6722 	 54.6419 	 
H 	 28.931 	 31.3194 	 55.5275 	 
H 	 30.4759 	 31.5881 	 54.9334 	 
C 	 29.2176 	 30.9054 	 53.2982 	 
H 	 29.708 	 29.9454 	 53.2771 	 
H 	 29.8088 	 31.3776 	 52.5463 	 
C 	 27.8614 	 30.7098 	 52.7543 	 
H 	 27.3914 	 31.6105 	 52.4303 	 
H 	 27.2881 	 30.1836 	 53.5196 	 
H 	 27.902 	 30.1274 	 51.836 	 
H 	 24.3122 	 31.2251 	 57.2843 	 
H 	 30.0302 	 36.3021 	 53.9017 	 
*
