! wB97X-D3 SP def2-SVP
%pal
nprocs 16
end

* xyz 0 1
S 	 47.8962 	 5.98337 	 89.1935 	 
C 	 47.0058 	 5.01531 	 87.9792 	 
C 	 47.5421 	 3.74838 	 87.8867 	 
C 	 48.7235 	 3.61151 	 88.6739 	 
C 	 49.1737 	 4.74373 	 89.2673 	 
H 	 49.3366 	 2.76609 	 88.8697 	 
C 	 46.8638 	 2.60052 	 87.1609 	 
H 	 45.9116 	 3.00059 	 86.7625 	 
H 	 46.4162 	 1.85648 	 87.9256 	 
C 	 47.5977 	 1.77441 	 86.1005 	 
H 	 47.7812 	 2.42016 	 85.2044 	 
H 	 48.643 	 1.61884 	 86.4516 	 
C 	 47.0724 	 0.437332 	 85.6424 	 
H 	 47.644 	 -0.16108 	 84.938 	 
H 	 47.053 	 -0.204528 	 86.5343 	 
H 	 46.1233 	 0.414169 	 85.1943 	 
S 	 50.2427 	 5.57137 	 91.7407 	 
C 	 51.7684 	 5.09758 	 92.2558 	 
C 	 52.3214 	 4.3148 	 91.3328 	 
C 	 51.5943 	 4.3139 	 90.1099 	 
C 	 50.3143 	 4.89994 	 90.1743 	 
H 	 53.2169 	 3.76243 	 91.4278 	 
C 	 52.1553 	 3.42729 	 89.0101 	 
H 	 51.5701 	 2.49194 	 89.1099 	 
H 	 53.2217 	 3.15922 	 89.2812 	 
C 	 52.0223 	 4.01893 	 87.6279 	 
H 	 50.9842 	 4.32403 	 87.4272 	 
H 	 52.27 	 3.19973 	 86.9623 	 
C 	 53.0141 	 5.11684 	 87.3782 	 
H 	 53.177 	 5.78777 	 88.2343 	 
H 	 52.7108 	 5.87153 	 86.6905 	 
H 	 53.9764 	 4.76085 	 87.1582 	 
H 	 46.1714 	 5.3444 	 87.2873 	 
H 	 52.1186 	 5.10356 	 93.2826 	 
*
