! wB97X-D3 SP def2-SVP
%pal
nprocs 16
end

* xyz 0 1
S 	 -46.3372 	 -1.65383 	 98.5979 	 
C 	 -47.0604 	 -3.02804 	 97.777 	 
C 	 -47.5609 	 -2.6941 	 96.5424 	 
C 	 -47.2704 	 -1.29145 	 96.2465 	 
C 	 -46.7786 	 -0.600651 	 97.3127 	 
H 	 -47.577 	 -0.787342 	 95.3173 	 
C 	 -48.2961 	 -3.57185 	 95.5619 	 
H 	 -49.336 	 -3.59887 	 95.8829 	 
H 	 -47.8744 	 -4.55601 	 95.6709 	 
C 	 -48.3292 	 -3.14867 	 94.0982 	 
H 	 -48.7492 	 -3.92738 	 93.4689 	 
H 	 -48.9746 	 -2.24751 	 93.8767 	 
C 	 -46.9277 	 -3.05982 	 93.4964 	 
H 	 -46.2732 	 -2.3185 	 93.9429 	 
H 	 -46.3583 	 -4.01859 	 93.6915 	 
H 	 -46.8893 	 -2.97559 	 92.4094 	 
S 	 -45.3939 	 1.40836 	 98.5668 	 
C 	 -45.368 	 2.95094 	 97.8829 	 
C 	 -46.1829 	 3.02738 	 96.7837 	 
C 	 -46.8697 	 1.83704 	 96.4294 	 
C 	 -46.5635 	 0.849583 	 97.3334 	 
H 	 -46.2233 	 3.9332 	 96.1344 	 
C 	 -47.7783 	 1.789 	 95.2411 	 
H 	 -48.3854 	 2.70183 	 95.2055 	 
H 	 -48.5362 	 1.02315 	 95.4267 	 
C 	 -47.1906 	 1.52795 	 93.9155 	 
H 	 -46.6658 	 0.593978 	 93.9572 	 
H 	 -46.4834 	 2.33598 	 93.751 	 
C 	 -48.1896 	 1.52645 	 92.7591 	 
H 	 -47.7674 	 1.18998 	 91.8293 	 
H 	 -48.462 	 2.51611 	 92.5393 	 
H 	 -49.028 	 0.848228 	 92.9029 	 
H 	 -46.9204 	 -4.07607 	 98.0466 	 
H 	 -44.8114 	 3.78486 	 98.1553 	 
*
