! wB97X-D3 SP def2-SVP
%pal
nprocs 16
end

* xyz 0 1
S 	 -16.1108 	 37.7629 	 34.6532 	 
C 	 -16.9877 	 37.8695 	 36.1701 	 
C 	 -16.3986 	 37.0758 	 37.1729 	 
C 	 -15.3416 	 36.2578 	 36.616 	 
C 	 -15.1949 	 36.3461 	 35.2406 	 
H 	 -14.5407 	 35.7445 	 37.1048 	 
C 	 -16.684 	 37.144 	 38.6158 	 
H 	 -16.8236 	 36.1616 	 39.0481 	 
H 	 -17.6425 	 37.6135 	 38.6248 	 
C 	 -15.7808 	 37.9452 	 39.5165 	 
H 	 -15.4365 	 38.8326 	 38.9682 	 
H 	 -16.4508 	 38.3376 	 40.3343 	 
C 	 -14.7059 	 37.1064 	 40.2226 	 
H 	 -15.228 	 36.3679 	 40.8842 	 
H 	 -13.8731 	 36.7179 	 39.6178 	 
H 	 -14.2641 	 37.7548 	 41.0597 	 
S 	 -13.0992 	 36.8268 	 33.5161 	 
C 	 -12.0837 	 35.5113 	 33.0464 	 
C 	 -12.43 	 34.3249 	 33.674 	 
C 	 -13.5917 	 34.4216 	 34.4741 	 
C 	 -14.0675 	 35.7175 	 34.5656 	 
H 	 -11.7933 	 33.4864 	 33.556 	 
C 	 -14.2012 	 33.1317 	 34.9862 	 
H 	 -13.9687 	 32.3844 	 34.2223 	 
H 	 -15.2534 	 33.2583 	 35.0173 	 
C 	 -13.7304 	 32.7887 	 36.3786 	 
H 	 -14.1255 	 31.829 	 36.6478 	 
H 	 -14.0748 	 33.5407 	 37.1225 	 
C 	 -12.2005 	 32.7048 	 36.4762 	 
H 	 -11.8813 	 32.4599 	 37.5076 	 
H 	 -11.8391 	 33.7738 	 36.2694 	 
H 	 -11.7026 	 32.0538 	 35.7549 	 
H 	 -17.7836 	 38.6395 	 36.3357 	 
H 	 -11.2249 	 35.675 	 32.5505 	 
*
