! wB97X-D3 SP def2-SVP
%pal
nprocs 16
end

* xyz 0 1
S 	 46.2978 	 13.2163 	 48.888 	 
C 	 44.7847 	 12.2878 	 48.9163 	 
C 	 44.0997 	 12.5283 	 50.136 	 
C 	 44.8362 	 13.4318 	 50.9988 	 
C 	 46.023 	 13.9383 	 50.476 	 
H 	 44.6733 	 13.7853 	 52.0407 	 
C 	 42.7867 	 11.9722 	 50.5513 	 
H 	 42.7547 	 11.6899 	 51.6638 	 
H 	 42.6562 	 11.0467 	 49.9853 	 
C 	 41.6935 	 12.9159 	 50.3031 	 
H 	 41.7119 	 13.7036 	 51.0235 	 
H 	 41.8225 	 13.32 	 49.3269 	 
C 	 40.2577 	 12.4386 	 50.4483 	 
H 	 39.5935 	 13.2795 	 50.6979 	 
H 	 39.9038 	 11.9456 	 49.623 	 
H 	 40.268 	 11.6779 	 51.2967 	 
S 	 47.1831 	 16.4297 	 50.1875 	 
C 	 48.3959 	 16.8815 	 51.4147 	 
C 	 48.6231 	 15.8846 	 52.3287 	 
C 	 47.8172 	 14.7148 	 52.0826 	 
C 	 46.9487 	 14.8994 	 51.0314 	 
H 	 49.5161 	 16.1259 	 53.0244 	 
C 	 47.8721 	 13.449 	 52.9251 	 
H 	 48.8711 	 13.3584 	 53.2001 	 
H 	 47.5911 	 12.5751 	 52.263 	 
C 	 47.2609 	 13.5559 	 54.3352 	 
H 	 46.2163 	 13.7236 	 54.2518 	 
H 	 47.6137 	 14.4427 	 54.8919 	 
C 	 47.4832 	 12.2526 	 55.1653 	 
H 	 48.4565 	 12.2794 	 55.67 	 
H 	 47.417 	 11.3527 	 54.5729 	 
H 	 46.6628 	 12.1281 	 55.9357 	 
H 	 44.5367 	 11.4532 	 48.1917 	 
H 	 48.9828 	 17.7832 	 51.4003 	 
*
