! wB97X-D3 SP def2-SVP
%pal
nprocs 16
end

* xyz 0 1
S 	 -42.8676 	 37.0607 	 81.4502 	 
C 	 -41.8161 	 38.2112 	 80.7489 	 
C 	 -42.3523 	 38.8079 	 79.6591 	 
C 	 -43.7752 	 38.5659 	 79.5301 	 
C 	 -44.223 	 37.5473 	 80.3856 	 
H 	 -44.5143 	 39.0915 	 78.8878 	 
C 	 -41.6018 	 39.7479 	 78.7217 	 
H 	 -41.1924 	 40.4749 	 79.5276 	 
H 	 -42.1944 	 40.3132 	 78.0694 	 
C 	 -40.4869 	 39.0473 	 77.967 	 
H 	 -39.9082 	 39.7731 	 77.5564 	 
H 	 -39.7841 	 38.7758 	 78.7033 	 
C 	 -40.8874 	 37.8119 	 77.0054 	 
H 	 -39.9822 	 37.3495 	 76.5879 	 
H 	 -41.4026 	 36.9846 	 77.476 	 
H 	 -41.5203 	 38.2346 	 76.2054 	 
S 	 -46.2159 	 36.5906 	 78.847 	 
C 	 -47.6914 	 36.0605 	 79.6591 	 
C 	 -47.5995 	 35.999 	 81.0322 	 
C 	 -46.3841 	 36.5791 	 81.4893 	 
C 	 -45.5483 	 36.9816 	 80.4469 	 
H 	 -48.4323 	 35.7176 	 81.6336 	 
C 	 -46.2331 	 36.8864 	 82.9843 	 
H 	 -45.2149 	 36.6009 	 83.289 	 
H 	 -46.8685 	 36.1932 	 83.527 	 
C 	 -46.2756 	 38.3731 	 83.3869 	 
H 	 -45.4533 	 38.7976 	 82.7966 	 
H 	 -45.986 	 38.5542 	 84.4965 	 
C 	 -47.6886 	 39.0248 	 83.0274 	 
H 	 -47.6184 	 39.8808 	 82.3241 	 
H 	 -48.2831 	 39.4894 	 83.7868 	 
H 	 -48.3115 	 38.2569 	 82.5871 	 
H 	 -40.7452 	 38.3082 	 80.9749 	 
H 	 -48.5641 	 35.6138 	 79.1615 	 
*
