! wB97X-D3 SP def2-SVP
%pal
nprocs 16
end

* xyz 0 1
S 	 -65.1201 	 45.6597 	 118.326 	 
C 	 -66.1222 	 44.4846 	 119.154 	 
C 	 -66.5355 	 44.979 	 120.395 	 
C 	 -65.8987 	 46.1428 	 120.825 	 
C 	 -65.0776 	 46.6236 	 119.834 	 
H 	 -66.0087 	 46.7163 	 121.737 	 
C 	 -67.4754 	 44.1859 	 121.371 	 
H 	 -68.0745 	 43.4938 	 120.89 	 
H 	 -68.1418 	 44.8809 	 121.708 	 
C 	 -66.7413 	 43.4273 	 122.511 	 
H 	 -66.1105 	 42.6916 	 122.02 	 
H 	 -66.1071 	 44.0876 	 123.122 	 
C 	 -67.646 	 42.7465 	 123.577 	 
H 	 -66.9655 	 42.1335 	 124.325 	 
H 	 -68.1101 	 43.4796 	 124.317 	 
H 	 -68.55 	 42.2216 	 123.228 	 
S 	 -64.0833 	 48.8399 	 118.542 	 
C 	 -63.065 	 49.9381 	 119.428 	 
C 	 -62.9884 	 49.5695 	 120.76 	 
C 	 -63.5032 	 48.305 	 121.074 	 
C 	 -64.1556 	 47.7568 	 119.945 	 
H 	 -62.2987 	 50.0898 	 121.44 	 
C 	 -63.4171 	 47.6878 	 122.526 	 
H 	 -62.3361 	 47.7477 	 122.9 	 
H 	 -63.7072 	 46.6055 	 122.483 	 
C 	 -64.3197 	 48.4246 	 123.475 	 
H 	 -65.3138 	 48.3598 	 123.1 	 
H 	 -64.1936 	 49.5463 	 123.527 	 
C 	 -64.2804 	 47.7992 	 124.846 	 
H 	 -64.3856 	 46.7295 	 124.882 	 
H 	 -65.0092 	 48.1426 	 125.504 	 
H 	 -63.2923 	 48.0398 	 125.311 	 
H 	 -66.4141 	 43.5239 	 118.752 	 
H 	 -62.5597 	 50.7195 	 118.965 	 
*
