! wB97X-D3 SP def2-SVP
%pal
nprocs 16
end

* xyz 0 1
S 	 61.3284 	 5.32134 	 77.7396 	 
C 	 60.4979 	 6.66582 	 78.5109 	 
C 	 59.7649 	 7.32755 	 77.5696 	 
C 	 59.85 	 6.7506 	 76.2453 	 
C 	 60.8113 	 5.79609 	 76.168 	 
H 	 59.3015 	 7.13621 	 75.4293 	 
C 	 58.9102 	 8.53479 	 77.997 	 
H 	 59.3393 	 9.50557 	 77.6354 	 
H 	 58.9635 	 8.64056 	 79.0462 	 
C 	 57.4065 	 8.42759 	 77.4473 	 
H 	 57.4962 	 8.59275 	 76.3831 	 
H 	 56.8814 	 7.46241 	 77.6325 	 
C 	 56.4519 	 9.4626 	 78.1859 	 
H 	 56.4268 	 9.17009 	 79.2338 	 
H 	 56.8181 	 10.4543 	 77.9763 	 
H 	 55.4193 	 9.42898 	 77.7644 	 
S 	 61.0389 	 3.22482 	 75.1434 	 
C 	 61.7206 	 3.01252 	 73.5393 	 
C 	 61.7508 	 4.20048 	 72.8847 	 
C 	 61.397 	 5.30433 	 73.6945 	 
C 	 61.0474 	 5.00451 	 74.9679 	 
H 	 62.1282 	 4.44945 	 71.8972 	 
C 	 61.7061 	 6.72232 	 73.1757 	 
H 	 62.7967 	 6.87953 	 73.1109 	 
H 	 61.3719 	 7.38477 	 74.0337 	 
C 	 60.9314 	 7.10265 	 71.8634 	 
H 	 59.8802 	 7.05336 	 72.0111 	 
H 	 61.323 	 6.36299 	 71.184 	 
C 	 61.2975 	 8.54408 	 71.4972 	 
H 	 62.3318 	 8.44119 	 71.1554 	 
H 	 61.3475 	 9.29342 	 72.3402 	 
H 	 60.7383 	 8.94244 	 70.6465 	 
H 	 60.3502 	 6.75745 	 79.5847 	 
H 	 61.9206 	 2.13102 	 72.9442 	 
*
