! wB97X-D3 SP def2-SVP
%pal
nprocs 16
end

* xyz 0 1
S 	 -39.3026 	 57.384 	 102.544 	 
C 	 -40.9548 	 57.9573 	 102.753 	 
C 	 -41.8641 	 57.0124 	 102.351 	 
C 	 -41.1903 	 55.7667 	 102.063 	 
C 	 -39.9016 	 55.7222 	 102.408 	 
H 	 -41.736 	 54.8485 	 101.719 	 
C 	 -43.3531 	 57.1884 	 102.209 	 
H 	 -43.5325 	 56.8629 	 101.213 	 
H 	 -43.6465 	 58.2348 	 102.314 	 
C 	 -44.1165 	 56.1909 	 103.03 	 
H 	 -45.163 	 56.3543 	 102.759 	 
H 	 -43.9157 	 55.126 	 102.779 	 
C 	 -43.9599 	 56.3855 	 104.57 	 
H 	 -44.1462 	 57.3913 	 104.878 	 
H 	 -44.6801 	 55.7159 	 105.088 	 
H 	 -42.9634 	 56.1001 	 105.048 	 
S 	 -37.8686 	 54.623 	 100.806 	 
C 	 -37.0974 	 53.1517 	 101.257 	 
C 	 -37.7655 	 52.5667 	 102.302 	 
C 	 -38.9223 	 53.3366 	 102.759 	 
C 	 -38.9466 	 54.6077 	 102.207 	 
H 	 -37.4634 	 51.6334 	 102.69 	 
C 	 -39.7545 	 52.7222 	 103.891 	 
H 	 -39.757 	 51.6208 	 103.854 	 
H 	 -40.7708 	 53.0467 	 103.738 	 
C 	 -39.3031 	 53.2082 	 105.211 	 
H 	 -39.2941 	 54.3006 	 105.169 	 
H 	 -38.2748 	 52.9664 	 105.458 	 
C 	 -40.0023 	 52.5902 	 106.427 	 
H 	 -39.473 	 52.748 	 107.358 	 
H 	 -40.3527 	 51.5556 	 106.267 	 
H 	 -40.9501 	 53.0994 	 106.634 	 
H 	 -41.2544 	 58.9833 	 102.974 	 
H 	 -36.1563 	 52.6584 	 100.907 	 
*
