! wB97X-D3 SP def2-SVP
%pal
nprocs 16
end

* xyz 0 1
S 	 -23.6168 	 58.4941 	 112.532 	 
C 	 -22.9699 	 59.7452 	 111.53 	 
C 	 -23.8593 	 60.0751 	 110.532 	 
C 	 -25.0867 	 59.3732 	 110.727 	 
C 	 -25.0942 	 58.3941 	 111.702 	 
H 	 -25.9643 	 59.4032 	 110.147 	 
C 	 -23.6295 	 61.0165 	 109.343 	 
H 	 -22.7446 	 61.5573 	 109.579 	 
H 	 -24.433 	 61.7395 	 109.369 	 
C 	 -23.3581 	 60.4928 	 107.894 	 
H 	 -24.3006 	 60.1817 	 107.451 	 
H 	 -22.9886 	 61.2899 	 107.317 	 
C 	 -22.3016 	 59.3876 	 107.79 	 
H 	 -22.3007 	 59.1635 	 106.741 	 
H 	 -21.351 	 59.6767 	 108.199 	 
H 	 -22.7144 	 58.4846 	 108.226 	 
S 	 -25.4914 	 55.6637 	 111.554 	 
C 	 -26.9998 	 54.958 	 112.162 	 
C 	 -27.9564 	 55.9416 	 112.471 	 
C 	 -27.4046 	 57.257 	 112.257 	 
C 	 -26.0611 	 57.326 	 111.941 	 
H 	 -28.966 	 55.6666 	 112.726 	 
C 	 -28.3524 	 58.4522 	 112.447 	 
H 	 -27.8207 	 59.4299 	 112.672 	 
H 	 -28.9128 	 58.1705 	 113.362 	 
C 	 -29.491 	 58.6892 	 111.362 	 
H 	 -30.1585 	 59.4968 	 111.642 	 
H 	 -30.0168 	 57.7078 	 111.446 	 
C 	 -28.8803 	 59.0981 	 110.081 	 
H 	 -28.4704 	 60.0465 	 110.253 	 
H 	 -29.635 	 59.194 	 109.355 	 
H 	 -28.1153 	 58.3613 	 109.752 	 
H 	 -21.962 	 60.1052 	 111.545 	 
H 	 -27.1566 	 53.8975 	 112.115 	 
*
