! wB97X-D3 SP def2-SVP
%pal
nprocs 16
end

* xyz 0 1
S 	 66.7638 	 23.9889 	 72.2768 	 
C 	 66.5556 	 22.4786 	 73.0828 	 
C 	 67.417 	 22.319 	 74.1484 	 
C 	 68.3836 	 23.4122 	 74.2321 	 
C 	 68.2161 	 24.3294 	 73.1665 	 
H 	 69.1201 	 23.5314 	 74.995 	 
C 	 67.4204 	 21.1123 	 75.1223 	 
H 	 66.513 	 20.616 	 74.885 	 
H 	 67.2056 	 21.355 	 76.1908 	 
C 	 68.6859 	 20.2106 	 74.9403 	 
H 	 68.7462 	 19.9608 	 73.8347 	 
H 	 69.6304 	 20.6753 	 75.1734 	 
C 	 68.5098 	 18.8972 	 75.6933 	 
H 	 68.6088 	 19.1264 	 76.7858 	 
H 	 67.5276 	 18.4678 	 75.5194 	 
H 	 69.2388 	 18.1367 	 75.4073 	 
S 	 68.4395 	 27.0653 	 73.0438 	 
C 	 70.0077 	 27.8151 	 72.7412 	 
C 	 70.8626 	 26.7798 	 72.309 	 
C 	 70.3552 	 25.4503 	 72.3921 	 
C 	 69.0209 	 25.4822 	 72.8297 	 
H 	 71.8567 	 27.079 	 72.1228 	 
C 	 71.1334 	 24.2924 	 71.8669 	 
H 	 71.3751 	 24.3538 	 70.7955 	 
H 	 70.4392 	 23.4288 	 71.9396 	 
C 	 72.4163 	 23.8208 	 72.6283 	 
H 	 72.03 	 23.9618 	 73.6694 	 
H 	 73.2585 	 24.5181 	 72.5592 	 
C 	 72.8377 	 22.3137 	 72.3907 	 
H 	 73.7256 	 22.0177 	 72.9787 	 
H 	 73.2229 	 22.2405 	 71.4235 	 
H 	 72.0151 	 21.6003 	 72.5486 	 
H 	 65.8539 	 21.6396 	 72.8583 	 
H 	 70.214 	 28.8766 	 72.8244 	 
*
