! wB97X-D3 SP def2-SVP
%pal
nprocs 16
end

* xyz 0 1
S 	 52.8586 	 0.480708 	 80.7999 	 
C 	 51.3032 	 0.233266 	 81.5825 	 
C 	 51.4334 	 0.0376699 	 82.8996 	 
C 	 52.8304 	 0.0551401 	 83.2459 	 
C 	 53.733 	 0.217535 	 82.2593 	 
H 	 53.3328 	 0.0160226 	 84.3027 	 
C 	 50.319 	 -0.19998 	 83.9121 	 
H 	 50.8541 	 -0.531526 	 84.7946 	 
H 	 49.6244 	 -0.961522 	 83.4394 	 
C 	 49.449 	 0.987908 	 84.164 	 
H 	 50.0157 	 1.71447 	 84.6692 	 
H 	 49.0847 	 1.38864 	 83.2548 	 
C 	 48.1853 	 0.612979 	 84.9794 	 
H 	 47.5253 	 -0.0942574 	 84.4531 	 
H 	 48.4593 	 0.146509 	 85.8767 	 
H 	 47.5874 	 1.41964 	 85.304 	 
S 	 55.6871 	 -1.747 	 82.4547 	 
C 	 57.3387 	 -1.41611 	 82.1482 	 
C 	 57.527 	 -0.0920042 	 81.8939 	 
C 	 56.3367 	 0.668889 	 81.9827 	 
C 	 55.1898 	 -0.058901 	 82.381 	 
H 	 58.4646 	 0.281655 	 81.5532 	 
C 	 56.3184 	 2.16208 	 81.4946 	 
H 	 55.2537 	 2.43427 	 81.5358 	 
H 	 56.6916 	 2.26228 	 80.4619 	 
C 	 57.0365 	 3.19325 	 82.3517 	 
H 	 58.0331 	 2.97371 	 82.2013 	 
H 	 56.7296 	 3.11994 	 83.4009 	 
C 	 56.7936 	 4.65523 	 82.051 	 
H 	 57.3126 	 5.40126 	 82.5883 	 
H 	 55.6662 	 4.77737 	 81.9412 	 
H 	 57.0007 	 4.81902 	 81.0144 	 
H 	 50.3695 	 0.358696 	 81.0717 	 
H 	 58.0849 	 -2.29982 	 82.1838 	 
*
