! wB97X-D3 SP def2-SVP
%pal
nprocs 16
end

* xyz 0 1
S 	 44.4738 	 10.5709 	 53.1689 	 
C 	 43.6869 	 9.37654 	 52.164 	 
C 	 44.6852 	 8.555 	 51.5921 	 
C 	 46.0234 	 8.93318 	 51.9419 	 
C 	 46.0731 	 9.95862 	 52.8867 	 
H 	 46.9862 	 8.57009 	 51.5471 	 
C 	 44.4552 	 7.27086 	 50.7381 	 
H 	 43.5304 	 7.26513 	 50.2388 	 
H 	 44.5015 	 6.50993 	 51.4684 	 
C 	 45.4455 	 6.86375 	 49.7317 	 
H 	 46.3487 	 6.57401 	 50.2217 	 
H 	 45.0657 	 6.00737 	 49.2542 	 
C 	 45.648 	 8.02554 	 48.708 	 
H 	 45.9649 	 8.89029 	 49.2593 	 
H 	 46.372 	 7.83285 	 47.9592 	 
H 	 44.6123 	 8.2793 	 48.3262 	 
S 	 48.5037 	 9.79972 	 54.2905 	 
C 	 49.4121 	 11.2468 	 54.6347 	 
C 	 48.8532 	 12.357 	 54.0443 	 
C 	 47.6457 	 12.0582 	 53.3319 	 
C 	 47.2945 	 10.7111 	 53.3834 	 
H 	 49.3444 	 13.3291 	 54.157 	 
C 	 46.832 	 13.1288 	 52.6995 	 
H 	 47.0785 	 14.0132 	 53.2531 	 
H 	 45.8758 	 12.9778 	 52.9232 	 
C 	 47.1251 	 13.2615 	 51.209 	 
H 	 47.1087 	 12.2284 	 50.8187 	 
H 	 48.0324 	 13.8167 	 51.0604 	 
C 	 46.0079 	 14.0173 	 50.4816 	 
H 	 46.2819 	 14.3168 	 49.5092 	 
H 	 45.8392 	 14.9505 	 50.979 	 
H 	 45.1351 	 13.3709 	 50.3494 	 
H 	 42.623 	 9.14878 	 52.1428 	 
H 	 50.3288 	 11.1445 	 55.169 	 
*
