! wB97X-D3 SP def2-SVP
%pal
nprocs 16
end

* xyz 0 1
S 	 -6.86838 	 -16.5734 	 80.132 	 
C 	 -6.29303 	 -16.9433 	 81.7042 	 
C 	 -5.81517 	 -15.7928 	 82.2953 	 
C 	 -5.78593 	 -14.6577 	 81.4626 	 
C 	 -6.45913 	 -14.8837 	 80.2751 	 
H 	 -5.39329 	 -13.6711 	 81.6458 	 
C 	 -5.29979 	 -15.6505 	 83.6821 	 
H 	 -4.43698 	 -15.0293 	 83.5403 	 
H 	 -4.83235 	 -16.5558 	 84.0462 	 
C 	 -6.26246 	 -14.945 	 84.6387 	 
H 	 -6.77832 	 -14.0201 	 84.3557 	 
H 	 -7.07232 	 -15.6555 	 84.6171 	 
C 	 -5.80723 	 -14.6935 	 86.054 	 
H 	 -5.34569 	 -15.5143 	 86.5605 	 
H 	 -4.99706 	 -13.9686 	 86.098 	 
H 	 -6.68951 	 -14.4581 	 86.7809 	 
S 	 -5.99755 	 -12.6357 	 78.7646 	 
C 	 -7.22239 	 -11.8846 	 77.8115 	 
C 	 -8.45475 	 -12.5527 	 78.0393 	 
C 	 -8.36585 	 -13.7286 	 78.8481 	 
C 	 -7.02787 	 -13.9041 	 79.3402 	 
H 	 -9.37333 	 -12.2549 	 77.4828 	 
C 	 -9.59966 	 -14.5264 	 79.1404 	 
H 	 -9.28806 	 -15.5272 	 79.5278 	 
H 	 -10.2003 	 -14.7557 	 78.2736 	 
C 	 -10.6565 	 -13.9199 	 80.0686 	 
H 	 -11.6229 	 -14.4812 	 80.14 	 
H 	 -10.9655 	 -12.9681 	 79.6975 	 
C 	 -10.2224 	 -13.7642 	 81.5174 	 
H 	 -10.9333 	 -13.2083 	 82.1197 	 
H 	 -9.29121 	 -13.251 	 81.6817 	 
H 	 -10.147 	 -14.7966 	 81.9452 	 
H 	 -6.56373 	 -17.9008 	 82.2264 	 
H 	 -6.99771 	 -10.9868 	 77.2165 	 
*
