! wB97X-D3 SP def2-SVP
%pal
nprocs 16
end

* xyz 0 1
S 	 -31.6475 	 72.2429 	 153.55 	 
C 	 -30.0707 	 72.6251 	 152.831 	 
C 	 -30.0391 	 71.9912 	 151.562 	 
C 	 -31.2542 	 71.3485 	 151.164 	 
C 	 -32.2073 	 71.4019 	 152.161 	 
H 	 -31.5798 	 70.962 	 150.242 	 
C 	 -28.8134 	 72.0923 	 150.606 	 
H 	 -28.6385 	 71.1499 	 150.029 	 
H 	 -27.8464 	 72.1793 	 151.205 	 
C 	 -28.9093 	 73.2763 	 149.585 	 
H 	 -29.841 	 73.4482 	 149.202 	 
H 	 -28.7632 	 74.0995 	 150.309 	 
C 	 -27.8579 	 73.4281 	 148.51 	 
H 	 -27.9561 	 74.373 	 147.876 	 
H 	 -26.8852 	 73.5182 	 148.907 	 
H 	 -27.6995 	 72.5528 	 147.881 	 
S 	 -34.7701 	 71.4784 	 151.09 	 
C 	 -35.9255 	 70.3047 	 151.585 	 
C 	 -35.449 	 69.5431 	 152.659 	 
C 	 -34.0806 	 69.8628 	 153.018 	 
C 	 -33.5661 	 70.8653 	 152.2 	 
H 	 -36.0876 	 68.9008 	 153.212 	 
C 	 -33.3831 	 69.0717 	 154.105 	 
H 	 -32.395 	 69.404 	 154.478 	 
H 	 -33.1464 	 68.1124 	 153.583 	 
C 	 -34.3097 	 68.8339 	 155.286 	 
H 	 -35.0447 	 68.0652 	 155.076 	 
H 	 -34.7236 	 69.8474 	 155.524 	 
C 	 -33.5292 	 68.3061 	 156.554 	 
H 	 -34.2095 	 68.2638 	 157.419 	 
H 	 -32.6948 	 68.9674 	 156.801 	 
H 	 -33.1922 	 67.3062 	 156.235 	 
H 	 -29.3949 	 73.4084 	 153.142 	 
H 	 -36.8828 	 70.2212 	 151.125 	 
*
