! wB97X-D3 SP def2-SVP
%pal
nprocs 16
end

* xyz 0 1
S 	 -13.7661 	 38.8911 	 32.7666 	 
C 	 -14.5054 	 37.5335 	 33.8586 	 
C 	 -14.3606 	 36.3012 	 33.2721 	 
C 	 -13.917 	 36.4171 	 31.9209 	 
C 	 -13.7054 	 37.6665 	 31.4679 	 
H 	 -13.7978 	 35.5288 	 31.3481 	 
C 	 -14.4096 	 34.9707 	 33.9575 	 
H 	 -14.0064 	 34.9811 	 34.9549 	 
H 	 -13.7029 	 34.376 	 33.4564 	 
C 	 -15.7169 	 34.1719 	 33.9468 	 
H 	 -16.0877 	 34.1323 	 32.8245 	 
H 	 -15.514 	 33.1849 	 34.4002 	 
C 	 -16.7982 	 34.6897 	 34.8232 	 
H 	 -17.1246 	 35.6919 	 34.5949 	 
H 	 -17.6269 	 34.0126 	 34.9248 	 
H 	 -16.4962 	 34.7502 	 35.8923 	 
S 	 -11.3584 	 38.1745 	 30.1052 	 
C 	 -11.2875 	 38.5503 	 28.4245 	 
C 	 -12.5623 	 38.3061 	 27.8755 	 
C 	 -13.578 	 37.8518 	 28.8694 	 
C 	 -13.0982 	 37.8765 	 30.1718 	 
H 	 -12.7186 	 38.4759 	 26.8294 	 
C 	 -15.013 	 37.6637 	 28.4818 	 
H 	 -15.3156 	 36.7937 	 29.0313 	 
H 	 -15.0034 	 37.5515 	 27.3465 	 
C 	 -15.8467 	 38.8412 	 28.9786 	 
H 	 -15.524 	 39.8187 	 28.5895 	 
H 	 -15.5924 	 38.8406 	 30.0072 	 
C 	 -17.3605 	 38.7058 	 28.7567 	 
H 	 -17.7088 	 37.902 	 29.3568 	 
H 	 -17.5124 	 38.5415 	 27.7131 	 
H 	 -17.9978 	 39.6003 	 29.1025 	 
H 	 -14.9031 	 37.7291 	 34.8336 	 
H 	 -10.3902 	 38.9243 	 27.9325 	 
*
