! wB97X-D3 SP def2-SVP
%pal
nprocs 16
end

* xyz 0 1
S 	 -9.63017 	 72.1695 	 48.4034 	 
C 	 -9.87044 	 71.6943 	 46.7674 	 
C 	 -11.1907 	 71.5631 	 46.4227 	 
C 	 -12.041 	 71.9204 	 47.5178 	 
C 	 -11.4088 	 72.4679 	 48.6347 	 
H 	 -13.1508 	 71.9498 	 47.4433 	 
C 	 -11.8305 	 71.1101 	 45.1159 	 
H 	 -11.5631 	 71.7602 	 44.2712 	 
H 	 -12.9392 	 71.2785 	 45.2457 	 
C 	 -11.5887 	 69.6366 	 44.7241 	 
H 	 -10.552 	 69.4764 	 44.5769 	 
H 	 -11.9832 	 68.9233 	 45.5249 	 
C 	 -12.2812 	 69.1519 	 43.478 	 
H 	 -12.2288 	 69.8409 	 42.6196 	 
H 	 -11.942 	 68.1625 	 43.0785 	 
H 	 -13.3116 	 68.9126 	 43.7702 	 
S 	 -12.5652 	 71.6162 	 50.9601 	 
C 	 -13.2766 	 72.7077 	 52.1636 	 
C 	 -13.0126 	 74.0046 	 51.7011 	 
C 	 -12.3061 	 74.0921 	 50.4564 	 
C 	 -12.0416 	 72.8687 	 49.9004 	 
H 	 -13.4288 	 74.83 	 52.2967 	 
C 	 -11.8663 	 75.4029 	 49.8035 	 
H 	 -10.9881 	 75.1595 	 49.2181 	 
H 	 -11.4263 	 76.2216 	 50.4919 	 
C 	 -12.8348 	 76.0155 	 48.8073 	 
H 	 -13.6865 	 76.3099 	 49.4028 	 
H 	 -13.1684 	 75.3806 	 48.0188 	 
C 	 -12.4484 	 77.3655 	 48.1902 	 
H 	 -13.3 	 77.8907 	 47.7786 	 
H 	 -11.8064 	 77.1624 	 47.3057 	 
H 	 -12.0539 	 77.9459 	 48.9899 	 
H 	 -9.11062 	 71.3921 	 46.0703 	 
H 	 -13.7067 	 72.4179 	 53.0728 	 
*
