! wB97X-D3 SP def2-SVP
%pal
nprocs 16
end

* xyz 0 1
S 	 -31.9796 	 75.5748 	 164.245 	 
C 	 -30.9749 	 75.2376 	 162.876 	 
C 	 -31.3149 	 75.9959 	 161.754 	 
C 	 -32.4536 	 76.8791 	 162.053 	 
C 	 -33.0528 	 76.5948 	 163.286 	 
H 	 -32.959 	 77.5113 	 161.367 	 
C 	 -30.5239 	 76.0835 	 160.459 	 
H 	 -31.042 	 75.6145 	 159.687 	 
H 	 -29.5982 	 75.5351 	 160.662 	 
C 	 -30.0756 	 77.4704 	 160.011 	 
H 	 -30.9399 	 78.1888 	 159.862 	 
H 	 -29.5483 	 78.0198 	 160.826 	 
C 	 -29.1038 	 77.2843 	 158.877 	 
H 	 -28.4066 	 76.5062 	 159.162 	 
H 	 -29.5635 	 76.9876 	 157.965 	 
H 	 -28.5149 	 78.1709 	 158.635 	 
S 	 -34.3638 	 77.6408 	 165.415 	 
C 	 -36.0899 	 77.7963 	 165.42 	 
C 	 -36.6421 	 77.4828 	 164.237 	 
C 	 -35.644 	 77.0332 	 163.283 	 
C 	 -34.368 	 76.9594 	 163.808 	 
H 	 -37.735 	 77.6193 	 164.089 	 
C 	 -35.9181 	 76.579 	 161.847 	 
H 	 -35.0456 	 76.3387 	 161.232 	 
H 	 -36.1321 	 77.4577 	 161.298 	 
C 	 -36.9277 	 75.4334 	 161.711 	 
H 	 -37.1839 	 75.4727 	 160.704 	 
H 	 -37.8358 	 75.6955 	 162.207 	 
C 	 -36.5317 	 74.0475 	 162.325 	 
H 	 -37.1668 	 73.2401 	 161.928 	 
H 	 -36.4953 	 74.0126 	 163.447 	 
H 	 -35.5439 	 73.894 	 161.924 	 
H 	 -30.104 	 74.5849 	 163.028 	 
H 	 -36.7639 	 77.8868 	 166.278 	 
*
