! wB97X-D3 SP def2-SVP
%pal
nprocs 16
end

* xyz 0 1
S 	 -35.6938 	 33.0197 	 44.4466 	 
C 	 -35.3443 	 32.432 	 46.0493 	 
C 	 -34.2973 	 33.1008 	 46.6829 	 
C 	 -33.5786 	 33.9836 	 45.7722 	 
C 	 -34.2485 	 34.069 	 44.5669 	 
H 	 -32.8125 	 34.6868 	 45.9971 	 
C 	 -33.8325 	 32.8788 	 48.1231 	 
H 	 -34.1914 	 31.8994 	 48.4585 	 
H 	 -34.3965 	 33.6092 	 48.7294 	 
C 	 -32.3132 	 32.9772 	 48.4328 	 
H 	 -31.7884 	 33.7904 	 47.9514 	 
H 	 -32.2736 	 33.1087 	 49.5424 	 
C 	 -31.4489 	 31.7823 	 48.1709 	 
H 	 -31.8281 	 30.8848 	 48.6595 	 
H 	 -31.4931 	 31.612 	 47.1268 	 
H 	 -30.4592 	 31.896 	 48.5705 	 
S 	 -34.9835 	 36.5171 	 43.4711 	 
C 	 -34.1875 	 37.0199 	 41.9975 	 
C 	 -33.2176 	 36.1898 	 41.6714 	 
C 	 -33.0179 	 35.125 	 42.5645 	 
C 	 -33.983 	 35.0614 	 43.5676 	 
H 	 -32.6625 	 36.3844 	 40.7818 	 
C 	 -31.8048 	 34.1993 	 42.3758 	 
H 	 -31.6563 	 34.1154 	 41.316 	 
H 	 -32.0168 	 33.1536 	 42.7352 	 
C 	 -30.5234 	 34.6484 	 43.0165 	 
H 	 -30.4256 	 35.7341 	 43.0358 	 
H 	 -29.6893 	 34.3024 	 42.4207 	 
C 	 -30.3505 	 34.3001 	 44.4597 	 
H 	 -30.9448 	 34.8967 	 45.0985 	 
H 	 -29.3442 	 34.6513 	 44.6769 	 
H 	 -30.4737 	 33.251 	 44.8182 	 
H 	 -36.0081 	 31.7129 	 46.5988 	 
H 	 -34.5057 	 37.9422 	 41.5014 	 
*
