! wB97X-D3 SP def2-SVP
%pal
nprocs 16
end

* xyz 0 1
S 	 67.889 	 24.2626 	 72.1774 	 
C 	 68.238 	 23.0316 	 73.4431 	 
C 	 69.2766 	 23.4475 	 74.3248 	 
C 	 69.846 	 24.6953 	 73.8446 	 
C 	 69.1199 	 25.2985 	 72.834 	 
H 	 70.6824 	 25.2075 	 74.42 	 
C 	 69.9681 	 22.6384 	 75.3662 	 
H 	 69.4958 	 21.7332 	 75.5844 	 
H 	 70.0513 	 23.1527 	 76.3218 	 
C 	 71.3552 	 22.0986 	 74.996 	 
H 	 71.3181 	 21.2984 	 74.2242 	 
H 	 72.065 	 22.8758 	 74.6536 	 
C 	 72.0607 	 21.4861 	 76.1823 	 
H 	 71.3707 	 20.7544 	 76.557 	 
H 	 73.0032 	 20.8793 	 75.9653 	 
H 	 72.2555 	 22.25 	 77.0155 	 
S 	 69.775 	 26.7702 	 70.5941 	 
C 	 70.2361 	 28.4582 	 70.758 	 
C 	 69.9903 	 28.9223 	 72.0292 	 
C 	 69.5323 	 27.9162 	 72.9721 	 
C 	 69.3815 	 26.6487 	 72.3109 	 
H 	 70.2456 	 29.9308 	 72.2442 	 
C 	 69.1577 	 28.1922 	 74.4084 	 
H 	 70.096 	 28.2474 	 74.9923 	 
H 	 68.7394 	 27.3633 	 74.8414 	 
C 	 68.3123 	 29.4653 	 74.6447 	 
H 	 67.4097 	 29.4269 	 73.9759 	 
H 	 68.8493 	 30.3537 	 74.3014 	 
C 	 67.7924 	 29.6013 	 76.1169 	 
H 	 66.7781 	 29.1708 	 76.288 	 
H 	 67.6836 	 30.6576 	 76.4072 	 
H 	 68.4288 	 29.1704 	 76.8784 	 
H 	 67.6064 	 22.0937 	 73.4882 	 
H 	 70.6343 	 29.0207 	 69.9931 	 
*
