! wB97X-D3 SP def2-SVP
%pal
nprocs 16
end

* xyz 0 1
S 	 -8.63025 	 50.4803 	 43.7684 	 
C 	 -10.3366 	 50.2664 	 43.9584 	 
C 	 -10.7923 	 49.2008 	 43.2709 	 
C 	 -9.73266 	 48.4249 	 42.6417 	 
C 	 -8.45801 	 48.9548 	 42.8423 	 
H 	 -9.72618 	 47.5176 	 42.0246 	 
C 	 -12.2182 	 48.8024 	 43.1117 	 
H 	 -12.5749 	 49.1269 	 42.0988 	 
H 	 -12.885 	 49.4943 	 43.682 	 
C 	 -12.5898 	 47.3901 	 43.633 	 
H 	 -13.6725 	 47.4268 	 43.465 	 
H 	 -12.1539 	 46.6111 	 43.0254 	 
C 	 -12.3127 	 47.3003 	 45.1325 	 
H 	 -12.7381 	 46.4158 	 45.5875 	 
H 	 -11.2273 	 47.2985 	 45.1853 	 
H 	 -12.7511 	 48.2257 	 45.6777 	 
S 	 -6.1395 	 49.6957 	 41.6038 	 
C 	 -4.89306 	 48.5404 	 41.1259 	 
C 	 -5.20849 	 47.2348 	 41.6342 	 
C 	 -6.49963 	 47.2503 	 42.3217 	 
C 	 -7.21851 	 48.4602 	 42.2873 	 
H 	 -4.58248 	 46.3953 	 41.2812 	 
C 	 -7.03647 	 45.9892 	 42.8465 	 
H 	 -8.04096 	 46.0052 	 42.4158 	 
H 	 -7.21757 	 46.0112 	 43.931 	 
C 	 -6.26388 	 44.7332 	 42.6674 	 
H 	 -5.44355 	 44.5806 	 43.3638 	 
H 	 -6.06994 	 44.7351 	 41.6159 	 
C 	 -7.23697 	 43.5733 	 42.9696 	 
H 	 -8.07172 	 43.65 	 42.3173 	 
H 	 -7.53458 	 43.6818 	 43.9327 	 
H 	 -6.78631 	 42.5279 	 42.8487 	 
H 	 -10.8946 	 50.8586 	 44.6675 	 
H 	 -4.05255 	 48.8024 	 40.5666 	 
*
