! wB97X-D3 SP def2-SVP
%pal
nprocs 16
end

* xyz 0 1
S 	 -68.0696 	 52.6977 	 122.649 	 
C 	 -67.7824 	 52.3085 	 124.289 	 
C 	 -68.9821 	 52.2257 	 125.019 	 
C 	 -70.1016 	 52.5307 	 124.211 	 
C 	 -69.8262 	 52.6378 	 122.857 	 
H 	 -71.0596 	 52.5773 	 124.556 	 
C 	 -69.0447 	 51.9303 	 126.461 	 
H 	 -68.9581 	 52.987 	 126.928 	 
H 	 -68.2504 	 51.2621 	 126.705 	 
C 	 -70.2511 	 51.2872 	 127.18 	 
H 	 -71.0291 	 52.0538 	 127.218 	 
H 	 -70.8121 	 50.4379 	 126.757 	 
C 	 -69.8642 	 50.9165 	 128.562 	 
H 	 -68.9762 	 50.3778 	 128.568 	 
H 	 -69.7665 	 51.7934 	 129.23 	 
H 	 -70.6204 	 50.2495 	 128.982 	 
S 	 -70.1983 	 54.0345 	 120.504 	 
C 	 -71.6234 	 53.8306 	 119.607 	 
C 	 -72.5494 	 53.0181 	 120.215 	 
C 	 -72.0093 	 52.5333 	 121.484 	 
C 	 -70.7242 	 52.8758 	 121.687 	 
H 	 -73.59 	 52.8487 	 119.759 	 
C 	 -72.8222 	 51.6121 	 122.343 	 
H 	 -73.3453 	 52.1716 	 123.097 	 
H 	 -72.1718 	 50.9503 	 122.875 	 
C 	 -73.8985 	 50.7929 	 121.64 	 
H 	 -73.4412 	 50.1017 	 120.914 	 
H 	 -74.5745 	 51.4869 	 121.187 	 
C 	 -74.7611 	 49.9302 	 122.576 	 
H 	 -75.7962 	 50.0665 	 122.244 	 
H 	 -74.7305 	 50.2763 	 123.634 	 
H 	 -74.5137 	 48.8923 	 122.6 	 
H 	 -66.7847 	 52.079 	 124.613 	 
H 	 -71.8037 	 54.2528 	 118.617 	 
*
