! wB97X-D3 SP def2-SVP
%pal
nprocs 16
end

* xyz 0 1
S 	 43.4376 	 13.1691 	 88.8004 	 
C 	 42.8303 	 13.8308 	 87.2957 	 
C 	 42.0271 	 12.9162 	 86.6232 	 
C 	 41.8571 	 11.7411 	 87.4256 	 
C 	 42.5235 	 11.7373 	 88.5997 	 
H 	 41.1933 	 10.9361 	 87.1371 	 
C 	 41.4282 	 13.1269 	 85.2805 	 
H 	 40.8004 	 14.0564 	 85.2218 	 
H 	 40.6986 	 12.2763 	 85.2578 	 
C 	 42.2714 	 13.1541 	 83.9963 	 
H 	 42.7623 	 12.1885 	 83.7625 	 
H 	 41.6104 	 13.3585 	 83.138 	 
C 	 43.2775 	 14.312 	 83.7578 	 
H 	 44.1254 	 14.4397 	 84.4178 	 
H 	 43.6495 	 14.2638 	 82.7061 	 
H 	 42.7732 	 15.2943 	 83.8268 	 
S 	 41.568 	 11.0485 	 90.9643 	 
C 	 42.0313 	 9.56176 	 91.7308 	 
C 	 43.0498 	 8.94735 	 91.0636 	 
C 	 43.4452 	 9.6191 	 89.8166 	 
C 	 42.5887 	 10.6874 	 89.6173 	 
H 	 43.4763 	 8.10397 	 91.4654 	 
C 	 44.6668 	 9.23948 	 89.0141 	 
H 	 45.3751 	 8.72839 	 89.6336 	 
H 	 45.0132 	 10.151 	 88.5741 	 
C 	 44.3361 	 8.41813 	 87.7478 	 
H 	 43.5232 	 8.78635 	 87.1648 	 
H 	 43.965 	 7.4522 	 88.084 	 
C 	 45.6187 	 8.28935 	 86.8195 	 
H 	 45.5277 	 7.72187 	 85.932 	 
H 	 46.374 	 7.6957 	 87.32 	 
H 	 46.0365 	 9.23797 	 86.508 	 
H 	 43.0729 	 14.8217 	 86.8851 	 
H 	 41.7896 	 9.08209 	 92.68 	 
*
