! wB97X-D3 SP def2-SVP
%pal
nprocs 16
end

* xyz 0 1
S 	 4.35804 	 -13.6404 	 63.0523 	 
C 	 5.6096 	 -13.2768 	 64.1681 	 
C 	 5.69469 	 -11.9235 	 64.3636 	 
C 	 4.71088 	 -11.1804 	 63.6473 	 
C 	 3.91536 	 -11.9973 	 62.869 	 
H 	 4.70789 	 -10.1085 	 63.5379 	 
C 	 6.6339 	 -11.2766 	 65.3745 	 
H 	 7.09279 	 -10.4496 	 64.8608 	 
H 	 7.43739 	 -11.9632 	 65.5468 	 
C 	 6.12157 	 -11.1333 	 66.8135 	 
H 	 5.78652 	 -12.1217 	 67.1686 	 
H 	 6.9767 	 -11.012 	 67.4373 	 
C 	 5.16182 	 -9.90875 	 66.9698 	 
H 	 4.85192 	 -9.80139 	 68.0216 	 
H 	 5.67027 	 -8.99515 	 66.6779 	 
H 	 4.32109 	 -9.97588 	 66.2511 	 
S 	 3.80296 	 -10.4819 	 60.6199 	 
C 	 2.36662 	 -10.4588 	 59.6838 	 
C 	 1.40852 	 -11.355 	 60.1401 	 
C 	 1.78976 	 -11.9651 	 61.3848 	 
C 	 3.06715 	 -11.5439 	 61.7808 	 
H 	 0.507395 	 -11.4596 	 59.6332 	 
C 	 0.82086 	 -12.8202 	 62.2096 	 
H 	 -0.0186595 	 -12.279 	 62.4261 	 
H 	 1.25079 	 -13.1831 	 63.1041 	 
C 	 0.26923 	 -14.0745 	 61.5383 	 
H 	 1.21412 	 -14.6845 	 61.303 	 
H 	 -0.311272 	 -13.898 	 60.6634 	 
C 	 -0.673961 	 -14.9306 	 62.5409 	 
H 	 -0.883455 	 -15.9522 	 62.148 	 
H 	 -1.58785 	 -14.4541 	 62.8092 	 
H 	 -0.130862 	 -15.1593 	 63.4964 	 
H 	 6.28385 	 -14.0288 	 64.6306 	 
H 	 2.02326 	 -9.69412 	 59.0079 	 
*
