! wB97X-D3 SP def2-SVP
%pal
nprocs 16
end

* xyz 0 1
S 	 -2.92059 	 77.7004 	 50.8645 	 
C 	 -1.51276 	 78.6766 	 50.975 	 
C 	 -0.924634 	 78.6307 	 52.2816 	 
C 	 -1.7133 	 77.804 	 53.1447 	 
C 	 -2.87259 	 77.3262 	 52.6183 	 
H 	 -1.47073 	 77.5381 	 54.1664 	 
C 	 0.248933 	 79.4396 	 52.6198 	 
H 	 0.0257741 	 79.9844 	 53.5021 	 
H 	 0.394656 	 80.193 	 51.8503 	 
C 	 1.47399 	 78.5376 	 52.7064 	 
H 	 2.43693 	 79.1018 	 52.8022 	 
H 	 1.45555 	 77.9692 	 53.5823 	 
C 	 1.75649 	 77.6233 	 51.5424 	 
H 	 2.62352 	 77.05 	 51.766 	 
H 	 0.878793 	 76.9398 	 51.3393 	 
H 	 2.13892 	 78.2661 	 50.7296 	 
S 	 -5.32809 	 77.1681 	 53.8393 	 
C 	 -5.81885 	 75.7481 	 54.6218 	 
C 	 -4.84823 	 74.7741 	 54.461 	 
C 	 -3.73137 	 75.1249 	 53.6888 	 
C 	 -3.81169 	 76.4274 	 53.2739 	 
H 	 -4.99113 	 73.798 	 54.9067 	 
C 	 -2.53699 	 74.1432 	 53.4797 	 
H 	 -1.87866 	 74.6356 	 52.7855 	 
H 	 -2.81404 	 73.2447 	 53.0271 	 
C 	 -1.73467 	 73.7155 	 54.7083 	 
H 	 -1.0762 	 72.8638 	 54.5694 	 
H 	 -2.44089 	 73.3401 	 55.5294 	 
C 	 -0.953267 	 74.8131 	 55.4424 	 
H 	 -0.673078 	 74.4745 	 56.397 	 
H 	 -1.55101 	 75.6591 	 55.7125 	 
H 	 0.0505091 	 74.994 	 54.9483 	 
H 	 -1.04465 	 79.1206 	 50.1315 	 
H 	 -6.80565 	 75.6029 	 55.0143 	 
*
