! wB97X-D3 SP def2-SVP
%pal
nprocs 16
end

* xyz 0 1
S 	 14.0355 	 -13.1485 	 80.0694 	 
C 	 15.0513 	 -12.6761 	 78.6519 	 
C 	 14.7523 	 -13.479 	 77.6385 	 
C 	 13.6631 	 -14.4116 	 77.8564 	 
C 	 13.0556 	 -14.2785 	 79.1041 	 
H 	 13.3618 	 -15.238 	 77.2525 	 
C 	 15.468 	 -13.5454 	 76.2875 	 
H 	 15.301 	 -14.5374 	 75.8828 	 
H 	 16.504 	 -13.3537 	 76.4559 	 
C 	 14.9458 	 -12.6233 	 75.1988 	 
H 	 13.817 	 -12.5174 	 75.2538 	 
H 	 15.2699 	 -11.6259 	 75.4678 	 
C 	 15.4743 	 -12.9985 	 73.7271 	 
H 	 16.5472 	 -12.9259 	 73.6124 	 
H 	 15.086 	 -13.971 	 73.5368 	 
H 	 14.9663 	 -12.3272 	 73.0291 	 
S 	 12.355 	 -15.7701 	 81.3506 	 
C 	 10.7911 	 -16.425 	 81.5139 	 
C 	 10.1655 	 -16.4355 	 80.3169 	 
C 	 10.8142 	 -15.6368 	 79.3227 	 
C 	 12.0016 	 -15.1187 	 79.7059 	 
H 	 9.22242 	 -16.991 	 80.076 	 
C 	 10.2305 	 -15.4289 	 77.8937 	 
H 	 10.767 	 -14.517 	 77.5628 	 
H 	 9.15277 	 -15.1941 	 78.0508 	 
C 	 10.5527 	 -16.4665 	 76.8318 	 
H 	 10.0984 	 -17.4283 	 77.1027 	 
H 	 11.6052 	 -16.6633 	 76.8349 	 
C 	 10.1984 	 -16.0153 	 75.4506 	 
H 	 9.10366 	 -15.9684 	 75.3035 	 
H 	 10.5421 	 -16.7842 	 74.7916 	 
H 	 10.502 	 -15.0564 	 75.2376 	 
H 	 15.9381 	 -12.0061 	 78.7261 	 
H 	 10.3666 	 -16.8475 	 82.4331 	 
*
