! wB97X-D3 SP def2-SVP
%pal
nprocs 16
end

* xyz 0 1
S 	 -66.2453 	 53.9758 	 131.693 	 
C 	 -66.2899 	 55.3926 	 132.751 	 
C 	 -67.3169 	 55.2248 	 133.725 	 
C 	 -67.9722 	 53.9598 	 133.512 	 
C 	 -67.5366 	 53.162 	 132.505 	 
H 	 -68.7576 	 53.6218 	 134.117 	 
C 	 -67.5578 	 56.1192 	 134.938 	 
H 	 -66.5615 	 56.3568 	 135.13 	 
H 	 -67.8894 	 55.4959 	 135.738 	 
C 	 -68.3446 	 57.4062 	 134.907 	 
H 	 -67.7146 	 58.1646 	 134.454 	 
H 	 -69.3309 	 57.2295 	 134.387 	 
C 	 -68.8736 	 57.8087 	 136.295 	 
H 	 -69.0655 	 58.8564 	 136.376 	 
H 	 -69.7828 	 57.227 	 136.638 	 
H 	 -68.1251 	 57.7361 	 137.077 	 
S 	 -66.7496 	 50.6098 	 131.912 	 
C 	 -68.0465 	 49.4913 	 131.33 	 
C 	 -69.3089 	 49.9704 	 131.693 	 
C 	 -69.3141 	 51.3304 	 132.174 	 
C 	 -68.0108 	 51.8176 	 132.174 	 
H 	 -70.2065 	 49.425 	 131.577 	 
C 	 -70.6468 	 52.1628 	 132.207 	 
H 	 -70.9512 	 52.017 	 131.152 	 
H 	 -70.5853 	 53.2314 	 132.304 	 
C 	 -71.7643 	 51.7649 	 133.171 	 
H 	 -71.343 	 51.4017 	 134.124 	 
H 	 -72.4304 	 51.0248 	 132.884 	 
C 	 -72.7421 	 52.9796 	 133.427 	 
H 	 -73.3841 	 52.5422 	 134.226 	 
H 	 -73.4387 	 53.2892 	 132.613 	 
H 	 -72.2613 	 53.8479 	 133.812 	 
H 	 -65.6763 	 56.2244 	 132.642 	 
H 	 -67.8374 	 48.4908 	 130.905 	 
*
