! wB97X-D3 SP def2-SVP
%pal
nprocs 16
end

* xyz 0 1
S 	 -4.71294 	 6.81661 	 82.1017 	 
C 	 -6.38647 	 6.5715 	 82.4742 	 
C 	 -7.03336 	 7.82612 	 82.5214 	 
C 	 -6.11414 	 8.88322 	 82.6338 	 
C 	 -4.84865 	 8.58233 	 82.2124 	 
H 	 -6.48465 	 9.85976 	 82.8839 	 
C 	 -8.5188 	 8.0807 	 82.6904 	 
H 	 -8.60138 	 8.69991 	 83.5537 	 
H 	 -9.1216 	 7.15159 	 82.7876 	 
C 	 -9.22174 	 8.8289 	 81.528 	 
H 	 -10.1845 	 9.09308 	 81.9021 	 
H 	 -8.73404 	 9.78135 	 81.4611 	 
C 	 -9.1604 	 8.07355 	 80.1556 	 
H 	 -8.17388 	 7.57184 	 80.0104 	 
H 	 -9.86344 	 7.25273 	 80.0645 	 
H 	 -9.41619 	 8.75925 	 79.308 	 
S 	 -2.90834 	 8.92599 	 80.3657 	 
C 	 -1.79723 	 10.2012 	 80.571 	 
C 	 -2.27291 	 11.2071 	 81.4879 	 
C 	 -3.31608 	 10.6641 	 82.3285 	 
C 	 -3.77644 	 9.43899 	 81.8239 	 
H 	 -1.66549 	 12.0687 	 81.6761 	 
C 	 -3.91274 	 11.4756 	 83.4636 	 
H 	 -3.13119 	 11.7389 	 84.2023 	 
H 	 -4.57258 	 10.8282 	 84.0614 	 
C 	 -4.67858 	 12.7331 	 83.1278 	 
H 	 -5.58555 	 12.4655 	 82.5745 	 
H 	 -4.00776 	 13.3372 	 82.4336 	 
C 	 -5.12742 	 13.5557 	 84.4283 	 
H 	 -4.20165 	 13.8943 	 84.9122 	 
H 	 -5.56682 	 12.8471 	 85.1689 	 
H 	 -5.7916 	 14.4099 	 84.2521 	 
H 	 -6.87548 	 5.62304 	 82.648 	 
H 	 -1.0086 	 10.2721 	 79.8181 	 
*
