! wB97X-D3 SP def2-SVP
%pal
nprocs 16
end

* xyz 0 1
S 	 -107.815 	 42.7981 	 127.964 	 
C 	 -107.345 	 42.9891 	 129.656 	 
C 	 -106.427 	 44.0299 	 129.711 	 
C 	 -106.373 	 44.7883 	 128.492 	 
C 	 -107.157 	 44.3249 	 127.405 	 
H 	 -105.73 	 45.6687 	 128.279 	 
C 	 -105.437 	 44.1983 	 130.866 	 
H 	 -105.799 	 43.649 	 131.711 	 
H 	 -105.537 	 45.1936 	 131.241 	 
C 	 -103.995 	 43.8542 	 130.493 	 
H 	 -104.024 	 43.3892 	 129.495 	 
H 	 -103.319 	 44.7253 	 130.421 	 
C 	 -103.304 	 42.8995 	 131.47 	 
H 	 -103.926 	 42.027 	 131.723 	 
H 	 -102.407 	 42.3524 	 131.176 	 
H 	 -102.998 	 43.4335 	 132.415 	 
S 	 -106.167 	 44.0388 	 124.881 	 
C 	 -106.5 	 45.2064 	 123.742 	 
C 	 -107.411 	 46.1264 	 124.199 	 
C 	 -107.925 	 45.8655 	 125.466 	 
C 	 -107.289 	 44.7866 	 126.024 	 
H 	 -107.586 	 47.0188 	 123.571 	 
C 	 -108.677 	 46.9227 	 126.246 	 
H 	 -108.299 	 47.8596 	 125.835 	 
H 	 -108.46 	 46.9001 	 127.354 	 
C 	 -110.196 	 46.8706 	 126.071 	 
H 	 -110.586 	 45.9069 	 126.549 	 
H 	 -110.331 	 46.5775 	 125.009 	 
C 	 -110.929 	 48.1185 	 126.58 	 
H 	 -110.717 	 48.3574 	 127.594 	 
H 	 -112.005 	 48.0125 	 126.524 	 
H 	 -110.513 	 49.0286 	 126.107 	 
H 	 -107.381 	 42.3094 	 130.407 	 
H 	 -105.91 	 45.3459 	 122.83 	 
*
