! wB97X-D3 SP def2-SVP
%pal
nprocs 16
end

* xyz 0 1
S 	 46.7177 	 22.5153 	 90.2437 	 
C 	 47.1947 	 23.653 	 91.3899 	 
C 	 47.1579 	 24.9677 	 90.9076 	 
C 	 46.7852 	 24.974 	 89.4793 	 
C 	 46.3864 	 23.7337 	 89.0184 	 
H 	 46.7177 	 25.9383 	 88.8438 	 
C 	 47.3442 	 26.2848 	 91.6793 	 
H 	 48.0974 	 26.8792 	 91.2135 	 
H 	 47.666 	 25.9361 	 92.6572 	 
C 	 45.9797 	 27.0311 	 91.8532 	 
H 	 46.2992 	 28.0748 	 92.3308 	 
H 	 45.6632 	 27.327 	 90.9217 	 
C 	 44.9492 	 26.2155 	 92.745 	 
H 	 44.5714 	 25.3285 	 92.385 	 
H 	 45.3767 	 26.0102 	 93.7258 	 
H 	 44.0839 	 26.7972 	 93.064 	 
S 	 44.6565 	 22.4063 	 87.4791 	 
C 	 44.6649 	 22.576 	 85.7015 	 
C 	 45.7067 	 23.3034 	 85.2798 	 
C 	 46.4334 	 23.9228 	 86.3665 	 
C 	 45.959 	 23.5079 	 87.663 	 
H 	 45.8317 	 23.4926 	 84.2209 	 
C 	 47.6639 	 24.814 	 86.2408 	 
H 	 47.6352 	 25.6393 	 86.8771 	 
H 	 47.5881 	 25.2345 	 85.2231 	 
C 	 48.9656 	 24.0897 	 86.4995 	 
H 	 49.0565 	 23.2776 	 85.7771 	 
H 	 48.867 	 23.636 	 87.4754 	 
C 	 50.1125 	 25.0637 	 86.4815 	 
H 	 51.0424 	 24.5451 	 86.6614 	 
H 	 50.0063 	 25.6637 	 87.3226 	 
H 	 50.0328 	 25.6523 	 85.5759 	 
H 	 47.5962 	 23.3212 	 92.3705 	 
H 	 43.9269 	 22.1324 	 84.9993 	 
*
