! wB97X-D3 SP def2-SVP
%pal
nprocs 16
end

* xyz 0 1
S 	 68.3816 	 19.004 	 75.1187 	 
C 	 69.9224 	 18.585 	 75.7552 	 
C 	 70.9107 	 19.1525 	 74.98 	 
C 	 70.3834 	 19.8765 	 73.8064 	 
C 	 69.0359 	 19.924 	 73.7928 	 
H 	 70.9735 	 20.2988 	 73.0075 	 
C 	 72.3881 	 19.1889 	 75.3295 	 
H 	 72.5575 	 19.1195 	 76.4637 	 
H 	 72.8409 	 20.1555 	 74.9719 	 
C 	 73.0973 	 18.097 	 74.5121 	 
H 	 72.4114 	 17.308 	 74.3981 	 
H 	 73.2052 	 18.4622 	 73.4627 	 
C 	 74.5119 	 17.8479 	 75.1362 	 
H 	 74.4672 	 17.6165 	 76.2309 	 
H 	 74.9624 	 17.0058 	 74.628 	 
H 	 75.2209 	 18.7323 	 74.9864 	 
S 	 66.987 	 19.6142 	 72.0757 	 
C 	 66.381 	 20.9759 	 71.1908 	 
C 	 67.1282 	 22.1393 	 71.3707 	 
C 	 68.2389 	 21.828 	 72.1773 	 
C 	 68.1981 	 20.5843 	 72.8218 	 
H 	 66.9451 	 23.1645 	 70.9042 	 
C 	 69.3024 	 22.878 	 72.4577 	 
H 	 69.4725 	 23.5259 	 71.5662 	 
H 	 70.2084 	 22.333 	 72.6786 	 
C 	 68.9972 	 23.8486 	 73.6487 	 
H 	 69.8933 	 24.3948 	 73.8893 	 
H 	 68.7735 	 23.2795 	 74.6062 	 
C 	 67.6927 	 24.7235 	 73.36 	 
H 	 67.9325 	 25.6537 	 73.8085 	 
H 	 66.8675 	 24.196 	 73.7835 	 
H 	 67.5067 	 24.9608 	 72.2577 	 
H 	 70.0492 	 17.9711 	 76.6866 	 
H 	 65.3498 	 21.1838 	 70.9227 	 
*
