! wB97X-D3 SP def2-SVP
%pal
nprocs 16
end

* xyz 0 1
S 	 -42.8926 	 21.4433 	 85.1283 	 
C 	 -42.9645 	 19.681 	 85.2151 	 
C 	 -42.2088 	 19.1399 	 86.2114 	 
C 	 -41.5332 	 20.1351 	 86.9321 	 
C 	 -41.709 	 21.3783 	 86.406 	 
H 	 -40.9233 	 19.9492 	 87.7997 	 
C 	 -42.0921 	 17.7234 	 86.5781 	 
H 	 -41.1537 	 17.4227 	 86.9066 	 
H 	 -42.3946 	 17.105 	 85.7039 	 
C 	 -43.1571 	 17.2836 	 87.6245 	 
H 	 -42.9716 	 16.245 	 87.9094 	 
H 	 -42.9462 	 17.8721 	 88.5414 	 
C 	 -44.6338 	 17.4214 	 87.2989 	 
H 	 -44.9115 	 18.5006 	 87.2627 	 
H 	 -44.9769 	 16.8784 	 86.4102 	 
H 	 -45.1204 	 16.9407 	 88.0578 	 
S 	 -41.8585 	 23.8944 	 87.3103 	 
C 	 -40.3832 	 24.7647 	 87.6187 	 
C 	 -39.2948 	 24.1701 	 87.0327 	 
C 	 -39.5898 	 22.8324 	 86.5913 	 
C 	 -40.9673 	 22.594 	 86.7158 	 
H 	 -38.3873 	 24.7723 	 86.896 	 
C 	 -38.6 	 21.8152 	 86.0966 	 
H 	 -38.4857 	 22.0611 	 85.0567 	 
H 	 -39.1696 	 20.8465 	 85.9905 	 
C 	 -37.3525 	 21.7268 	 86.8435 	 
H 	 -37.4625 	 21.3697 	 87.9131 	 
H 	 -36.833 	 22.6586 	 86.9563 	 
C 	 -36.3894 	 20.7832 	 86.0469 	 
H 	 -35.7272 	 21.1896 	 85.3158 	 
H 	 -36.8909 	 19.8553 	 85.6521 	 
H 	 -35.8332 	 20.1789 	 86.73 	 
H 	 -43.5584 	 19.1547 	 84.4831 	 
H 	 -40.2996 	 25.807 	 87.8434 	 
*
