! wB97X-D3 SP def2-SVP
%pal
nprocs 16
end

* xyz 0 1
S 	 -26.3808 	 56.0885 	 110.611 	 
C 	 -26.9018 	 55.9003 	 112.276 	 
C 	 -27.5575 	 57.0642 	 112.737 	 
C 	 -27.6513 	 58.0692 	 111.764 	 
C 	 -27.117 	 57.6751 	 110.536 	 
H 	 -28.036 	 59.0551 	 111.932 	 
C 	 -28.1572 	 57.2471 	 114.113 	 
H 	 -28.0494 	 58.2927 	 114.508 	 
H 	 -27.5801 	 56.5833 	 114.783 	 
C 	 -29.5814 	 56.6565 	 114.22 	 
H 	 -29.6144 	 55.5733 	 114.007 	 
H 	 -29.9479 	 56.6836 	 115.271 	 
C 	 -30.6562 	 57.4005 	 113.364 	 
H 	 -30.7145 	 58.4855 	 113.42 	 
H 	 -30.5321 	 57.0295 	 112.321 	 
H 	 -31.5609 	 57.0508 	 113.619 	 
S 	 -25.4629 	 58.9652 	 108.875 	 
C 	 -25.9554 	 59.5649 	 107.271 	 
C 	 -27.3097 	 59.4494 	 107.175 	 
C 	 -27.9352 	 58.663 	 108.214 	 
C 	 -27.0746 	 58.3306 	 109.233 	 
H 	 -27.8058 	 59.7866 	 106.291 	 
C 	 -29.4688 	 58.3804 	 108.238 	 
H 	 -29.6633 	 57.993 	 109.244 	 
H 	 -29.8443 	 57.5493 	 107.605 	 
C 	 -30.4713 	 59.5217 	 108.014 	 
H 	 -31.506 	 59.1507 	 107.804 	 
H 	 -30.1039 	 60.1479 	 107.263 	 
C 	 -30.93 	 60.3333 	 109.207 	 
H 	 -31.6929 	 61.0242 	 108.869 	 
H 	 -30.0275 	 60.8956 	 109.526 	 
H 	 -31.443 	 59.7964 	 109.992 	 
H 	 -26.6954 	 54.9674 	 112.783 	 
H 	 -25.294 	 59.9144 	 106.486 	 
*
