! wB97X-D3 SP def2-SVP
%pal
nprocs 16
end

* xyz 0 1
S 	 42.6274 	 8.69397 	 80.2673 	 
C 	 43.5566 	 8.45884 	 81.7271 	 
C 	 44.0663 	 9.67013 	 82.2948 	 
C 	 43.714 	 10.7563 	 81.404 	 
C 	 43.0176 	 10.4388 	 80.2512 	 
H 	 43.8268 	 11.7728 	 81.527 	 
C 	 44.8669 	 9.81286 	 83.615 	 
H 	 44.9892 	 10.8335 	 83.9218 	 
H 	 45.8971 	 9.45487 	 83.4094 	 
C 	 44.31 	 9.14219 	 84.8375 	 
H 	 44.1417 	 8.07158 	 84.5794 	 
H 	 45.076 	 9.03305 	 85.6189 	 
C 	 43.0162 	 9.76136 	 85.4249 	 
H 	 43.1954 	 10.7797 	 85.6831 	 
H 	 42.1864 	 9.9153 	 84.6981 	 
H 	 42.7166 	 9.17165 	 86.3149 	 
S 	 43.6483 	 12.432 	 78.4262 	 
C 	 42.4325 	 13.1933 	 77.4662 	 
C 	 41.2082 	 12.8164 	 77.9081 	 
C 	 41.2805 	 11.752 	 78.8719 	 
C 	 42.5705 	 11.3679 	 79.2041 	 
H 	 40.2555 	 13.3494 	 77.6161 	 
C 	 40.0373 	 11.1967 	 79.4048 	 
H 	 39.8711 	 10.1322 	 79.165 	 
H 	 39.1771 	 11.658 	 78.8901 	 
C 	 39.7834 	 11.2822 	 80.9951 	 
H 	 40.5839 	 10.8313 	 81.525 	 
H 	 38.9182 	 10.6827 	 81.1848 	 
C 	 39.4841 	 12.7449 	 81.4351 	 
H 	 40.4727 	 13.2579 	 81.4532 	 
H 	 39.0601 	 12.7889 	 82.4623 	 
H 	 38.8484 	 13.2612 	 80.7303 	 
H 	 43.6893 	 7.52195 	 82.3321 	 
H 	 42.5065 	 14.0789 	 76.8426 	 
*
