! wB97X-D3 SP def2-SVP
%pal
nprocs 16
end

* xyz 0 1
S 	 7.26138 	 -6.51598 	 90.4034 	 
C 	 7.62789 	 -4.83858 	 90.423 	 
C 	 8.1521 	 -4.4134 	 89.2189 	 
C 	 7.83499 	 -5.36261 	 88.2093 	 
C 	 7.26086 	 -6.52084 	 88.6528 	 
H 	 7.97394 	 -5.19462 	 87.1507 	 
C 	 8.60274 	 -2.98865 	 88.9686 	 
H 	 8.813 	 -2.44757 	 89.8606 	 
H 	 7.72052 	 -2.50105 	 88.4413 	 
C 	 9.81679 	 -2.83469 	 88.0293 	 
H 	 10.6757 	 -3.40074 	 88.2076 	 
H 	 9.43243 	 -3.02084 	 87.0234 	 
C 	 10.3738 	 -1.43088 	 87.8905 	 
H 	 11.2571 	 -1.36053 	 87.2232 	 
H 	 9.64205 	 -0.693821 	 87.4816 	 
H 	 10.5957 	 -1.17115 	 88.9265 	 
S 	 7.67312 	 -9.20904 	 88.3556 	 
C 	 7.05271 	 -9.9918 	 86.9227 	 
C 	 6.38865 	 -9.08476 	 86.1467 	 
C 	 6.42841 	 -7.75113 	 86.6582 	 
C 	 7.03035 	 -7.70369 	 87.8428 	 
H 	 5.98404 	 -9.47051 	 85.2285 	 
C 	 5.74065 	 -6.63776 	 85.9948 	 
H 	 5.52509 	 -5.8087 	 86.6567 	 
H 	 4.76116 	 -6.99602 	 85.7585 	 
C 	 6.40698 	 -6.09834 	 84.7888 	 
H 	 6.68594 	 -6.85377 	 84.0468 	 
H 	 7.25902 	 -5.59661 	 85.1031 	 
C 	 5.64089 	 -4.88277 	 84.2368 	 
H 	 6.11822 	 -4.54298 	 83.3139 	 
H 	 5.59044 	 -4.08216 	 84.9265 	 
H 	 4.6839 	 -5.16877 	 83.8954 	 
H 	 7.81259 	 -4.23797 	 91.2589 	 
H 	 7.29189 	 -11.0319 	 86.6461 	 
*
