! wB97X-D3 SP def2-SVP
%pal
nprocs 16
end

* xyz 0 1
S 	 -15.6825 	 36.8573 	 34.1748 	 
C 	 -14.9614 	 35.7019 	 33.0915 	 
C 	 -14.1225 	 34.81 	 33.7704 	 
C 	 -13.8682 	 35.1762 	 35.1849 	 
C 	 -14.8784 	 36.0809 	 35.544 	 
H 	 -13.2101 	 34.5989 	 35.9285 	 
C 	 -13.4968 	 33.5908 	 33.1284 	 
H 	 -12.546 	 33.3713 	 33.6778 	 
H 	 -13.2695 	 33.8738 	 32.1624 	 
C 	 -14.3944 	 32.3278 	 33.1516 	 
H 	 -15.3693 	 32.5136 	 32.6091 	 
H 	 -13.8274 	 31.6275 	 32.5395 	 
C 	 -14.5197 	 31.6473 	 34.5335 	 
H 	 -14.961 	 32.3095 	 35.3058 	 
H 	 -15.2525 	 30.8295 	 34.5167 	 
H 	 -13.6152 	 31.2318 	 34.8908 	 
S 	 -14.913 	 38.3461 	 37.2082 	 
C 	 -15.0808 	 38.1751 	 38.9306 	 
C 	 -15.2348 	 36.8374 	 39.2272 	 
C 	 -15.1888 	 35.9249 	 38.0955 	 
C 	 -15.0781 	 36.6085 	 36.8942 	 
H 	 -15.0981 	 36.4701 	 40.2323 	 
C 	 -15.2275 	 34.4497 	 38.3355 	 
H 	 -14.1578 	 34.0482 	 38.4332 	 
H 	 -15.6051 	 33.8624 	 37.4942 	 
C 	 -15.9906 	 34.0165 	 39.5436 	 
H 	 -15.6449 	 34.4899 	 40.439 	 
H 	 -15.8266 	 32.9376 	 39.621 	 
C 	 -17.4904 	 34.265 	 39.3128 	 
H 	 -18.0839 	 34.2178 	 40.2075 	 
H 	 -17.9619 	 33.579 	 38.6063 	 
H 	 -17.6447 	 35.2801 	 38.8402 	 
H 	 -15.3448 	 35.6143 	 32.0816 	 
H 	 -14.8719 	 38.8927 	 39.7464 	 
*
