! wB97X-D3 SP def2-SVP
%pal
nprocs 16
end

* xyz 0 1
S 	 -45.3852 	 23.4124 	 86.5113 	 
C 	 -44.7364 	 24.5138 	 87.6688 	 
C 	 -43.3928 	 24.8205 	 87.4492 	 
C 	 -42.8279 	 24.0564 	 86.3889 	 
C 	 -43.7897 	 23.214 	 85.8346 	 
H 	 -41.823 	 24.0991 	 86.0004 	 
C 	 -42.5816 	 25.6917 	 88.3889 	 
H 	 -43.2617 	 26.4885 	 88.6277 	 
H 	 -41.7024 	 26.1298 	 87.8856 	 
C 	 -42.2664 	 24.9575 	 89.6844 	 
H 	 -41.754 	 25.6608 	 90.3033 	 
H 	 -43.1988 	 24.7821 	 90.2336 	 
C 	 -41.4966 	 23.6034 	 89.4725 	 
H 	 -41.2009 	 23.2634 	 90.4349 	 
H 	 -42.0164 	 22.8451 	 88.7851 	 
H 	 -40.6075 	 23.8062 	 88.8388 	 
S 	 -43.7582 	 23.3328 	 83.1744 	 
C 	 -43.269 	 21.9864 	 82.2529 	 
C 	 -43.2565 	 20.8098 	 82.9918 	 
C 	 -43.4524 	 21.0542 	 84.3901 	 
C 	 -43.6572 	 22.3958 	 84.6369 	 
H 	 -43.123 	 19.8566 	 82.4545 	 
C 	 -43.387 	 19.9153 	 85.3565 	 
H 	 -42.9058 	 20.3599 	 86.2668 	 
H 	 -42.6412 	 19.2997 	 84.9037 	 
C 	 -44.5949 	 19.1014 	 85.5366 	 
H 	 -44.7246 	 18.6019 	 84.5846 	 
H 	 -45.5495 	 19.7456 	 85.6893 	 
C 	 -44.4117 	 17.9492 	 86.481 	 
H 	 -43.98 	 18.2885 	 87.4502 	 
H 	 -43.832 	 17.1208 	 85.9888 	 
H 	 -45.3461 	 17.4523 	 86.6896 	 
H 	 -45.2739 	 24.8684 	 88.6095 	 
H 	 -42.9753 	 22.0058 	 81.1843 	 
*
