! wB97X-D3 SP def2-SVP
%pal
nprocs 16
end

* xyz 0 1
S 	 -9.23137 	 33.4752 	 52.3693 	 
C 	 -9.18098 	 32.2092 	 53.5751 	 
C 	 -7.95944 	 31.5375 	 53.4875 	 
C 	 -7.23444 	 31.9529 	 52.3021 	 
C 	 -7.73788 	 33.0179 	 51.5868 	 
H 	 -6.23251 	 31.7147 	 52.0376 	 
C 	 -7.52281 	 30.3816 	 54.3508 	 
H 	 -7.90533 	 29.4265 	 53.9349 	 
H 	 -8.19378 	 30.268 	 55.1965 	 
C 	 -6.00206 	 30.3412 	 54.5291 	 
H 	 -5.83524 	 29.3868 	 55.103 	 
H 	 -5.50965 	 30.3121 	 53.5033 	 
C 	 -5.45389 	 31.492 	 55.3838 	 
H 	 -5.56987 	 32.4203 	 54.8624 	 
H 	 -6.05301 	 31.7435 	 56.2796 	 
H 	 -4.36275 	 31.4525 	 55.7281 	 
S 	 -7.1229 	 35.6403 	 51.0553 	 
C 	 -6.00375 	 35.9937 	 49.7617 	 
C 	 -5.45226 	 34.8272 	 49.3151 	 
C 	 -6.03173 	 33.6613 	 49.784 	 
C 	 -6.98733 	 33.9314 	 50.7209 	 
H 	 -4.62974 	 34.9243 	 48.6833 	 
C 	 -5.61419 	 32.3277 	 49.269 	 
H 	 -5.7942 	 32.3798 	 48.1533 	 
H 	 -6.29952 	 31.5957 	 49.6083 	 
C 	 -4.11463 	 31.9543 	 49.4959 	 
H 	 -3.87672 	 31.8511 	 50.5736 	 
H 	 -3.53781 	 32.8037 	 49.1194 	 
C 	 -3.69085 	 30.7458 	 48.6347 	 
H 	 -3.83838 	 30.778 	 47.5523 	 
H 	 -4.37931 	 29.9122 	 48.7853 	 
H 	 -2.68722 	 30.4337 	 48.8185 	 
H 	 -9.92265 	 31.9791 	 54.3242 	 
H 	 -5.61009 	 37.0045 	 49.5269 	 
*
