! wB97X-D3 SP def2-SVP
%pal
nprocs 16
end

* xyz 0 1
S 	 -3.19877 	 -23.629 	 59.4411 	 
C 	 -3.26633 	 -22.0153 	 60.0607 	 
C 	 -3.16273 	 -21.1762 	 59.0112 	 
C 	 -3.03481 	 -21.7693 	 57.7233 	 
C 	 -3.1696 	 -23.1281 	 57.7464 	 
H 	 -2.89304 	 -21.261 	 56.7718 	 
C 	 -3.16611 	 -19.6324 	 59.1724 	 
H 	 -2.21744 	 -19.2545 	 58.8755 	 
H 	 -3.13112 	 -19.4095 	 60.2075 	 
C 	 -4.32537 	 -18.7849 	 58.6753 	 
H 	 -4.26072 	 -17.6781 	 58.8447 	 
H 	 -4.46094 	 -18.8549 	 57.5758 	 
C 	 -5.58785 	 -19.2392 	 59.4122 	 
H 	 -6.32127 	 -18.4972 	 59.2291 	 
H 	 -5.90837 	 -20.2837 	 59.074 	 
H 	 -5.44358 	 -19.2801 	 60.4771 	 
S 	 -2.07976 	 -25.4379 	 56.7635 	 
C 	 -2.28896 	 -25.823 	 55.0788 	 
C 	 -3.27995 	 -25.1159 	 54.4513 	 
C 	 -3.7253 	 -24.0695 	 55.3152 	 
C 	 -3.14423 	 -24.0798 	 56.6237 	 
H 	 -3.66987 	 -25.4256 	 53.5167 	 
C 	 -4.58599 	 -22.9993 	 54.7359 	 
H 	 -4.35529 	 -22.0087 	 55.2099 	 
H 	 -5.56296 	 -23.1374 	 55.0919 	 
C 	 -4.67288 	 -22.7231 	 53.2451 	 
H 	 -5.29805 	 -23.524 	 52.7992 	 
H 	 -3.68462 	 -22.723 	 52.8253 	 
C 	 -5.42673 	 -21.3805 	 52.879 	 
H 	 -4.8762 	 -20.5103 	 53.1657 	 
H 	 -6.25864 	 -21.2994 	 53.5493 	 
H 	 -5.62742 	 -21.3043 	 51.8012 	 
H 	 -3.39427 	 -21.6597 	 61.1171 	 
H 	 -1.77446 	 -26.6226 	 54.5715 	 
*
