! wB97X-D3 SP def2-SVP
%pal
nprocs 16
end

* xyz 0 1
S 	 -11.0734 	 51.4475 	 43.6946 	 
C 	 -12.5523 	 52.3263 	 43.5628 	 
C 	 -13.1807 	 52.5962 	 44.7225 	 
C 	 -12.5368 	 51.9806 	 45.8258 	 
C 	 -11.291 	 51.3731 	 45.4951 	 
H 	 -12.7099 	 51.8898 	 46.8846 	 
C 	 -14.56 	 53.2164 	 44.8787 	 
H 	 -15.1155 	 52.7929 	 44.0217 	 
H 	 -14.5034 	 54.3475 	 44.6127 	 
C 	 -15.2851 	 52.9837 	 46.2174 	 
H 	 -15.4525 	 51.9127 	 46.5081 	 
H 	 -14.6747 	 53.5165 	 46.9264 	 
C 	 -16.5781 	 53.7852 	 46.4161 	 
H 	 -17.3967 	 53.2611 	 45.9585 	 
H 	 -16.7577 	 54.0021 	 47.452 	 
H 	 -16.6038 	 54.804 	 45.952 	 
S 	 -8.60925 	 50.884 	 45.8848 	 
C 	 -8.09015 	 50.2616 	 47.4471 	 
C 	 -9.1031 	 50.0487 	 48.3026 	 
C 	 -10.384 	 50.2526 	 47.6624 	 
C 	 -10.2708 	 50.7742 	 46.3619 	 
H 	 -8.8206 	 49.6624 	 49.2729 	 
C 	 -11.6076 	 49.7919 	 48.3259 	 
H 	 -11.3868 	 48.754 	 48.563 	 
H 	 -12.3559 	 49.6873 	 47.4906 	 
C 	 -11.8963 	 50.5618 	 49.5697 	 
H 	 -12.0925 	 51.6539 	 49.3536 	 
H 	 -10.9202 	 50.6212 	 50.1115 	 
C 	 -13.1045 	 49.9595 	 50.3232 	 
H 	 -12.7822 	 48.9814 	 50.7402 	 
H 	 -13.898 	 49.7005 	 49.652 	 
H 	 -13.3653 	 50.6327 	 51.1709 	 
H 	 -13.0099 	 52.6202 	 42.6568 	 
H 	 -7.08752 	 50.1932 	 47.8039 	 
*
