! wB97X-D3 SP def2-SVP
%pal
nprocs 16
end

* xyz 0 1
S 	 -109.232 	 43.3227 	 128.549 	 
C 	 -108.21 	 43.3048 	 129.976 	 
C 	 -106.967 	 43.8134 	 129.755 	 
C 	 -106.76 	 43.9166 	 128.327 	 
C 	 -107.837 	 43.6178 	 127.507 	 
H 	 -105.859 	 44.3815 	 127.954 	 
C 	 -105.928 	 44.0913 	 130.781 	 
H 	 -104.926 	 43.732 	 130.369 	 
H 	 -106.191 	 43.5651 	 131.699 	 
C 	 -105.673 	 45.537 	 131.236 	 
H 	 -105.479 	 46.0095 	 130.254 	 
H 	 -106.615 	 45.978 	 131.508 	 
C 	 -104.528 	 45.8436 	 132.286 	 
H 	 -103.544 	 45.3719 	 131.922 	 
H 	 -104.557 	 46.945 	 132.429 	 
H 	 -104.788 	 45.3791 	 133.33 	 
S 	 -108.961 	 42.6418 	 125.234 	 
C 	 -108.557 	 43.4173 	 123.744 	 
C 	 -107.75 	 44.5095 	 123.93 	 
C 	 -107.258 	 44.6227 	 125.274 	 
C 	 -107.834 	 43.6681 	 126.047 	 
H 	 -107.435 	 45.1267 	 123.086 	 
C 	 -106.513 	 45.9006 	 125.821 	 
H 	 -105.549 	 45.6393 	 126.32 	 
H 	 -107.073 	 46.3438 	 126.651 	 
C 	 -106.292 	 47.0997 	 124.816 	 
H 	 -107.289 	 47.4093 	 124.61 	 
H 	 -105.734 	 46.8268 	 123.896 	 
C 	 -105.672 	 48.2686 	 125.553 	 
H 	 -104.723 	 47.8918 	 125.853 	 
H 	 -106.317 	 48.6498 	 126.456 	 
H 	 -105.648 	 49.0989 	 124.86 	 
H 	 -108.599 	 43.2368 	 130.952 	 
H 	 -109.133 	 43.2521 	 122.831 	 
*
