! wB97X-D3 SP def2-SVP
%pal
nprocs 16
end

* xyz 0 1
S 	 -2.42573 	 -14.9487 	 71.6086 	 
C 	 -4.12888 	 -15.4699 	 71.8507 	 
C 	 -5.00475 	 -14.4718 	 71.4452 	 
C 	 -4.31546 	 -13.3754 	 70.9106 	 
C 	 -2.92764 	 -13.4947 	 70.8766 	 
H 	 -4.82057 	 -12.5577 	 70.5454 	 
C 	 -6.53015 	 -14.6771 	 71.49 	 
H 	 -6.91779 	 -13.9593 	 72.1957 	 
H 	 -6.72386 	 -15.5879 	 72.1132 	 
C 	 -7.34275 	 -14.6372 	 70.1599 	 
H 	 -7.24316 	 -13.6659 	 69.8249 	 
H 	 -6.83772 	 -15.197 	 69.3986 	 
C 	 -8.78622 	 -15.1611 	 70.1272 	 
H 	 -9.36117 	 -14.5781 	 70.9076 	 
H 	 -9.21279 	 -15.1047 	 69.1536 	 
H 	 -8.80646 	 -16.2005 	 70.5051 	 
S 	 -0.823718 	 -11.8031 	 71.5011 	 
C 	 -0.0715685 	 -10.7422 	 70.2886 	 
C 	 -0.977864 	 -10.6309 	 69.255 	 
C 	 -2.03956 	 -11.596 	 69.2556 	 
C 	 -1.96888 	 -12.5173 	 70.3518 	 
H 	 -0.717374 	 -9.90694 	 68.5558 	 
C 	 -2.93661 	 -11.7082 	 68.0191 	 
H 	 -2.73654 	 -10.7767 	 67.447 	 
H 	 -3.96251 	 -11.7265 	 68.3117 	 
C 	 -2.81272 	 -13.067 	 67.2746 	 
H 	 -2.73863 	 -13.7856 	 68.0537 	 
H 	 -1.81045 	 -13.0182 	 66.8511 	 
C 	 -3.94173 	 -13.412 	 66.3607 	 
H 	 -3.91625 	 -12.7599 	 65.4534 	 
H 	 -4.87851 	 -13.5068 	 66.8298 	 
H 	 -3.8049 	 -14.4316 	 65.9984 	 
H 	 -4.42742 	 -16.4953 	 72.0934 	 
H 	 0.700045 	 -10.0897 	 70.6556 	 
*
