! wB97X-D3 SP def2-SVP
%pal
nprocs 16
end

* xyz 0 1
S 	 -93.1664 	 52.5044 	 128.827 	 
C 	 -91.6253 	 52.0109 	 128.143 	 
C 	 -91.4977 	 52.1495 	 126.818 	 
C 	 -92.771 	 52.5117 	 126.289 	 
C 	 -93.7377 	 52.6781 	 127.251 	 
H 	 -93.0309 	 52.6071 	 125.262 	 
C 	 -90.3707 	 51.7927 	 125.907 	 
H 	 -89.5495 	 51.4254 	 126.536 	 
H 	 -90.0727 	 52.7731 	 125.481 	 
C 	 -90.6568 	 50.708 	 124.872 	 
H 	 -91.1405 	 51.1579 	 124.035 	 
H 	 -89.7157 	 50.4284 	 124.392 	 
C 	 -91.495 	 49.4903 	 125.384 	 
H 	 -91.7594 	 48.884 	 124.534 	 
H 	 -91.0289 	 48.9186 	 126.132 	 
H 	 -92.3728 	 49.7853 	 125.928 	 
S 	 -96.0527 	 54.0966 	 127.932 	 
C 	 -97.41 	 54.0289 	 126.971 	 
C 	 -97.2154 	 53.1813 	 125.874 	 
C 	 -95.9992 	 52.4858 	 125.95 	 
C 	 -95.1668 	 52.9319 	 126.979 	 
H 	 -97.9959 	 52.9803 	 125.085 	 
C 	 -95.6014 	 51.4697 	 124.904 	 
H 	 -96.423 	 50.7074 	 124.871 	 
H 	 -94.7274 	 50.9641 	 125.191 	 
C 	 -95.3741 	 52.0968 	 123.509 	 
H 	 -94.8874 	 53.0296 	 123.68 	 
H 	 -96.3713 	 52.493 	 123.115 	 
C 	 -94.8389 	 51.1816 	 122.436 	 
H 	 -94.501 	 51.8009 	 121.547 	 
H 	 -95.6501 	 50.4766 	 122.102 	 
H 	 -93.8659 	 50.7003 	 122.83 	 
H 	 -90.7955 	 51.7 	 128.81 	 
H 	 -98.2218 	 54.6851 	 126.996 	 
*
