! wB97X-D3 SP def2-SVP
%pal
nprocs 16
end

* xyz 0 1
S 	 43.8509 	 20.1155 	 83.0484 	 
C 	 42.3942 	 21.1623 	 83.0705 	 
C 	 41.1888 	 20.4685 	 83.1643 	 
C 	 41.4137 	 19.0277 	 83.1022 	 
C 	 42.812 	 18.7167 	 83.1401 	 
H 	 40.7083 	 18.2486 	 83.0757 	 
C 	 39.872 	 21.1902 	 83.0036 	 
H 	 39.0644 	 20.3857 	 83.0093 	 
H 	 40.0715 	 21.6137 	 81.9972 	 
C 	 39.5747 	 22.2818 	 84.0335 	 
H 	 39.5633 	 21.7888 	 84.9838 	 
H 	 40.1902 	 23.1524 	 84.0759 	 
C 	 38.1221 	 22.8336 	 83.9391 	 
H 	 37.9379 	 23.4027 	 83.0587 	 
H 	 37.375 	 22.0588 	 83.983 	 
H 	 38.09 	 23.5263 	 84.7879 	 
S 	 44.8391 	 17.1335 	 82.1019 	 
C 	 44.6352 	 15.3952 	 82.1556 	 
C 	 43.618 	 14.971 	 83.0682 	 
C 	 42.8715 	 16.1391 	 83.5381 	 
C 	 43.3751 	 17.3584 	 83.0169 	 
H 	 43.4039 	 13.9695 	 83.3323 	 
C 	 41.8667 	 16.0158 	 84.6329 	 
H 	 40.8547 	 15.7911 	 84.1688 	 
H 	 41.7886 	 16.985 	 85.0265 	 
C 	 42.1098 	 14.9933 	 85.7171 	 
H 	 43.1911 	 14.9153 	 85.9044 	 
H 	 41.7937 	 13.9956 	 85.3713 	 
C 	 41.365 	 15.3534 	 86.9976 	 
H 	 40.5278 	 16.0081 	 86.9143 	 
H 	 42.0505 	 15.9496 	 87.6029 	 
H 	 41.1384 	 14.5285 	 87.6224 	 
H 	 42.3621 	 22.2054 	 83.0323 	 
H 	 45.2421 	 14.5959 	 81.6137 	 
*
