! wB97X-D3 SP def2-SVP
%pal
nprocs 16
end

* xyz 0 1
S 	 2.06665 	 -13.441 	 59.7016 	 
C 	 2.74051 	 -12.3676 	 60.875 	 
C 	 3.38867 	 -13.1138 	 61.8491 	 
C 	 3.6125 	 -14.4637 	 61.4604 	 
C 	 3.04592 	 -14.7779 	 60.2616 	 
H 	 4.12401 	 -15.2175 	 61.9663 	 
C 	 3.87471 	 -12.5339 	 63.1205 	 
H 	 2.96442 	 -12.3083 	 63.7205 	 
H 	 4.24306 	 -11.5535 	 62.825 	 
C 	 4.90157 	 -13.4069 	 63.8741 	 
H 	 5.03741 	 -13.0662 	 64.8985 	 
H 	 4.67219 	 -14.4567 	 64.0042 	 
C 	 6.30662 	 -13.4003 	 63.1418 	 
H 	 6.53821 	 -12.4138 	 62.8668 	 
H 	 7.22836 	 -13.8053 	 63.7538 	 
H 	 6.18189 	 -13.9861 	 62.2358 	 
S 	 2.56429 	 -15.872 	 57.7752 	 
C 	 2.84092 	 -17.5375 	 57.5318 	 
C 	 3.13554 	 -18.1647 	 58.7055 	 
C 	 3.26287 	 -17.3133 	 59.8702 	 
C 	 3.07324 	 -15.9857 	 59.4666 	 
H 	 3.26886 	 -19.2927 	 58.6517 	 
C 	 3.69538 	 -17.8403 	 61.2052 	 
H 	 4.50826 	 -17.2841 	 61.5922 	 
H 	 4.08457 	 -18.9133 	 61.1009 	 
C 	 2.42024 	 -17.8579 	 62.1391 	 
H 	 1.67722 	 -18.3326 	 61.5153 	 
H 	 2.10226 	 -16.7993 	 62.3504 	 
C 	 2.68118 	 -18.78 	 63.3587 	 
H 	 3.13771 	 -19.7545 	 63.045 	 
H 	 1.70946 	 -19.0782 	 63.7736 	 
H 	 3.35992 	 -18.3557 	 64.1858 	 
H 	 2.42431 	 -11.3287 	 60.9347 	 
H 	 2.83758 	 -18.0857 	 56.6049 	 
*
