! wB97X-D3 SP def2-SVP
%pal
nprocs 16
end

* xyz 0 1
S 	 67.942 	 22.7769 	 72.7626 	 
C 	 69.0699 	 21.4897 	 73.2075 	 
C 	 69.3428 	 21.5081 	 74.5983 	 
C 	 68.7521 	 22.6734 	 75.2282 	 
C 	 68.0459 	 23.4895 	 74.361 	 
H 	 68.7934 	 22.879 	 76.3246 	 
C 	 70.0222 	 20.3841 	 75.317 	 
H 	 71.1253 	 20.3589 	 75.1955 	 
H 	 69.6815 	 19.4086 	 74.9835 	 
C 	 69.8311 	 20.476 	 76.8351 	 
H 	 70.216 	 21.4247 	 77.2493 	 
H 	 68.7716 	 20.6409 	 77.1308 	 
C 	 70.5369 	 19.3096 	 77.6203 	 
H 	 71.5347 	 19.1535 	 77.321 	 
H 	 70.5908 	 19.46 	 78.6782 	 
H 	 69.9495 	 18.4298 	 77.3907 	 
S 	 67.7717 	 25.863 	 73.0937 	 
C 	 67.1557 	 27.2816 	 73.877 	 
C 	 66.8995 	 26.9728 	 75.2142 	 
C 	 67.1023 	 25.5758 	 75.5841 	 
C 	 67.5831 	 24.8488 	 74.5005 	 
H 	 66.5596 	 27.6942 	 75.9357 	 
C 	 66.8766 	 25.0436 	 76.9642 	 
H 	 66.878 	 23.9365 	 76.9505 	 
H 	 65.9265 	 25.3509 	 77.3211 	 
C 	 68.0026 	 25.4935 	 77.9526 	 
H 	 68.1575 	 26.5574 	 77.8076 	 
H 	 68.9362 	 25.132 	 77.5504 	 
C 	 67.9079 	 25.0671 	 79.4075 	 
H 	 68.7637 	 25.5446 	 79.9687 	 
H 	 67.9886 	 23.9637 	 79.4248 	 
H 	 66.9753 	 25.4483 	 79.8795 	 
H 	 69.3408 	 20.4981 	 72.6692 	 
H 	 67.146 	 28.2763 	 73.3922 	 
*
