! wB97X-D3 SP def2-SVP
%pal
nprocs 16
end

* xyz 0 1
S 	 -68.2085 	 35.7959 	 141.682 	 
C 	 -68.9708 	 34.2658 	 141.737 	 
C 	 -68.5735 	 33.486 	 140.646 	 
C 	 -67.6842 	 34.1718 	 139.776 	 
C 	 -67.5189 	 35.5077 	 140.11 	 
H 	 -67.2848 	 33.8414 	 138.792 	 
C 	 -69.0519 	 32.0741 	 140.256 	 
H 	 -68.8214 	 32.0457 	 139.179 	 
H 	 -70.192 	 31.9181 	 140.376 	 
C 	 -68.2823 	 30.9166 	 140.951 	 
H 	 -68.4409 	 31.0683 	 141.998 	 
H 	 -68.6315 	 29.9302 	 140.788 	 
C 	 -66.8138 	 30.9665 	 140.688 	 
H 	 -66.2562 	 30.0977 	 141.041 	 
H 	 -66.5561 	 30.9686 	 139.663 	 
H 	 -66.4086 	 31.9328 	 141.148 	 
S 	 -65.2969 	 36.9714 	 139.939 	 
C 	 -64.9296 	 37.9376 	 138.51 	 
C 	 -66.0511 	 37.8868 	 137.681 	 
C 	 -67.1632 	 37.1453 	 138.194 	 
C 	 -66.8059 	 36.554 	 139.415 	 
H 	 -66.1067 	 38.5507 	 136.788 	 
C 	 -68.5204 	 36.8124 	 137.443 	 
H 	 -68.775 	 35.8177 	 137.897 	 
H 	 -68.238 	 36.6826 	 136.434 	 
C 	 -69.5902 	 37.9575 	 137.543 	 
H 	 -70.3737 	 37.6998 	 136.733 	 
H 	 -69.2283 	 38.9394 	 137.346 	 
C 	 -70.1343 	 37.9697 	 138.997 	 
H 	 -70.7984 	 38.858 	 139.134 	 
H 	 -69.3537 	 38.024 	 139.694 	 
H 	 -70.7463 	 37.0291 	 139.136 	 
H 	 -69.5392 	 33.9332 	 142.584 	 
H 	 -64.0894 	 38.5515 	 138.357 	 
*
