! wB97X-D3 SP def2-SVP
%pal
nprocs 16
end

* xyz 0 1
S 	 -14.6609 	 33.5263 	 36.7979 	 
C 	 -14.8731 	 33.6119 	 38.5334 	 
C 	 -13.8302 	 32.8328 	 39.0936 	 
C 	 -12.8152 	 32.4018 	 38.1554 	 
C 	 -13.1412 	 32.6745 	 36.8508 	 
H 	 -11.9514 	 31.8665 	 38.4393 	 
C 	 -13.5504 	 32.5663 	 40.5757 	 
H 	 -12.9729 	 31.6502 	 40.7594 	 
H 	 -14.568 	 32.5297 	 41.0958 	 
C 	 -12.8522 	 33.7188 	 41.3751 	 
H 	 -13.5366 	 34.6044 	 41.3953 	 
H 	 -12.7773 	 33.4238 	 42.4316 	 
C 	 -11.5343 	 34.3339 	 40.8656 	 
H 	 -11.4569 	 35.3171 	 41.3151 	 
H 	 -10.5972 	 33.7375 	 41.072 	 
H 	 -11.6792 	 34.5145 	 39.7725 	 
S 	 -13.1233 	 31.2696 	 34.5992 	 
C 	 -11.73 	 31.2123 	 33.5675 	 
C 	 -10.6424 	 31.8192 	 34.1568 	 
C 	 -10.9859 	 32.4618 	 35.3632 	 
C 	 -12.3342 	 32.2917 	 35.747 	 
H 	 -9.64712 	 31.7129 	 33.712 	 
C 	 -9.9483 	 33.0615 	 36.254 	 
H 	 -10.4843 	 33.8011 	 36.8469 	 
H 	 -9.20464 	 33.5318 	 35.6879 	 
C 	 -9.19355 	 32.0361 	 37.1426 	 
H 	 -8.41739 	 31.533 	 36.5563 	 
H 	 -9.80283 	 31.1936 	 37.5824 	 
C 	 -8.41773 	 32.7124 	 38.3404 	 
H 	 -9.10358 	 32.9969 	 39.1319 	 
H 	 -7.83212 	 33.528 	 38.0641 	 
H 	 -7.81004 	 31.9492 	 38.7397 	 
H 	 -15.6691 	 33.9921 	 39.0531 	 
H 	 -11.6731 	 30.9154 	 32.5302 	 
*
