! wB97X-D3 SP def2-SVP
%pal
nprocs 16
end

* xyz 0 1
S 	 16.1527 	 8.46872 	 85.5155 	 
C 	 17.3689 	 9.44196 	 84.6875 	 
C 	 16.8606 	 10.3913 	 83.8557 	 
C 	 15.4203 	 10.4166 	 83.9696 	 
C 	 14.8597 	 9.36888 	 84.7014 	 
H 	 14.7437 	 11.1225 	 83.5586 	 
C 	 17.7152 	 11.4362 	 83.1452 	 
H 	 17.2432 	 11.6841 	 82.2158 	 
H 	 18.7127 	 10.9853 	 83.0357 	 
C 	 17.9339 	 12.7668 	 83.853 	 
H 	 18.5646 	 12.5676 	 84.7602 	 
H 	 18.5152 	 13.446 	 83.3062 	 
C 	 16.6395 	 13.5375 	 84.115 	 
H 	 15.9799 	 13.7508 	 83.2511 	 
H 	 16.0603 	 13.0799 	 84.9001 	 
H 	 17.0151 	 14.462 	 84.5542 	 
S 	 13.1128 	 9.26112 	 86.7228 	 
C 	 11.4002 	 9.17595 	 86.4635 	 
C 	 11.1428 	 8.83967 	 85.138 	 
C 	 12.3287 	 8.88334 	 84.337 	 
C 	 13.4789 	 9.16321 	 85.03 	 
H 	 10.0874 	 8.52832 	 84.8166 	 
C 	 12.222 	 8.7021 	 82.8733 	 
H 	 11.838 	 7.67226 	 82.6743 	 
H 	 13.2354 	 8.58812 	 82.4248 	 
C 	 11.4046 	 9.75758 	 82.0123 	 
H 	 10.3266 	 9.70234 	 82.048 	 
H 	 11.5991 	 9.55194 	 80.9754 	 
C 	 11.8978 	 11.1815 	 82.4059 	 
H 	 11.3168 	 11.9411 	 81.8608 	 
H 	 12.9534 	 11.3176 	 82.1169 	 
H 	 11.7668 	 11.343 	 83.4668 	 
H 	 18.4698 	 9.38362 	 84.9167 	 
H 	 10.655 	 9.14796 	 87.2262 	 
*
