! wB97X-D3 SP def2-SVP
%pal
nprocs 16
end

* xyz 0 1
S 	 39.1755 	 9.96956 	 84.0614 	 
C 	 40.1217 	 8.8568 	 83.0812 	 
C 	 40.7343 	 7.88135 	 83.7683 	 
C 	 40.3972 	 7.92603 	 85.1659 	 
C 	 39.5386 	 8.99351 	 85.4332 	 
H 	 40.8643 	 7.29199 	 85.8738 	 
C 	 41.5681 	 6.79121 	 83.1572 	 
H 	 41.156 	 6.46076 	 82.2273 	 
H 	 41.3954 	 6.00495 	 83.9405 	 
C 	 43.1117 	 7.05758 	 83.0187 	 
H 	 43.5101 	 7.17575 	 84.0474 	 
H 	 43.5423 	 6.11721 	 82.7287 	 
C 	 43.4563 	 8.29462 	 82.2638 	 
H 	 42.8457 	 8.31427 	 81.3818 	 
H 	 43.224 	 9.19436 	 82.801 	 
H 	 44.5496 	 8.35877 	 81.9923 	 
S 	 37.2779 	 9.69324 	 86.7224 	 
C 	 37.2419 	 9.74517 	 88.4582 	 
C 	 38.5533 	 9.72033 	 88.97 	 
C 	 39.5828 	 9.38038 	 87.972 	 
C 	 39.0329 	 9.25036 	 86.7336 	 
H 	 38.6552 	 9.89518 	 90.0242 	 
C 	 41.0595 	 9.35143 	 88.38 	 
H 	 41.4363 	 9.76952 	 87.4983 	 
H 	 41.3484 	 8.26021 	 88.4947 	 
C 	 41.5562 	 10.2012 	 89.5992 	 
H 	 41.1586 	 9.77523 	 90.5773 	 
H 	 41.1322 	 11.1711 	 89.3801 	 
C 	 43.099 	 10.402 	 89.7641 	 
H 	 43.6012 	 10.8927 	 88.9023 	 
H 	 43.6038 	 9.43247 	 89.9118 	 
H 	 43.3651 	 10.9487 	 90.7306 	 
H 	 40.3549 	 9.02033 	 82.028 	 
H 	 36.3327 	 9.87595 	 89.045 	 
*
