! wB97X-D3 SP def2-SVP
%pal
nprocs 16
end

* xyz 0 1
S 	 50.9497 	 24.9805 	 44.8484 	 
C 	 52.3454 	 25.8944 	 44.3768 	 
C 	 52.5045 	 25.8154 	 43.0232 	 
C 	 51.469 	 25.0268 	 42.3499 	 
C 	 50.5057 	 24.6217 	 43.196 	 
H 	 51.4339 	 24.9023 	 41.3199 	 
C 	 53.641 	 26.404 	 42.2444 	 
H 	 54.1634 	 25.5486 	 41.9105 	 
H 	 54.2979 	 26.7764 	 43.0095 	 
C 	 53.2763 	 27.429 	 41.2259 	 
H 	 52.6455 	 27.0767 	 40.4995 	 
H 	 52.6022 	 28.0794 	 41.8407 	 
C 	 54.3901 	 28.3207 	 40.6085 	 
H 	 55.061 	 27.7189 	 40.0443 	 
H 	 54.0154 	 29.1266 	 40.0137 	 
H 	 55.0093 	 28.8244 	 41.3776 	 
S 	 48.8321 	 22.6892 	 44.0156 	 
C 	 47.5106 	 22.1305 	 43.0161 	 
C 	 47.451 	 22.8864 	 41.8745 	 
C 	 48.4029 	 23.8939 	 41.7451 	 
C 	 49.3126 	 23.8916 	 42.8559 	 
H 	 46.701 	 22.7105 	 41.178 	 
C 	 48.4482 	 24.849 	 40.6068 	 
H 	 48.9849 	 25.763 	 40.7582 	 
H 	 47.4792 	 25.189 	 40.2732 	 
C 	 49.2555 	 24.1332 	 39.4729 	 
H 	 48.6213 	 23.3131 	 39.1891 	 
H 	 50.2525 	 23.7065 	 39.7057 	 
C 	 49.3929 	 25.1765 	 38.3229 	 
H 	 50.2239 	 25.7738 	 38.4437 	 
H 	 48.5016 	 25.7763 	 38.1042 	 
H 	 49.6215 	 24.513 	 37.4929 	 
H 	 52.9371 	 26.4449 	 45.037 	 
H 	 46.9156 	 21.3213 	 43.2709 	 
*
