! wB97X-D3 SP def2-SVP
%pal
nprocs 16
end

* xyz 0 1
S 	 -60.4544 	 37.2212 	 92.7061 	 
C 	 -60.9473 	 35.5564 	 92.749 	 
C 	 -59.858 	 34.732 	 92.8658 	 
C 	 -58.6138 	 35.4656 	 92.8597 	 
C 	 -58.7223 	 36.8409 	 92.5421 	 
H 	 -57.6419 	 34.9891 	 93.058 	 
C 	 -59.8515 	 33.3137 	 93.1545 	 
H 	 -60.865 	 32.9286 	 93.4435 	 
H 	 -59.1761 	 33.2307 	 94.0687 	 
C 	 -59.396 	 32.3122 	 92.0671 	 
H 	 -58.4849 	 32.6159 	 91.5021 	 
H 	 -59.2431 	 31.3721 	 92.6132 	 
C 	 -60.4296 	 32.1175 	 90.9709 	 
H 	 -60.1757 	 31.142 	 90.47 	 
H 	 -61.4201 	 32.0474 	 91.3732 	 
H 	 -60.3122 	 32.9099 	 90.2004 	 
S 	 -57.7093 	 39.3981 	 93.1661 	 
C 	 -56.1563 	 39.8725 	 92.5378 	 
C 	 -55.6802 	 38.8743 	 91.6397 	 
C 	 -56.5796 	 37.7973 	 91.448 	 
C 	 -57.6497 	 37.8245 	 92.3331 	 
H 	 -54.7997 	 39.0574 	 91.068 	 
C 	 -56.2414 	 36.7358 	 90.4264 	 
H 	 -55.8601 	 37.2003 	 89.4764 	 
H 	 -57.2492 	 36.3236 	 90.0911 	 
C 	 -55.2962 	 35.6305 	 90.7562 	 
H 	 -55.2651 	 35.0645 	 89.8188 	 
H 	 -55.7194 	 34.9545 	 91.491 	 
C 	 -53.946 	 36.1185 	 91.0172 	 
H 	 -53.2346 	 35.3099 	 91.0169 	 
H 	 -53.9001 	 36.5373 	 92.0293 	 
H 	 -53.6717 	 36.8573 	 90.2693 	 
H 	 -61.9575 	 35.3103 	 92.8305 	 
H 	 -55.7854 	 40.9012 	 92.6967 	 
*
