! wB97X-D3 SP def2-SVP
%pal
nprocs 16
end

* xyz 0 1
S 	 -67.9866 	 51.4502 	 128.208 	 
C 	 -69.117 	 52.4389 	 129.188 	 
C 	 -69.0106 	 53.7922 	 128.928 	 
C 	 -68.0118 	 54.0089 	 127.886 	 
C 	 -67.3503 	 52.9032 	 127.37 	 
H 	 -67.6212 	 54.863 	 127.436 	 
C 	 -69.6812 	 55.0437 	 129.551 	 
H 	 -69.1471 	 55.8633 	 129.176 	 
H 	 -69.4144 	 55.1116 	 130.643 	 
C 	 -71.1817 	 55.1157 	 129.302 	 
H 	 -71.7669 	 54.4147 	 129.936 	 
H 	 -71.5274 	 56.0713 	 129.641 	 
C 	 -71.7087 	 55.0218 	 127.892 	 
H 	 -71.2905 	 55.8678 	 127.336 	 
H 	 -71.5338 	 54.1727 	 127.253 	 
H 	 -72.8224 	 55.1344 	 127.849 	 
S 	 -65.0311 	 51.7994 	 126.182 	 
C 	 -64.7612 	 52.1243 	 124.441 	 
C 	 -65.6464 	 53.0587 	 123.98 	 
C 	 -66.5527 	 53.5163 	 124.987 	 
C 	 -66.4775 	 52.8525 	 126.2 	 
H 	 -65.4957 	 53.5301 	 123.022 	 
C 	 -67.5626 	 54.5613 	 124.538 	 
H 	 -67.3022 	 54.9611 	 123.452 	 
H 	 -67.4163 	 55.4085 	 125.198 	 
C 	 -69.0237 	 54.0604 	 124.579 	 
H 	 -69.3394 	 53.5788 	 125.542 	 
H 	 -69.1083 	 53.2244 	 123.828 	 
C 	 -70.1303 	 55.074 	 124.025 	 
H 	 -69.7783 	 55.4499 	 123.066 	 
H 	 -70.1463 	 55.9801 	 124.583 	 
H 	 -71.1317 	 54.6259 	 124.028 	 
H 	 -69.8565 	 52.0352 	 129.931 	 
H 	 -63.9901 	 51.7338 	 123.831 	 
*
