! wB97X-D3 SP def2-SVP
%pal
nprocs 16
end

* xyz 0 1
S 	 13.2838 	 22.4076 	 40.1025 	 
C 	 14.338 	 22.7787 	 38.71 	 
C 	 14.8268 	 21.6159 	 38.082 	 
C 	 14.2813 	 20.4252 	 38.7602 	 
C 	 13.4882 	 20.6835 	 39.8717 	 
H 	 14.5071 	 19.381 	 38.5283 	 
C 	 15.9637 	 21.4738 	 37.0467 	 
H 	 16.1882 	 20.3974 	 37.0396 	 
H 	 16.8364 	 22.0476 	 37.4206 	 
C 	 15.688 	 21.9403 	 35.6665 	 
H 	 16.6268 	 21.8916 	 35.1422 	 
H 	 15.0572 	 21.2769 	 35.0634 	 
C 	 15.0442 	 23.3441 	 35.5478 	 
H 	 15.2487 	 23.7339 	 34.5192 	 
H 	 13.9642 	 23.3917 	 35.5818 	 
H 	 15.3342 	 24.0064 	 36.3116 	 
S 	 13.1356 	 19.7854 	 42.4901 	 
C 	 12.1788 	 18.2985 	 42.7499 	 
C 	 11.6041 	 17.9447 	 41.572 	 
C 	 12.1819 	 18.5802 	 40.3995 	 
C 	 12.885 	 19.6793 	 40.7862 	 
H 	 10.7846 	 17.2631 	 41.5894 	 
C 	 11.6111 	 18.3553 	 39.0151 	 
H 	 11.1143 	 17.3275 	 38.9282 	 
H 	 12.4377 	 18.2531 	 38.3309 	 
C 	 10.6138 	 19.3892 	 38.477 	 
H 	 10.2449 	 18.7511 	 37.6655 	 
H 	 11.0087 	 20.2501 	 37.9033 	 
C 	 9.43863 	 19.7591 	 39.4917 	 
H 	 9.85594 	 19.9135 	 40.527 	 
H 	 8.71471 	 18.9949 	 39.7425 	 
H 	 8.79992 	 20.6549 	 39.264 	 
H 	 14.8036 	 23.7189 	 38.5575 	 
H 	 11.8459 	 18.0518 	 43.761 	 
*
