! wB97X-D3 SP def2-SVP
%pal
nprocs 16
end

* xyz 0 1
S 	 -12.6631 	 47.1062 	 42.3909 	 
C 	 -12.5002 	 48.0687 	 40.8958 	 
C 	 -11.9369 	 47.2586 	 39.9042 	 
C 	 -11.5068 	 45.9788 	 40.4234 	 
C 	 -11.6532 	 45.8035 	 41.7685 	 
H 	 -11.0751 	 45.1747 	 39.8229 	 
C 	 -11.869 	 47.5455 	 38.4168 	 
H 	 -10.8938 	 47.2214 	 38.0958 	 
H 	 -11.9227 	 48.6522 	 38.3438 	 
C 	 -13.0558 	 46.9201 	 37.5948 	 
H 	 -13.1025 	 45.8476 	 37.6989 	 
H 	 -13.9829 	 47.2657 	 38.0036 	 
C 	 -13.085 	 47.3012 	 36.0894 	 
H 	 -13.8801 	 46.8403 	 35.5012 	 
H 	 -13.2132 	 48.2847 	 35.7749 	 
H 	 -12.2343 	 46.9229 	 35.4959 	 
S 	 -12.4408 	 43.7804 	 43.5168 	 
C 	 -11.2136 	 42.7201 	 44.184 	 
C 	 -10.0254 	 42.9377 	 43.537 	 
C 	 -10.0117 	 43.9975 	 42.6031 	 
C 	 -11.2208 	 44.6351 	 42.5482 	 
H 	 -9.13687 	 42.3923 	 43.8693 	 
C 	 -8.76785 	 44.3307 	 41.8783 	 
H 	 -9.04977 	 44.445 	 40.87 	 
H 	 -8.00072 	 43.519 	 41.8202 	 
C 	 -8.00828 	 45.6436 	 42.3438 	 
H 	 -7.86722 	 45.4828 	 43.4174 	 
H 	 -8.6301 	 46.4707 	 42.2115 	 
C 	 -6.77979 	 45.9542 	 41.5786 	 
H 	 -6.98643 	 46.0265 	 40.4629 	 
H 	 -5.99603 	 45.2306 	 41.817 	 
H 	 -6.40154 	 46.9856 	 41.7364 	 
H 	 -13.0071 	 48.9938 	 40.5664 	 
H 	 -11.4144 	 41.984 	 44.9216 	 
*
