! wB97X-D3 SP def2-SVP
%pal
nprocs 16
end

* xyz 0 1
S 	 -22.5785 	 -9.25822 	 84.8804 	 
C 	 -22.6588 	 -10.9464 	 84.3978 	 
C 	 -21.3927 	 -11.5645 	 84.4537 	 
C 	 -20.3458 	 -10.6493 	 84.7415 	 
C 	 -20.8432 	 -9.37623 	 84.988 	 
H 	 -19.2852 	 -10.9106 	 84.8904 	 
C 	 -21.1142 	 -13.0026 	 84.0448 	 
H 	 -20.0591 	 -13.206 	 83.9414 	 
H 	 -21.4746 	 -13.1266 	 83.0426 	 
C 	 -21.8502 	 -13.9606 	 84.9959 	 
H 	 -22.9067 	 -13.8788 	 85.095 	 
H 	 -21.7283 	 -14.9494 	 84.587 	 
C 	 -21.3298 	 -13.8859 	 86.4878 	 
H 	 -20.2618 	 -14.1025 	 86.5072 	 
H 	 -21.5087 	 -12.8705 	 86.9134 	 
H 	 -21.7643 	 -14.5771 	 87.2224 	 
S 	 -19.8187 	 -7.84895 	 86.9843 	 
C 	 -18.8332 	 -6.38508 	 86.4708 	 
C 	 -18.6149 	 -6.26213 	 85.1332 	 
C 	 -19.4197 	 -7.21668 	 84.4348 	 
C 	 -20.0575 	 -8.17738 	 85.2771 	 
H 	 -18.1211 	 -5.34422 	 84.6632 	 
C 	 -19.2824 	 -7.36777 	 82.937 	 
H 	 -19.7157 	 -6.4442 	 82.5452 	 
H 	 -19.7519 	 -8.1958 	 82.4996 	 
C 	 -17.8331 	 -7.33127 	 82.3662 	 
H 	 -17.2044 	 -8.08964 	 82.8207 	 
H 	 -17.435 	 -6.30806 	 82.5391 	 
C 	 -17.7297 	 -7.59324 	 80.8514 	 
H 	 -18.3456 	 -8.3816 	 80.5648 	 
H 	 -16.7484 	 -7.86372 	 80.3924 	 
H 	 -18.0986 	 -6.65823 	 80.3888 	 
H 	 -23.5682 	 -11.3202 	 83.9872 	 
H 	 -18.2485 	 -5.69623 	 87.0773 	 
*
