! wB97X-D3 SP def2-SVP
%pal
nprocs 16
end

* xyz 0 1
S 	 -0.400593 	 -7.00497 	 89.9033 	 
C 	 0.880103 	 -7.20145 	 91.1315 	 
C 	 0.366125 	 -7.35895 	 92.3766 	 
C 	 -1.01246 	 -7.31024 	 92.3901 	 
C 	 -1.61317 	 -7.24354 	 91.1283 	 
H 	 -1.58463 	 -7.39427 	 93.3239 	 
C 	 1.22147 	 -7.51249 	 93.637 	 
H 	 0.737476 	 -7.01092 	 94.4935 	 
H 	 2.0215 	 -6.80017 	 93.5314 	 
C 	 1.66258 	 -8.94301 	 94.0177 	 
H 	 2.27818 	 -8.99474 	 94.9368 	 
H 	 0.671098 	 -9.30664 	 94.2339 	 
C 	 2.50876 	 -9.7266 	 93.0377 	 
H 	 2.06616 	 -9.90916 	 92.0509 	 
H 	 3.46844 	 -9.15479 	 92.9742 	 
H 	 2.70116 	 -10.7323 	 93.4531 	 
S 	 -3.51355 	 -5.86355 	 89.8069 	 
C 	 -5.21562 	 -6.49101 	 89.7568 	 
C 	 -5.33583 	 -7.6397 	 90.5517 	 
C 	 -4.098 	 -7.91195 	 91.2561 	 
C 	 -3.02689 	 -7.1444 	 90.8421 	 
H 	 -6.30872 	 -8.14021 	 90.5508 	 
C 	 -4.10214 	 -9.06423 	 92.2228 	 
H 	 -3.25592 	 -9.75311 	 92.0466 	 
H 	 -4.92617 	 -9.6733 	 92.0193 	 
C 	 -4.3277 	 -8.73579 	 93.6973 	 
H 	 -5.18443 	 -8.02794 	 93.7694 	 
H 	 -3.45156 	 -8.17851 	 94.1082 	 
C 	 -4.72208 	 -9.90473 	 94.5737 	 
H 	 -5.30867 	 -9.4725 	 95.4097 	 
H 	 -3.84453 	 -10.4284 	 95.0199 	 
H 	 -5.4335 	 -10.6319 	 94.1168 	 
H 	 1.8911 	 -7.20522 	 90.9067 	 
H 	 -6.06731 	 -6.106 	 89.1906 	 
*
