! wB97X-D3 SP def2-SVP
%pal
nprocs 16
end

* xyz 0 1
S 	 -0.407036 	 10.5831 	 86.456 	 
C 	 -1.85616 	 10.6933 	 85.4527 	 
C 	 -1.60606 	 10.3365 	 84.1187 	 
C 	 -0.181153 	 10.0023 	 84.0035 	 
C 	 0.594779 	 10.4424 	 85.0658 	 
H 	 0.210616 	 9.71527 	 83.0529 	 
C 	 -2.65985 	 10.1967 	 83.0365 	 
H 	 -2.20055 	 10.3511 	 82.0863 	 
H 	 -3.28372 	 11.1286 	 83.1434 	 
C 	 -3.60081 	 8.95835 	 82.9921 	 
H 	 -3.07688 	 8.00554 	 83.0459 	 
H 	 -4.25566 	 9.06587 	 83.8148 	 
C 	 -4.55584 	 8.97128 	 81.769 	 
H 	 -4.91978 	 9.98985 	 81.6754 	 
H 	 -4.10138 	 8.67232 	 80.8427 	 
H 	 -5.42154 	 8.35213 	 82.0084 	 
S 	 2.62837 	 9.31911 	 86.4929 	 
C 	 4.27233 	 9.5172 	 85.9269 	 
C 	 4.37319 	 10.5897 	 85.0624 	 
C 	 3.09375 	 11.0414 	 84.6138 	 
C 	 2.04377 	 10.3167 	 85.2262 	 
H 	 5.24991 	 11.0912 	 84.6597 	 
C 	 2.93138 	 12.2523 	 83.6423 	 
H 	 2.90363 	 13.1397 	 84.2216 	 
H 	 1.94309 	 12.1291 	 83.1406 	 
C 	 3.9248 	 12.3392 	 82.4745 	 
H 	 3.60159 	 11.3988 	 81.9904 	 
H 	 4.92987 	 12.2971 	 82.8405 	 
C 	 3.67765 	 13.6136 	 81.54 	 
H 	 3.96979 	 14.5558 	 81.9646 	 
H 	 2.6297 	 13.5177 	 81.4427 	 
H 	 4.17301 	 13.388 	 80.5842 	 
H 	 -2.83243 	 10.8292 	 85.8195 	 
H 	 5.17773 	 9.08929 	 86.3196 	 
*
