! wB97X-D3 SP def2-SVP
%pal
nprocs 16
end

* xyz 0 1
S 	 -91.8617 	 41.3202 	 120.383 	 
C 	 -91.3205 	 41.031 	 122.015 	 
C 	 -92.3374 	 40.5746 	 122.871 	 
C 	 -93.5799 	 40.695 	 122.202 	 
C 	 -93.5087 	 41.1507 	 120.905 	 
H 	 -94.5902 	 40.3885 	 122.568 	 
C 	 -92.1934 	 39.9351 	 124.272 	 
H 	 -91.1473 	 39.8846 	 124.484 	 
H 	 -92.5875 	 38.915 	 124.239 	 
C 	 -92.9331 	 40.7752 	 125.355 	 
H 	 -92.9514 	 41.8162 	 125.131 	 
H 	 -93.9673 	 40.4968 	 125.43 	 
C 	 -92.1444 	 40.54 	 126.713 	 
H 	 -92.4044 	 41.2375 	 127.515 	 
H 	 -92.2886 	 39.5252 	 127.049 	 
H 	 -91.0325 	 40.5259 	 126.56 	 
S 	 -95.0944 	 42.6843 	 119.3 	 
C 	 -96.3563 	 41.9858 	 118.292 	 
C 	 -96.37 	 40.6226 	 118.413 	 
C 	 -95.4059 	 40.1067 	 119.367 	 
C 	 -94.604 	 41.1363 	 119.932 	 
H 	 -97.0826 	 40.0713 	 117.854 	 
C 	 -95.3308 	 38.5827 	 119.565 	 
H 	 -96.2731 	 38.2093 	 119.197 	 
H 	 -95.3714 	 38.2901 	 120.643 	 
C 	 -94.1169 	 37.937 	 118.953 	 
H 	 -93.2568 	 38.4272 	 119.37 	 
H 	 -94.1034 	 38.1295 	 117.893 	 
C 	 -94.1406 	 36.3553 	 119.251 	 
H 	 -94.9843 	 35.9402 	 118.642 	 
H 	 -94.2554 	 36.0182 	 120.315 	 
H 	 -93.2596 	 35.9156 	 118.848 	 
H 	 -90.268 	 41.1068 	 122.326 	 
H 	 -97.0086 	 42.596 	 117.696 	 
*
