! wB97X-D3 SP def2-SVP
%pal
nprocs 16
end

* xyz 0 1
S 	 10.8547 	 -7.11345 	 98.3649 	 
C 	 10.2263 	 -8.62618 	 98.8013 	 
C 	 9.77529 	 -9.35426 	 97.7124 	 
C 	 10.0298 	 -8.74118 	 96.473 	 
C 	 10.6 	 -7.48602 	 96.6141 	 
H 	 9.77842 	 -9.19149 	 95.5341 	 
C 	 9.0893 	 -10.673 	 97.8584 	 
H 	 8.2777 	 -10.7094 	 97.2108 	 
H 	 8.38859 	 -10.7244 	 98.7501 	 
C 	 10.0084 	 -11.9058 	 97.7311 	 
H 	 9.57212 	 -12.8389 	 97.6744 	 
H 	 10.5363 	 -11.7158 	 96.8117 	 
C 	 10.9803 	 -11.8616 	 98.9447 	 
H 	 11.3716 	 -12.8372 	 99.1911 	 
H 	 11.6943 	 -11.0077 	 98.9092 	 
H 	 10.3967 	 -11.6955 	 99.8538 	 
S 	 10.4736 	 -4.80705 	 96.0415 	 
C 	 11.3724 	 -4.24356 	 94.7152 	 
C 	 11.8118 	 -5.24167 	 93.8617 	 
C 	 11.4953 	 -6.55763 	 94.3279 	 
C 	 10.9187 	 -6.46267 	 95.6027 	 
H 	 12.3894 	 -4.9949 	 92.987 	 
C 	 11.9602 	 -7.83408 	 93.73 	 
H 	 12.1388 	 -8.56899 	 94.5277 	 
H 	 12.8811 	 -7.56531 	 93.2704 	 
C 	 11.0365 	 -8.39833 	 92.6863 	 
H 	 11.0019 	 -7.82339 	 91.7493 	 
H 	 10.0043 	 -8.42073 	 93.1303 	 
C 	 11.388 	 -9.84004 	 92.3814 	 
H 	 11.2527 	 -10.4227 	 93.2798 	 
H 	 12.3866 	 -9.84261 	 91.9576 	 
H 	 10.7234 	 -10.2313 	 91.5947 	 
H 	 10.3189 	 -9.00731 	 99.7536 	 
H 	 11.5352 	 -3.23876 	 94.4591 	 
*
