! wB97X-D3 SP def2-SVP
%pal
nprocs 16
end

* xyz 0 1
S 	 -3.8297 	 26.9607 	 54.6254 	 
C 	 -2.53343 	 25.7944 	 54.288 	 
C 	 -2.03296 	 25.9869 	 53.0414 	 
C 	 -2.37032 	 27.3141 	 52.5433 	 
C 	 -3.23593 	 28.0033 	 53.3265 	 
H 	 -2.06313 	 27.7611 	 51.5733 	 
C 	 -1.03919 	 25.1307 	 52.3648 	 
H 	 -1.63203 	 24.3489 	 51.8959 	 
H 	 -0.473961 	 24.5481 	 53.1207 	 
C 	 -0.109316 	 25.7476 	 51.4088 	 
H 	 0.286444 	 24.9456 	 50.8166 	 
H 	 -0.617692 	 26.4902 	 50.7842 	 
C 	 1.05211 	 26.4675 	 52.0528 	 
H 	 1.54897 	 25.6967 	 52.6613 	 
H 	 1.82571 	 26.7883 	 51.3805 	 
H 	 0.726283 	 27.3471 	 52.5756 	 
S 	 -5.35313 	 29.0405 	 52.0184 	 
C 	 -5.39909 	 30.7754 	 51.7644 	 
C 	 -4.50785 	 31.4241 	 52.5531 	 
C 	 -3.60502 	 30.4964 	 53.215 	 
C 	 -3.94717 	 29.1896 	 52.9938 	 
H 	 -4.42732 	 32.528 	 52.4893 	 
C 	 -2.5368 	 31.0008 	 54.194 	 
H 	 -2.00963 	 31.7729 	 53.6396 	 
H 	 -1.81463 	 30.1805 	 54.3007 	 
C 	 -3.18833 	 31.3871 	 55.5007 	 
H 	 -3.9105 	 32.1872 	 55.4237 	 
H 	 -2.4284 	 31.6243 	 56.1778 	 
C 	 -3.90299 	 30.2098 	 56.132 	 
H 	 -4.1432 	 30.4399 	 57.1467 	 
H 	 -3.29284 	 29.3728 	 56.319 	 
H 	 -4.82732 	 29.9575 	 55.6375 	 
H 	 -2.38381 	 24.8643 	 54.8196 	 
H 	 -5.91428 	 31.2749 	 50.9421 	 
*
