! wB97X-D3 SP def2-SVP
%pal
nprocs 16
end

* xyz 0 1
S 	 -38.1015 	 15.5338 	 79.1465 	 
C 	 -37.1306 	 14.5478 	 78.0735 	 
C 	 -37.9152 	 13.8214 	 77.1798 	 
C 	 -39.3145 	 14.1463 	 77.2661 	 
C 	 -39.5907 	 15.125 	 78.2516 	 
H 	 -40.0583 	 13.8635 	 76.573 	 
C 	 -37.3456 	 12.9207 	 76.0803 	 
H 	 -38.2187 	 12.8231 	 75.3669 	 
H 	 -37.07 	 11.9857 	 76.4355 	 
C 	 -36.1361 	 13.5934 	 75.2272 	 
H 	 -35.1459 	 13.79 	 75.728 	 
H 	 -36.0059 	 12.8461 	 74.4791 	 
C 	 -36.733 	 14.8675 	 74.5058 	 
H 	 -36.9452 	 15.6139 	 75.2475 	 
H 	 -35.9099 	 15.1364 	 73.8078 	 
H 	 -37.6258 	 14.6641 	 73.9139 	 
S 	 -40.9648 	 17.3421 	 79.2975 	 
C 	 -42.6575 	 17.3218 	 79.4391 	 
C 	 -43.1801 	 16.1644 	 78.9161 	 
C 	 -42.2472 	 15.3492 	 78.2182 	 
C 	 -40.8986 	 15.7182 	 78.5417 	 
H 	 -44.2026 	 16.141 	 79.0133 	 
C 	 -42.7113 	 14.0438 	 77.6309 	 
H 	 -42.0789 	 13.9599 	 76.771 	 
H 	 -43.7777 	 14.1008 	 77.4094 	 
C 	 -42.4882 	 12.7951 	 78.482 	 
H 	 -41.4806 	 12.6433 	 78.7581 	 
H 	 -42.7376 	 11.9883 	 77.8875 	 
C 	 -43.2868 	 12.8355 	 79.8549 	 
H 	 -42.961 	 13.5102 	 80.627 	 
H 	 -43.1394 	 11.8473 	 80.2601 	 
H 	 -44.3566 	 13.1213 	 79.6665 	 
H 	 -36.0986 	 14.4324 	 78.1294 	 
H 	 -43.2004 	 17.9135 	 80.1342 	 
*
