! wB97X-D3 SP def2-SVP
%pal
nprocs 16
end

* xyz 0 1
S 	 -68.4899 	 37.4712 	 142.393 	 
C 	 -69.5584 	 37.1003 	 141.065 	 
C 	 -68.9248 	 37.3814 	 139.86 	 
C 	 -67.6174 	 37.7961 	 140.046 	 
C 	 -67.1545 	 37.8488 	 141.312 	 
H 	 -66.8789 	 38.0877 	 139.314 	 
C 	 -69.5209 	 37.1028 	 138.544 	 
H 	 -70.346 	 36.4198 	 138.687 	 
H 	 -68.8052 	 36.6623 	 137.821 	 
C 	 -69.994 	 38.2702 	 137.688 	 
H 	 -70.6687 	 38.8307 	 138.285 	 
H 	 -69.1504 	 38.915 	 137.411 	 
C 	 -70.6581 	 37.8244 	 136.452 	 
H 	 -70.3217 	 36.8295 	 136.217 	 
H 	 -71.7347 	 37.585 	 136.62 	 
H 	 -70.5028 	 38.5379 	 135.651 	 
S 	 -64.6258 	 37.0028 	 141.788 	 
C 	 -63.4668 	 38.1001 	 142.461 	 
C 	 -64.036 	 39.248 	 142.878 	 
C 	 -65.4018 	 39.3752 	 142.583 	 
C 	 -65.8439 	 38.3061 	 141.806 	 
H 	 -63.4489 	 39.9335 	 143.48 	 
C 	 -66.1557 	 40.6052 	 143.099 	 
H 	 -67.0442 	 40.6897 	 142.436 	 
H 	 -65.5661 	 41.423 	 142.809 	 
C 	 -66.5903 	 40.66 	 144.614 	 
H 	 -66.9697 	 41.6704 	 144.772 	 
H 	 -65.7841 	 40.6353 	 145.355 	 
C 	 -67.6249 	 39.5314 	 144.989 	 
H 	 -68.4486 	 39.5369 	 144.274 	 
H 	 -67.9959 	 39.7933 	 145.966 	 
H 	 -67.2706 	 38.5559 	 145.001 	 
H 	 -70.5553 	 36.8282 	 141.287 	 
H 	 -62.4369 	 38.0215 	 142.406 	 
*
