! wB97X-D3 SP def2-SVP
%pal
nprocs 16
end

* xyz 0 1
S 	 -3.81354 	 49.6789 	 49.4625 	 
C 	 -3.09454 	 49.1672 	 51.0078 	 
C 	 -3.67141 	 49.823 	 52.0559 	 
C 	 -4.671 	 50.6678 	 51.584 	 
C 	 -4.99313 	 50.659 	 50.2547 	 
H 	 -5.42851 	 51.1949 	 52.1301 	 
C 	 -3.4184 	 49.5992 	 53.5848 	 
H 	 -2.73162 	 48.7089 	 53.652 	 
H 	 -4.36054 	 49.2417 	 53.9972 	 
C 	 -2.70728 	 50.7443 	 54.3517 	 
H 	 -1.71531 	 50.9034 	 54 	 
H 	 -3.34934 	 51.5734 	 54.1821 	 
C 	 -2.62806 	 50.4333 	 55.8369 	 
H 	 -1.94108 	 49.6829 	 56.1696 	 
H 	 -2.25524 	 51.3722 	 56.3765 	 
H 	 -3.57133 	 50.1087 	 56.1977 	 
S 	 -5.23599 	 52.1695 	 47.9995 	 
C 	 -6.66999 	 53.1374 	 47.6662 	 
C 	 -7.6763 	 52.7945 	 48.5575 	 
C 	 -7.22933 	 51.9213 	 49.6163 	 
C 	 -5.9078 	 51.4788 	 49.4553 	 
H 	 -8.72916 	 53.1574 	 48.3352 	 
C 	 -8.25534 	 51.5665 	 50.7467 	 
H 	 -7.95446 	 50.6458 	 51.3397 	 
H 	 -9.13423 	 51.1807 	 50.3312 	 
C 	 -8.75979 	 52.6847 	 51.6861 	 
H 	 -9.50742 	 52.3249 	 52.3841 	 
H 	 -9.23054 	 53.433 	 51.0416 	 
C 	 -7.63643 	 53.2182 	 52.592 	 
H 	 -7.95943 	 53.9837 	 53.3366 	 
H 	 -6.88129 	 53.7056 	 51.9472 	 
H 	 -7.07329 	 52.3993 	 53.0589 	 
H 	 -2.15765 	 48.6419 	 51.024 	 
H 	 -6.84653 	 53.7448 	 46.7679 	 
*
