! wB97X-D3 SP def2-SVP
%pal
nprocs 16
end

* xyz 0 1
S 	 -41.9112 	 25.7601 	 88.1182 	 
C 	 -42.1665 	 27.4784 	 88.4644 	 
C 	 -42.5202 	 28.1965 	 87.314 	 
C 	 -42.6981 	 27.3349 	 86.1785 	 
C 	 -42.4313 	 26.0264 	 86.4475 	 
H 	 -42.9793 	 27.7868 	 85.2112 	 
C 	 -42.9803 	 29.6223 	 87.3651 	 
H 	 -43.0099 	 29.8825 	 86.3667 	 
H 	 -42.1913 	 30.3047 	 87.7418 	 
C 	 -44.2726 	 29.9346 	 88.0413 	 
H 	 -45.0686 	 29.2843 	 87.5773 	 
H 	 -44.3427 	 29.7105 	 89.1045 	 
C 	 -44.7343 	 31.3257 	 87.8734 	 
H 	 -44.6752 	 31.6637 	 86.7868 	 
H 	 -45.7495 	 31.3367 	 88.2108 	 
H 	 -44.0859 	 31.9781 	 88.4457 	 
S 	 -43.7951 	 24.6868 	 84.4775 	 
C 	 -42.8859 	 23.5651 	 83.4585 	 
C 	 -41.5998 	 23.3679 	 83.9102 	 
C 	 -41.2748 	 24.1025 	 85.0834 	 
C 	 -42.3122 	 25.018 	 85.4252 	 
H 	 -41.0233 	 22.7027 	 83.3137 	 
C 	 -39.8802 	 24.0107 	 85.6713 	 
H 	 -39.509 	 22.9573 	 85.5785 	 
H 	 -40.0791 	 24.0439 	 86.779 	 
C 	 -38.9934 	 25.0899 	 85.1908 	 
H 	 -37.9037 	 25.0092 	 85.4879 	 
H 	 -39.2457 	 26.0191 	 85.7076 	 
C 	 -39.1132 	 25.283 	 83.5899 	 
H 	 -38.2207 	 25.779 	 83.3425 	 
H 	 -40.0588 	 25.7636 	 83.2403 	 
H 	 -39.0234 	 24.2869 	 83.0693 	 
H 	 -42.1571 	 28.0224 	 89.3727 	 
H 	 -43.2971 	 23.0348 	 82.6332 	 
*
