! wB97X-D3 SP def2-SVP
%pal
nprocs 16
end

* xyz 0 1
S 	 -112.12 	 45.4993 	 130.388 	 
C 	 -111.965 	 46.6911 	 131.629 	 
C 	 -110.837 	 46.4752 	 132.412 	 
C 	 -110.018 	 45.4963 	 131.906 	 
C 	 -110.56 	 44.831 	 130.792 	 
H 	 -109.058 	 45.2915 	 132.228 	 
C 	 -110.486 	 47.392 	 133.605 	 
H 	 -110.577 	 46.7436 	 134.458 	 
H 	 -111.268 	 48.1237 	 133.652 	 
C 	 -109.182 	 48.0795 	 133.398 	 
H 	 -108.519 	 47.2557 	 133.223 	 
H 	 -109.262 	 48.6249 	 132.5 	 
C 	 -108.635 	 48.7864 	 134.616 	 
H 	 -109.03 	 49.795 	 134.499 	 
H 	 -108.968 	 48.4109 	 135.514 	 
H 	 -107.494 	 48.7446 	 134.595 	 
S 	 -110.548 	 43.5375 	 128.427 	 
C 	 -109.701 	 42.0282 	 128.233 	 
C 	 -108.833 	 41.7812 	 129.29 	 
C 	 -109.151 	 42.6383 	 130.392 	 
C 	 -110.032 	 43.6717 	 130.071 	 
H 	 -108.226 	 40.9197 	 129.271 	 
C 	 -108.379 	 42.4542 	 131.68 	 
H 	 -108.553 	 41.5177 	 132.13 	 
H 	 -108.667 	 43.1885 	 132.401 	 
C 	 -106.876 	 42.8216 	 131.475 	 
H 	 -106.704 	 43.808 	 130.977 	 
H 	 -106.474 	 42.1712 	 130.635 	 
C 	 -105.854 	 42.5842 	 132.65 	 
H 	 -106.147 	 43.1775 	 133.467 	 
H 	 -104.847 	 42.7585 	 132.377 	 
H 	 -105.812 	 41.5395 	 133.015 	 
H 	 -112.757 	 47.3576 	 132.001 	 
H 	 -109.661 	 41.4385 	 127.31 	 
*
