! wB97X-D3 SP def2-SVP
%pal
nprocs 16
end

* xyz 0 1
S 	 -40.1991 	 17.9848 	 79.5511 	 
C 	 -40.7966 	 18.8434 	 78.1695 	 
C 	 -40 	 18.5386 	 77.0739 	 
C 	 -38.9206 	 17.6981 	 77.3813 	 
C 	 -38.997 	 17.1686 	 78.6825 	 
H 	 -38.1287 	 17.3421 	 76.7359 	 
C 	 -40.1444 	 19.1981 	 75.6906 	 
H 	 -39.5651 	 20.0955 	 75.6714 	 
H 	 -41.1856 	 19.6564 	 75.608 	 
C 	 -39.8453 	 18.3133 	 74.4974 	 
H 	 -39.7844 	 18.8762 	 73.5647 	 
H 	 -38.8043 	 18.0102 	 74.6655 	 
C 	 -40.8339 	 17.0356 	 74.4528 	 
H 	 -41.7781 	 17.5091 	 74.2558 	 
H 	 -40.6727 	 16.2799 	 73.6992 	 
H 	 -40.8578 	 16.4786 	 75.4375 	 
S 	 -37.2992 	 16.2388 	 80.7758 	 
C 	 -36.4177 	 14.7584 	 80.539 	 
C 	 -36.843 	 14.0984 	 79.389 	 
C 	 -37.7413 	 14.8611 	 78.6222 	 
C 	 -38.178 	 16.0937 	 79.2004 	 
H 	 -36.3944 	 13.197 	 79.113 	 
C 	 -38.1865 	 14.3521 	 77.2591 	 
H 	 -37.4496 	 13.611 	 76.9202 	 
H 	 -38.0302 	 15.0472 	 76.5164 	 
C 	 -39.6394 	 13.752 	 77.3006 	 
H 	 -40.3941 	 14.4688 	 77.384 	 
H 	 -39.6678 	 13.1913 	 78.275 	 
C 	 -39.8505 	 12.8419 	 76.1028 	 
H 	 -39.1378 	 12.0196 	 75.9562 	 
H 	 -39.9218 	 13.3733 	 75.2214 	 
H 	 -40.781 	 12.3774 	 76.3929 	 
H 	 -41.5561 	 19.6293 	 78.0616 	 
H 	 -35.5817 	 14.4223 	 81.1571 	 
*
