! wB97X-D3 SP def2-SVP
%pal
nprocs 16
end

* xyz 0 1
S 	 12.796 	 33.1769 	 59.3909 	 
C 	 14.1277 	 32.1896 	 59.9314 	 
C 	 14.5727 	 32.6393 	 61.1855 	 
C 	 13.8467 	 33.7257 	 61.7088 	 
C 	 13.013 	 34.3508 	 60.7741 	 
H 	 13.8801 	 34.1414 	 62.6791 	 
C 	 15.5556 	 31.8672 	 62.0031 	 
H 	 16.5183 	 32.4232 	 62.0766 	 
H 	 15.8718 	 31.0101 	 61.4182 	 
C 	 14.9795 	 31.37 	 63.3302 	 
H 	 14.821 	 32.2898 	 63.953 	 
H 	 14.0202 	 30.9239 	 63.1648 	 
C 	 15.9281 	 30.3298 	 63.9216 	 
H 	 15.4549 	 29.7392 	 64.6672 	 
H 	 16.2352 	 29.5887 	 63.1759 	 
H 	 16.7771 	 30.7515 	 64.4746 	 
S 	 10.5416 	 35.5966 	 60.6677 	 
C 	 10.4297 	 37.2289 	 61.0139 	 
C 	 11.6693 	 37.7815 	 61.2901 	 
C 	 12.7659 	 36.9017 	 61.346 	 
C 	 12.3058 	 35.6535 	 60.8578 	 
H 	 11.8259 	 38.8528 	 61.4003 	 
C 	 14.2383 	 37.3232 	 61.6949 	 
H 	 14.8827 	 36.5037 	 61.5232 	 
H 	 14.2769 	 37.4799 	 62.7194 	 
C 	 14.73 	 38.5963 	 61.005 	 
H 	 15.7889 	 38.7309 	 61.1007 	 
H 	 14.1631 	 39.4162 	 61.491 	 
C 	 14.5793 	 38.6633 	 59.4274 	 
H 	 14.9167 	 37.7448 	 58.9474 	 
H 	 15.0624 	 39.5506 	 58.9676 	 
H 	 13.5094 	 38.855 	 59.3115 	 
H 	 14.501 	 31.3375 	 59.463 	 
H 	 9.50181 	 37.7167 	 60.9982 	 
*
