! wB97X-D3 SP def2-SVP
%pal
nprocs 16
end

* xyz 0 1
S 	 -68.7143 	 58.9539 	 128.026 	 
C 	 -68.0869 	 60.5076 	 127.895 	 
C 	 -68.7292 	 61.203 	 126.895 	 
C 	 -69.7213 	 60.4146 	 126.198 	 
C 	 -69.8134 	 59.1469 	 126.684 	 
H 	 -70.3845 	 60.8502 	 125.526 	 
C 	 -68.4766 	 62.624 	 126.53 	 
H 	 -68.3295 	 62.6646 	 125.425 	 
H 	 -67.6573 	 63.0229 	 127.075 	 
C 	 -69.5722 	 63.6861 	 126.97 	 
H 	 -69.4106 	 64.5757 	 126.365 	 
H 	 -70.5825 	 63.2784 	 126.595 	 
C 	 -69.6438 	 64.1959 	 128.404 	 
H 	 -68.7404 	 64.5529 	 128.765 	 
H 	 -70.4166 	 64.9069 	 128.662 	 
H 	 -69.919 	 63.3575 	 129.083 	 
S 	 -71.4806 	 57.1608 	 127.649 	 
C 	 -72.5301 	 56.3511 	 126.447 	 
C 	 -72.3026 	 56.75 	 125.16 	 
C 	 -71.3103 	 57.7973 	 125.069 	 
C 	 -70.849 	 58.217 	 126.34 	 
H 	 -72.7887 	 56.1907 	 124.39 	 
C 	 -70.9556 	 58.5065 	 123.759 	 
H 	 -70.8562 	 57.694 	 122.986 	 
H 	 -70.0218 	 59.0574 	 123.901 	 
C 	 -72.0777 	 59.4632 	 123.264 	 
H 	 -72.5859 	 60.1888 	 123.97 	 
H 	 -72.8745 	 58.8418 	 122.964 	 
C 	 -71.5941 	 60.0633 	 121.896 	 
H 	 -70.7889 	 60.8084 	 121.995 	 
H 	 -72.4157 	 60.6647 	 121.557 	 
H 	 -71.4234 	 59.294 	 121.071 	 
H 	 -67.4492 	 60.9074 	 128.686 	 
H 	 -73.1225 	 55.4455 	 126.538 	 
*
