! wB97X-D3 SP def2-SVP
%pal
nprocs 16
end

* xyz 0 1
S 	 -41.3941 	 38.052 	 94.4756 	 
C 	 -41.6513 	 39.8149 	 94.4785 	 
C 	 -41.475 	 40.3576 	 95.7037 	 
C 	 -40.8188 	 39.4882 	 96.6212 	 
C 	 -40.6767 	 38.1236 	 96.1552 	 
H 	 -40.4187 	 39.7459 	 97.5811 	 
C 	 -41.8452 	 41.7586 	 96.1632 	 
H 	 -41.8709 	 42.3498 	 95.2682 	 
H 	 -41.0033 	 42.1222 	 96.7027 	 
C 	 -43.1194 	 41.7941 	 97.064 	 
H 	 -43.8294 	 41.1053 	 96.7101 	 
H 	 -42.8537 	 41.3689 	 98.0101 	 
C 	 -43.6854 	 43.1921 	 97.1926 	 
H 	 -43.0454 	 44.0238 	 97.6549 	 
H 	 -43.9607 	 43.5768 	 96.2588 	 
H 	 -44.6019 	 43.1484 	 97.8223 	 
S 	 -40.4275 	 35.3389 	 96.1183 	 
C 	 -39.4475 	 34.7448 	 97.3648 	 
C 	 -38.7258 	 35.6661 	 98.1088 	 
C 	 -38.9495 	 36.9694 	 97.6257 	 
C 	 -39.9948 	 36.9887 	 96.7112 	 
H 	 -38.0317 	 35.4111 	 98.8886 	 
C 	 -38.1582 	 38.0771 	 98.1903 	 
H 	 -37.9785 	 38.9278 	 97.5036 	 
H 	 -37.1906 	 37.6753 	 98.3662 	 
C 	 -38.6662 	 38.4777 	 99.5648 	 
H 	 -38.8054 	 37.5946 	 100.279 	 
H 	 -39.7205 	 38.8769 	 99.4942 	 
C 	 -37.7572 	 39.5182 	 100.193 	 
H 	 -36.734 	 39.1945 	 100.563 	 
H 	 -38.2372 	 39.9719 	 101.044 	 
H 	 -37.6987 	 40.4064 	 99.548 	 
H 	 -42.2347 	 40.2861 	 93.68 	 
H 	 -39.2768 	 33.6739 	 97.6287 	 
*
