! wB97X-D3 SP def2-SVP
%pal
nprocs 16
end

* xyz 0 1
S 	 52.5374 	 -0.896869 	 81.4014 	 
C 	 51.0025 	 -0.276396 	 81.893 	 
C 	 51.1201 	 0.200564 	 83.2101 	 
C 	 52.5267 	 0.189589 	 83.7397 	 
C 	 53.372 	 -0.401815 	 82.8286 	 
H 	 52.8265 	 0.597131 	 84.7696 	 
C 	 49.9968 	 0.644754 	 84.1301 	 
H 	 49.1392 	 0.769738 	 83.5125 	 
H 	 50.3449 	 1.57281 	 84.6065 	 
C 	 49.832 	 -0.491117 	 85.1893 	 
H 	 49.6461 	 -1.50406 	 84.7019 	 
H 	 50.6546 	 -0.537291 	 85.9168 	 
C 	 48.6819 	 -0.201886 	 86.1696 	 
H 	 48.742 	 0.831328 	 86.5986 	 
H 	 47.7429 	 -0.244456 	 85.6802 	 
H 	 48.6506 	 -0.963157 	 86.9367 	 
S 	 55.4257 	 -1.72395 	 84.09 	 
C 	 57.0155 	 -1.72354 	 83.2412 	 
C 	 57.0817 	 -0.775071 	 82.239 	 
C 	 55.8119 	 -0.181115 	 81.9809 	 
C 	 54.8352 	 -0.577528 	 82.8594 	 
H 	 58.0326 	 -0.579243 	 81.6633 	 
C 	 55.5822 	 0.671261 	 80.7306 	 
H 	 56.3067 	 1.50908 	 80.8155 	 
H 	 54.5726 	 1.19885 	 80.6561 	 
C 	 55.7615 	 -0.089273 	 79.354 	 
H 	 54.8847 	 -0.603128 	 79.1232 	 
H 	 56.5582 	 -0.754483 	 79.4443 	 
C 	 56.3124 	 0.726831 	 78.1769 	 
H 	 56.3976 	 0.0464327 	 77.3069 	 
H 	 57.3732 	 1.13622 	 78.2567 	 
H 	 55.674 	 1.50092 	 77.8276 	 
H 	 50.0364 	 -0.449868 	 81.4397 	 
H 	 57.866 	 -2.31152 	 83.512 	 
*
