! wB97X-D3 SP def2-SVP
%pal
nprocs 16
end

* xyz 0 1
S 	 -15.1338 	 36.4061 	 38.155 	 
C 	 -15.4873 	 37.7912 	 39.1642 	 
C 	 -15.0939 	 38.991 	 38.5339 	 
C 	 -14.5811 	 38.7939 	 37.2561 	 
C 	 -14.7754 	 37.4835 	 36.7859 	 
H 	 -14.2367 	 39.6016 	 36.5631 	 
C 	 -15.3773 	 40.3597 	 39.0834 	 
H 	 -14.531 	 41.0043 	 38.8348 	 
H 	 -15.3192 	 40.2928 	 40.1688 	 
C 	 -16.6961 	 41.04 	 38.5782 	 
H 	 -16.513 	 41.4262 	 37.6406 	 
H 	 -17.4405 	 40.1976 	 38.5016 	 
C 	 -17.1688 	 42.2597 	 39.4307 	 
H 	 -16.5556 	 43.0671 	 39.4976 	 
H 	 -18.0658 	 42.6604 	 38.9222 	 
H 	 -17.4098 	 41.7812 	 40.4247 	 
S 	 -13.2858 	 35.8251 	 35.3798 	 
C 	 -13.2996 	 35.9259 	 33.6687 	 
C 	 -14.1293 	 36.8956 	 33.1985 	 
C 	 -14.812 	 37.5927 	 34.2455 	 
C 	 -14.4911 	 37.0357 	 35.4484 	 
H 	 -14.1508 	 37.0664 	 32.0817 	 
C 	 -15.7546 	 38.7096 	 34.0521 	 
H 	 -16.4451 	 38.8061 	 34.8845 	 
H 	 -16.4515 	 38.303 	 33.3369 	 
C 	 -15.0751 	 40.0713 	 33.5193 	 
H 	 -14.7581 	 39.8015 	 32.5137 	 
H 	 -14.1845 	 40.3749 	 34.0857 	 
C 	 -16.1457 	 41.1944 	 33.2689 	 
H 	 -17.116 	 40.775 	 32.9141 	 
H 	 -15.7948 	 41.9079 	 32.5528 	 
H 	 -16.2377 	 41.7684 	 34.2183 	 
H 	 -15.9019 	 37.7067 	 40.213 	 
H 	 -12.7183 	 35.3962 	 32.9849 	 
*
