! wB97X-D3 SP def2-SVP
%pal
nprocs 16
end

* xyz 0 1
S 	 59.617 	 -6.48728 	 87.4678 	 
C 	 58.3322 	 -5.99277 	 88.5721 	 
C 	 58.8278 	 -5.32772 	 89.6721 	 
C 	 60.2547 	 -5.34675 	 89.6288 	 
C 	 60.883 	 -6.04154 	 88.5916 	 
H 	 60.9452 	 -5.03524 	 90.3562 	 
C 	 58.122 	 -4.71636 	 90.8674 	 
H 	 58.1257 	 -3.59772 	 90.8435 	 
H 	 58.6934 	 -4.99905 	 91.7557 	 
C 	 56.7006 	 -5.06712 	 91.1843 	 
H 	 56.3234 	 -4.37025 	 91.9834 	 
H 	 56.1347 	 -4.69851 	 90.3218 	 
C 	 56.3707 	 -6.53613 	 91.5993 	 
H 	 57.0586 	 -6.85781 	 92.3356 	 
H 	 55.3908 	 -6.63512 	 92.0262 	 
H 	 56.3921 	 -7.22565 	 90.7761 	 
S 	 62.9803 	 -7.75871 	 88.3535 	 
C 	 64.5435 	 -7.0484 	 87.9276 	 
C 	 64.4962 	 -5.65395 	 87.7751 	 
C 	 63.1941 	 -5.16322 	 87.9684 	 
C 	 62.279 	 -6.14432 	 88.3213 	 
H 	 65.3463 	 -5.08247 	 87.3955 	 
C 	 62.8325 	 -3.74139 	 87.6747 	 
H 	 61.8485 	 -3.4405 	 87.6135 	 
H 	 63.2832 	 -3.44681 	 86.7222 	 
C 	 63.514 	 -2.71921 	 88.6371 	 
H 	 64.5527 	 -2.80402 	 88.6338 	 
H 	 63.2513 	 -2.9373 	 89.6502 	 
C 	 63.3874 	 -1.29708 	 88.1782 	 
H 	 63.8715 	 -1.2538 	 87.1384 	 
H 	 63.7897 	 -0.591103 	 88.8566 	 
H 	 62.3072 	 -1.0256 	 88.1508 	 
H 	 57.2937 	 -6.05379 	 88.3962 	 
H 	 65.4443 	 -7.61513 	 87.8188 	 
*
