! wB97X-D3 SP def2-SVP
%pal
nprocs 16
end

* xyz 0 1
S 	 51.7558 	 19.2717 	 91.2806 	 
C 	 50.283 	 20.2084 	 91.5458 	 
C 	 50.076 	 21.1212 	 90.533 	 
C 	 51.1078 	 21.0513 	 89.5455 	 
C 	 52.0638 	 20.0819 	 89.7843 	 
H 	 51.2487 	 21.6902 	 88.6776 	 
C 	 48.8799 	 22.0577 	 90.3396 	 
H 	 49.3241 	 23.0031 	 90.4224 	 
H 	 48.1584 	 21.8645 	 91.1236 	 
C 	 48.0202 	 21.951 	 89.0303 	 
H 	 48.6843 	 22.1934 	 88.2207 	 
H 	 47.7712 	 20.9204 	 88.8303 	 
C 	 46.8722 	 22.825 	 88.9378 	 
H 	 46.3929 	 22.4387 	 87.9993 	 
H 	 46.0948 	 22.5658 	 89.7308 	 
H 	 47.1011 	 23.8919 	 88.9637 	 
S 	 53.7714 	 21.301 	 88.0615 	 
C 	 55.1361 	 20.5355 	 87.4011 	 
C 	 55.2435 	 19.2406 	 87.9287 	 
C 	 54.1534 	 18.8534 	 88.7659 	 
C 	 53.2587 	 19.8712 	 88.9429 	 
H 	 56.1161 	 18.6842 	 87.5828 	 
C 	 54.0692 	 17.4525 	 89.356 	 
H 	 53.2138 	 17.2445 	 89.9419 	 
H 	 54.8961 	 17.2928 	 90.0944 	 
C 	 53.9951 	 16.4027 	 88.2813 	 
H 	 54.7871 	 16.3637 	 87.5738 	 
H 	 53.1807 	 16.5648 	 87.6239 	 
C 	 53.78 	 14.9956 	 88.9106 	 
H 	 52.8523 	 14.9167 	 89.4597 	 
H 	 54.6711 	 14.6124 	 89.4551 	 
H 	 53.7188 	 14.2602 	 88.0585 	 
H 	 49.6428 	 19.85 	 92.2717 	 
H 	 55.8508 	 21.148 	 86.8298 	 
*
