! wB97X-D3 SP def2-SVP
%pal
nprocs 16
end

* xyz 0 1
S 	 -2.61219 	 -12.0525 	 52.643 	 
C 	 -3.45749 	 -12.5044 	 51.1848 	 
C 	 -4.00482 	 -13.7901 	 51.1727 	 
C 	 -3.79331 	 -14.4416 	 52.4368 	 
C 	 -3.01702 	 -13.637 	 53.274 	 
H 	 -4.02661 	 -15.4293 	 52.8474 	 
C 	 -4.70053 	 -14.4557 	 49.9958 	 
H 	 -3.97204 	 -15.1619 	 49.4593 	 
H 	 -4.9628 	 -13.6448 	 49.3464 	 
C 	 -5.98237 	 -15.1887 	 50.3415 	 
H 	 -6.44076 	 -15.5696 	 49.4282 	 
H 	 -5.68345 	 -16.0447 	 50.9773 	 
C 	 -6.9962 	 -14.3733 	 51.2183 	 
H 	 -7.66127 	 -13.7841 	 50.602 	 
H 	 -7.54533 	 -15.1481 	 51.7989 	 
H 	 -6.51273 	 -13.6831 	 51.9097 	 
S 	 -1.04091 	 -13.6289 	 55.166 	 
C 	 -1.2494 	 -14.5643 	 56.6474 	 
C 	 -2.55617 	 -15.0058 	 56.7591 	 
C 	 -3.37298 	 -14.7531 	 55.5776 	 
C 	 -2.66575 	 -13.9835 	 54.6438 	 
H 	 -2.68044 	 -15.6238 	 57.628 	 
C 	 -4.75169 	 -15.2876 	 55.3539 	 
H 	 -5.19304 	 -14.694 	 54.5848 	 
H 	 -5.24686 	 -15.0191 	 56.2123 	 
C 	 -4.9519 	 -16.776 	 55.2187 	 
H 	 -4.54368 	 -17.1972 	 56.1505 	 
H 	 -4.27218 	 -17.2304 	 54.5403 	 
C 	 -6.39588 	 -17.1351 	 54.9026 	 
H 	 -7.10103 	 -16.5293 	 55.4926 	 
H 	 -6.65914 	 -18.1723 	 55.033 	 
H 	 -6.64699 	 -16.9064 	 53.8569 	 
H 	 -3.5315 	 -11.7408 	 50.4202 	 
H 	 -0.422792 	 -14.9431 	 57.2584 	 
*
