! wB97X-D3 SP def2-SVP
%pal
nprocs 16
end

* xyz 0 1
S 	 -91.248 	 41.9613 	 116.605 	 
C 	 -90.3734 	 42.5366 	 117.941 	 
C 	 -91.1421 	 43.0841 	 118.937 	 
C 	 -92.5165 	 42.9178 	 118.669 	 
C 	 -92.7987 	 42.3221 	 117.463 	 
H 	 -93.3453 	 43.2933 	 119.322 	 
C 	 -90.7539 	 43.9199 	 120.126 	 
H 	 -89.6601 	 43.7523 	 120.431 	 
H 	 -91.4224 	 43.4275 	 120.857 	 
C 	 -90.9626 	 45.4833 	 120.043 	 
H 	 -90.054 	 45.9364 	 119.753 	 
H 	 -91.7841 	 45.7207 	 119.443 	 
C 	 -91.2986 	 46.1623 	 121.417 	 
H 	 -90.9433 	 47.189 	 121.403 	 
H 	 -92.3834 	 46.1679 	 121.487 	 
H 	 -90.9131 	 45.5791 	 122.224 	 
S 	 -94.7073 	 43.2842 	 115.803 	 
C 	 -96.2714 	 42.549 	 115.797 	 
C 	 -96.2887 	 41.4311 	 116.632 	 
C 	 -95.0575 	 41.1653 	 117.318 	 
C 	 -94.0858 	 42.0498 	 116.907 	 
H 	 -97.2424 	 40.898 	 116.741 	 
C 	 -94.923 	 40.1099 	 118.418 	 
H 	 -93.8609 	 39.7847 	 118.406 	 
H 	 -95.6862 	 39.2962 	 118.145 	 
C 	 -95.182 	 40.6965 	 119.845 	 
H 	 -94.2823 	 41.3605 	 119.944 	 
H 	 -95.1392 	 39.9468 	 120.628 	 
C 	 -96.5203 	 41.3032 	 120.165 	 
H 	 -97.3481 	 40.5545 	 120.016 	 
H 	 -96.7052 	 42.3005 	 119.648 	 
H 	 -96.6152 	 41.4749 	 121.221 	 
H 	 -89.261 	 42.5341 	 117.913 	 
H 	 -97.088 	 42.8368 	 115.129 	 
*
