! wB97X-D3 SP def2-SVP
%pal
nprocs 16
end

* xyz 0 1
S 	 -35.1384 	 69.2008 	 172.262 	 
C 	 -34.1126 	 70.5803 	 172.692 	 
C 	 -34.9017 	 71.7204 	 173.016 	 
C 	 -36.328 	 71.3376 	 172.952 	 
C 	 -36.6689 	 70.07 	 172.514 	 
H 	 -37.1619 	 72.0351 	 173.053 	 
C 	 -34.3971 	 73.127 	 173.3 	 
H 	 -34.8806 	 73.7945 	 172.533 	 
H 	 -33.353 	 73.0435 	 173.159 	 
C 	 -34.6453 	 73.7707 	 174.676 	 
H 	 -35.7119 	 73.9735 	 174.655 	 
H 	 -34.3534 	 73.0896 	 175.483 	 
C 	 -34.013 	 75.2123 	 174.865 	 
H 	 -32.9265 	 75.2694 	 174.73 	 
H 	 -34.4691 	 75.8768 	 174.129 	 
H 	 -34.3689 	 75.5465 	 175.849 	 
S 	 -39.323 	 70.229 	 171.891 	 
C 	 -40.3752 	 68.9008 	 172.14 	 
C 	 -39.7347 	 67.76 	 172.601 	 
C 	 -38.3314 	 67.9843 	 172.887 	 
C 	 -37.965 	 69.348 	 172.566 	 
H 	 -40.3227 	 66.9204 	 172.808 	 
C 	 -37.3913 	 66.8627 	 173.278 	 
H 	 -36.5329 	 67.2403 	 173.811 	 
H 	 -36.9359 	 66.3711 	 172.41 	 
C 	 -37.9405 	 65.8425 	 174.32 	 
H 	 -37.1736 	 65.0842 	 174.61 	 
H 	 -38.8404 	 65.3247 	 173.978 	 
C 	 -38.2845 	 66.5454 	 175.688 	 
H 	 -37.5611 	 67.2398 	 175.939 	 
H 	 -38.5444 	 65.8793 	 176.538 	 
H 	 -39.2009 	 67.0471 	 175.511 	 
H 	 -33.0469 	 70.5574 	 172.674 	 
H 	 -41.392 	 69.0409 	 171.994 	 
*
