! wB97X-D3 SP def2-SVP
%pal
nprocs 16
end

* xyz 0 1
S 	 -35.9001 	 52.2498 	 107.995 	 
C 	 -37.2695 	 51.9274 	 108.985 	 
C 	 -37.5869 	 50.6062 	 109.069 	 
C 	 -36.7336 	 49.8234 	 108.232 	 
C 	 -35.8392 	 50.5795 	 107.542 	 
H 	 -36.7025 	 48.6807 	 108.247 	 
C 	 -38.7142 	 49.9734 	 109.853 	 
H 	 -39.0719 	 50.7067 	 110.594 	 
H 	 -38.2764 	 49.204 	 110.481 	 
C 	 -39.8799 	 49.4596 	 109.001 	 
H 	 -40.1635 	 50.4197 	 108.534 	 
H 	 -39.5535 	 48.6426 	 108.32 	 
C 	 -41.1308 	 48.9788 	 109.862 	 
H 	 -41.9292 	 48.4357 	 109.322 	 
H 	 -40.8389 	 48.4304 	 110.807 	 
H 	 -41.5803 	 49.8743 	 110.116 	 
S 	 -33.1663 	 50.3324 	 107.064 	 
C 	 -32.5888 	 49.2856 	 105.82 	 
C 	 -33.6334 	 48.7195 	 105.064 	 
C 	 -34.9305 	 49.1595 	 105.574 	 
C 	 -34.7851 	 49.9989 	 106.694 	 
H 	 -33.5341 	 48.0141 	 104.252 	 
C 	 -36.2463 	 48.7255 	 104.909 	 
H 	 -36.2988 	 49.2919 	 103.975 	 
H 	 -37.0792 	 49.0926 	 105.518 	 
C 	 -36.4289 	 47.2271 	 104.564 	 
H 	 -36.1747 	 46.6886 	 105.51 	 
H 	 -35.7315 	 46.9398 	 103.743 	 
C 	 -37.9219 	 46.7779 	 104.319 	 
H 	 -38.0922 	 45.7078 	 104.495 	 
H 	 -38.331 	 47.0567 	 103.326 	 
H 	 -38.5965 	 47.1871 	 105.08 	 
H 	 -37.8057 	 52.6749 	 109.599 	 
H 	 -31.5644 	 49.1842 	 105.452 	 
*
