! wB97X-D3 SP def2-SVP
%pal
nprocs 16
end

* xyz 0 1
S 	 -30.5742 	 62.7692 	 116.067 	 
C 	 -29.0239 	 62.021 	 115.456 	 
C 	 -29.2423 	 60.7583 	 114.992 	 
C 	 -30.6407 	 60.4131 	 114.887 	 
C 	 -31.4474 	 61.4726 	 115.359 	 
H 	 -31.2058 	 59.534 	 114.625 	 
C 	 -28.0808 	 59.8857 	 114.649 	 
H 	 -27.3012 	 60.4649 	 114.182 	 
H 	 -28.4617 	 59.1575 	 113.918 	 
C 	 -27.5231 	 59.0756 	 115.934 	 
H 	 -27.0969 	 59.8126 	 116.555 	 
H 	 -28.402 	 58.5305 	 116.417 	 
C 	 -26.4426 	 58.1433 	 115.5 	 
H 	 -25.9682 	 58.5644 	 114.561 	 
H 	 -25.7745 	 58.1209 	 116.295 	 
H 	 -26.6559 	 57.0539 	 115.272 	 
S 	 -33.5137 	 61.5693 	 117.09 	 
C 	 -35.1231 	 61.8173 	 116.448 	 
C 	 -35.1648 	 61.6883 	 115.106 	 
C 	 -33.9211 	 61.4532 	 114.473 	 
C 	 -32.8811 	 61.4423 	 115.467 	 
H 	 -36.1365 	 61.862 	 114.599 	 
C 	 -33.7897 	 61.2401 	 112.938 	 
H 	 -32.7185 	 60.9517 	 112.692 	 
H 	 -33.805 	 62.2357 	 112.467 	 
C 	 -34.7897 	 60.231 	 112.248 	 
H 	 -35.7885 	 60.5422 	 112.185 	 
H 	 -34.7711 	 59.3122 	 112.797 	 
C 	 -34.3835 	 59.9465 	 110.798 	 
H 	 -34.4218 	 60.8204 	 110.162 	 
H 	 -35.1849 	 59.2368 	 110.438 	 
H 	 -33.39 	 59.4749 	 110.761 	 
H 	 -28.0711 	 62.3525 	 115.754 	 
H 	 -36.0461 	 61.9683 	 117.012 	 
*
