! wB97X-D3 SP def2-SVP
%pal
nprocs 16
end

* xyz 0 1
S 	 39.75 	 11.5839 	 89.2564 	 
C 	 41.0011 	 11.8144 	 88.0803 	 
C 	 40.6986 	 11.2474 	 86.878 	 
C 	 39.4407 	 10.6636 	 86.93 	 
C 	 38.8559 	 10.5968 	 88.1431 	 
H 	 38.9224 	 10.1261 	 86.1036 	 
C 	 41.3469 	 11.2985 	 85.5484 	 
H 	 40.8314 	 10.8959 	 84.7208 	 
H 	 42.1542 	 10.5499 	 85.738 	 
C 	 41.8832 	 12.6311 	 85.1011 	 
H 	 42.4548 	 12.8917 	 85.9179 	 
H 	 42.6158 	 12.5346 	 84.2473 	 
C 	 40.8953 	 13.799 	 84.8702 	 
H 	 40.4659 	 14.1068 	 85.8422 	 
H 	 41.4303 	 14.6845 	 84.5249 	 
H 	 40.1118 	 13.6396 	 84.1512 	 
S 	 38.5791 	 7.99755 	 88.6764 	 
C 	 37.0566 	 7.36829 	 89.2538 	 
C 	 35.9995 	 8.32396 	 89.1988 	 
C 	 36.4786 	 9.55057 	 88.6746 	 
C 	 37.841 	 9.60872 	 88.4649 	 
H 	 35.0747 	 7.92845 	 89.4817 	 
C 	 35.6803 	 10.8769 	 88.5423 	 
H 	 36.2826 	 11.6075 	 89.1719 	 
H 	 34.6987 	 10.8513 	 89.1247 	 
C 	 35.5592 	 11.5805 	 87.1959 	 
H 	 36.596 	 11.8532 	 86.8977 	 
H 	 34.9369 	 12.4653 	 87.2229 	 
C 	 35.0027 	 10.6528 	 86.0111 	 
H 	 34.0087 	 10.201 	 86.2484 	 
H 	 35.6749 	 9.79663 	 85.7863 	 
H 	 34.9945 	 11.3422 	 85.0943 	 
H 	 41.9375 	 12.2917 	 88.1504 	 
H 	 36.8913 	 6.34194 	 89.6148 	 
*
