! wB97X-D3 SP def2-SVP
%pal
nprocs 16
end

* xyz 0 1
S 	 -15.9288 	 -6.33037 	 82.8952 	 
C 	 -15.7903 	 -4.90966 	 81.8298 	 
C 	 -15.179 	 -3.84851 	 82.4205 	 
C 	 -14.9657 	 -4.08393 	 83.8192 	 
C 	 -15.3163 	 -5.36143 	 84.2281 	 
H 	 -14.6023 	 -3.41545 	 84.4862 	 
C 	 -14.7757 	 -2.65513 	 81.6928 	 
H 	 -14.6097 	 -1.98555 	 82.5202 	 
H 	 -15.6069 	 -2.25401 	 81.1791 	 
C 	 -13.6563 	 -2.67273 	 80.7248 	 
H 	 -13.9865 	 -3.14773 	 79.826 	 
H 	 -13.6407 	 -1.61368 	 80.492 	 
C 	 -12.3358 	 -3.00534 	 81.395 	 
H 	 -12.2601 	 -4.06607 	 81.5496 	 
H 	 -11.5094 	 -2.66952 	 80.7578 	 
H 	 -12.4118 	 -2.5298 	 82.3681 	 
S 	 -14.2402 	 -7.36053 	 85.9228 	 
C 	 -14.5322 	 -7.24462 	 87.5936 	 
C 	 -15.21 	 -6.06144 	 87.9053 	 
C 	 -15.737 	 -5.39009 	 86.7613 	 
C 	 -15.1571 	 -5.84827 	 85.5916 	 
H 	 -15.4197 	 -6.01068 	 89.0159 	 
C 	 -16.6674 	 -4.20568 	 86.878 	 
H 	 -16.2564 	 -3.4668 	 86.1618 	 
H 	 -16.5259 	 -3.75587 	 87.8838 	 
C 	 -18.0921 	 -4.47703 	 86.4522 	 
H 	 -18.5684 	 -4.94224 	 87.3079 	 
H 	 -18.0682 	 -5.15878 	 85.594 	 
C 	 -18.8562 	 -3.22897 	 86.2156 	 
H 	 -19.8554 	 -3.398 	 85.8534 	 
H 	 -18.3957 	 -2.66294 	 85.4091 	 
H 	 -18.9906 	 -2.5694 	 87.1582 	 
H 	 -16.151 	 -5.00642 	 80.8331 	 
H 	 -14.0388 	 -7.79128 	 88.3657 	 
*
