! wB97X-D3 SP def2-SVP
%pal
nprocs 16
end

* xyz 0 1
S 	 44.806 	 8.78779 	 101.972 	 
C 	 46.5567 	 8.89472 	 102.085 	 
C 	 47.1309 	 9.00405 	 100.873 	 
C 	 46.1449 	 8.92186 	 99.815 	 
C 	 44.8201 	 8.78321 	 100.253 	 
H 	 46.4519 	 8.84913 	 98.8112 	 
C 	 48.589 	 9.10841 	 100.593 	 
H 	 48.856 	 8.74706 	 99.6142 	 
H 	 49.0639 	 8.38022 	 101.254 	 
C 	 49.0816 	 10.4768 	 100.704 	 
H 	 48.5381 	 11.1704 	 100.018 	 
H 	 48.9553 	 10.7632 	 101.769 	 
C 	 50.5542 	 10.556 	 100.413 	 
H 	 50.9389 	 10.1616 	 99.4724 	 
H 	 50.7267 	 11.6782 	 100.559 	 
H 	 51.2295 	 10.1502 	 101.216 	 
S 	 42.5274 	 7.11134 	 99.9313 	 
C 	 41.7368 	 7.12491 	 98.3697 	 
C 	 42.1702 	 8.16024 	 97.6422 	 
C 	 43.1588 	 9.06464 	 98.2583 	 
C 	 43.5724 	 8.54781 	 99.5086 	 
H 	 41.7776 	 8.29056 	 96.6358 	 
C 	 43.6686 	 10.2701 	 97.4722 	 
H 	 43.6998 	 10.0875 	 96.3758 	 
H 	 44.7138 	 10.3225 	 97.5424 	 
C 	 43.0635 	 11.6214 	 97.9003 	 
H 	 41.9892 	 11.5803 	 98.1806 	 
H 	 43.2966 	 12.4147 	 97.1044 	 
C 	 43.6398 	 12.1022 	 99.2198 	 
H 	 43.5313 	 11.3141 	 100.008 	 
H 	 43.0472 	 12.9181 	 99.4798 	 
H 	 44.7354 	 12.3933 	 99.0952 	 
H 	 47.0839 	 9.01129 	 103.074 	 
H 	 41.0431 	 6.33554 	 98.1381 	 
*
