! wB97X-D3 SP def2-SVP
%pal
nprocs 16
end

* xyz 0 1
S 	 -2.61835 	 10.3317 	 79.5669 	 
C 	 -3.54607 	 8.91528 	 79.7286 	 
C 	 -4.57272 	 9.04486 	 80.6803 	 
C 	 -4.47045 	 10.3604 	 81.2411 	 
C 	 -3.48455 	 11.194 	 80.8281 	 
H 	 -5.11984 	 10.7662 	 81.9912 	 
C 	 -5.51265 	 7.94678 	 81.2005 	 
H 	 -5.41171 	 8.09171 	 82.2662 	 
H 	 -5.19499 	 6.98135 	 80.7779 	 
C 	 -6.94765 	 8.3069 	 80.8656 	 
H 	 -7.51011 	 7.62381 	 81.4627 	 
H 	 -7.09371 	 9.41127 	 81.1251 	 
C 	 -7.1979 	 8.22078 	 79.3086 	 
H 	 -6.75387 	 9.02695 	 78.7628 	 
H 	 -6.95046 	 7.24456 	 78.8274 	 
H 	 -8.27116 	 8.47388 	 79.24 	 
S 	 -1.81951 	 12.7825 	 82.1424 	 
C 	 -2.28509 	 14.3677 	 82.6308 	 
C 	 -3.43441 	 14.7891 	 82.0072 	 
C 	 -4.0215 	 13.7071 	 81.2935 	 
C 	 -3.26916 	 12.5432 	 81.3526 	 
H 	 -3.88098 	 15.7891 	 82.0672 	 
C 	 -5.45933 	 13.7844 	 80.9058 	 
H 	 -5.6975 	 14.864 	 81.1066 	 
H 	 -6.09352 	 13.2961 	 81.6332 	 
C 	 -5.89247 	 13.3506 	 79.4879 	 
H 	 -5.99115 	 12.249 	 79.3819 	 
H 	 -5.18267 	 13.692 	 78.7942 	 
C 	 -7.21772 	 13.9987 	 79.0226 	 
H 	 -8.05379 	 13.987 	 79.7074 	 
H 	 -7.51351 	 13.6462 	 78.0553 	 
H 	 -7.07535 	 15.0463 	 78.7751 	 
H 	 -3.4334 	 7.94612 	 79.1779 	 
H 	 -1.55845 	 14.9601 	 83.215 	 
*
