! wB97X-D3 SP def2-SVP
%pal
nprocs 16
end

* xyz 0 1
S 	 -42.4136 	 36.2918 	 77.1423 	 
C 	 -43.3921 	 35.6794 	 75.7339 	 
C 	 -43.1498 	 34.3627 	 75.5071 	 
C 	 -42.3569 	 33.8012 	 76.5515 	 
C 	 -41.9158 	 34.623 	 77.5615 	 
H 	 -42.1042 	 32.7643 	 76.5684 	 
C 	 -43.7819 	 33.5445 	 74.3506 	 
H 	 -42.9617 	 33.0478 	 73.8192 	 
H 	 -44.1189 	 34.3226 	 73.716 	 
C 	 -44.8139 	 32.5767 	 74.7912 	 
H 	 -45 	 31.8253 	 73.9609 	 
H 	 -44.5587 	 32.1024 	 75.7595 	 
C 	 -46.1927 	 33.1747 	 75.3021 	 
H 	 -46.8618 	 32.4002 	 75.6062 	 
H 	 -46.1269 	 33.9186 	 76.1552 	 
H 	 -46.6083 	 33.5966 	 74.4139 	 
S 	 -41.4118 	 34.9354 	 80.2975 	 
C 	 -40.3458 	 33.8744 	 81.087 	 
C 	 -39.8214 	 32.9705 	 80.2194 	 
C 	 -40.1468 	 33.2411 	 78.8428 	 
C 	 -41.0784 	 34.2598 	 78.6659 	 
H 	 -39.2239 	 32.1205 	 80.5212 	 
C 	 -39.5007 	 32.2968 	 77.8009 	 
H 	 -38.4229 	 32.3826 	 77.8955 	 
H 	 -39.7159 	 32.548 	 76.7878 	 
C 	 -39.8786 	 30.8147 	 77.9234 	 
H 	 -40.9372 	 30.731 	 77.8788 	 
H 	 -39.5283 	 30.4652 	 78.9489 	 
C 	 -39.1743 	 29.8775 	 76.9514 	 
H 	 -39.545 	 28.8838 	 76.8439 	 
H 	 -38.1223 	 29.7945 	 76.9932 	 
H 	 -39.271 	 30.2509 	 75.9142 	 
H 	 -43.9495 	 36.2628 	 75.0193 	 
H 	 -40.2174 	 33.9089 	 82.1054 	 
*
