! wB97X-D3 SP def2-SVP
%pal
nprocs 16
end

* xyz 0 1
S 	 -45.5628 	 57.3128 	 97.7118 	 
C 	 -45.9564 	 57.2979 	 99.3177 	 
C 	 -46.9748 	 56.4145 	 99.5181 	 
C 	 -46.9097 	 55.3831 	 98.6078 	 
C 	 -46.2112 	 55.7076 	 97.5102 	 
H 	 -47.4568 	 54.4736 	 98.6972 	 
C 	 -47.733 	 56.1929 	 100.856 	 
H 	 -47.2569 	 56.766 	 101.514 	 
H 	 -47.5929 	 55.1993 	 101.166 	 
C 	 -49.3123 	 56.4728 	 100.747 	 
H 	 -49.5622 	 57.4074 	 100.252 	 
H 	 -49.8134 	 55.7782 	 100.137 	 
C 	 -50.0608 	 56.4704 	 102.136 	 
H 	 -49.7319 	 55.6412 	 102.74 	 
H 	 -49.8595 	 57.3021 	 102.832 	 
H 	 -51.124 	 56.56 	 101.905 	 
S 	 -46.5983 	 55.693 	 94.7456 	 
C 	 -46.0552 	 54.2415 	 93.8223 	 
C 	 -45.6891 	 53.24 	 94.6494 	 
C 	 -45.6907 	 53.5919 	 96.0463 	 
C 	 -46.1103 	 54.9352 	 96.2522 	 
H 	 -45.3985 	 52.3086 	 94.2777 	 
C 	 -45.0654 	 52.7727 	 97.1696 	 
H 	 -45.2853 	 51.777 	 96.9944 	 
H 	 -45.6559 	 52.8836 	 98.2 	 
C 	 -43.5236 	 53.0026 	 97.2891 	 
H 	 -43.02 	 52.9119 	 96.3138 	 
H 	 -43.145 	 52.1029 	 97.812 	 
C 	 -43.104 	 54.3161 	 97.9764 	 
H 	 -43.4916 	 54.1469 	 98.9834 	 
H 	 -43.7229 	 55.2211 	 97.5845 	 
H 	 -42.0289 	 54.4662 	 98.2413 	 
H 	 -45.657 	 58.0012 	 100.035 	 
H 	 -46.1707 	 54.2003 	 92.727 	 
*
