! wB97X-D3 SP def2-SVP
%pal
nprocs 16
end

* xyz 0 1
S 	 8.75768 	 -6.4791 	 89.6978 	 
C 	 9.94476 	 -5.21322 	 89.3987 	 
C 	 10.0643 	 -5.04023 	 88.0285 	 
C 	 9.34035 	 -6.06348 	 87.3034 	 
C 	 8.65768 	 -6.996 	 88.0806 	 
H 	 9.34842 	 -6.11674 	 86.265 	 
C 	 10.9096 	 -4.0256 	 87.3462 	 
H 	 11.8475 	 -4.56141 	 87.1698 	 
H 	 10.908 	 -3.29212 	 88.1709 	 
C 	 10.4468 	 -3.44372 	 85.9719 	 
H 	 11.2613 	 -2.77767 	 85.6184 	 
H 	 10.3403 	 -4.19318 	 85.267 	 
C 	 9.2139 	 -2.52082 	 86.1099 	 
H 	 9.09706 	 -2.20906 	 85.0709 	 
H 	 8.33323 	 -3.01873 	 86.4263 	 
H 	 9.38749 	 -1.72021 	 86.7103 	 
S 	 7.95814 	 -9.63686 	 88.369 	 
C 	 6.70175 	 -10.3285 	 87.3265 	 
C 	 6.02919 	 -9.35624 	 86.6031 	 
C 	 6.65038 	 -8.05749 	 86.8467 	 
C 	 7.74329 	 -8.08375 	 87.6936 	 
H 	 5.18958 	 -9.73051 	 86.0625 	 
C 	 5.92216 	 -6.7021 	 86.4519 	 
H 	 5.40585 	 -6.74484 	 85.5327 	 
H 	 6.58884 	 -5.89529 	 86.1866 	 
C 	 4.91796 	 -6.25376 	 87.5547 	 
H 	 5.4184 	 -6.14279 	 88.5361 	 
H 	 4.14827 	 -7.04457 	 87.739 	 
C 	 4.35404 	 -4.88197 	 87.3004 	 
H 	 3.42813 	 -4.67943 	 87.8226 	 
H 	 4.00679 	 -4.77237 	 86.277 	 
H 	 5.1358 	 -4.26665 	 87.6638 	 
H 	 10.3095 	 -4.56752 	 90.1816 	 
H 	 6.39045 	 -11.3284 	 87.3444 	 
*
