! wB97X-D3 SP def2-SVP
%pal
nprocs 16
end

* xyz 0 1
S 	 11.0525 	 24.0557 	 54.3261 	 
C 	 12.2341 	 24.2709 	 55.5613 	 
C 	 13.471 	 24.1575 	 54.9991 	 
C 	 13.4328 	 23.899 	 53.5613 	 
C 	 12.1946 	 24.0329 	 52.9837 	 
H 	 14.2775 	 23.7785 	 52.936 	 
C 	 14.8255 	 24.1101 	 55.7431 	 
H 	 14.763 	 24.6743 	 56.7601 	 
H 	 15.5573 	 24.6723 	 55.1866 	 
C 	 15.4041 	 22.6995 	 56.0004 	 
H 	 14.6865 	 22.2236 	 56.6531 	 
H 	 15.4717 	 22.0856 	 55.1482 	 
C 	 16.7086 	 22.6709 	 56.7075 	 
H 	 17.2347 	 21.8039 	 56.4034 	 
H 	 17.3453 	 23.4865 	 56.3274 	 
H 	 16.5237 	 22.5918 	 57.8133 	 
S 	 12.5754 	 22.7653 	 50.6336 	 
C 	 11.7802 	 23.3245 	 49.1861 	 
C 	 10.8115 	 24.2494 	 49.4627 	 
C 	 10.8409 	 24.6789 	 50.8324 	 
C 	 11.8572 	 24.0524 	 51.572 	 
H 	 10.1698 	 24.6724 	 48.7276 	 
C 	 9.92956 	 25.7531 	 51.2566 	 
H 	 9.75046 	 26.6058 	 50.6727 	 
H 	 10.517 	 26.3306 	 52.0013 	 
C 	 8.54309 	 25.3159 	 51.9087 	 
H 	 7.99847 	 26.2426 	 52.2519 	 
H 	 8.64119 	 24.7443 	 52.8589 	 
C 	 7.71622 	 24.482 	 50.9904 	 
H 	 6.79257 	 24.174 	 51.3909 	 
H 	 8.25853 	 23.5399 	 50.759 	 
H 	 7.50007 	 24.9865 	 50.0042 	 
H 	 12.0028 	 24.4192 	 56.5801 	 
H 	 11.8272 	 22.9424 	 48.2157 	 
*
