! wB97X-D3 SP def2-SVP
%pal
nprocs 16
end

* xyz 0 1
S 	 8.46426 	 22.3184 	 60.2701 	 
C 	 8.89816 	 20.5803 	 60.3314 	 
C 	 8.35111 	 19.9996 	 61.455 	 
C 	 7.57333 	 20.9089 	 62.2686 	 
C 	 7.46948 	 22.166 	 61.7405 	 
H 	 7.05114 	 20.6421 	 63.1819 	 
C 	 8.46774 	 18.5054 	 61.7629 	 
H 	 8.31952 	 17.8805 	 60.7939 	 
H 	 7.60462 	 18.183 	 62.2551 	 
C 	 9.7223 	 18.0524 	 62.4638 	 
H 	 9.72635 	 16.993 	 62.5114 	 
H 	 10.5472 	 18.4019 	 61.833 	 
C 	 9.76378 	 18.5939 	 63.8678 	 
H 	 8.73879 	 18.7263 	 64.1429 	 
H 	 10.1808 	 17.889 	 64.6276 	 
H 	 10.2885 	 19.5329 	 63.8393 	 
S 	 7.32861 	 24.7142 	 62.9159 	 
C 	 5.77188 	 25.3312 	 63.4131 	 
C 	 4.78887 	 24.3938 	 63.1206 	 
C 	 5.23307 	 23.2299 	 62.4029 	 
C 	 6.60705 	 23.221 	 62.2601 	 
H 	 3.82527 	 24.6318 	 63.6141 	 
C 	 4.24516 	 22.0603 	 61.9868 	 
H 	 4.20003 	 21.4903 	 62.8721 	 
H 	 4.60929 	 21.3338 	 61.2768 	 
C 	 2.86778 	 22.363 	 61.4924 	 
H 	 2.8672 	 23.0467 	 60.6358 	 
H 	 2.48477 	 22.9517 	 62.3058 	 
C 	 2.03668 	 21.0097 	 61.42 	 
H 	 1.03644 	 21.1906 	 61.0582 	 
H 	 1.99014 	 20.519 	 62.4066 	 
H 	 2.55982 	 20.4847 	 60.6225 	 
H 	 9.39015 	 20.0273 	 59.566 	 
H 	 5.52101 	 26.2605 	 63.9567 	 
*
