! wB97X-D3 SP def2-SVP
%pal
nprocs 16
end

* xyz 0 1
S 	 44.9465 	 23.6751 	 85.9682 	 
C 	 43.9359 	 23.6387 	 87.4143 	 
C 	 43.1869 	 24.7978 	 87.5392 	 
C 	 43.266 	 25.5973 	 86.3216 	 
C 	 44.109 	 25.1411 	 85.3303 	 
H 	 42.8748 	 26.6405 	 86.193 	 
C 	 42.355 	 25.1843 	 88.7454 	 
H 	 41.8221 	 26.1411 	 88.5501 	 
H 	 43.1538 	 25.446 	 89.5687 	 
C 	 41.4791 	 24.0609 	 89.2776 	 
H 	 40.6347 	 23.8078 	 88.5537 	 
H 	 42.1154 	 23.1502 	 89.2756 	 
C 	 40.8826 	 24.2696 	 90.7148 	 
H 	 41.5938 	 24.3398 	 91.4916 	 
H 	 40.3295 	 25.2497 	 90.6519 	 
H 	 40.2274 	 23.5532 	 91.1403 	 
S 	 46.1951 	 26.4993 	 84.102 	 
C 	 45.8971 	 27.4605 	 82.6761 	 
C 	 44.5774 	 27.35 	 82.3095 	 
C 	 43.8433 	 26.6181 	 83.2889 	 
C 	 44.6225 	 25.9595 	 84.2062 	 
H 	 44.1652 	 27.8867 	 81.4174 	 
C 	 42.3767 	 26.456 	 83.0634 	 
H 	 41.9577 	 25.9739 	 83.9356 	 
H 	 42.3609 	 25.7245 	 82.2292 	 
C 	 41.5049 	 27.7838 	 82.8525 	 
H 	 42.0217 	 28.3298 	 82.0554 	 
H 	 41.7059 	 28.249 	 83.8468 	 
C 	 40.0197 	 27.5916 	 82.5084 	 
H 	 39.4976 	 28.5271 	 82.7011 	 
H 	 39.662 	 26.7327 	 83.0707 	 
H 	 39.8645 	 27.1618 	 81.4869 	 
H 	 44.001 	 22.8614 	 88.2115 	 
H 	 46.5968 	 27.9424 	 82.0558 	 
*
