! wB97X-D3 SP def2-SVP
%pal
nprocs 16
end

* xyz 0 1
S 	 6.03092 	 -10.892 	 90.4129 	 
C 	 7.38994 	 -10.0407 	 91.0932 	 
C 	 7.20543 	 -8.62832 	 91.0555 	 
C 	 5.86819 	 -8.34386 	 90.628 	 
C 	 5.13813 	 -9.39406 	 90.1477 	 
H 	 5.42865 	 -7.31626 	 90.5292 	 
C 	 8.19395 	 -7.59162 	 91.4308 	 
H 	 8.18555 	 -6.76658 	 90.7763 	 
H 	 9.21264 	 -8.01993 	 91.3907 	 
C 	 8.10003 	 -7.19576 	 92.9189 	 
H 	 8.79075 	 -6.38889 	 93.0639 	 
H 	 7.08366 	 -6.78068 	 93.2066 	 
C 	 8.42699 	 -8.27961 	 93.9736 	 
H 	 7.97105 	 -7.99426 	 94.8967 	 
H 	 7.90353 	 -9.21243 	 93.7188 	 
H 	 9.53332 	 -8.515 	 94.1543 	 
S 	 3.39392 	 -10.3965 	 88.2472 	 
C 	 1.66557 	 -10.0221 	 88.3328 	 
C 	 1.34481 	 -9.14443 	 89.3645 	 
C 	 2.51031 	 -8.84782 	 90.1459 	 
C 	 3.70276 	 -9.40006 	 89.651 	 
H 	 0.34442 	 -8.95728 	 89.6174 	 
C 	 2.31057 	 -7.95571 	 91.3669 	 
H 	 1.31626 	 -7.5628 	 91.2925 	 
H 	 3.12922 	 -7.23615 	 91.4764 	 
C 	 2.39718 	 -8.65355 	 92.7406 	 
H 	 3.30995 	 -9.1925 	 92.6859 	 
H 	 1.55372 	 -9.34364 	 92.7136 	 
C 	 2.58202 	 -7.69204 	 93.9426 	 
H 	 3.38751 	 -6.90191 	 93.8903 	 
H 	 2.78402 	 -8.29382 	 94.8277 	 
H 	 1.58973 	 -7.27986 	 94.218 	 
H 	 8.33951 	 -10.508 	 91.33 	 
H 	 0.923611 	 -10.4499 	 87.7308 	 
*
