! wB97X-D3 SP def2-SVP
%pal
nprocs 16
end

* xyz 0 1
S 	 -1.49439 	 -25.9666 	 59.5899 	 
C 	 -2.74731 	 -24.7975 	 59.806 	 
C 	 -2.36719 	 -23.7012 	 60.488 	 
C 	 -1.0344 	 -23.8011 	 60.9607 	 
C 	 -0.356527 	 -24.9194 	 60.4319 	 
H 	 -0.614855 	 -23.0292 	 61.5988 	 
C 	 -3.2356 	 -22.4988 	 60.6928 	 
H 	 -4.11522 	 -22.7133 	 60.0893 	 
H 	 -2.58176 	 -21.7288 	 60.227 	 
C 	 -3.6239 	 -22.0401 	 62.1483 	 
H 	 -4.12704 	 -21.1235 	 61.9873 	 
H 	 -4.35336 	 -22.7855 	 62.4865 	 
C 	 -2.47674 	 -21.9006 	 63.1506 	 
H 	 -1.85189 	 -22.7124 	 63.3457 	 
H 	 -1.91987 	 -20.9496 	 62.9391 	 
H 	 -2.84989 	 -21.7204 	 64.0933 	 
S 	 0.895954 	 -27.0978 	 61.2457 	 
C 	 2.59931 	 -27.0034 	 61.7752 	 
C 	 3.11806 	 -25.7334 	 61.6179 	 
C 	 2.12541 	 -24.7953 	 61.36 	 
C 	 0.917372 	 -25.4003 	 60.9646 	 
H 	 4.19493 	 -25.6087 	 61.7058 	 
C 	 2.56533 	 -23.3047 	 61.1727 	 
H 	 1.73784 	 -22.8454 	 60.7248 	 
H 	 3.38034 	 -23.1622 	 60.5072 	 
C 	 3.04168 	 -22.6832 	 62.5697 	 
H 	 3.33104 	 -21.6258 	 62.4419 	 
H 	 3.94628 	 -23.2198 	 62.8487 	 
C 	 1.88179 	 -22.8135 	 63.5448 	 
H 	 2.02401 	 -23.7599 	 64.1014 	 
H 	 0.883876 	 -22.7668 	 62.9659 	 
H 	 1.81982 	 -22.0201 	 64.3395 	 
H 	 -3.77569 	 -24.9349 	 59.4858 	 
H 	 3.20389 	 -27.9318 	 61.8171 	 
*
