! wB97X-D3 SP def2-SVP
%pal
nprocs 16
end

* xyz 0 1
S 	 -69.934 	 40.0442 	 123.837 	 
C 	 -70.4045 	 41.631 	 124.037 	 
C 	 -69.4043 	 42.4446 	 124.516 	 
C 	 -68.1619 	 41.7596 	 124.473 	 
C 	 -68.2551 	 40.4216 	 124.15 	 
H 	 -67.2209 	 42.2006 	 124.582 	 
C 	 -69.5415 	 43.8483 	 124.888 	 
H 	 -70.1956 	 44.4401 	 124.288 	 
H 	 -68.6025 	 44.2643 	 124.466 	 
C 	 -69.9214 	 44.2011 	 126.368 	 
H 	 -69.0588 	 43.9553 	 126.944 	 
H 	 -70.2269 	 45.235 	 126.485 	 
C 	 -71.1171 	 43.4287 	 126.768 	 
H 	 -71.9529 	 43.5366 	 126.121 	 
H 	 -70.8761 	 42.3776 	 126.667 	 
H 	 -71.3313 	 43.596 	 127.811 	 
S 	 -67.3909 	 38.0952 	 123.018 	 
C 	 -66.0752 	 37.2176 	 123.733 	 
C 	 -65.4425 	 37.9404 	 124.712 	 
C 	 -66.0826 	 39.1935 	 124.922 	 
C 	 -67.2132 	 39.3956 	 124.12 	 
H 	 -64.7083 	 37.4774 	 125.304 	 
C 	 -65.6848 	 40.1655 	 125.946 	 
H 	 -66.584 	 40.4272 	 126.565 	 
H 	 -65.6223 	 41.1139 	 125.438 	 
C 	 -64.4493 	 39.7321 	 126.797 	 
H 	 -64.6618 	 38.7282 	 127.242 	 
H 	 -64.2765 	 40.5259 	 127.557 	 
C 	 -63.1471 	 39.9229 	 125.916 	 
H 	 -63.2236 	 40.8808 	 125.427 	 
H 	 -63.1956 	 39.1275 	 125.075 	 
H 	 -62.2933 	 39.7979 	 126.441 	 
H 	 -71.4521 	 42.037 	 123.984 	 
H 	 -65.745 	 36.2081 	 123.527 	 
*
