! wB97X-D3 SP def2-SVP
%pal
nprocs 16
end

* xyz 0 1
S 	 -109.881 	 53.7579 	 114.54 	 
C 	 -110.304 	 54.0729 	 112.9 	 
C 	 -109.228 	 54.5509 	 112.191 	 
C 	 -108.039 	 54.5756 	 112.966 	 
C 	 -108.245 	 54.2061 	 114.235 	 
H 	 -107.081 	 54.7486 	 112.512 	 
C 	 -109.184 	 54.7345 	 110.682 	 
H 	 -108.586 	 55.6475 	 110.501 	 
H 	 -110.258 	 54.9371 	 110.382 	 
C 	 -108.522 	 53.5205 	 110.004 	 
H 	 -108.498 	 53.8306 	 109.052 	 
H 	 -107.526 	 53.4078 	 110.302 	 
C 	 -109.208 	 52.1531 	 110.214 	 
H 	 -109.198 	 51.7727 	 111.229 	 
H 	 -110.292 	 52.1431 	 109.912 	 
H 	 -108.755 	 51.4039 	 109.609 	 
S 	 -107.187 	 55.6342 	 116.373 	 
C 	 -105.97 	 54.8457 	 117.347 	 
C 	 -105.751 	 53.5512 	 116.995 	 
C 	 -106.452 	 53.1799 	 115.778 	 
C 	 -107.354 	 54.1585 	 115.358 	 
H 	 -105.042 	 52.881 	 117.594 	 
C 	 -106.38 	 51.8768 	 115.102 	 
H 	 -105.343 	 51.8074 	 114.813 	 
H 	 -106.867 	 51.8109 	 114.15 	 
C 	 -106.896 	 50.6327 	 115.894 	 
H 	 -106.298 	 50.3813 	 116.838 	 
H 	 -106.789 	 49.8084 	 115.174 	 
C 	 -108.373 	 50.6995 	 116.198 	 
H 	 -109.021 	 50.7854 	 115.28 	 
H 	 -108.575 	 51.5156 	 116.849 	 
H 	 -108.598 	 49.7546 	 116.749 	 
H 	 -111.158 	 53.6543 	 112.429 	 
H 	 -105.482 	 55.3084 	 118.183 	 
*
