! wB97X-D3 SP def2-SVP
%pal
nprocs 16
end

* xyz 0 1
S 	 -34.2876 	 46.6565 	 98.7851 	 
C 	 -34.6333 	 45.3772 	 97.6506 	 
C 	 -34.063 	 45.5879 	 96.4316 	 
C 	 -33.1454 	 46.6852 	 96.4157 	 
C 	 -33.0844 	 47.2655 	 97.6588 	 
H 	 -32.5143 	 47.016 	 95.6451 	 
C 	 -34.2304 	 44.7986 	 95.1967 	 
H 	 -34.199 	 43.7381 	 95.421 	 
H 	 -33.2977 	 45.0337 	 94.6545 	 
C 	 -35.4682 	 45.1777 	 94.4042 	 
H 	 -36.2862 	 44.8097 	 94.9661 	 
H 	 -35.6708 	 46.2503 	 94.2621 	 
C 	 -35.5848 	 44.4223 	 93.1344 	 
H 	 -36.5824 	 44.5948 	 92.679 	 
H 	 -34.8544 	 44.8148 	 92.4817 	 
H 	 -35.3537 	 43.3369 	 93.2811 	 
S 	 -32.7642 	 49.9968 	 97.9661 	 
C 	 -31.2207 	 50.5947 	 98.4893 	 
C 	 -30.2532 	 49.6267 	 98.5081 	 
C 	 -30.8445 	 48.3416 	 98.3029 	 
C 	 -32.1744 	 48.3491 	 97.9439 	 
H 	 -29.1907 	 49.8734 	 98.6445 	 
C 	 -29.974 	 47.0602 	 98.4518 	 
H 	 -29.1322 	 47.285 	 97.7672 	 
H 	 -30.3971 	 46.2387 	 97.8984 	 
C 	 -29.5714 	 46.4937 	 99.8319 	 
H 	 -28.9639 	 45.6016 	 99.6737 	 
H 	 -30.447 	 46.1461 	 100.374 	 
C 	 -28.779 	 47.4406 	 100.731 	 
H 	 -28.4893 	 46.9698 	 101.691 	 
H 	 -29.3985 	 48.3325 	 100.874 	 
H 	 -27.8569 	 47.7597 	 100.239 	 
H 	 -35.37 	 44.6207 	 97.7453 	 
H 	 -31.008 	 51.6364 	 98.4429 	 
*
