! wB97X-D3 SP def2-SVP
%pal
nprocs 16
end

* xyz 0 1
S 	 -45.5978 	 54.9662 	 102.961 	 
C 	 -47.1047 	 54.9605 	 103.743 	 
C 	 -48.0995 	 55.0372 	 102.795 	 
C 	 -47.6588 	 55.3233 	 101.471 	 
C 	 -46.316 	 55.3554 	 101.364 	 
H 	 -48.3166 	 55.3494 	 100.572 	 
C 	 -49.561 	 54.656 	 103.078 	 
H 	 -50.2706 	 55.5305 	 103.094 	 
H 	 -49.5449 	 54.1901 	 104.039 	 
C 	 -50.1839 	 53.7133 	 102.018 	 
H 	 -50.1984 	 54.2301 	 101.018 	 
H 	 -49.5881 	 52.7812 	 101.927 	 
C 	 -51.6552 	 53.3396 	 102.359 	 
H 	 -52.3715 	 54.2549 	 102.278 	 
H 	 -51.8582 	 52.6433 	 101.575 	 
H 	 -51.8194 	 52.8972 	 103.304 	 
S 	 -43.9835 	 56.3924 	 100.349 	 
C 	 -43.6574 	 56.4076 	 98.6616 	 
C 	 -44.7551 	 55.9725 	 97.9452 	 
C 	 -45.7373 	 55.3096 	 98.771 	 
C 	 -45.5037 	 55.4951 	 100.155 	 
H 	 -44.8021 	 56.1085 	 96.8988 	 
C 	 -47.0216 	 54.8016 	 98.1836 	 
H 	 -47.043 	 54.9991 	 97.0908 	 
H 	 -47.8589 	 55.4253 	 98.4468 	 
C 	 -47.3901 	 53.3329 	 98.6197 	 
H 	 -48.2531 	 52.9812 	 98.0411 	 
H 	 -47.6637 	 53.2222 	 99.6659 	 
C 	 -46.3028 	 52.2973 	 98.322 	 
H 	 -45.5032 	 52.2933 	 99.0632 	 
H 	 -45.8525 	 52.4784 	 97.372 	 
H 	 -46.6881 	 51.294 	 98.3272 	 
H 	 -47.2685 	 54.5499 	 104.75 	 
H 	 -42.8654 	 56.9377 	 98.1822 	 
*
