! wB97X-D3 SP def2-SVP
%pal
nprocs 16
end

* xyz 0 1
S 	 -57.4647 	 29.7353 	 101.803 	 
C 	 -58.4211 	 29.4569 	 100.37 	 
C 	 -57.6412 	 29.1964 	 99.2954 	 
C 	 -56.2673 	 29.2154 	 99.5996 	 
C 	 -55.9257 	 29.3958 	 100.948 	 
H 	 -55.4299 	 29.1827 	 98.9306 	 
C 	 -58.0792 	 28.8587 	 97.8756 	 
H 	 -58.6913 	 27.9888 	 98.0863 	 
H 	 -57.2349 	 28.4956 	 97.2305 	 
C 	 -58.8977 	 30.0332 	 97.24 	 
H 	 -59.9161 	 29.9673 	 97.7138 	 
H 	 -58.4246 	 31.0142 	 97.5688 	 
C 	 -58.8612 	 29.8389 	 95.7462 	 
H 	 -59.1582 	 28.7924 	 95.522 	 
H 	 -59.6337 	 30.4652 	 95.3313 	 
H 	 -57.8796 	 30.0952 	 95.3286 	 
S 	 -54.4413 	 28.0214 	 102.7 	 
C 	 -52.8683 	 28.5966 	 103.147 	 
C 	 -52.449 	 29.5753 	 102.264 	 
C 	 -53.4442 	 29.9471 	 101.322 	 
C 	 -54.5946 	 29.2562 	 101.567 	 
H 	 -51.5257 	 30.0454 	 102.45 	 
C 	 -53.1644 	 30.9247 	 100.248 	 
H 	 -52.7364 	 31.7823 	 100.655 	 
H 	 -54.0485 	 31.3752 	 99.9774 	 
C 	 -52.5114 	 30.3409 	 99.1022 	 
H 	 -53.111 	 29.4869 	 98.6586 	 
H 	 -51.5763 	 29.8975 	 99.4316 	 
C 	 -52.2774 	 31.3266 	 98.0303 	 
H 	 -53.2079 	 31.8225 	 97.8258 	 
H 	 -51.9499 	 30.8621 	 97.1299 	 
H 	 -51.514 	 32.0775 	 98.1375 	 
H 	 -59.4833 	 29.3099 	 100.386 	 
H 	 -52.2052 	 28.2066 	 103.897 	 
*
