! wB97X-D3 SP def2-SVP
%pal
nprocs 16
end

* xyz 0 1
S 	 -111.025 	 42.7896 	 131.069 	 
C 	 -110.61 	 41.8594 	 132.462 	 
C 	 -110.092 	 42.6892 	 133.393 	 
C 	 -110.147 	 44.0802 	 133.106 	 
C 	 -110.688 	 44.319 	 131.873 	 
H 	 -109.781 	 44.9771 	 133.739 	 
C 	 -109.424 	 42.2279 	 134.663 	 
H 	 -108.362 	 42.5516 	 134.578 	 
H 	 -109.529 	 41.1331 	 134.809 	 
C 	 -110.02 	 42.8734 	 135.868 	 
H 	 -109.456 	 42.5848 	 136.727 	 
H 	 -110.064 	 43.9145 	 135.797 	 
C 	 -111.47 	 42.3633 	 136.147 	 
H 	 -111.769 	 42.7816 	 137.155 	 
H 	 -112.133 	 42.718 	 135.329 	 
H 	 -111.376 	 41.312 	 136.141 	 
S 	 -109.581 	 46.3991 	 130.315 	 
C 	 -110.489 	 47.8464 	 130.1 	 
C 	 -111.737 	 47.6684 	 130.535 	 
C 	 -111.977 	 46.4373 	 131.263 	 
C 	 -110.876 	 45.6398 	 131.312 	 
H 	 -112.442 	 48.3808 	 130.309 	 
C 	 -113.343 	 46.2709 	 131.917 	 
H 	 -113.45 	 47.2554 	 132.442 	 
H 	 -113.21 	 45.4692 	 132.687 	 
C 	 -114.476 	 46.0026 	 130.899 	 
H 	 -114.044 	 45.2145 	 130.28 	 
H 	 -114.391 	 46.7994 	 130.148 	 
C 	 -115.962 	 45.6379 	 131.289 	 
H 	 -116.4 	 45.0999 	 130.45 	 
H 	 -116.603 	 46.462 	 131.501 	 
H 	 -116.121 	 44.8363 	 132.051 	 
H 	 -110.761 	 40.7473 	 132.678 	 
H 	 -110.303 	 48.5489 	 129.354 	 
*
