! wB97X-D3 SP def2-SVP
%pal
nprocs 16
end

* xyz 0 1
S 	 -51.0123 	 60.3997 	 129.368 	 
C 	 -50.8002 	 58.68 	 129.204 	 
C 	 -49.4171 	 58.3933 	 129.204 	 
C 	 -48.5293 	 59.5033 	 129.384 	 
C 	 -49.2423 	 60.6427 	 129.57 	 
H 	 -47.439 	 59.4072 	 129.429 	 
C 	 -48.9347 	 56.9454 	 129.315 	 
H 	 -49.5254 	 56.4108 	 129.996 	 
H 	 -47.9689 	 56.832 	 129.716 	 
C 	 -49.2337 	 56.0697 	 128.046 	 
H 	 -49.1158 	 55.0114 	 128.312 	 
H 	 -50.3411 	 56.19 	 127.897 	 
C 	 -48.4181 	 56.4418 	 126.844 	 
H 	 -47.3548 	 56.2017 	 126.962 	 
H 	 -48.7087 	 55.9395 	 125.956 	 
H 	 -48.5799 	 57.4929 	 126.665 	 
S 	 -47.1664 	 62.2785 	 129.627 	 
C 	 -47.0677 	 63.5031 	 130.855 	 
C 	 -48.1981 	 63.5767 	 131.642 	 
C 	 -49.1157 	 62.5729 	 131.29 	 
C 	 -48.676 	 61.7936 	 130.192 	 
H 	 -48.1523 	 64.3381 	 132.468 	 
C 	 -50.3872 	 62.3412 	 132.08 	 
H 	 -50.5787 	 61.2945 	 132.012 	 
H 	 -50.9643 	 62.8186 	 131.302 	 
C 	 -50.5912 	 62.8303 	 133.503 	 
H 	 -51.6485 	 62.8133 	 133.732 	 
H 	 -50.3931 	 63.8584 	 133.629 	 
C 	 -49.8909 	 61.8716 	 134.507 	 
H 	 -49.9805 	 62.1503 	 135.524 	 
H 	 -48.914 	 61.6976 	 134.175 	 
H 	 -50.3136 	 60.8377 	 134.408 	 
H 	 -51.525 	 57.9064 	 129.159 	 
H 	 -46.2142 	 64.1554 	 130.79 	 
*
