! wB97X-D3 SP def2-SVP
%pal
nprocs 16
end

* xyz 0 1
S 	 2.16247 	 -12.022 	 60.1347 	 
C 	 2.86216 	 -11.1896 	 61.4886 	 
C 	 2.59658 	 -11.7687 	 62.7044 	 
C 	 1.95086 	 -13.04 	 62.5483 	 
C 	 1.69953 	 -13.3664 	 61.2125 	 
H 	 1.54494 	 -13.6885 	 63.3675 	 
C 	 2.98803 	 -11.26 	 64.0099 	 
H 	 3.83904 	 -10.6632 	 63.7814 	 
H 	 3.30739 	 -12.1152 	 64.5816 	 
C 	 1.81282 	 -10.4949 	 64.686 	 
H 	 1.5512 	 -9.72679 	 63.9036 	 
H 	 0.922641 	 -11.1398 	 64.7797 	 
C 	 2.10406 	 -9.81891 	 66.0148 	 
H 	 2.23234 	 -10.4792 	 66.847 	 
H 	 3.01299 	 -9.15164 	 65.8662 	 
H 	 1.27241 	 -9.19387 	 66.3061 	 
S 	 -0.658463 	 -14.5388 	 60.598 	 
C 	 -0.760916 	 -16.271 	 60.3146 	 
C 	 0.476323 	 -16.871 	 60.3724 	 
C 	 1.53419 	 -15.9232 	 60.6341 	 
C 	 1.06512 	 -14.619 	 60.7366 	 
H 	 0.747686 	 -17.8887 	 60.0146 	 
C 	 3.01758 	 -16.202 	 60.5732 	 
H 	 3.00133 	 -17.1371 	 61.1096 	 
H 	 3.63189 	 -15.5431 	 61.1714 	 
C 	 3.51392 	 -16.3717 	 59.0845 	 
H 	 3.32648 	 -15.5344 	 58.3767 	 
H 	 3.00806 	 -17.2599 	 58.5926 	 
C 	 5.01751 	 -16.5927 	 59.025 	 
H 	 5.49142 	 -16.5916 	 58.0285 	 
H 	 5.2868 	 -17.5741 	 59.4124 	 
H 	 5.52293 	 -15.7763 	 59.544 	 
H 	 3.26831 	 -10.1877 	 61.4758 	 
H 	 -1.67366 	 -16.8013 	 60.039 	 
*
