! wB97X-D3 SP def2-SVP
%pal
nprocs 16
end

* xyz 0 1
S 	 48.79 	 4.52261 	 89.3957 	 
C 	 47.8232 	 5.9189 	 88.9118 	 
C 	 46.5516 	 5.59362 	 88.4497 	 
C 	 46.3761 	 4.1352 	 88.46 	 
C 	 47.4251 	 3.44254 	 89.0491 	 
H 	 45.4722 	 3.58082 	 88.2591 	 
C 	 45.4116 	 6.54998 	 88.0485 	 
H 	 45.8235 	 7.07849 	 87.2095 	 
H 	 45.4344 	 7.23592 	 88.9179 	 
C 	 44.0034 	 5.93963 	 87.8406 	 
H 	 44.0182 	 5.08103 	 87.1682 	 
H 	 43.7058 	 5.35121 	 88.6474 	 
C 	 42.969 	 6.98894 	 87.5627 	 
H 	 43.1734 	 7.27327 	 86.5567 	 
H 	 41.9121 	 6.78353 	 87.6896 	 
H 	 43.2175 	 7.87235 	 88.1415 	 
S 	 46.4662 	 1.30535 	 90.4498 	 
C 	 47.0653 	 -0.307501 	 90.0522 	 
C 	 48.155 	 -0.315696 	 89.1953 	 
C 	 48.4333 	 1.0268 	 88.7043 	 
C 	 47.6177 	 2.04309 	 89.3193 	 
H 	 48.7227 	 -1.21487 	 88.8157 	 
C 	 49.5084 	 1.30083 	 87.6475 	 
H 	 49.3044 	 2.32006 	 87.2645 	 
H 	 49.2584 	 0.713937 	 86.7509 	 
C 	 50.887 	 0.924876 	 87.9756 	 
H 	 50.9328 	 -0.0626282 	 88.4098 	 
H 	 51.2017 	 1.56743 	 88.7989 	 
C 	 51.797 	 0.969327 	 86.7529 	 
H 	 51.4465 	 0.350088 	 85.9395 	 
H 	 52.8027 	 0.531136 	 86.9816 	 
H 	 51.9034 	 1.99801 	 86.4149 	 
H 	 48.029 	 6.92158 	 89.2584 	 
H 	 46.7649 	 -1.17056 	 90.5285 	 
*
