! wB97X-D3 SP def2-SVP
%pal
nprocs 16
end

* xyz 0 1
S 	 40.3609 	 18.9517 	 83.62 	 
C 	 38.8681 	 19.6857 	 84.1025 	 
C 	 37.7469 	 18.9522 	 83.8624 	 
C 	 38.0409 	 17.835 	 83.0985 	 
C 	 39.3832 	 17.6924 	 82.8324 	 
H 	 37.2799 	 17.3159 	 82.5541 	 
C 	 36.3263 	 19.4556 	 84.28 	 
H 	 36.4023 	 19.9068 	 85.2595 	 
H 	 35.6319 	 18.6181 	 84.4871 	 
C 	 35.7223 	 20.3976 	 83.2078 	 
H 	 36.3564 	 21.2428 	 83.0611 	 
H 	 35.5605 	 19.9244 	 82.222 	 
C 	 34.3094 	 20.9421 	 83.6073 	 
H 	 34.4415 	 21.5531 	 84.5204 	 
H 	 33.8501 	 21.5308 	 82.8222 	 
H 	 33.5661 	 20.1196 	 83.8002 	 
S 	 41.2192 	 17.5071 	 80.7029 	 
C 	 41.1447 	 16.0641 	 79.76 	 
C 	 40.278 	 15.1299 	 80.2201 	 
C 	 39.5805 	 15.6086 	 81.3612 	 
C 	 39.9966 	 16.8614 	 81.784 	 
H 	 40.2276 	 14.172 	 79.7881 	 
C 	 38.5744 	 14.5437 	 82.0521 	 
H 	 38.4874 	 13.6947 	 81.4483 	 
H 	 37.5806 	 15.0369 	 81.9581 	 
C 	 39.0027 	 14.066 	 83.4583 	 
H 	 39.1749 	 14.8805 	 84.161 	 
H 	 39.8958 	 13.5077 	 83.4329 	 
C 	 37.8679 	 13.2624 	 84.0879 	 
H 	 38.1222 	 13.2167 	 85.1135 	 
H 	 37.9363 	 12.2287 	 83.8341 	 
H 	 36.856 	 13.6191 	 83.8976 	 
H 	 38.8831 	 20.48 	 84.8322 	 
H 	 41.9512 	 15.7569 	 79.0353 	 
*
