! wB97X-D3 SP def2-SVP
%pal
nprocs 16
end

* xyz 0 1
S 	 53.1076 	 6.82024 	 94.4973 	 
C 	 53.7004 	 8.47522 	 94.2068 	 
C 	 52.6957 	 9.3527 	 93.8088 	 
C 	 51.4669 	 8.58405 	 93.6211 	 
C 	 51.5803 	 7.18839 	 93.7557 	 
H 	 50.4391 	 8.92451 	 93.4792 	 
C 	 52.744 	 10.8869 	 93.6628 	 
H 	 52.6675 	 11.1798 	 92.6026 	 
H 	 53.7996 	 11.1668 	 93.9518 	 
C 	 51.8532 	 11.7214 	 94.5206 	 
H 	 52.3068 	 12.7259 	 94.3749 	 
H 	 50.818 	 11.6842 	 94.0661 	 
C 	 51.847 	 11.2477 	 95.9923 	 
H 	 52.8274 	 10.9221 	 96.4607 	 
H 	 51.5634 	 12.0635 	 96.6756 	 
H 	 51.1327 	 10.4567 	 96.2436 	 
S 	 50.7398 	 4.80806 	 92.5394 	 
C 	 49.2658 	 4.0344 	 93.0555 	 
C 	 48.643 	 4.831 	 94.0306 	 
C 	 49.3896 	 6.04594 	 94.3401 	 
C 	 50.524 	 6.19725 	 93.6468 	 
H 	 47.7324 	 4.43166 	 94.4037 	 
C 	 48.763 	 7.04853 	 95.2718 	 
H 	 47.7658 	 7.30568 	 94.9573 	 
H 	 49.33 	 7.97772 	 95.2549 	 
C 	 48.847 	 6.59432 	 96.7663 	 
H 	 48.2885 	 5.68038 	 96.9264 	 
H 	 48.4832 	 7.44289 	 97.2665 	 
C 	 50.3408 	 6.41819 	 97.2815 	 
H 	 50.7699 	 5.46341 	 97.0248 	 
H 	 50.311 	 6.29134 	 98.3451 	 
H 	 50.9875 	 7.27956 	 97.0544 	 
H 	 54.8189 	 8.66121 	 94.2821 	 
H 	 48.8152 	 3.14239 	 92.538 	 
*
