! wB97X-D3 SP def2-SVP
%pal
nprocs 16
end

* xyz 0 1
S 	 -34.5011 	 60.6198 	 113.502 	 
C 	 -36.0933 	 61.1952 	 113.978 	 
C 	 -36.6138 	 60.322 	 114.946 	 
C 	 -35.7488 	 59.2042 	 115.238 	 
C 	 -34.5289 	 59.3148 	 114.604 	 
H 	 -36.055 	 58.3367 	 115.736 	 
C 	 -37.9869 	 60.5196 	 115.495 	 
H 	 -38.6764 	 60.7492 	 114.673 	 
H 	 -38.0166 	 61.4043 	 116.111 	 
C 	 -38.5654 	 59.3582 	 116.317 	 
H 	 -38.5571 	 58.3595 	 115.844 	 
H 	 -37.9455 	 59.062 	 117.141 	 
C 	 -40.0079 	 59.5959 	 116.73 	 
H 	 -40.6205 	 59.7426 	 115.902 	 
H 	 -40.3467 	 58.6554 	 117.201 	 
H 	 -40.0887 	 60.3737 	 117.467 	 
S 	 -32.672 	 57.5004 	 113.609 	 
C 	 -31.6627 	 56.4996 	 114.673 	 
C 	 -32.0495 	 56.7759 	 115.981 	 
C 	 -32.956 	 57.8894 	 116.109 	 
C 	 -33.3894 	 58.4423 	 114.897 	 
H 	 -31.5708 	 56.2436 	 116.808 	 
C 	 -33.413 	 58.357 	 117.483 	 
H 	 -32.9792 	 57.7044 	 118.245 	 
H 	 -34.5135 	 58.1938 	 117.632 	 
C 	 -32.9134 	 59.7344 	 117.875 	 
H 	 -33.5563 	 60.4718 	 117.402 	 
H 	 -31.8766 	 59.8514 	 117.591 	 
C 	 -32.9832 	 60.0142 	 119.359 	 
H 	 -32.2315 	 59.2987 	 119.812 	 
H 	 -34.0111 	 59.9357 	 119.789 	 
H 	 -32.7179 	 61.0795 	 119.461 	 
H 	 -36.5791 	 62.1599 	 113.71 	 
H 	 -30.8913 	 55.701 	 114.395 	 
*
