! wB97X-D3 SP def2-SVP
%pal
nprocs 16
end

* xyz 0 1
S 	 -39.1162 	 13.616 	 75.277 	 
C 	 -39.3197 	 12.8566 	 73.6922 	 
C 	 -40.5687 	 13.2068 	 73.1871 	 
C 	 -41.3382 	 13.9705 	 74.1092 	 
C 	 -40.8065 	 14.0135 	 75.3587 	 
H 	 -42.3311 	 14.3191 	 73.9123 	 
C 	 -40.9559 	 12.9612 	 71.7342 	 
H 	 -41.8752 	 13.4707 	 71.5886 	 
H 	 -41.0133 	 11.8233 	 71.756 	 
C 	 -39.9682 	 13.3654 	 70.6428 	 
H 	 -39.0983 	 12.7095 	 70.7793 	 
H 	 -40.421 	 12.9862 	 69.7227 	 
C 	 -39.8201 	 14.8931 	 70.4924 	 
H 	 -40.7457 	 15.4389 	 70.2328 	 
H 	 -39.5666 	 15.2531 	 71.5147 	 
H 	 -39.0086 	 15.0934 	 69.7694 	 
S 	 -41.7693 	 16.2634 	 76.8086 	 
C 	 -42.8067 	 15.9803 	 78.1811 	 
C 	 -42.6522 	 14.6469 	 78.6359 	 
C 	 -42.0259 	 13.7973 	 77.6378 	 
C 	 -41.4467 	 14.5176 	 76.6012 	 
H 	 -43.1327 	 14.4743 	 79.584 	 
C 	 -41.8719 	 12.3163 	 77.8499 	 
H 	 -41.729 	 12.0461 	 78.9499 	 
H 	 -41.0239 	 11.9936 	 77.3109 	 
C 	 -43.0745 	 11.4351 	 77.5328 	 
H 	 -43.8557 	 11.7919 	 78.2161 	 
H 	 -42.8588 	 10.3356 	 77.7613 	 
C 	 -43.5352 	 11.6699 	 76.0719 	 
H 	 -44.3195 	 10.9498 	 75.8788 	 
H 	 -42.6684 	 11.532 	 75.4313 	 
H 	 -43.9907 	 12.6308 	 75.8462 	 
H 	 -38.6431 	 12.1767 	 73.1471 	 
H 	 -43.1702 	 16.6828 	 78.9146 	 
*
