! wB97X-D3 SP def2-SVP
%pal
nprocs 16
end

* xyz 0 1
S 	 4.93684 	 -4.87473 	 77.7252 	 
C 	 6.306 	 -4.80125 	 78.8883 	 
C 	 5.8807 	 -5.13936 	 80.1482 	 
C 	 4.48667 	 -5.59711 	 80.2038 	 
C 	 3.77488 	 -5.50175 	 78.9885 	 
H 	 3.99651 	 -5.94038 	 81.0773 	 
C 	 6.8205 	 -5.17687 	 81.353 	 
H 	 7.50655 	 -6.05698 	 81.2046 	 
H 	 6.23177 	 -5.26205 	 82.32 	 
C 	 7.71627 	 -3.981 	 81.5951 	 
H 	 8.39815 	 -4.23691 	 82.3815 	 
H 	 8.32419 	 -3.8258 	 80.8039 	 
C 	 7.10934 	 -2.6454 	 81.9417 	 
H 	 6.66437 	 -2.66955 	 82.9594 	 
H 	 7.88733 	 -1.83812 	 81.9696 	 
H 	 6.42759 	 -2.35215 	 81.1746 	 
S 	 1.20611 	 -4.94551 	 79.6442 	 
C 	 -0.0615913 	 -5.88702 	 78.9278 	 
C 	 0.40181 	 -6.88539 	 78.0378 	 
C 	 1.77762 	 -6.72158 	 77.8266 	 
C 	 2.38125 	 -5.87216 	 78.7524 	 
H 	 -0.266385 	 -7.42338 	 77.423 	 
C 	 2.45939 	 -7.57721 	 76.69 	 
H 	 3.3898 	 -7.06012 	 76.4118 	 
H 	 1.81707 	 -7.51212 	 75.796 	 
C 	 2.8595 	 -9.03455 	 77.0165 	 
H 	 2.11892 	 -9.68498 	 77.4366 	 
H 	 3.60683 	 -9.01237 	 77.7733 	 
C 	 3.3484 	 -9.83413 	 75.89 	 
H 	 2.61398 	 -9.7306 	 75.0951 	 
H 	 3.28576 	 -10.9104 	 76.1326 	 
H 	 4.30312 	 -9.43995 	 75.6072 	 
H 	 7.39509 	 -4.5534 	 78.5704 	 
H 	 -1.07515 	 -5.74789 	 79.1636 	 
*
