! wB97X-D3 SP def2-SVP
%pal
nprocs 16
end

* xyz 0 1
S 	 -41.995 	 18.2999 	 74.5109 	 
C 	 -41.0314 	 16.96 	 73.9364 	 
C 	 -40.8038 	 17.0787 	 72.5883 	 
C 	 -41.2342 	 18.3726 	 72.117 	 
C 	 -41.8366 	 19.2078 	 73.0861 	 
H 	 -41.2081 	 18.78 	 71.1111 	 
C 	 -39.9632 	 16.0478 	 71.8332 	 
H 	 -40.2106 	 16.0698 	 70.7841 	 
H 	 -40.2514 	 15.1085 	 72.2193 	 
C 	 -38.3919 	 16.2783 	 71.9328 	 
H 	 -38.0593 	 16.3017 	 72.9608 	 
H 	 -37.7634 	 15.4911 	 71.6311 	 
C 	 -37.9077 	 17.5462 	 71.2686 	 
H 	 -38.3473 	 18.4452 	 71.6753 	 
H 	 -36.8763 	 17.6427 	 71.3896 	 
H 	 -38.1406 	 17.5446 	 70.2035 	 
S 	 -41.4283 	 21.7486 	 72.057 	 
C 	 -42.6471 	 22.9257 	 72.1524 	 
C 	 -43.794 	 22.4147 	 72.6881 	 
C 	 -43.6587 	 21.0697 	 73.136 	 
C 	 -42.4066 	 20.573 	 72.86 	 
H 	 -44.5311 	 23.1525 	 72.9303 	 
C 	 -44.8217 	 20.3499 	 73.8702 	 
H 	 -44.6795 	 19.3135 	 73.6826 	 
H 	 -45.7048 	 20.4922 	 73.316 	 
C 	 -45.0109 	 20.5058 	 75.3719 	 
H 	 -44.1349 	 20.0708 	 75.7897 	 
H 	 -45.8304 	 19.8645 	 75.6591 	 
C 	 -45.1547 	 21.9976 	 75.7447 	 
H 	 -44.2727 	 22.5263 	 75.4919 	 
H 	 -45.3379 	 22.1237 	 76.8212 	 
H 	 -45.8806 	 22.5807 	 75.1176 	 
H 	 -40.7179 	 16.1575 	 74.4784 	 
H 	 -42.4987 	 24.0095 	 71.9237 	 
*
