! wB97X-D3 SP def2-SVP
%pal
nprocs 16
end

* xyz 0 1
S 	 -3.10146 	 77.3813 	 54.4521 	 
C 	 -1.47791 	 78.101 	 54.8098 	 
C 	 -0.553048 	 77.7116 	 53.8626 	 
C 	 -1.13539 	 76.8877 	 52.8851 	 
C 	 -2.50323 	 76.6493 	 52.996 	 
H 	 -0.569207 	 76.4048 	 52.0701 	 
C 	 0.890468 	 78.1269 	 53.9707 	 
H 	 1.58529 	 77.2287 	 54.023 	 
H 	 0.973175 	 78.7076 	 54.8967 	 
C 	 1.44963 	 78.8864 	 52.676 	 
H 	 2.42397 	 79.4302 	 52.8137 	 
H 	 1.69191 	 78.203 	 51.84 	 
C 	 0.468578 	 80.0369 	 52.2966 	 
H 	 -0.519317 	 79.749 	 52.1274 	 
H 	 0.412526 	 80.9211 	 52.9392 	 
H 	 0.75747 	 80.4516 	 51.3136 	 
S 	 -3.29771 	 74.1684 	 52.1809 	 
C 	 -4.53293 	 73.9996 	 50.9806 	 
C 	 -5.02453 	 75.2027 	 50.5972 	 
C 	 -4.39023 	 76.3498 	 51.2033 	 
C 	 -3.39118 	 75.9376 	 52.0422 	 
H 	 -5.87646 	 75.1381 	 49.9016 	 
C 	 -4.78812 	 77.6719 	 50.81 	 
H 	 -4.39658 	 78.3262 	 51.5676 	 
H 	 -5.85317 	 77.736 	 51.0246 	 
C 	 -4.39869 	 78.0604 	 49.3799 	 
H 	 -4.99145 	 78.9373 	 49.0698 	 
H 	 -4.72804 	 77.3312 	 48.6859 	 
C 	 -2.97321 	 78.3908 	 49.1692 	 
H 	 -2.32126 	 77.5205 	 49.3864 	 
H 	 -2.60186 	 79.2151 	 49.7435 	 
H 	 -2.85732 	 78.6367 	 48.117 	 
H 	 -1.24615 	 78.6229 	 55.6776 	 
H 	 -4.85508 	 73.0084 	 50.7702 	 
*
