! wB97X-D3 SP def2-SVP
%pal
nprocs 16
end

* xyz 0 1
S 	 44.722 	 9.09787 	 87.2301 	 
C 	 45.6925 	 8.38921 	 88.4622 	 
C 	 46.4854 	 9.3083 	 89.1151 	 
C 	 46.292 	 10.6255 	 88.6516 	 
C 	 45.3172 	 10.7088 	 87.6428 	 
H 	 46.6878 	 11.4795 	 89.1483 	 
C 	 47.4488 	 8.9961 	 90.2279 	 
H 	 48.3877 	 9.04319 	 89.868 	 
H 	 47.2837 	 7.89944 	 90.4621 	 
C 	 47.2896 	 9.91808 	 91.4746 	 
H 	 47.9635 	 9.55051 	 92.2325 	 
H 	 47.6716 	 10.956 	 91.4388 	 
C 	 45.8602 	 9.89686 	 91.9109 	 
H 	 45.7486 	 10.2658 	 93.0246 	 
H 	 45.2971 	 10.4303 	 91.1192 	 
H 	 45.4781 	 8.89334 	 92.0248 	 
S 	 45.1871 	 11.6648 	 85.0893 	 
C 	 44.7755 	 13.3168 	 84.7178 	 
C 	 44.755 	 14.0589 	 85.8981 	 
C 	 44.9284 	 13.2248 	 87.0725 	 
C 	 45.0974 	 11.8595 	 86.7953 	 
H 	 44.388 	 15.0674 	 85.8602 	 
C 	 44.6418 	 13.6862 	 88.4394 	 
H 	 45.2126 	 14.6099 	 88.5145 	 
H 	 45.1028 	 13.1038 	 89.2019 	 
C 	 43.1801 	 13.8837 	 88.9174 	 
H 	 42.7396 	 14.7498 	 88.3925 	 
H 	 43.1137 	 14.1126 	 90.004 	 
C 	 42.3776 	 12.5493 	 88.6552 	 
H 	 41.325 	 12.6647 	 89.0362 	 
H 	 42.9624 	 11.7082 	 89.0913 	 
H 	 42.3085 	 12.4683 	 87.5526 	 
H 	 45.6023 	 7.35754 	 88.8286 	 
H 	 44.5906 	 13.7521 	 83.7425 	 
*
