! wB97X-D3 SP def2-SVP
%pal
nprocs 16
end

* xyz 0 1
S 	 -41.5155 	 37.2745 	 79.7828 	 
C 	 -40.121 	 38.189 	 80.2994 	 
C 	 -40.4095 	 38.9733 	 81.4146 	 
C 	 -41.793 	 38.9638 	 81.7465 	 
C 	 -42.5153 	 38.0056 	 80.9904 	 
H 	 -42.2375 	 39.5158 	 82.5987 	 
C 	 -39.3483 	 39.638 	 82.2846 	 
H 	 -38.4739 	 39.0316 	 82.2511 	 
H 	 -39.67 	 39.7655 	 83.25 	 
C 	 -38.8545 	 40.9924 	 81.6888 	 
H 	 -38.2019 	 41.3496 	 82.4651 	 
H 	 -38.2881 	 40.7741 	 80.7342 	 
C 	 -39.9498 	 41.9935 	 81.3141 	 
H 	 -40.2847 	 41.6891 	 80.2877 	 
H 	 -40.809 	 42.1353 	 82.0359 	 
H 	 -39.4724 	 42.9269 	 81.2449 	 
S 	 -44.8157 	 37.5926 	 79.6379 	 
C 	 -46.3275 	 37.3265 	 80.5434 	 
C 	 -46.1014 	 37.1613 	 81.8613 	 
C 	 -44.7222 	 37.4469 	 82.2184 	 
C 	 -43.9527 	 37.7222 	 81.1057 	 
H 	 -46.9122 	 36.8411 	 82.5208 	 
C 	 -44.1765 	 37.2198 	 83.5575 	 
H 	 -43.0473 	 37.2963 	 83.5148 	 
H 	 -44.4432 	 36.2699 	 83.8004 	 
C 	 -44.6621 	 38.263 	 84.6685 	 
H 	 -44.6271 	 39.2619 	 84.2919 	 
H 	 -44.0189 	 38.2537 	 85.5398 	 
C 	 -46.095 	 38.1132 	 85.177 	 
H 	 -46.8777 	 38.3729 	 84.4617 	 
H 	 -46.2641 	 38.7622 	 86.0054 	 
H 	 -46.2029 	 37.0836 	 85.5795 	 
H 	 -39.1246 	 37.9595 	 79.9233 	 
H 	 -47.258 	 37.1092 	 80.1342 	 
*
