! wB97X-D3 SP def2-SVP
%pal
nprocs 16
end

* xyz 0 1
S 	 -113.732 	 53.7961 	 109.409 	 
C 	 -112.175 	 53.0676 	 109.561 	 
C 	 -111.701 	 53.1744 	 110.829 	 
C 	 -112.579 	 53.8717 	 111.693 	 
C 	 -113.746 	 54.3213 	 111.088 	 
H 	 -112.316 	 54.1075 	 112.726 	 
C 	 -110.304 	 52.7535 	 111.343 	 
H 	 -110.3 	 51.7314 	 111.718 	 
H 	 -109.911 	 53.2859 	 112.239 	 
C 	 -109.15 	 52.6478 	 110.296 	 
H 	 -108.207 	 52.2981 	 110.837 	 
H 	 -109.366 	 51.8519 	 109.562 	 
C 	 -108.681 	 53.9279 	 109.629 	 
H 	 -109.623 	 54.2702 	 109.17 	 
H 	 -108.252 	 54.7335 	 110.263 	 
H 	 -108.034 	 53.637 	 108.877 	 
S 	 -115.159 	 56.6967 	 110.792 	 
C 	 -115.965 	 57.5109 	 112.131 	 
C 	 -115.819 	 56.6815 	 113.238 	 
C 	 -115.157 	 55.4438 	 113.001 	 
C 	 -114.667 	 55.3173 	 111.666 	 
H 	 -116.209 	 57.1522 	 114.196 	 
C 	 -115.029 	 54.4137 	 114.083 	 
H 	 -114.612 	 53.4663 	 113.686 	 
H 	 -116.031 	 54.1131 	 114.399 	 
C 	 -114.157 	 54.7394 	 115.341 	 
H 	 -113.203 	 55.1565 	 114.87 	 
H 	 -113.863 	 53.7882 	 115.914 	 
C 	 -114.791 	 55.788 	 116.297 	 
H 	 -114.986 	 56.6727 	 115.818 	 
H 	 -114.21 	 55.9808 	 117.188 	 
H 	 -115.675 	 55.3337 	 116.764 	 
H 	 -111.619 	 52.7173 	 108.719 	 
H 	 -116.236 	 58.5528 	 112.178 	 
*
