! wB97X-D3 SP def2-SVP
%pal
nprocs 16
end

* xyz 0 1
S 	 -4.89995 	 -12.4892 	 64.3938 	 
C 	 -6.21074 	 -11.708 	 65.1991 	 
C 	 -5.88666 	 -11.3883 	 66.5411 	 
C 	 -4.56682 	 -11.737 	 66.8864 	 
C 	 -3.8383 	 -12.2817 	 65.7566 	 
H 	 -4.10899 	 -11.6689 	 67.8186 	 
C 	 -6.88962 	 -10.7061 	 67.4396 	 
H 	 -7.87847 	 -10.5776 	 67.0265 	 
H 	 -6.54182 	 -9.66632 	 67.5817 	 
C 	 -7.1613 	 -11.4704 	 68.7406 	 
H 	 -6.17576 	 -11.7217 	 69.2227 	 
H 	 -7.6357 	 -10.8 	 69.4466 	 
C 	 -7.97115 	 -12.7051 	 68.641 	 
H 	 -8.91336 	 -12.4078 	 68.286 	 
H 	 -7.49537 	 -13.3489 	 67.9037 	 
H 	 -8.20151 	 -13.1938 	 69.5936 	 
S 	 -1.24822 	 -11.4757 	 65.42 	 
C 	 -0.0366623 	 -12.6001 	 65.9326 	 
C 	 -0.509914 	 -13.7335 	 66.4741 	 
C 	 -1.9392 	 -13.8354 	 66.4515 	 
C 	 -2.45278 	 -12.724 	 65.8029 	 
H 	 0.114566 	 -14.4508 	 66.8739 	 
C 	 -2.79754 	 -15.0463 	 66.9632 	 
H 	 -3.78783 	 -14.8517 	 66.699 	 
H 	 -2.78584 	 -15.0772 	 68.093 	 
C 	 -2.3466 	 -16.4035 	 66.3559 	 
H 	 -1.30445 	 -16.6369 	 66.5846 	 
H 	 -2.29378 	 -16.2794 	 65.2463 	 
C 	 -3.31186 	 -17.5551 	 66.6722 	 
H 	 -3.49402 	 -17.5866 	 67.7448 	 
H 	 -2.86798 	 -18.4872 	 66.4929 	 
H 	 -4.30693 	 -17.4346 	 66.216 	 
H 	 -7.25694 	 -11.4626 	 64.8884 	 
H 	 1.03837 	 -12.4101 	 65.8726 	 
*
