! wB97X-D3 SP def2-SVP
%pal
nprocs 16
end

* xyz 0 1
S 	 -70.6366 	 40.3595 	 126.464 	 
C 	 -70.8791 	 41.1802 	 128.03 	 
C 	 -71.212 	 40.3064 	 129.045 	 
C 	 -71.2993 	 38.9619 	 128.551 	 
C 	 -71.1983 	 38.8358 	 127.181 	 
H 	 -71.5854 	 38.0229 	 129.114 	 
C 	 -71.3554 	 40.7005 	 130.526 	 
H 	 -72.2456 	 41.3998 	 130.691 	 
H 	 -70.5166 	 41.278 	 130.866 	 
C 	 -71.5034 	 39.5437 	 131.489 	 
H 	 -72.5128 	 39.1359 	 131.31 	 
H 	 -70.6713 	 38.8094 	 131.335 	 
C 	 -71.6707 	 39.9601 	 132.958 	 
H 	 -71.6326 	 39.0159 	 133.468 	 
H 	 -70.8053 	 40.5838 	 133.304 	 
H 	 -72.5396 	 40.5601 	 133.235 	 
S 	 -72.9946 	 37.0924 	 126.256 	 
C 	 -72.5848 	 35.7109 	 125.302 	 
C 	 -71.231 	 35.7669 	 124.914 	 
C 	 -70.549 	 36.8396 	 125.6 	 
C 	 -71.3773 	 37.6101 	 126.409 	 
H 	 -70.8591 	 34.9377 	 124.286 	 
C 	 -69.0188 	 36.9622 	 125.24 	 
H 	 -68.7575 	 38.0502 	 125.194 	 
H 	 -69.0458 	 36.7146 	 124.184 	 
C 	 -68.0103 	 35.9563 	 125.812 	 
H 	 -68.396 	 35.0494 	 125.387 	 
H 	 -68.1152 	 35.997 	 126.929 	 
C 	 -66.5244 	 36.1557 	 125.38 	 
H 	 -65.9681 	 36.6382 	 126.263 	 
H 	 -66.4074 	 36.6298 	 124.386 	 
H 	 -66.0129 	 35.1933 	 125.353 	 
H 	 -70.6677 	 42.2365 	 128.252 	 
H 	 -73.3377 	 35.0731 	 124.935 	 
*
