! wB97X-D3 SP def2-SVP
%pal
nprocs 16
end

* xyz 0 1
S 	 -4.97773 	 75.0609 	 58.4834 	 
C 	 -5.70163 	 73.5652 	 59.1097 	 
C 	 -6.00553 	 72.6678 	 58.0651 	 
C 	 -5.73571 	 73.3021 	 56.8022 	 
C 	 -5.45334 	 74.6584 	 56.9337 	 
H 	 -5.82817 	 72.905 	 55.8794 	 
C 	 -6.30304 	 71.216 	 58.1863 	 
H 	 -6.57626 	 70.7382 	 57.2384 	 
H 	 -7.181 	 71.229 	 58.7717 	 
C 	 -5.30086 	 70.3937 	 58.9509 	 
H 	 -4.28741 	 70.601 	 58.6364 	 
H 	 -5.2712 	 70.735 	 60.0317 	 
C 	 -5.53948 	 68.8771 	 58.8644 	 
H 	 -4.75244 	 68.3585 	 59.326 	 
H 	 -6.3652 	 68.5946 	 59.549 	 
H 	 -5.70832 	 68.388 	 57.8634 	 
S 	 -6.69846 	 76.4003 	 55.2028 	 
C 	 -5.66662 	 77.3303 	 54.1636 	 
C 	 -4.36194 	 76.9277 	 54.2737 	 
C 	 -4.07825 	 75.9617 	 55.2303 	 
C 	 -5.29166 	 75.5671 	 55.8348 	 
H 	 -3.63452 	 77.5028 	 53.7146 	 
C 	 -2.6591 	 75.4192 	 55.4231 	 
H 	 -2.41478 	 75.6871 	 56.4831 	 
H 	 -1.90463 	 76.0203 	 54.8751 	 
C 	 -2.40176 	 73.9601 	 55.1221 	 
H 	 -3.06803 	 73.3566 	 55.757 	 
H 	 -1.33334 	 73.7503 	 55.4234 	 
C 	 -2.5664 	 73.6933 	 53.6267 	 
H 	 -2.16158 	 74.5254 	 53.0223 	 
H 	 -3.62202 	 73.7135 	 53.3081 	 
H 	 -2.27435 	 72.6777 	 53.4242 	 
H 	 -5.80917 	 73.4049 	 60.1687 	 
H 	 -6.11804 	 78.0614 	 53.5033 	 
*
