! wB97X-D3 SP def2-SVP
%pal
nprocs 16
end

* xyz 0 1
S 	 1.72019 	 -8.08276 	 91.5916 	 
C 	 0.0475599 	 -8.37598 	 92.1886 	 
C 	 -0.567991 	 -9.31951 	 91.4105 	 
C 	 0.320501 	 -9.83668 	 90.408 	 
C 	 1.63195 	 -9.52635 	 90.6503 	 
H 	 0.099327 	 -10.5392 	 89.6195 	 
C 	 -2.06165 	 -9.61714 	 91.4674 	 
H 	 -2.66149 	 -8.77946 	 91.0688 	 
H 	 -2.41495 	 -9.60243 	 92.4905 	 
C 	 -2.44607 	 -10.9626 	 90.9318 	 
H 	 -2.42554 	 -10.9489 	 89.8092 	 
H 	 -1.77923 	 -11.719 	 91.3735 	 
C 	 -3.87312 	 -11.4428 	 91.442 	 
H 	 -4.63831 	 -10.685 	 91.2611 	 
H 	 -4.08051 	 -12.4042 	 90.9052 	 
H 	 -3.87042 	 -11.7524 	 92.4689 	 
S 	 3.77199 	 -8.76822 	 89.1104 	 
C 	 4.74919 	 -10.0246 	 88.427 	 
C 	 4.32062 	 -11.2824 	 88.8126 	 
C 	 3.16419 	 -11.2772 	 89.583 	 
C 	 2.78018 	 -9.9832 	 89.8688 	 
H 	 4.91649 	 -12.1082 	 88.5093 	 
C 	 2.54549 	 -12.5617 	 90.098 	 
H 	 1.56777 	 -12.3667 	 90.4391 	 
H 	 3.14905 	 -12.9139 	 90.9965 	 
C 	 2.58642 	 -13.7803 	 89.1472 	 
H 	 3.57056 	 -13.958 	 88.7621 	 
H 	 1.94124 	 -13.5116 	 88.331 	 
C 	 2.07748 	 -15.0462 	 89.8234 	 
H 	 0.980186 	 -15.062 	 90.0712 	 
H 	 2.63777 	 -15.2829 	 90.6998 	 
H 	 2.41971 	 -15.8307 	 89.1262 	 
H 	 -0.480049 	 -7.84775 	 93.017 	 
H 	 5.60272 	 -9.92192 	 87.6612 	 
*
