! wB97X-D3 SP def2-SVP
%pal
nprocs 16
end

* xyz 0 1
S 	 -0.320623 	 -14.1424 	 85.0022 	 
C 	 -0.345194 	 -15.6109 	 85.9143 	 
C 	 -0.920875 	 -15.4127 	 87.1541 	 
C 	 -1.43885 	 -14.0842 	 87.2862 	 
C 	 -1.13012 	 -13.2434 	 86.2726 	 
H 	 -2.11135 	 -13.856 	 88.1154 	 
C 	 -1.10892 	 -16.5157 	 88.1926 	 
H 	 -0.324906 	 -16.4653 	 88.9657 	 
H 	 -0.938917 	 -17.4627 	 87.7192 	 
C 	 -2.50641 	 -16.4964 	 88.991 	 
H 	 -2.68014 	 -15.5099 	 89.5016 	 
H 	 -3.3801 	 -16.563 	 88.3208 	 
C 	 -2.65884 	 -17.5117 	 90.0812 	 
H 	 -2.25207 	 -17.0995 	 91.039 	 
H 	 -3.61297 	 -17.9979 	 90.0594 	 
H 	 -1.97446 	 -18.3218 	 89.7667 	 
S 	 -0.753827 	 -10.6883 	 85.2735 	 
C 	 -1.83811 	 -9.46002 	 85.7498 	 
C 	 -2.92388 	 -9.96114 	 86.4608 	 
C 	 -2.88688 	 -11.3539 	 86.53 	 
C 	 -1.66298 	 -11.89 	 86.1217 	 
H 	 -3.70405 	 -9.32327 	 86.7797 	 
C 	 -3.95188 	 -12.1504 	 87.1853 	 
H 	 -3.76674 	 -13.2345 	 86.884 	 
H 	 -4.85553 	 -11.9184 	 86.6895 	 
C 	 -4.15542 	 -12.0427 	 88.7119 	 
H 	 -4.12408 	 -11.0067 	 89.1287 	 
H 	 -3.26046 	 -12.5179 	 89.2041 	 
C 	 -5.51177 	 -12.6489 	 89.1246 	 
H 	 -5.69503 	 -12.8521 	 90.1434 	 
H 	 -5.6474 	 -13.6774 	 88.7503 	 
H 	 -6.30856 	 -12.0931 	 88.6495 	 
H 	 0.14728 	 -16.5058 	 85.6742 	 
H 	 -1.52038 	 -8.43532 	 85.6009 	 
*
