! wB97X-D3 SP def2-SVP
%pal
nprocs 16
end

* xyz 0 1
S 	 47.1394 	 11.8785 	 50.0844 	 
C 	 46.9392 	 11.8623 	 48.3616 	 
C 	 46.2 	 12.9865 	 47.9244 	 
C 	 45.9383 	 13.8941 	 48.9912 	 
C 	 46.3214 	 13.387 	 50.2133 	 
H 	 45.5296 	 14.8843 	 48.961 	 
C 	 46.0056 	 13.2684 	 46.4521 	 
H 	 46.7736 	 12.6434 	 45.8871 	 
H 	 46.2788 	 14.2796 	 46.4619 	 
C 	 44.5142 	 12.9991 	 46.033 	 
H 	 44.4088 	 11.9184 	 46.1162 	 
H 	 43.8057 	 13.4645 	 46.6992 	 
C 	 44.2393 	 13.501 	 44.576 	 
H 	 45.0292 	 13.0758 	 44.0564 	 
H 	 43.3367 	 13.1067 	 44.1431 	 
H 	 44.3551 	 14.5461 	 44.4786 	 
S 	 47.8665 	 14.1777 	 52.2902 	 
C 	 47.1735 	 15.4749 	 53.2661 	 
C 	 45.952 	 15.8645 	 52.938 	 
C 	 45.4012 	 15.0512 	 51.898 	 
C 	 46.3262 	 14.191 	 51.3994 	 
H 	 45.5669 	 16.7154 	 53.5482 	 
C 	 43.8748 	 15.1841 	 51.4761 	 
H 	 43.2123 	 14.6428 	 52.2179 	 
H 	 43.7404 	 14.5892 	 50.567 	 
C 	 43.4945 	 16.6355 	 51.2818 	 
H 	 43.925 	 17.1884 	 50.4938 	 
H 	 43.7948 	 17.1291 	 52.1948 	 
C 	 41.9297 	 16.6369 	 51.0145 	 
H 	 41.5298 	 16.131 	 51.8747 	 
H 	 41.653 	 16.1406 	 50.1335 	 
H 	 41.4161 	 17.5623 	 51 	 
H 	 47.2797 	 11.0262 	 47.7122 	 
H 	 47.7994 	 16.0151 	 53.9341 	 
*
