! wB97X-D3 SP def2-SVP
%pal
nprocs 16
end

* xyz 0 1
S 	 32.818 	 0.109438 	 66.9306 	 
C 	 34.1744 	 1.1898 	 66.7476 	 
C 	 34.4861 	 1.82157 	 67.9049 	 
C 	 33.8283 	 1.17586 	 69.0446 	 
C 	 32.9387 	 0.179622 	 68.7105 	 
H 	 33.9194 	 1.45218 	 70.1028 	 
C 	 35.5038 	 2.91874 	 68.0247 	 
H 	 35.7978 	 3.24539 	 67.0441 	 
H 	 36.4346 	 2.57939 	 68.4757 	 
C 	 34.9802 	 4.18493 	 68.7173 	 
H 	 34.9593 	 3.98918 	 69.7964 	 
H 	 35.6661 	 4.98326 	 68.5297 	 
C 	 33.5905 	 4.66564 	 68.3175 	 
H 	 33.2135 	 5.4592 	 69.0436 	 
H 	 33.7008 	 5.1077 	 67.3075 	 
H 	 32.7595 	 3.94139 	 68.3619 	 
S 	 30.5026 	 -0.743368 	 69.3358 	 
C 	 30.2637 	 -1.39419 	 70.9406 	 
C 	 31.4703 	 -1.78573 	 71.4947 	 
C 	 32.5703 	 -1.15413 	 70.8545 	 
C 	 32.1971 	 -0.594712 	 69.6529 	 
H 	 31.5158 	 -2.50408 	 72.2843 	 
C 	 33.9696 	 -1.24376 	 71.4138 	 
H 	 34.5547 	 -0.98442 	 70.5538 	 
H 	 34.2552 	 -2.31299 	 71.7257 	 
C 	 34.4128 	 -0.247726 	 72.4919 	 
H 	 33.6991 	 0.599985 	 72.4882 	 
H 	 35.3964 	 0.094386 	 72.352 	 
C 	 34.3795 	 -0.872648 	 73.9235 	 
H 	 35.0148 	 -0.297969 	 74.5428 	 
H 	 34.7097 	 -1.85068 	 73.9218 	 
H 	 33.3615 	 -0.858891 	 74.1773 	 
H 	 34.5736 	 1.46696 	 65.7973 	 
H 	 29.3571 	 -1.82419 	 71.1627 	 
*
