! wB97X-D3 SP def2-SVP
%pal
nprocs 16
end

* xyz 0 1
S 	 -108.403 	 41.8993 	 128.893 	 
C 	 -107.567 	 41.0874 	 130.239 	 
C 	 -106.979 	 39.9077 	 129.864 	 
C 	 -107.143 	 39.691 	 128.452 	 
C 	 -107.991 	 40.6123 	 127.848 	 
H 	 -106.682 	 38.8632 	 127.895 	 
C 	 -106.151 	 39.1004 	 130.761 	 
H 	 -106.929 	 38.4549 	 131.201 	 
H 	 -105.705 	 39.7578 	 131.534 	 
C 	 -105.127 	 38.1082 	 130.105 	 
H 	 -104.735 	 37.4031 	 130.776 	 
H 	 -105.458 	 37.5417 	 129.263 	 
C 	 -103.95 	 38.8135 	 129.5 	 
H 	 -104.244 	 39.6185 	 128.84 	 
H 	 -103.24 	 39.1746 	 130.196 	 
H 	 -103.331 	 38.0908 	 128.952 	 
S 	 -107.448 	 42.1891 	 125.61 	 
C 	 -107.724 	 41.5167 	 124.136 	 
C 	 -108.332 	 40.2647 	 124.149 	 
C 	 -108.433 	 39.7979 	 125.478 	 
C 	 -108.063 	 40.7319 	 126.464 	 
H 	 -108.593 	 39.8675 	 123.17 	 
C 	 -108.957 	 38.4333 	 125.781 	 
H 	 -108.158 	 37.9314 	 126.37 	 
H 	 -108.883 	 37.9948 	 124.775 	 
C 	 -110.344 	 38.2878 	 126.437 	 
H 	 -110.978 	 39.0502 	 125.995 	 
H 	 -110.351 	 38.289 	 127.484 	 
C 	 -110.896 	 36.9176 	 126.007 	 
H 	 -111.2 	 36.9455 	 125.016 	 
H 	 -111.854 	 36.7349 	 126.512 	 
H 	 -110.154 	 36.2099 	 126.229 	 
H 	 -107.558 	 41.5205 	 131.195 	 
H 	 -107.515 	 41.9917 	 123.139 	 
*
