! wB97X-D3 SP def2-SVP
%pal
nprocs 16
end

* xyz 0 1
S 	 3.21021 	 -29.2924 	 62.6565 	 
C 	 1.6604 	 -29.8388 	 63.1953 	 
C 	 0.689145 	 -29.8967 	 62.1964 	 
C 	 1.26808 	 -29.3986 	 60.9643 	 
C 	 2.60407 	 -29.0537 	 61.0365 	 
H 	 0.83056 	 -29.3553 	 60.0348 	 
C 	 -0.75954 	 -30.3517 	 62.3582 	 
H 	 -0.737319 	 -31.0191 	 63.2531 	 
H 	 -0.962037 	 -31.0682 	 61.5325 	 
C 	 -1.83135 	 -29.2565 	 62.3403 	 
H 	 -1.92637 	 -28.7231 	 61.4061 	 
H 	 -2.75948 	 -29.8002 	 62.4893 	 
C 	 -1.51479 	 -28.2497 	 63.4736 	 
H 	 -1.60105 	 -28.6935 	 64.5042 	 
H 	 -0.478873 	 -27.8275 	 63.466 	 
H 	 -2.14449 	 -27.3935 	 63.5415 	 
S 	 5.07815 	 -29.2002 	 59.8097 	 
C 	 5.30123 	 -28.4446 	 58.2193 	 
C 	 4.17727 	 -27.8714 	 57.7686 	 
C 	 3.07245 	 -27.9781 	 58.7391 	 
C 	 3.38736 	 -28.7304 	 59.862 	 
H 	 4.12601 	 -27.3592 	 56.8392 	 
C 	 1.75544 	 -27.2839 	 58.507 	 
H 	 0.962686 	 -27.6995 	 58.9995 	 
H 	 1.50821 	 -27.431 	 57.4672 	 
C 	 1.8279 	 -25.7568 	 58.6574 	 
H 	 0.959475 	 -25.2634 	 58.1572 	 
H 	 2.6398 	 -25.431 	 58.1368 	 
C 	 1.92287 	 -25.151 	 60.0675 	 
H 	 1.35045 	 -25.8064 	 60.7774 	 
H 	 1.56967 	 -24.0932 	 59.9008 	 
H 	 2.97199 	 -25.0476 	 60.3236 	 
H 	 1.38409 	 -30.1409 	 64.1548 	 
H 	 6.2976 	 -28.3325 	 57.6784 	 
*
