! wB97X-D3 SP def2-SVP
%pal
nprocs 16
end

* xyz 0 1
S 	 -5.67265 	 22.7332 	 48.7338 	 
C 	 -4.23569 	 23.6515 	 48.3654 	 
C 	 -3.83351 	 24.4284 	 49.4713 	 
C 	 -4.62246 	 24.1884 	 50.6123 	 
C 	 -5.77337 	 23.4369 	 50.3459 	 
H 	 -4.43014 	 24.447 	 51.6131 	 
C 	 -2.43968 	 25.1406 	 49.5192 	 
H 	 -2.59311 	 25.9608 	 50.228 	 
H 	 -2.20292 	 25.5839 	 48.5551 	 
C 	 -1.30951 	 24.2134 	 49.9561 	 
H 	 -1.49454 	 23.734 	 50.8929 	 
H 	 -1.16928 	 23.456 	 49.2527 	 
C 	 -0.0121644 	 24.9965 	 50.207 	 
H 	 0.90415 	 24.3167 	 50.3836 	 
H 	 -0.00123612 	 25.6359 	 49.3188 	 
H 	 -0.0188664 	 25.6603 	 51.1087 	 
S 	 -7.27193 	 21.3023 	 51.3585 	 
C 	 -8.40027 	 21.5186 	 52.6607 	 
C 	 -8.36275 	 22.8398 	 53.0134 	 
C 	 -7.49031 	 23.6921 	 52.2841 	 
C 	 -6.73905 	 22.974 	 51.3305 	 
H 	 -8.9575 	 23.1127 	 53.8382 	 
C 	 -7.50223 	 25.1979 	 52.5837 	 
H 	 -8.20637 	 25.725 	 52.0595 	 
H 	 -6.53066 	 25.6877 	 52.2561 	 
C 	 -7.59993 	 25.5864 	 54.0979 	 
H 	 -8.46935 	 25.1668 	 54.5239 	 
H 	 -7.8371 	 26.5918 	 54.2935 	 
C 	 -6.41722 	 25.1841 	 54.9092 	 
H 	 -6.50288 	 25.178 	 56.0036 	 
H 	 -5.60227 	 25.7944 	 54.6293 	 
H 	 -5.99941 	 24.1787 	 54.6599 	 
H 	 -3.57128 	 23.5435 	 47.5064 	 
H 	 -9.12835 	 20.7666 	 52.9721 	 
*
