! wB97X-D3 SP def2-SVP
%pal
nprocs 16
end

* xyz 0 1
S 	 -44.9611 	 65.026 	 140.666 	 
C 	 -44.017 	 64.3358 	 141.898 	 
C 	 -43.5418 	 63.0874 	 141.434 	 
C 	 -43.9451 	 62.7898 	 140.091 	 
C 	 -44.7834 	 63.7657 	 139.52 	 
H 	 -43.4738 	 61.9792 	 139.483 	 
C 	 -42.6768 	 62.1292 	 142.184 	 
H 	 -41.8345 	 62.6841 	 142.532 	 
H 	 -42.3554 	 61.4415 	 141.49 	 
C 	 -43.4037 	 61.2621 	 143.206 	 
H 	 -44.0165 	 61.8375 	 143.887 	 
H 	 -44.1473 	 60.6303 	 142.682 	 
C 	 -42.4103 	 60.4009 	 144.069 	 
H 	 -43.0132 	 59.8266 	 144.767 	 
H 	 -41.6379 	 59.7714 	 143.507 	 
H 	 -41.8459 	 61.0507 	 144.702 	 
S 	 -46.9543 	 63.0876 	 137.947 	 
C 	 -46.9458 	 63.5063 	 136.302 	 
C 	 -45.7603 	 63.9135 	 135.811 	 
C 	 -44.8329 	 64.1511 	 136.898 	 
C 	 -45.3463 	 63.7842 	 138.154 	 
H 	 -45.6456 	 64.0377 	 134.723 	 
C 	 -43.4159 	 64.7535 	 136.775 	 
H 	 -42.8227 	 64.3301 	 137.598 	 
H 	 -43.5167 	 65.8351 	 137.125 	 
C 	 -42.7168 	 64.5971 	 135.417 	 
H 	 -43.0069 	 65.3319 	 134.631 	 
H 	 -42.8998 	 63.5846 	 135.006 	 
C 	 -41.1788 	 64.7921 	 135.451 	 
H 	 -40.817 	 64.802 	 134.453 	 
H 	 -40.7196 	 63.9486 	 136.007 	 
H 	 -40.8867 	 65.7653 	 135.89 	 
H 	 -43.8148 	 64.7112 	 142.89 	 
H 	 -47.7667 	 63.1351 	 135.734 	 
*
