! wB97X-D3 SP def2-SVP
%pal
nprocs 16
end

* xyz 0 1
S 	 -36.5856 	 49.5066 	 104.444 	 
C 	 -36.0102 	 49.832 	 106.024 	 
C 	 -36.3484 	 51.0756 	 106.493 	 
C 	 -37.2036 	 51.7436 	 105.55 	 
C 	 -37.5697 	 50.9791 	 104.455 	 
H 	 -37.5517 	 52.7379 	 105.535 	 
C 	 -35.7078 	 51.757 	 107.678 	 
H 	 -34.7725 	 51.3086 	 107.882 	 
H 	 -36.3011 	 51.5443 	 108.54 	 
C 	 -35.5552 	 53.3003 	 107.632 	 
H 	 -36.4688 	 53.7896 	 107.704 	 
H 	 -35.037 	 53.4828 	 108.569 	 
C 	 -34.8537 	 53.8053 	 106.339 	 
H 	 -35.5327 	 53.5849 	 105.506 	 
H 	 -34.8107 	 54.8606 	 106.347 	 
H 	 -33.8104 	 53.3802 	 106.178 	 
S 	 -37.4153 	 51.8921 	 101.845 	 
C 	 -38.8947 	 52.2841 	 100.932 	 
C 	 -40.0298 	 52.23 	 101.756 	 
C 	 -39.697 	 51.8068 	 103.124 	 
C 	 -38.3533 	 51.4419 	 103.283 	 
H 	 -40.9894 	 52.4546 	 101.259 	 
C 	 -40.8024 	 51.6275 	 104.145 	 
H 	 -41.4809 	 52.5142 	 104.191 	 
H 	 -40.4087 	 51.7112 	 105.154 	 
C 	 -41.6023 	 50.3427 	 103.906 	 
H 	 -41.0115 	 49.4788 	 104.156 	 
H 	 -41.822 	 50.252 	 102.834 	 
C 	 -42.8918 	 50.1968 	 104.787 	 
H 	 -43.6804 	 49.6963 	 104.236 	 
H 	 -43.442 	 51.0415 	 104.964 	 
H 	 -42.7247 	 49.7265 	 105.767 	 
H 	 -35.3425 	 49.1668 	 106.526 	 
H 	 -39.0376 	 52.8583 	 99.9587 	 
*
