! wB97X-D3 SP def2-SVP
%pal
nprocs 16
end

* xyz 0 1
S 	 2.47387 	 -20.1444 	 59.6939 	 
C 	 2.92525 	 -18.487 	 60.1968 	 
C 	 2.11278 	 -18.0645 	 61.2282 	 
C 	 1.57365 	 -19.1678 	 61.8728 	 
C 	 1.86801 	 -20.3646 	 61.2825 	 
H 	 1.00254 	 -19.3012 	 62.818 	 
C 	 2.07898 	 -16.6936 	 61.8501 	 
H 	 1.0139 	 -16.4476 	 62.0692 	 
H 	 2.3221 	 -16.0776 	 61.0537 	 
C 	 2.82996 	 -16.3736 	 63.131 	 
H 	 2.56057 	 -15.3479 	 63.3021 	 
H 	 2.39558 	 -16.9021 	 63.97 	 
C 	 4.32957 	 -16.6298 	 63.0488 	 
H 	 4.77066 	 -16.0115 	 62.2827 	 
H 	 4.87494 	 -16.4235 	 63.999 	 
H 	 4.50048 	 -17.6574 	 62.7311 	 
S 	 0.302834 	 -22.6535 	 60.9135 	 
C 	 0.20079 	 -23.8407 	 62.2303 	 
C 	 1.05356 	 -23.4287 	 63.275 	 
C 	 1.72918 	 -22.1557 	 63.0682 	 
C 	 1.47286 	 -21.6186 	 61.7841 	 
H 	 1.13271 	 -23.9565 	 64.1944 	 
C 	 2.59043 	 -21.5466 	 64.1651 	 
H 	 1.8677 	 -21.2475 	 64.8259 	 
H 	 3.08179 	 -20.6801 	 63.7953 	 
C 	 3.59332 	 -22.4947 	 64.8192 	 
H 	 3.12164 	 -23.4827 	 64.9942 	 
H 	 3.97429 	 -22.001 	 65.7612 	 
C 	 4.74467 	 -22.7604 	 63.8099 	 
H 	 5.45028 	 -21.9336 	 63.8765 	 
H 	 4.33005 	 -22.9087 	 62.8348 	 
H 	 5.38228 	 -23.5843 	 64.1337 	 
H 	 3.53385 	 -17.8268 	 59.6011 	 
H 	 -0.446923 	 -24.6775 	 62.2478 	 
*
