! wB97X-D3 SP def2-SVP
%pal
nprocs 16
end

* xyz 0 1
S 	 -75.4886 	 48.5814 	 119.602 	 
C 	 -76.2971 	 47.0363 	 119.883 	 
C 	 -75.8926 	 46.4793 	 121.102 	 
C 	 -75.0166 	 47.3792 	 121.824 	 
C 	 -74.7764 	 48.6023 	 121.179 	 
H 	 -74.4548 	 47.2787 	 122.712 	 
C 	 -76.3542 	 45.1871 	 121.705 	 
H 	 -77.461 	 45.137 	 121.733 	 
H 	 -76.0328 	 45.3295 	 122.727 	 
C 	 -75.798 	 43.8837 	 121.195 	 
H 	 -74.7068 	 43.9449 	 121.243 	 
H 	 -76.2704 	 43.1189 	 121.836 	 
C 	 -76.2814 	 43.5622 	 119.745 	 
H 	 -75.8419 	 44.2246 	 119.04 	 
H 	 -75.9452 	 42.5447 	 119.48 	 
H 	 -77.3689 	 43.6858 	 119.605 	 
S 	 -74.4712 	 50.2986 	 123.233 	 
C 	 -73.4284 	 51.6471 	 123.138 	 
C 	 -72.8447 	 51.6867 	 121.861 	 
C 	 -73.1361 	 50.5626 	 121.037 	 
C 	 -74.06 	 49.7162 	 121.645 	 
H 	 -72.2578 	 52.6047 	 121.667 	 
C 	 -72.4531 	 50.3822 	 119.742 	 
H 	 -73.0796 	 50.8804 	 119.034 	 
H 	 -72.595 	 49.3195 	 119.461 	 
C 	 -70.962 	 50.8876 	 119.689 	 
H 	 -70.3908 	 50.3689 	 120.476 	 
H 	 -70.8761 	 51.9242 	 120.012 	 
C 	 -70.39 	 50.6023 	 118.233 	 
H 	 -70.8968 	 49.8492 	 117.706 	 
H 	 -69.3016 	 50.3166 	 118.32 	 
H 	 -70.7257 	 51.5294 	 117.702 	 
H 	 -76.9214 	 46.4906 	 119.24 	 
H 	 -73.3964 	 52.4693 	 123.826 	 
*
