! wB97X-D3 SP def2-SVP
%pal
nprocs 16
end

* xyz 0 1
S 	 -41.1786 	 -4.30161 	 97.0312 	 
C 	 -40.9272 	 -4.05065 	 95.3522 	 
C 	 -41.9639 	 -3.44785 	 94.6884 	 
C 	 -42.9293 	 -2.97534 	 95.5727 	 
C 	 -42.6508 	 -3.35533 	 96.887 	 
H 	 -43.7568 	 -2.35868 	 95.3543 	 
C 	 -41.8918 	 -3.04044 	 93.2362 	 
H 	 -40.8635 	 -3.01146 	 92.8984 	 
H 	 -42.3319 	 -1.9663 	 93.2652 	 
C 	 -42.6637 	 -3.85698 	 92.1737 	 
H 	 -42.2887 	 -3.60847 	 91.1342 	 
H 	 -42.4014 	 -4.92355 	 92.2636 	 
C 	 -44.229 	 -3.67518 	 92.1287 	 
H 	 -44.4094 	 -2.74029 	 91.7275 	 
H 	 -44.7122 	 -4.53451 	 91.6248 	 
H 	 -44.6781 	 -3.64424 	 93.0439 	 
S 	 -42.9724 	 -1.53362 	 98.964 	 
C 	 -44.502 	 -1.44733 	 99.8383 	 
C 	 -45.3288 	 -2.45817 	 99.4797 	 
C 	 -44.792 	 -3.26623 	 98.3961 	 
C 	 -43.4994 	 -2.91444 	 98.0109 	 
H 	 -46.2603 	 -2.52786 	 100.021 	 
C 	 -45.5926 	 -4.34756 	 97.6201 	 
H 	 -46.3857 	 -4.63397 	 98.3352 	 
H 	 -44.9731 	 -5.24028 	 97.5027 	 
C 	 -46.2029 	 -4.04515 	 96.292 	 
H 	 -45.412 	 -4.10164 	 95.4938 	 
H 	 -46.5767 	 -3.03088 	 96.2843 	 
C 	 -47.3151 	 -5.0278 	 95.8666 	 
H 	 -46.7819 	 -5.9789 	 95.533 	 
H 	 -48.0328 	 -4.70564 	 95.0198 	 
H 	 -47.9833 	 -5.21927 	 96.7043 	 
H 	 -40.1592 	 -4.6531 	 94.9182 	 
H 	 -44.7515 	 -0.846484 	 100.764 	 
*
