! wB97X-D3 SP def2-SVP
%pal
nprocs 16
end

* xyz 0 1
S 	 -27.8745 	 58.0943 	 118.128 	 
C 	 -29.3585 	 57.0918 	 118.185 	 
C 	 -30.4737 	 57.9209 	 118.146 	 
C 	 -30.1296 	 59.282 	 117.914 	 
C 	 -28.802 	 59.5434 	 117.93 	 
H 	 -30.8888 	 60.0481 	 117.787 	 
C 	 -31.9366 	 57.44 	 118.04 	 
H 	 -32.4623 	 58.0035 	 118.782 	 
H 	 -32.0409 	 56.4525 	 118.524 	 
C 	 -32.6255 	 57.6791 	 116.642 	 
H 	 -33.7225 	 57.6294 	 116.836 	 
H 	 -32.286 	 58.6449 	 116.309 	 
C 	 -32.1788 	 56.642 	 115.555 	 
H 	 -32.7178 	 55.6838 	 115.717 	 
H 	 -32.406 	 57.0348 	 114.535 	 
H 	 -31.1232 	 56.3654 	 115.558 	 
S 	 -26.9531 	 61.1565 	 116.668 	 
C 	 -26.7769 	 62.8143 	 117.192 	 
C 	 -27.6666 	 63.2088 	 118.205 	 
C 	 -28.4746 	 62.0421 	 118.534 	 
C 	 -28.1924 	 60.8483 	 117.87 	 
H 	 -27.6191 	 64.2249 	 118.611 	 
C 	 -29.4586 	 62.1204 	 119.669 	 
H 	 -30.378 	 61.6707 	 119.218 	 
H 	 -29.722 	 63.1139 	 120.069 	 
C 	 -29.1169 	 61.2999 	 120.931 	 
H 	 -28.2402 	 61.7292 	 121.321 	 
H 	 -28.8631 	 60.2909 	 120.626 	 
C 	 -30.2126 	 61.2348 	 122.014 	 
H 	 -30.9973 	 60.5714 	 121.618 	 
H 	 -30.6663 	 62.2593 	 122.138 	 
H 	 -29.9129 	 60.7658 	 122.98 	 
H 	 -29.3278 	 56.0164 	 118.466 	 
H 	 -26.0886 	 63.5487 	 116.889 	 
*
