! wB97X-D3 SP def2-SVP
%pal
nprocs 16
end

* xyz 0 1
S 	 10.0814 	 -9.61903 	 91.4712 	 
C 	 11.0419 	 -9.93273 	 90.0768 	 
C 	 10.5868 	 -11.0787 	 89.4119 	 
C 	 9.51847 	 -11.7168 	 90.1585 	 
C 	 9.08981 	 -11.0529 	 91.2119 	 
H 	 9.1066 	 -12.6827 	 89.8605 	 
C 	 11.3215 	 -11.6539 	 88.2288 	 
H 	 11.8318 	 -10.7635 	 87.7139 	 
H 	 10.6663 	 -12.1639 	 87.6419 	 
C 	 12.5279 	 -12.5526 	 88.5702 	 
H 	 13.0325 	 -12.8417 	 87.6594 	 
H 	 13.1253 	 -11.7974 	 89.0553 	 
C 	 12.1412 	 -13.738 	 89.3408 	 
H 	 11.4341 	 -13.5672 	 90.1301 	 
H 	 11.7455 	 -14.5969 	 88.7838 	 
H 	 13.027 	 -14.1088 	 89.7679 	 
S 	 7.13244 	 -10.0997 	 92.7442 	 
C 	 6.1652 	 -11.1287 	 93.7266 	 
C 	 6.59886 	 -12.446 	 93.6444 	 
C 	 7.58736 	 -12.6296 	 92.6321 	 
C 	 7.98786 	 -11.4709 	 92.0191 	 
H 	 6.22412 	 -13.2406 	 94.3013 	 
C 	 8.23792 	 -14.0096 	 92.3227 	 
H 	 9.32967 	 -13.9608 	 92.1931 	 
H 	 7.73697 	 -14.2678 	 91.3584 	 
C 	 7.92175 	 -15.1394 	 93.3298 	 
H 	 6.86521 	 -15.3536 	 93.3904 	 
H 	 8.19232 	 -14.7012 	 94.2524 	 
C 	 8.59933 	 -16.5185 	 93.1837 	 
H 	 8.21208 	 -17.1749 	 92.4416 	 
H 	 8.74604 	 -17.0338 	 94.1711 	 
H 	 9.62429 	 -16.2626 	 92.9214 	 
H 	 11.8445 	 -9.35777 	 89.7436 	 
H 	 5.47645 	 -10.7404 	 94.3655 	 
*
