! wB97X-D3 SP def2-SVP
%pal
nprocs 16
end

* xyz 0 1
S 	 -24.0158 	 50.2811 	 66.9454 	 
C 	 -23.9088 	 49.1736 	 65.5877 	 
C 	 -24.0237 	 47.8735 	 66.1278 	 
C 	 -24.0568 	 47.8528 	 67.5131 	 
C 	 -23.9933 	 49.0214 	 68.1461 	 
H 	 -24.2072 	 46.8698 	 68.0674 	 
C 	 -24.1108 	 46.6126 	 65.3011 	 
H 	 -23.56 	 45.8295 	 65.7532 	 
H 	 -23.4548 	 46.8804 	 64.424 	 
C 	 -25.4017 	 46.0183 	 64.7928 	 
H 	 -24.9714 	 45.3066 	 64.0501 	 
H 	 -25.9224 	 45.3717 	 65.461 	 
C 	 -26.3124 	 47.0027 	 64.0132 	 
H 	 -27.1636 	 46.5283 	 63.489 	 
H 	 -26.7921 	 47.6441 	 64.7647 	 
H 	 -25.6891 	 47.641 	 63.4744 	 
S 	 -25.3927 	 50.4598 	 70.0832 	 
C 	 -25.0187 	 50.166 	 71.761 	 
C 	 -24.023 	 49.2398 	 71.9462 	 
C 	 -23.6683 	 48.6224 	 70.7102 	 
C 	 -24.196 	 49.2552 	 69.5787 	 
H 	 -23.7339 	 49.0496 	 73.0124 	 
C 	 -22.6074 	 47.4999 	 70.6124 	 
H 	 -21.8004 	 47.9186 	 71.1675 	 
H 	 -22.3014 	 47.34 	 69.5665 	 
C 	 -23.0841 	 46.0429 	 71.0864 	 
H 	 -24.03 	 45.8057 	 70.5954 	 
H 	 -23.31 	 46.2391 	 72.0985 	 
C 	 -21.9953 	 44.9801 	 70.7805 	 
H 	 -21.6323 	 45.0371 	 69.8125 	 
H 	 -22.3634 	 43.9654 	 70.9479 	 
H 	 -21.1166 	 45.054 	 71.4908 	 
H 	 -23.6096 	 49.4145 	 64.5205 	 
H 	 -25.6504 	 50.5813 	 72.5411 	 
*
