! wB97X-D3 SP def2-SVP
%pal
nprocs 16
end

* xyz 0 1
S 	 -41.3083 	 55.0713 	 106.329 	 
C 	 -42.58 	 55.9028 	 105.479 	 
C 	 -42.4762 	 57.2989 	 105.757 	 
C 	 -41.3059 	 57.6415 	 106.51 	 
C 	 -40.5659 	 56.5409 	 106.874 	 
H 	 -40.9172 	 58.5018 	 106.922 	 
C 	 -43.5496 	 58.2896 	 105.341 	 
H 	 -44.5145 	 57.7634 	 105.278 	 
H 	 -43.3861 	 58.6393 	 104.353 	 
C 	 -43.8358 	 59.3744 	 106.348 	 
H 	 -44.4571 	 59.017 	 107.218 	 
H 	 -42.9476 	 59.9743 	 106.564 	 
C 	 -44.62 	 60.5089 	 105.676 	 
H 	 -44.0919 	 61.0786 	 104.86 	 
H 	 -45.6642 	 60.3834 	 105.28 	 
H 	 -44.8126 	 61.2701 	 106.483 	 
S 	 -39.4435 	 56.6187 	 109.426 	 
C 	 -37.6882 	 56.5008 	 109.525 	 
C 	 -37.111 	 56.3098 	 108.307 	 
C 	 -38.0602 	 56.2193 	 107.241 	 
C 	 -39.3643 	 56.5341 	 107.7 	 
H 	 -36.0239 	 56.2582 	 108.2 	 
C 	 -37.6947 	 56.0069 	 105.724 	 
H 	 -38.6027 	 55.5864 	 105.271 	 
H 	 -36.9702 	 55.18 	 105.746 	 
C 	 -37.0902 	 57.1864 	 105.029 	 
H 	 -36.1244 	 57.32 	 105.433 	 
H 	 -37.6291 	 58.0741 	 105.272 	 
C 	 -36.9739 	 56.8471 	 103.551 	 
H 	 -36.4807 	 55.8912 	 103.357 	 
H 	 -36.3697 	 57.5505 	 102.996 	 
H 	 -37.9897 	 56.8022 	 103.191 	 
H 	 -43.3896 	 55.3849 	 104.983 	 
H 	 -37.1872 	 56.3715 	 110.521 	 
*
