! wB97X-D3 SP def2-SVP
%pal
nprocs 16
end

* xyz 0 1
S 	 1.7152 	 -21.1248 	 86.8198 	 
C 	 2.0717 	 -22.4705 	 87.9255 	 
C 	 3.21434 	 -22.2254 	 88.635 	 
C 	 3.89055 	 -21.0283 	 88.1413 	 
C 	 3.18187 	 -20.366 	 87.1432 	 
H 	 4.80195 	 -20.5646 	 88.5256 	 
C 	 3.85887 	 -22.9533 	 89.8193 	 
H 	 4.82097 	 -22.5567 	 90.0734 	 
H 	 4.10241 	 -23.9359 	 89.5065 	 
C 	 2.97754 	 -23.0588 	 91.0863 	 
H 	 3.51875 	 -23.584 	 91.8447 	 
H 	 2.78931 	 -22.0561 	 91.5936 	 
C 	 1.53842 	 -23.7176 	 90.9778 	 
H 	 1.51485 	 -24.4138 	 90.1057 	 
H 	 1.34895 	 -24.3487 	 91.8216 	 
H 	 0.766967 	 -22.9771 	 90.9329 	 
S 	 3.64679 	 -19.269 	 84.722 	 
C 	 4.38923 	 -17.6817 	 84.5914 	 
C 	 4.75903 	 -17.2115 	 85.8291 	 
C 	 4.31138 	 -18.0016 	 86.942 	 
C 	 3.78089 	 -19.2136 	 86.4659 	 
H 	 5.2475 	 -16.2269 	 85.7959 	 
C 	 4.62529 	 -17.8075 	 88.41 	 
H 	 5.56403 	 -18.2172 	 88.5859 	 
H 	 3.94211 	 -18.3176 	 89.0335 	 
C 	 4.58549 	 -16.3758 	 88.9284 	 
H 	 3.55255 	 -16.0646 	 88.8744 	 
H 	 5.21209 	 -15.7615 	 88.3366 	 
C 	 5.11899 	 -16.2489 	 90.3602 	 
H 	 5.14802 	 -15.262 	 90.8139 	 
H 	 6.16026 	 -16.6652 	 90.4119 	 
H 	 4.31872 	 -16.8272 	 90.7918 	 
H 	 1.42417 	 -23.2363 	 88.1082 	 
H 	 4.67817 	 -17.2363 	 83.6364 	 
*
