! wB97X-D3 SP def2-SVP
%pal
nprocs 16
end

* xyz 0 1
S 	 18.6747 	 -9.06691 	 84.4964 	 
C 	 17.6847 	 -9.72947 	 83.2436 	 
C 	 16.3089 	 -9.67783 	 83.5119 	 
C 	 16.1169 	 -9.17014 	 84.8553 	 
C 	 17.2667 	 -8.77775 	 85.4693 	 
H 	 15.1494 	 -9.24496 	 85.3481 	 
C 	 15.2148 	 -10.0222 	 82.5891 	 
H 	 15.1118 	 -9.17417 	 81.9152 	 
H 	 14.2342 	 -10.1111 	 83.0816 	 
C 	 15.4403 	 -11.295 	 81.7957 	 
H 	 16.4297 	 -11.304 	 81.2748 	 
H 	 15.4587 	 -12.168 	 82.5333 	 
C 	 14.2509 	 -11.5562 	 80.9284 	 
H 	 14.3072 	 -10.9172 	 80.0755 	 
H 	 14.2678 	 -12.6269 	 80.6289 	 
H 	 13.3799 	 -11.3564 	 81.4463 	 
S 	 16.1514 	 -7.16189 	 87.4353 	 
C 	 16.863 	 -7.27734 	 89.0447 	 
C 	 17.9974 	 -8.11596 	 89.0811 	 
C 	 18.2336 	 -8.7962 	 87.8494 	 
C 	 17.3128 	 -8.36841 	 86.8963 	 
H 	 18.5086 	 -8.03798 	 90.0722 	 
C 	 19.3965 	 -9.75663 	 87.6662 	 
H 	 19.9965 	 -9.77624 	 88.6327 	 
H 	 20.1443 	 -9.44941 	 86.9706 	 
C 	 18.911 	 -11.1815 	 87.3234 	 
H 	 18.2729 	 -11.1199 	 86.4386 	 
H 	 18.3091 	 -11.657 	 88.0742 	 
C 	 20.0617 	 -12.106 	 87.0588 	 
H 	 19.7389 	 -13.1047 	 86.7035 	 
H 	 20.6933 	 -12.343 	 87.9023 	 
H 	 20.725 	 -11.7691 	 86.2658 	 
H 	 18.1696 	 -10.1344 	 82.3049 	 
H 	 16.4304 	 -6.83736 	 89.9033 	 
*
