! wB97X-D3 SP def2-SVP
%pal
nprocs 16
end

* xyz 0 1
S 	 24.7918 	 -0.174885 	 83.589 	 
C 	 25.7923 	 1.10062 	 84.0822 	 
C 	 25.0909 	 2.21267 	 84.3819 	 
C 	 23.6909 	 2.13606 	 84.1395 	 
C 	 23.3339 	 0.865444 	 83.6782 	 
H 	 22.9376 	 2.93139 	 84.1322 	 
C 	 25.7329 	 3.52558 	 84.8103 	 
H 	 26.6379 	 3.5971 	 85.4799 	 
H 	 25.0789 	 3.83524 	 85.5268 	 
C 	 25.8916 	 4.5428 	 83.664 	 
H 	 26.854 	 4.4721 	 83.1138 	 
H 	 25.1671 	 4.40685 	 82.8398 	 
C 	 25.8207 	 5.97631 	 84.1556 	 
H 	 25.9985 	 6.57691 	 83.266 	 
H 	 24.7306 	 6.10635 	 84.3524 	 
H 	 26.473 	 6.32252 	 84.9503 	 
S 	 20.6204 	 0.56671 	 84.2986 	 
C 	 19.4948 	 0.169235 	 83.0421 	 
C 	 20.1244 	 -0.0658046 	 81.8606 	 
C 	 21.536 	 0.128432 	 81.9065 	 
C 	 22.004 	 0.496042 	 83.1928 	 
H 	 19.4853 	 -0.432834 	 81.1121 	 
C 	 22.4858 	 -0.13074 	 80.7706 	 
H 	 23.3342 	 0.569335 	 80.7314 	 
H 	 21.9412 	 -0.0428007 	 79.831 	 
C 	 22.8446 	 -1.61385 	 80.6321 	 
H 	 22.0004 	 -2.25893 	 80.2049 	 
H 	 23.1625 	 -2.08806 	 81.6265 	 
C 	 24.0488 	 -1.81558 	 79.6623 	 
H 	 24.9375 	 -1.35335 	 80.1175 	 
H 	 23.8774 	 -1.26515 	 78.7517 	 
H 	 24.3545 	 -2.87829 	 79.4623 	 
H 	 26.8752 	 0.91965 	 84.2595 	 
H 	 18.3642 	 0.130303 	 83.1091 	 
*
