! wB97X-D3 SP def2-SVP
%pal
nprocs 16
end

* xyz 0 1
S 	 -42.801 	 34.4761 	 81.7008 	 
C 	 -42.9464 	 36.0253 	 80.862 	 
C 	 -41.8645 	 36.2497 	 79.9753 	 
C 	 -40.844 	 35.253 	 80.1733 	 
C 	 -41.2275 	 34.2712 	 81.0592 	 
H 	 -39.8656 	 35.2886 	 79.5595 	 
C 	 -41.8021 	 37.3316 	 78.9508 	 
H 	 -40.9725 	 37.9528 	 79.1956 	 
H 	 -42.7097 	 37.9941 	 78.9701 	 
C 	 -41.5789 	 36.9083 	 77.4827 	 
H 	 -40.5151 	 36.6882 	 77.2964 	 
H 	 -42.1545 	 36.0319 	 77.2925 	 
C 	 -41.847 	 38.1236 	 76.4839 	 
H 	 -41.3075 	 39.0595 	 76.7048 	 
H 	 -41.5231 	 37.8302 	 75.5022 	 
H 	 -42.9337 	 38.416 	 76.5357 	 
S 	 -38.8918 	 33.2796 	 82.1684 	 
C 	 -38.6284 	 31.581 	 82.022 	 
C 	 -39.6721 	 30.8003 	 81.4842 	 
C 	 -40.7616 	 31.6946 	 81.0688 	 
C 	 -40.482 	 33.0467 	 81.4115 	 
H 	 -39.5525 	 29.7284 	 81.2709 	 
C 	 -41.9091 	 31.1939 	 80.3169 	 
H 	 -42.6942 	 31.9165 	 80.2907 	 
H 	 -42.343 	 30.3509 	 80.8498 	 
C 	 -41.7632 	 31.0206 	 78.7758 	 
H 	 -42.5911 	 30.5115 	 78.2627 	 
H 	 -40.9498 	 30.2611 	 78.6941 	 
C 	 -41.3444 	 32.281 	 78.0121 	 
H 	 -40.3615 	 32.708 	 78.3124 	 
H 	 -42.0133 	 33.1689 	 78.1602 	 
H 	 -41.3887 	 32.1106 	 76.8831 	 
H 	 -43.8285 	 36.6439 	 80.8929 	 
H 	 -37.6213 	 31.1333 	 82.0168 	 
*
