! wB97X-D3 SP def2-SVP
%pal
nprocs 16
end

* xyz 0 1
S 	 -12.4469 	 40.8282 	 33.1685 	 
C 	 -13.9527 	 41.3793 	 33.9556 	 
C 	 -14.3512 	 40.5419 	 34.9559 	 
C 	 -13.4802 	 39.3996 	 35.1297 	 
C 	 -12.4596 	 39.4049 	 34.2213 	 
H 	 -13.52 	 38.7135 	 35.9434 	 
C 	 -15.5975 	 40.7486 	 35.8421 	 
H 	 -16.4171 	 40.3215 	 35.2585 	 
H 	 -15.7535 	 41.8599 	 35.8575 	 
C 	 -15.6436 	 40.1019 	 37.2522 	 
H 	 -15.45 	 39.003 	 37.163 	 
H 	 -14.7549 	 40.5075 	 37.7532 	 
C 	 -16.8356 	 40.2655 	 38.1221 	 
H 	 -17.8154 	 40.138 	 37.628 	 
H 	 -16.7198 	 39.631 	 39.0316 	 
H 	 -16.9636 	 41.2944 	 38.572 	 
S 	 -9.85998 	 39.0861 	 34.567 	 
C 	 -9.20745 	 37.4455 	 34.368 	 
C 	 -10.1738 	 36.4777 	 34.2963 	 
C 	 -11.424 	 37.1198 	 34.0984 	 
C 	 -11.4238 	 38.4583 	 34.1917 	 
H 	 -10.0289 	 35.3993 	 34.247 	 
C 	 -12.6577 	 36.321 	 34.0388 	 
H 	 -12.5805 	 35.6312 	 33.2065 	 
H 	 -13.4681 	 36.9956 	 33.6798 	 
C 	 -13.0211 	 35.6446 	 35.3218 	 
H 	 -14.1071 	 35.5948 	 35.3784 	 
H 	 -12.7624 	 36.203 	 36.1832 	 
C 	 -12.6651 	 34.1083 	 35.3284 	 
H 	 -12.7631 	 33.9066 	 36.3553 	 
H 	 -11.623 	 33.8943 	 35.1317 	 
H 	 -13.2911 	 33.5507 	 34.6778 	 
H 	 -14.6659 	 42.031 	 33.4877 	 
H 	 -8.13688 	 37.2543 	 34.5564 	 
*
