! wB97X-D3 SP def2-SVP
%pal
nprocs 16
end

* xyz 0 1
S 	 15.03 	 37.1237 	 63.4228 	 
C 	 16.5342 	 37.6242 	 63.9856 	 
C 	 17.5415 	 36.708 	 63.7108 	 
C 	 17.0124 	 35.5509 	 63.115 	 
C 	 15.6634 	 35.5456 	 62.9311 	 
H 	 17.6176 	 34.7276 	 62.8601 	 
C 	 18.9921 	 36.9039 	 63.9786 	 
H 	 19.4083 	 35.8944 	 64.1198 	 
H 	 19.1846 	 37.4148 	 64.922 	 
C 	 19.6331 	 37.7157 	 62.8205 	 
H 	 19.0616 	 38.6375 	 62.7332 	 
H 	 20.6485 	 38.0408 	 63.0795 	 
C 	 19.8054 	 36.9122 	 61.4583 	 
H 	 18.8453 	 36.4745 	 61.2781 	 
H 	 19.9875 	 37.5575 	 60.6033 	 
H 	 20.5723 	 36.1396 	 61.5608 	 
S 	 14.2327 	 34.9736 	 60.738 	 
C 	 13.6032 	 33.3483 	 60.5171 	 
C 	 14.0402 	 32.4371 	 61.4584 	 
C 	 14.7519 	 33.1511 	 62.5142 	 
C 	 14.8959 	 34.5144 	 62.2863 	 
H 	 13.8285 	 31.3361 	 61.4027 	 
C 	 15.3083 	 32.4375 	 63.7663 	 
H 	 15.7341 	 33.1901 	 64.4738 	 
H 	 16.0152 	 31.7352 	 63.4299 	 
C 	 14.3181 	 31.6856 	 64.6447 	 
H 	 14.8528 	 31.2097 	 65.4755 	 
H 	 13.7357 	 30.975 	 63.9301 	 
C 	 13.2649 	 32.6267 	 65.3371 	 
H 	 12.4456 	 32.0892 	 65.8479 	 
H 	 12.7536 	 33.2256 	 64.5677 	 
H 	 13.9474 	 33.0877 	 66.1244 	 
H 	 16.799 	 38.5352 	 64.4334 	 
H 	 13.1203 	 33.0889 	 59.5902 	 
*
