! wB97X-D3 SP def2-SVP
%pal
nprocs 16
end

* xyz 0 1
S 	 6.22444 	 -4.81231 	 89.778 	 
C 	 7.7907 	 -4.01788 	 89.9919 	 
C 	 8.50986 	 -3.95419 	 88.7946 	 
C 	 7.80606 	 -4.5802 	 87.7331 	 
C 	 6.51367 	 -5.00161 	 88.0996 	 
H 	 8.19674 	 -4.65055 	 86.6878 	 
C 	 9.95342 	 -3.38615 	 88.6756 	 
H 	 10.1217 	 -2.83022 	 89.5964 	 
H 	 9.96169 	 -2.59389 	 87.9655 	 
C 	 10.9739 	 -4.42355 	 88.3711 	 
H 	 10.9551 	 -5.33247 	 89.0958 	 
H 	 10.6035 	 -4.89775 	 87.4377 	 
C 	 12.3694 	 -3.71999 	 88.0952 	 
H 	 13.1692 	 -4.40223 	 88.1997 	 
H 	 12.335 	 -3.34802 	 87.0561 	 
H 	 12.4805 	 -2.9328 	 88.8884 	 
S 	 4.39542 	 -6.83252 	 87.9154 	 
C 	 3.51432 	 -7.02736 	 86.5026 	 
C 	 4.09233 	 -6.37006 	 85.4455 	 
C 	 5.29702 	 -5.61784 	 85.8354 	 
C 	 5.58033 	 -5.69906 	 87.1908 	 
H 	 3.78363 	 -6.44338 	 84.4415 	 
C 	 5.86534 	 -4.67808 	 84.8029 	 
H 	 6.30784 	 -3.84172 	 85.2283 	 
H 	 5.02171 	 -4.27052 	 84.234 	 
C 	 6.81754 	 -5.28983 	 83.8432 	 
H 	 6.36715 	 -6.21926 	 83.3477 	 
H 	 7.65165 	 -5.67177 	 84.3879 	 
C 	 7.34904 	 -4.26022 	 82.8251 	 
H 	 8.08936 	 -4.74419 	 82.1472 	 
H 	 7.76411 	 -3.40143 	 83.2678 	 
H 	 6.46777 	 -4.16103 	 82.161 	 
H 	 8.19824 	 -3.81906 	 90.9304 	 
H 	 2.50215 	 -7.36899 	 86.4373 	 
*
