! wB97X-D3 SP def2-SVP
%pal
nprocs 16
end

* xyz 0 1
S 	 52.8572 	 22.0476 	 90.7836 	 
C 	 51.2313 	 22.2321 	 90.1593 	 
C 	 50.5269 	 21.0342 	 90.1496 	 
C 	 51.4033 	 19.9552 	 90.4919 	 
C 	 52.6892 	 20.3338 	 90.8983 	 
H 	 51.1412 	 18.8898 	 90.61 	 
C 	 49.0665 	 20.8837 	 89.6912 	 
H 	 48.844 	 19.8442 	 89.7664 	 
H 	 48.8801 	 21.0389 	 88.6337 	 
C 	 48.0703 	 21.7436 	 90.4535 	 
H 	 48.2367 	 21.6255 	 91.4886 	 
H 	 48.3598 	 22.8074 	 90.306 	 
C 	 46.6353 	 21.5419 	 89.8632 	 
H 	 45.8373 	 22.0413 	 90.5189 	 
H 	 46.4358 	 21.9488 	 88.8704 	 
H 	 46.3517 	 20.5227 	 89.8339 	 
S 	 53.9874 	 19.9743 	 93.1318 	 
C 	 54.9903 	 18.5651 	 93.4257 	 
C 	 55.1777 	 17.8893 	 92.2715 	 
C 	 54.3875 	 18.3701 	 91.2061 	 
C 	 53.6978 	 19.5065 	 91.5227 	 
H 	 55.7894 	 16.9724 	 92.2522 	 
C 	 54.2338 	 17.6557 	 89.8251 	 
H 	 53.2138 	 17.8294 	 89.4492 	 
H 	 54.3346 	 16.5877 	 89.8952 	 
C 	 55.2782 	 18.0739 	 88.7618 	 
H 	 56.2275 	 17.9178 	 89.16 	 
H 	 55.2717 	 19.1242 	 88.3705 	 
C 	 55.2082 	 17.2517 	 87.4827 	 
H 	 54.9373 	 16.1859 	 87.7108 	 
H 	 56.0337 	 17.378 	 86.8818 	 
H 	 54.3463 	 17.5427 	 86.8646 	 
H 	 50.7539 	 23.1712 	 89.7992 	 
H 	 55.4162 	 18.4196 	 94.4066 	 
*
