! wB97X-D3 SP def2-SVP
%pal
nprocs 16
end

* xyz 0 1
S 	 -15.5777 	 44.7377 	 31.3602 	 
C 	 -13.8398 	 44.973 	 31.4511 	 
C 	 -13.2283 	 43.7078 	 31.3025 	 
C 	 -14.1804 	 42.6586 	 31.2401 	 
C 	 -15.4769 	 43.0477 	 31.146 	 
H 	 -13.9272 	 41.6186 	 31.2618 	 
C 	 -11.6948 	 43.415 	 31.1903 	 
H 	 -11.0833 	 44.034 	 30.4326 	 
H 	 -11.5387 	 42.4796 	 30.7266 	 
C 	 -11.0248 	 43.6362 	 32.5374 	 
H 	 -11.4582 	 42.8957 	 33.1521 	 
H 	 -10.0596 	 43.1582 	 32.467 	 
C 	 -10.9923 	 45.0465 	 33.0455 	 
H 	 -10.6747 	 45.7623 	 32.2696 	 
H 	 -11.9546 	 45.3778 	 33.5203 	 
H 	 -10.2561 	 45.0889 	 33.8208 	 
S 	 -17.3773 	 42.2167 	 32.8999 	 
C 	 -18.4363 	 40.9048 	 32.5319 	 
C 	 -18.4135 	 40.7113 	 31.1678 	 
C 	 -17.2474 	 41.2317 	 30.5019 	 
C 	 -16.611 	 42.1622 	 31.3108 	 
H 	 -19.1757 	 40.1197 	 30.6923 	 
C 	 -16.9338 	 40.9826 	 29.0392 	 
H 	 -16.5876 	 41.8356 	 28.4226 	 
H 	 -17.7403 	 40.6177 	 28.4849 	 
C 	 -15.8939 	 39.8441 	 28.8407 	 
H 	 -16.2061 	 38.9724 	 29.2535 	 
H 	 -15.0823 	 40.2117 	 29.5126 	 
C 	 -15.3127 	 39.652 	 27.396 	 
H 	 -14.8397 	 40.4944 	 26.928 	 
H 	 -16.048 	 39.3121 	 26.6657 	 
H 	 -14.6636 	 38.8001 	 27.5077 	 
H 	 -13.3451 	 45.9334 	 31.6482 	 
H 	 -19.2955 	 40.5488 	 33.1722 	 
*
