! wB97X-D3 SP def2-SVP
%pal
nprocs 16
end

* xyz 0 1
S 	 12.9572 	 22.9046 	 61.9985 	 
C 	 13.2014 	 21.3138 	 61.5087 	 
C 	 12.2118 	 20.4568 	 61.9374 	 
C 	 11.1925 	 21.0502 	 62.7631 	 
C 	 11.3884 	 22.382 	 62.8256 	 
H 	 10.3157 	 20.5321 	 63.1422 	 
C 	 12.0461 	 19.0179 	 61.5575 	 
H 	 12.4859 	 18.892 	 60.5481 	 
H 	 10.9802 	 18.7531 	 61.4865 	 
C 	 12.7218 	 18.0084 	 62.4846 	 
H 	 12.6312 	 16.9846 	 62.0368 	 
H 	 13.8182 	 18.142 	 62.6169 	 
C 	 12.1053 	 17.9421 	 63.8655 	 
H 	 11.0608 	 17.684 	 63.8734 	 
H 	 12.6714 	 17.1834 	 64.5065 	 
H 	 12.2373 	 18.8626 	 64.4209 	 
S 	 11.3426 	 24.9997 	 63.8079 	 
C 	 9.93193 	 25.6064 	 64.5639 	 
C 	 8.96488 	 24.6351 	 64.7239 	 
C 	 9.26316 	 23.4087 	 64.0013 	 
C 	 10.5529 	 23.3686 	 63.4413 	 
H 	 8.03561 	 24.8801 	 65.2113 	 
C 	 8.203 	 22.3101 	 63.8786 	 
H 	 7.33439 	 22.4151 	 64.5528 	 
H 	 8.76995 	 21.4444 	 64.2477 	 
C 	 7.71552 	 21.889 	 62.4025 	 
H 	 8.57955 	 21.5846 	 61.736 	 
H 	 7.20583 	 22.7836 	 61.9589 	 
C 	 6.75122 	 20.7396 	 62.3848 	 
H 	 6.47523 	 20.5221 	 61.3997 	 
H 	 5.8647 	 20.9913 	 62.9222 	 
H 	 7.21419 	 19.8754 	 62.8154 	 
H 	 14.1063 	 21.0067 	 60.9275 	 
H 	 9.88506 	 26.5574 	 65.1287 	 
*
