! wB97X-D3 SP def2-SVP
%pal
nprocs 16
end

* xyz 0 1
S 	 7.68773 	 -15.7715 	 67.3149 	 
C 	 8.85292 	 -16.9132 	 67.9924 	 
C 	 8.71014 	 -17.0198 	 69.3695 	 
C 	 7.7899 	 -16.1196 	 69.9029 	 
C 	 7.27841 	 -15.3225 	 68.912 	 
H 	 7.56989 	 -15.8569 	 70.8893 	 
C 	 9.54924 	 -17.9485 	 70.1985 	 
H 	 9.66004 	 -18.9047 	 69.6761 	 
H 	 9.02854 	 -18.204 	 71.0895 	 
C 	 10.9624 	 -17.5214 	 70.5452 	 
H 	 10.8786 	 -16.6275 	 71.0871 	 
H 	 11.3569 	 -18.2895 	 71.1542 	 
C 	 11.9397 	 -17.2555 	 69.4221 	 
H 	 11.619 	 -16.5473 	 68.7254 	 
H 	 12.7925 	 -16.7587 	 69.7979 	 
H 	 12.1836 	 -18.1383 	 68.8009 	 
S 	 4.88306 	 -14.2213 	 68.1038 	 
C 	 4.24181 	 -12.7951 	 68.9258 	 
C 	 5.09298 	 -12.4028 	 69.9797 	 
C 	 6.21463 	 -13.2303 	 70.0734 	 
C 	 6.31784 	 -14.2968 	 69.1455 	 
H 	 4.61315 	 -11.7163 	 70.7717 	 
C 	 7.35676 	 -12.868 	 71.04 	 
H 	 7.79947 	 -13.7965 	 71.4707 	 
H 	 6.90372 	 -12.382 	 71.9034 	 
C 	 8.41622 	 -11.9216 	 70.4747 	 
H 	 9.06773 	 -11.4294 	 71.2383 	 
H 	 7.88872 	 -11.0525 	 70.0826 	 
C 	 9.1891 	 -12.4794 	 69.2526 	 
H 	 8.5335 	 -13.1332 	 68.6053 	 
H 	 10.0889 	 -12.9905 	 69.4882 	 
H 	 9.37301 	 -11.6789 	 68.5669 	 
H 	 9.6611 	 -17.3397 	 67.3888 	 
H 	 3.27957 	 -12.4021 	 68.8011 	 
*
