! wB97X-D3 SP def2-SVP
%pal
nprocs 16
end

* xyz 0 1
S 	 42.2244 	 11.8952 	 84.5261 	 
C 	 42.1758 	 10.36 	 85.3265 	 
C 	 43.4443 	 9.89309 	 85.5706 	 
C 	 44.4552 	 10.7154 	 84.9788 	 
C 	 43.9818 	 11.8305 	 84.35 	 
H 	 45.4843 	 10.4657 	 84.8279 	 
C 	 43.7014 	 8.54117 	 86.1373 	 
H 	 44.4666 	 8.14284 	 85.4953 	 
H 	 42.7642 	 8.01214 	 86.0091 	 
C 	 44.3441 	 8.66113 	 87.5548 	 
H 	 44.7714 	 7.74355 	 87.7944 	 
H 	 45.2073 	 9.3152 	 87.5405 	 
C 	 43.4047 	 9.25995 	 88.6662 	 
H 	 43.1987 	 10.3658 	 88.6018 	 
H 	 42.5301 	 8.56247 	 88.7185 	 
H 	 43.9328 	 9.04722 	 89.5706 	 
S 	 43.8631 	 13.9115 	 82.5861 	 
C 	 45.2577 	 14.6049 	 81.8898 	 
C 	 46.3652 	 14.182 	 82.6075 	 
C 	 46.1124 	 13.2547 	 83.6614 	 
C 	 44.781 	 12.8928 	 83.6624 	 
H 	 47.2925 	 14.6049 	 82.3049 	 
C 	 47.2402 	 12.5559 	 84.4664 	 
H 	 47.4614 	 11.6016 	 84.079 	 
H 	 46.8669 	 12.258 	 85.4538 	 
C 	 48.5565 	 13.395 	 84.6907 	 
H 	 48.9884 	 13.3994 	 83.7109 	 
H 	 49.228 	 12.8708 	 85.4254 	 
C 	 48.4236 	 14.8821 	 85.0588 	 
H 	 49.446 	 15.0772 	 85.4046 	 
H 	 47.6756 	 15.0024 	 85.8812 	 
H 	 48.1013 	 15.4934 	 84.1721 	 
H 	 41.3003 	 9.88941 	 85.6919 	 
H 	 45.3668 	 15.3393 	 81.0243 	 
*
