! wB97X-D3 SP def2-SVP
%pal
nprocs 16
end

* xyz 0 1
S 	 -20.5496 	 -7.28379 	 86.3683 	 
C 	 -19.5024 	 -7.7841 	 84.9738 	 
C 	 -18.4953 	 -8.60877 	 85.4106 	 
C 	 -18.5871 	 -8.92443 	 86.8127 	 
C 	 -19.6325 	 -8.35337 	 87.4192 	 
H 	 -17.8943 	 -9.60711 	 87.3568 	 
C 	 -17.3768 	 -9.08023 	 84.547 	 
H 	 -16.4353 	 -8.90938 	 85.0597 	 
H 	 -17.1396 	 -8.47392 	 83.6923 	 
C 	 -17.758 	 -10.4919 	 83.9257 	 
H 	 -16.8836 	 -10.9747 	 83.6197 	 
H 	 -18.2579 	 -11.1417 	 84.7106 	 
C 	 -18.5553 	 -10.3367 	 82.6059 	 
H 	 -18.5423 	 -11.2665 	 82.1199 	 
H 	 -19.5165 	 -9.98075 	 82.7646 	 
H 	 -18.0173 	 -9.61377 	 82.038 	 
S 	 -21.3296 	 -9.90539 	 88.9846 	 
C 	 -21.3279 	 -9.67243 	 90.7122 	 
C 	 -20.5275 	 -8.63243 	 91.0926 	 
C 	 -19.9218 	 -7.99104 	 89.9683 	 
C 	 -20.1697 	 -8.61911 	 88.7781 	 
H 	 -20.4175 	 -8.22846 	 92.0824 	 
C 	 -18.9625 	 -6.81246 	 90.2403 	 
H 	 -19.504 	 -6.01109 	 90.7587 	 
H 	 -18.6332 	 -6.52755 	 89.2361 	 
C 	 -17.7856 	 -7.21226 	 91.1035 	 
H 	 -17.1677 	 -7.89834 	 90.5716 	 
H 	 -18.2152 	 -7.66986 	 91.9549 	 
C 	 -17.0748 	 -6.037 	 91.5036 	 
H 	 -16.2195 	 -6.3182 	 92.14 	 
H 	 -17.8024 	 -5.38818 	 92.1076 	 
H 	 -16.6259 	 -5.42177 	 90.6861 	 
H 	 -19.669 	 -7.45487 	 83.951 	 
H 	 -22.0023 	 -10.1872 	 91.4471 	 
*
