! wB97X-D3 SP def2-SVP
%pal
nprocs 16
end

* xyz 0 1
S 	 4.63507 	 -26.4752 	 78.7385 	 
C 	 4.07177 	 -27.9604 	 79.454 	 
C 	 4.94112 	 -28.3882 	 80.404 	 
C 	 5.92862 	 -27.3881 	 80.6734 	 
C 	 5.88098 	 -26.2987 	 79.9276 	 
H 	 6.772 	 -27.518 	 81.3768 	 
C 	 4.90543 	 -29.7331 	 80.9567 	 
H 	 5.79308 	 -30.2976 	 80.6908 	 
H 	 4.01565 	 -30.2013 	 80.4426 	 
C 	 4.79443 	 -29.8472 	 82.4996 	 
H 	 4.60196 	 -30.9271 	 82.6592 	 
H 	 5.70832 	 -29.6505 	 83.0415 	 
C 	 3.60465 	 -28.9436 	 83.0376 	 
H 	 2.92347 	 -28.8274 	 82.1815 	 
H 	 3.00806 	 -29.4361 	 83.8022 	 
H 	 4.00392 	 -28.0151 	 83.3896 	 
S 	 5.95801 	 -23.6669 	 79.861 	 
C 	 7.40872 	 -22.7467 	 80.1282 	 
C 	 8.48096 	 -23.5916 	 80.3031 	 
C 	 8.08466 	 -25.005 	 80.2666 	 
C 	 6.77321 	 -25.1936 	 79.9236 	 
H 	 9.43014 	 -23.1966 	 80.6538 	 
C 	 9.12795 	 -26.1044 	 80.5008 	 
H 	 8.70022 	 -26.9874 	 80.8763 	 
H 	 9.86767 	 -25.7711 	 81.2466 	 
C 	 9.92054 	 -26.5111 	 79.2277 	 
H 	 9.83004 	 -25.7129 	 78.5313 	 
H 	 9.4283 	 -27.3624 	 78.7338 	 
C 	 11.4019 	 -26.8101 	 79.3431 	 
H 	 11.8139 	 -27.5137 	 78.5291 	 
H 	 11.743 	 -27.2335 	 80.2796 	 
H 	 11.7559 	 -25.8478 	 79.2627 	 
H 	 3.20087 	 -28.6017 	 79.114 	 
H 	 7.50577 	 -21.6665 	 80.0569 	 
*
