! wB97X-D3 SP def2-SVP
%pal
nprocs 16
end

* xyz 0 1
S 	 42.0407 	 12.143 	 50.7827 	 
C 	 41.6794 	 12.9251 	 49.2557 	 
C 	 42.8032 	 13.5804 	 48.7955 	 
C 	 43.8949 	 13.6227 	 49.7536 	 
C 	 43.6333 	 12.8613 	 50.9048 	 
H 	 44.8734 	 14.1658 	 49.5738 	 
C 	 42.8909 	 14.2458 	 47.4725 	 
H 	 41.9094 	 14.1384 	 46.9134 	 
H 	 43.5565 	 13.7433 	 46.8089 	 
C 	 43.3711 	 15.7049 	 47.4483 	 
H 	 42.81 	 16.3534 	 48.097 	 
H 	 44.3934 	 15.7176 	 47.8401 	 
C 	 43.1426 	 16.4868 	 46.1466 	 
H 	 43.5392 	 16.0115 	 45.1917 	 
H 	 42.1149 	 16.7302 	 45.9444 	 
H 	 43.7378 	 17.3869 	 46.1591 	 
S 	 44.1589 	 10.9259 	 52.8523 	 
C 	 45.3649 	 11.2745 	 54.1171 	 
C 	 45.9547 	 12.4588 	 53.8522 	 
C 	 45.5507 	 13.1591 	 52.6766 	 
C 	 44.4338 	 12.5239 	 52.0606 	 
H 	 46.7988 	 12.7453 	 54.5179 	 
C 	 46.067 	 14.5092 	 52.2417 	 
H 	 46.1669 	 15.0431 	 53.1769 	 
H 	 45.3041 	 15.0745 	 51.7349 	 
C 	 47.2621 	 14.42 	 51.3107 	 
H 	 47.0128 	 13.7201 	 50.4756 	 
H 	 48.1007 	 13.9808 	 51.7637 	 
C 	 47.801 	 15.7335 	 50.6424 	 
H 	 47.0328 	 16.0158 	 49.8999 	 
H 	 48.7276 	 15.5739 	 50.1703 	 
H 	 48.0409 	 16.5879 	 51.3106 	 
H 	 40.6732 	 13.0335 	 48.7342 	 
H 	 45.4837 	 10.5521 	 54.9273 	 
*
