! wB97X-D3 SP def2-SVP
%pal
nprocs 16
end

* xyz 0 1
S 	 22.8712 	 8.83301 	 65.1762 	 
C 	 23.5631 	 10.4871 	 65.2344 	 
C 	 23.111 	 11.1408 	 66.3568 	 
C 	 22.33 	 10.2962 	 67.2474 	 
C 	 22.1757 	 9.0155 	 66.8143 	 
H 	 21.8496 	 10.5229 	 68.1523 	 
C 	 23.4057 	 12.5314 	 66.8443 	 
H 	 23.6116 	 12.3764 	 67.8946 	 
H 	 22.4658 	 13.1091 	 66.832 	 
C 	 24.4341 	 13.3911 	 66.0708 	 
H 	 25.2185 	 12.7711 	 65.7475 	 
H 	 23.9998 	 13.7761 	 65.1071 	 
C 	 24.8997 	 14.6278 	 66.8393 	 
H 	 25.1478 	 14.3566 	 67.8831 	 
H 	 25.71 	 15.1103 	 66.2278 	 
H 	 24.0835 	 15.2884 	 67.0873 	 
S 	 20.6796 	 6.79583 	 66.325 	 
C 	 19.817 	 6.07986 	 67.6454 	 
C 	 20.1941 	 6.49324 	 68.8999 	 
C 	 21.193 	 7.55438 	 68.8085 	 
C 	 21.4486 	 7.91431 	 67.4513 	 
H 	 19.8356 	 5.86067 	 69.6637 	 
C 	 21.6876 	 8.22907 	 70.0446 	 
H 	 20.9796 	 8.93949 	 70.4831 	 
H 	 22.6187 	 8.87903 	 69.7069 	 
C 	 22.2648 	 7.32513 	 71.1665 	 
H 	 23.2023 	 6.88034 	 70.7284 	 
H 	 21.5746 	 6.47594 	 71.3655 	 
C 	 22.5014 	 8.15423 	 72.4629 	 
H 	 23.2341 	 8.87156 	 72.149 	 
H 	 23.0317 	 7.51925 	 73.1468 	 
H 	 21.6124 	 8.61211 	 72.979 	 
H 	 24.2182 	 10.8961 	 64.4869 	 
H 	 19.1465 	 5.20923 	 67.4708 	 
*
