! wB97X-D3 SP def2-SVP
%pal
nprocs 16
end

* xyz 0 1
S 	 -43.7354 	 26.0751 	 86.3895 	 
C 	 -44.7225 	 26.9211 	 85.2539 	 
C 	 -44.0762 	 27.0328 	 83.9966 	 
C 	 -42.7386 	 26.5233 	 84.0853 	 
C 	 -42.3576 	 26.0001 	 85.3024 	 
H 	 -42.0089 	 26.6165 	 83.2917 	 
C 	 -44.5692 	 27.6809 	 82.7641 	 
H 	 -44.4889 	 28.8075 	 83.0652 	 
H 	 -45.6529 	 27.5314 	 82.731 	 
C 	 -44.0656 	 27.1704 	 81.4168 	 
H 	 -44.6731 	 27.5878 	 80.5625 	 
H 	 -43.098 	 27.54 	 81.3688 	 
C 	 -44.1284 	 25.6816 	 81.3052 	 
H 	 -43.3372 	 25.1104 	 81.8233 	 
H 	 -45.0711 	 25.2384 	 81.7093 	 
H 	 -44.0176 	 25.3138 	 80.3019 	 
S 	 -41.38 	 23.8909 	 86.8552 	 
C 	 -39.8115 	 23.1415 	 86.4629 	 
C 	 -39.099 	 23.9442 	 85.6096 	 
C 	 -39.8761 	 25.0307 	 85.0261 	 
C 	 -41.1717 	 25.1465 	 85.5819 	 
H 	 -38.0845 	 23.6704 	 85.4037 	 
C 	 -39.2487 	 25.8521 	 83.8831 	 
H 	 -38.2489 	 26.232 	 84.2621 	 
H 	 -39.9051 	 26.7329 	 83.6738 	 
C 	 -38.8872 	 25.1951 	 82.5457 	 
H 	 -38.152 	 24.421 	 82.6209 	 
H 	 -38.5773 	 26.0429 	 81.9393 	 
C 	 -40.0387 	 24.4792 	 81.822 	 
H 	 -40.2991 	 23.5319 	 82.3031 	 
H 	 -39.6347 	 24.2373 	 80.8099 	 
H 	 -40.9247 	 25.1405 	 81.7362 	 
H 	 -45.7082 	 27.2534 	 85.3953 	 
H 	 -39.3698 	 22.3398 	 87.1269 	 
*
