! wB97X-D3 SP def2-SVP
%pal
nprocs 16
end

* xyz 0 1
S 	 45.5276 	 18.6393 	 45.9497 	 
C 	 44.7899 	 17.0495 	 45.7689 	 
C 	 43.4201 	 17.1134 	 45.3698 	 
C 	 43.0072 	 18.4385 	 45.2463 	 
C 	 43.862 	 19.3263 	 45.8485 	 
H 	 42.1019 	 18.8054 	 44.9881 	 
C 	 42.4735 	 15.8933 	 45.2031 	 
H 	 42.5928 	 15.3623 	 46.131 	 
H 	 42.996 	 15.3139 	 44.4884 	 
C 	 41.0354 	 16.2344 	 44.7399 	 
H 	 41.1219 	 16.9684 	 43.9682 	 
H 	 40.5999 	 15.2935 	 44.3673 	 
C 	 40.189 	 16.7187 	 45.8957 	 
H 	 39.9008 	 15.8287 	 46.5301 	 
H 	 40.6992 	 17.4023 	 46.5306 	 
H 	 39.1786 	 17.0752 	 45.5043 	 
S 	 45.0048 	 21.6069 	 45.1506 	 
C 	 44.3706 	 23.1196 	 45.693 	 
C 	 43.0737 	 22.931 	 46.1873 	 
C 	 42.7105 	 21.5991 	 46.3213 	 
C 	 43.7013 	 20.7431 	 45.8106 	 
H 	 42.4137 	 23.6894 	 46.464 	 
C 	 41.4863 	 21.2002 	 47.1434 	 
H 	 41.7455 	 21.2831 	 48.1529 	 
H 	 41.3397 	 20.1432 	 46.9509 	 
C 	 40.1811 	 21.9064 	 46.7893 	 
H 	 40.2176 	 23.0004 	 46.8453 	 
H 	 39.417 	 21.5978 	 47.5283 	 
C 	 39.6059 	 21.515 	 45.3911 	 
H 	 40.1638 	 22.0232 	 44.5996 	 
H 	 38.628 	 21.8928 	 45.3716 	 
H 	 39.6048 	 20.4943 	 45.162 	 
H 	 45.18 	 16.0549 	 45.9295 	 
H 	 44.7195 	 24.0771 	 45.4831 	 
*
