! wB97X-D3 SP def2-SVP
%pal
nprocs 16
end

* xyz 0 1
S 	 -81.1244 	 31.7507 	 134.17 	 
C 	 -79.5305 	 31.7548 	 134.85 	 
C 	 -78.9929 	 33.0287 	 135.038 	 
C 	 -79.9353 	 33.9895 	 134.518 	 
C 	 -81.1848 	 33.5252 	 134.127 	 
H 	 -79.7779 	 35.0057 	 134.397 	 
C 	 -77.5575 	 33.3271 	 135.388 	 
H 	 -77.0225 	 33.9814 	 134.729 	 
H 	 -77.0108 	 32.4526 	 135.34 	 
C 	 -77.4136 	 33.8948 	 136.828 	 
H 	 -77.6297 	 33.1321 	 137.534 	 
H 	 -76.3949 	 34.0101 	 136.959 	 
C 	 -78.2402 	 35.1727 	 137.088 	 
H 	 -79.2896 	 35.0715 	 136.962 	 
H 	 -77.9649 	 35.6232 	 138.027 	 
H 	 -77.8482 	 35.9395 	 136.42 	 
S 	 -82.7565 	 33.9454 	 131.87 	 
C 	 -83.374 	 35.4996 	 131.679 	 
C 	 -83.4753 	 36.1569 	 132.85 	 
C 	 -82.762 	 35.5143 	 133.947 	 
C 	 -82.2379 	 34.2718 	 133.545 	 
H 	 -84.0522 	 37.0668 	 132.891 	 
C 	 -82.5067 	 36.3381 	 135.136 	 
H 	 -82.2389 	 37.3888 	 134.844 	 
H 	 -81.6646 	 35.8491 	 135.699 	 
C 	 -83.6483 	 36.4458 	 136.168 	 
H 	 -83.1788 	 36.5885 	 137.126 	 
H 	 -84.1817 	 35.4927 	 136.264 	 
C 	 -84.6201 	 37.5379 	 135.904 	 
H 	 -85.1091 	 37.5957 	 134.932 	 
H 	 -84.0273 	 38.4058 	 135.976 	 
H 	 -85.3529 	 37.6525 	 136.703 	 
H 	 -78.9351 	 30.8615 	 134.951 	 
H 	 -83.9942 	 35.7425 	 130.825 	 
*
