! wB97X-D3 SP def2-SVP
%pal
nprocs 16
end

* xyz 0 1
S 	 11.0174 	 -15.5592 	 90.8015 	 
C 	 12.7512 	 -15.8759 	 90.4701 	 
C 	 13.3893 	 -14.6972 	 90.1546 	 
C 	 12.5756 	 -13.5755 	 90.4927 	 
C 	 11.2845 	 -13.834 	 90.7587 	 
H 	 12.9427 	 -12.5169 	 90.621 	 
C 	 14.8508 	 -14.5386 	 89.8055 	 
H 	 15.5799 	 -15.2316 	 90.2947 	 
H 	 15.2585 	 -13.5555 	 90.1543 	 
C 	 15.1226 	 -14.5187 	 88.2994 	 
H 	 14.736 	 -15.4451 	 87.9474 	 
H 	 14.5469 	 -13.7511 	 87.7665 	 
C 	 16.6089 	 -14.4723 	 87.9969 	 
H 	 16.8712 	 -14.264 	 86.9174 	 
H 	 17.1164 	 -13.7114 	 88.5757 	 
H 	 17.0633 	 -15.5003 	 88.2459 	 
S 	 10.1618 	 -13.0724 	 93.1657 	 
C 	 9.00244 	 -11.7239 	 93.0893 	 
C 	 8.84868 	 -11.1906 	 91.8402 	 
C 	 9.61468 	 -11.8643 	 90.8415 	 
C 	 10.3717 	 -12.9061 	 91.3651 	 
H 	 8.2221 	 -10.3185 	 91.7208 	 
C 	 9.52644 	 -11.3352 	 89.4276 	 
H 	 8.48499 	 -11.3961 	 89.0517 	 
H 	 10.0503 	 -12.0355 	 88.8443 	 
C 	 10.0956 	 -9.85392 	 89.2335 	 
H 	 11.0981 	 -9.68095 	 89.6112 	 
H 	 9.56155 	 -9.14851 	 89.8729 	 
C 	 9.91126 	 -9.39309 	 87.8128 	 
H 	 8.96778 	 -9.31986 	 87.389 	 
H 	 10.4887 	 -10.0385 	 87.1466 	 
H 	 10.346 	 -8.39878 	 87.8198 	 
H 	 13.1782 	 -16.8995 	 90.4646 	 
H 	 8.43525 	 -11.3258 	 93.9435 	 
*
