! wB97X-D3 SP def2-SVP
%pal
nprocs 16
end

* xyz 0 1
S 	 57.1191 	 3.61493 	 87.6799 	 
C 	 57.465 	 4.28226 	 86.1106 	 
C 	 56.4151 	 4.00805 	 85.2121 	 
C 	 55.4308 	 3.11366 	 85.7783 	 
C 	 55.7035 	 2.75955 	 87.0625 	 
H 	 54.5864 	 2.62408 	 85.2976 	 
C 	 56.2399 	 4.40002 	 83.7317 	 
H 	 56.74 	 5.3336 	 83.5097 	 
H 	 55.2278 	 4.59824 	 83.5373 	 
C 	 56.6784 	 3.28164 	 82.7917 	 
H 	 57.7406 	 3.08479 	 83.0582 	 
H 	 56.1622 	 2.34804 	 82.9266 	 
C 	 56.4751 	 3.5857 	 81.2808 	 
H 	 57.0547 	 4.40436 	 80.8009 	 
H 	 56.9416 	 2.7815 	 80.8092 	 
H 	 55.4503 	 3.67721 	 81.0089 	 
S 	 54.2367 	 2.36453 	 89.3417 	 
C 	 53.459 	 0.857222 	 89.6672 	 
C 	 53.8673 	 -0.114763 	 88.6918 	 
C 	 54.5754 	 0.474536 	 87.6179 	 
C 	 54.9816 	 1.76686 	 87.864 	 
H 	 53.5586 	 -1.16511 	 88.8087 	 
C 	 54.9308 	 -0.373902 	 86.3673 	 
H 	 55.4369 	 0.228684 	 85.6183 	 
H 	 53.9565 	 -0.85357 	 86.0001 	 
C 	 55.9321 	 -1.55447 	 86.6415 	 
H 	 55.464 	 -2.46229 	 87.0761 	 
H 	 56.6983 	 -1.34461 	 87.3865 	 
C 	 56.6633 	 -2.07383 	 85.4039 	 
H 	 57.6007 	 -1.54088 	 85.132 	 
H 	 56.0436 	 -1.96152 	 84.5802 	 
H 	 56.8526 	 -3.10536 	 85.6033 	 
H 	 58.2469 	 5.04646 	 85.9173 	 
H 	 52.9765 	 0.734393 	 90.6751 	 
*
