! wB97X-D3 SP def2-SVP
%pal
nprocs 16
end

* xyz 0 1
S 	 -80.0054 	 44.0605 	 128.068 	 
C 	 -81.0555 	 42.6642 	 127.528 	 
C 	 -82.166 	 42.6096 	 128.322 	 
C 	 -82.2308 	 43.594 	 129.336 	 
C 	 -81.1177 	 44.4671 	 129.253 	 
H 	 -82.8682 	 43.7164 	 130.141 	 
C 	 -83.2747 	 41.5672 	 128.121 	 
H 	 -83.5952 	 41.4774 	 129.107 	 
H 	 -82.9014 	 40.5884 	 127.94 	 
C 	 -84.5816 	 42.031 	 127.371 	 
H 	 -85.1523 	 42.7771 	 127.883 	 
H 	 -84.2597 	 42.4833 	 126.473 	 
C 	 -85.4319 	 40.851 	 126.856 	 
H 	 -84.8711 	 40.3852 	 126.005 	 
H 	 -85.5758 	 40.0839 	 127.63 	 
H 	 -86.4036 	 41.2371 	 126.564 	 
S 	 -80.6066 	 47.165 	 129.389 	 
C 	 -80.7623 	 47.9883 	 130.889 	 
C 	 -80.7512 	 47.1013 	 131.91 	 
C 	 -80.916 	 45.7095 	 131.557 	 
C 	 -80.8731 	 45.6332 	 130.147 	 
H 	 -80.7339 	 47.4967 	 132.934 	 
C 	 -80.914 	 44.6064 	 132.568 	 
H 	 -81.5288 	 43.7806 	 132.212 	 
H 	 -81.3504 	 44.931 	 133.471 	 
C 	 -79.4624 	 43.979 	 132.889 	 
H 	 -78.9949 	 44.5999 	 133.649 	 
H 	 -78.7988 	 43.9517 	 132.027 	 
C 	 -79.6832 	 42.6018 	 133.6 	 
H 	 -80.3142 	 42.6429 	 134.548 	 
H 	 -78.7546 	 42.1575 	 134.001 	 
H 	 -80.0166 	 41.8979 	 132.832 	 
H 	 -80.8403 	 41.9865 	 126.675 	 
H 	 -80.5377 	 49.0538 	 130.992 	 
*
