! wB97X-D3 SP def2-SVP
%pal
nprocs 16
end

* xyz 0 1
S 	 -48.9793 	 66.9031 	 125.493 	 
C 	 -47.4943 	 66.5861 	 124.683 	 
C 	 -46.5638 	 65.9856 	 125.524 	 
C 	 -47.0617 	 65.9215 	 126.848 	 
C 	 -48.3775 	 66.3365 	 127.006 	 
H 	 -46.6033 	 65.5468 	 127.732 	 
C 	 -45.2161 	 65.6518 	 125.092 	 
H 	 -44.3534 	 66.0247 	 125.726 	 
H 	 -44.9972 	 66.2037 	 124.194 	 
C 	 -45.0507 	 64.1437 	 124.809 	 
H 	 -44.9001 	 63.5527 	 125.718 	 
H 	 -45.9298 	 63.6861 	 124.276 	 
C 	 -43.8459 	 63.9264 	 123.977 	 
H 	 -43.1085 	 64.5581 	 124.506 	 
H 	 -43.5944 	 62.8555 	 123.94 	 
H 	 -43.9399 	 64.2154 	 122.908 	 
S 	 -49.2696 	 67.9779 	 128.996 	 
C 	 -49.9966 	 67.2773 	 130.424 	 
C 	 -50.0014 	 65.9493 	 130.4 	 
C 	 -49.4457 	 65.3874 	 129.21 	 
C 	 -49.0782 	 66.3741 	 128.258 	 
H 	 -50.4301 	 65.5704 	 131.299 	 
C 	 -49.2098 	 63.868 	 129.017 	 
H 	 -48.4481 	 63.7558 	 128.209 	 
H 	 -50.0504 	 63.436 	 128.485 	 
C 	 -48.7112 	 63.1955 	 130.243 	 
H 	 -49.4512 	 63.2263 	 131.05 	 
H 	 -47.7874 	 63.7105 	 130.617 	 
C 	 -48.4745 	 61.719 	 129.906 	 
H 	 -49.2382 	 61.2826 	 129.271 	 
H 	 -48.2863 	 61.0292 	 130.724 	 
H 	 -47.5118 	 61.699 	 129.377 	 
H 	 -47.4024 	 66.6417 	 123.604 	 
H 	 -50.5001 	 67.852 	 131.21 	 
*
