! wB97X-D3 SP def2-SVP
%pal
nprocs 16
end

* xyz 0 1
S 	 56.8626 	 4.14915 	 81.2238 	 
C 	 57.041 	 3.10825 	 79.8503 	 
C 	 55.7956 	 2.88726 	 79.2807 	 
C 	 54.7666 	 3.79571 	 79.7098 	 
C 	 55.1948 	 4.63479 	 80.6906 	 
H 	 53.7789 	 3.89092 	 79.2576 	 
C 	 55.4296 	 1.87654 	 78.251 	 
H 	 56.231 	 1.81285 	 77.4937 	 
H 	 54.5043 	 2.25736 	 77.7946 	 
C 	 55.1841 	 0.420704 	 78.7561 	 
H 	 54.9363 	 -0.155956 	 77.8746 	 
H 	 56.0535 	 0.0238098 	 79.1523 	 
C 	 54.0262 	 0.259708 	 79.9229 	 
H 	 53.745 	 -0.833487 	 80.0031 	 
H 	 54.4537 	 0.563616 	 80.9144 	 
H 	 53.2034 	 0.913121 	 79.8085 	 
S 	 54.9958 	 7.33656 	 81.2617 	 
C 	 53.7939 	 7.87393 	 82.4329 	 
C 	 53.065 	 6.81592 	 82.895 	 
C 	 53.3622 	 5.57274 	 82.3195 	 
C 	 54.3734 	 5.66352 	 81.3534 	 
H 	 52.2494 	 6.93615 	 83.5958 	 
C 	 52.6321 	 4.2578 	 82.7318 	 
H 	 52.3651 	 3.73654 	 81.8125 	 
H 	 51.6903 	 4.59382 	 83.2006 	 
C 	 53.3486 	 3.26394 	 83.734 	 
H 	 53.5237 	 3.80442 	 84.5217 	 
H 	 54.2647 	 2.87349 	 83.3247 	 
C 	 52.4842 	 2.06015 	 84.1681 	 
H 	 52.8493 	 1.11314 	 83.7626 	 
H 	 51.4186 	 2.19517 	 83.9219 	 
H 	 52.4829 	 2.0172 	 85.252 	 
H 	 57.9307 	 2.46888 	 79.6811 	 
H 	 53.7093 	 8.90063 	 82.7916 	 
*
