! wB97X-D3 SP def2-SVP
%pal
nprocs 16
end

* xyz 0 1
S 	 32.1519 	 3.53289 	 65.9154 	 
C 	 32.328 	 5.01102 	 66.8651 	 
C 	 31.2261 	 5.85223 	 66.7149 	 
C 	 30.2547 	 5.19059 	 65.8486 	 
C 	 30.5696 	 3.8964 	 65.3767 	 
H 	 29.2647 	 5.64651 	 65.5897 	 
C 	 31.2056 	 7.31164 	 67.1944 	 
H 	 31.953 	 7.52078 	 67.9664 	 
H 	 30.2763 	 7.42111 	 67.7428 	 
C 	 31.1133 	 8.3344 	 66.0666 	 
H 	 30.5327 	 7.97783 	 65.3122 	 
H 	 30.6031 	 9.24145 	 66.4608 	 
C 	 32.425 	 8.71972 	 65.4707 	 
H 	 33.057 	 9.33655 	 66.1127 	 
H 	 32.9459 	 7.78067 	 65.2705 	 
H 	 32.4479 	 9.36687 	 64.6265 	 
S 	 30.6227 	 2.06582 	 63.2948 	 
C 	 29.0824 	 1.67849 	 62.6309 	 
C 	 28.0159 	 2.0717 	 63.4338 	 
C 	 28.4039 	 2.86936 	 64.5297 	 
C 	 29.7949 	 3.01961 	 64.5801 	 
H 	 26.9789 	 1.97328 	 63.1218 	 
C 	 27.4081 	 3.53995 	 65.5325 	 
H 	 27.8573 	 3.96104 	 66.4227 	 
H 	 26.7611 	 2.70311 	 65.8754 	 
C 	 26.5662 	 4.68843 	 64.9391 	 
H 	 25.9695 	 4.36518 	 64.1014 	 
H 	 27.2523 	 5.34429 	 64.5213 	 
C 	 25.7682 	 5.48345 	 65.9369 	 
H 	 24.9449 	 4.90242 	 66.4426 	 
H 	 25.3443 	 6.26818 	 65.4204 	 
H 	 26.4561 	 5.97924 	 66.5703 	 
H 	 33.2788 	 5.19843 	 67.4042 	 
H 	 28.8357 	 1.2296 	 61.6634 	 
*
