! wB97X-D3 SP def2-SVP
%pal
nprocs 16
end

* xyz 0 1
S 	 8.82361 	 20.1108 	 52.0392 	 
C 	 10.1657 	 19.4199 	 52.9401 	 
C 	 11.3753 	 19.8381 	 52.3802 	 
C 	 11.1441 	 20.35 	 51.0359 	 
C 	 9.8381 	 20.4431 	 50.6021 	 
H 	 11.9659 	 20.4892 	 50.3286 	 
C 	 12.7666 	 19.6062 	 52.9809 	 
H 	 12.7558 	 19.5567 	 54.0948 	 
H 	 13.3334 	 20.5418 	 52.879 	 
C 	 13.371 	 18.3114 	 52.4403 	 
H 	 12.7335 	 17.472 	 52.5824 	 
H 	 13.5275 	 18.4679 	 51.3977 	 
C 	 14.6627 	 17.9489 	 53.0928 	 
H 	 14.5028 	 17.7762 	 54.1735 	 
H 	 15.137 	 17.0576 	 52.6901 	 
H 	 15.4327 	 18.6939 	 53.1435 	 
S 	 10.0902 	 20.0199 	 47.8152 	 
C 	 8.89916 	 20.8191 	 46.7459 	 
C 	 8.12091 	 21.6954 	 47.5403 	 
C 	 8.32679 	 21.7095 	 48.9182 	 
C 	 9.31609 	 20.8251 	 49.2554 	 
H 	 7.58419 	 22.4386 	 46.9442 	 
C 	 7.61789 	 22.6629 	 49.8407 	 
H 	 8.3855 	 23.1089 	 50.4342 	 
H 	 6.89137 	 22.0433 	 50.4487 	 
C 	 6.63605 	 23.6722 	 49.1987 	 
H 	 5.83172 	 23.08 	 48.8067 	 
H 	 7.14396 	 24.1996 	 48.3743 	 
C 	 5.94867 	 24.676 	 50.2025 	 
H 	 5.76327 	 24.2301 	 51.1631 	 
H 	 5.03444 	 25.0749 	 49.7296 	 
H 	 6.65658 	 25.5424 	 50.3737 	 
H 	 9.99015 	 18.8899 	 53.8117 	 
H 	 8.86417 	 20.8637 	 45.6758 	 
*
