! wB97X-D3 SP def2-SVP
%pal
nprocs 16
end

* xyz 0 1
S 	 -103.879 	 41.6804 	 127.984 	 
C 	 -103.56 	 40.7098 	 129.405 	 
C 	 -103.132 	 39.431 	 129.137 	 
C 	 -103.319 	 39.1484 	 127.735 	 
C 	 -103.538 	 40.3263 	 126.992 	 
H 	 -103.043 	 38.2404 	 127.206 	 
C 	 -102.852 	 38.4232 	 130.227 	 
H 	 -103.416 	 37.5759 	 129.97 	 
H 	 -103.248 	 38.8426 	 131.148 	 
C 	 -101.348 	 38.1433 	 130.489 	 
H 	 -101.294 	 37.2203 	 131.078 	 
H 	 -100.662 	 38.1874 	 129.631 	 
C 	 -100.794 	 39.2672 	 131.399 	 
H 	 -100.898 	 40.214 	 130.954 	 
H 	 -101.309 	 39.3099 	 132.307 	 
H 	 -99.7444 	 38.8951 	 131.512 	 
S 	 -103.398 	 41.8514 	 124.635 	 
C 	 -104.05 	 41.1835 	 123.123 	 
C 	 -104.555 	 39.9671 	 123.31 	 
C 	 -104.496 	 39.4711 	 124.679 	 
C 	 -103.88 	 40.4149 	 125.583 	 
H 	 -104.997 	 39.4886 	 122.44 	 
C 	 -105.089 	 38.1384 	 125.003 	 
H 	 -104.409 	 37.4733 	 125.503 	 
H 	 -105.068 	 37.6331 	 123.975 	 
C 	 -106.382 	 38.2462 	 125.819 	 
H 	 -107.194 	 38.8803 	 125.4 	 
H 	 -106.158 	 38.8213 	 126.77 	 
C 	 -106.975 	 36.8232 	 126.09 	 
H 	 -106.918 	 36.2399 	 125.138 	 
H 	 -108.042 	 36.8619 	 126.438 	 
H 	 -106.395 	 36.456 	 126.916 	 
H 	 -103.709 	 41.0501 	 130.43 	 
H 	 -104.155 	 41.6533 	 122.108 	 
*
