! wB97X-D3 SP def2-SVP
%pal
nprocs 16
end

* xyz 0 1
S 	 -53.3883 	 12.6284 	 89.5285 	 
C 	 -52.0415 	 13.6545 	 89.459 	 
C 	 -51.6518 	 14.0064 	 88.1619 	 
C 	 -52.5273 	 13.4725 	 87.1843 	 
C 	 -53.641 	 12.7879 	 87.7467 	 
H 	 -52.4427 	 13.6711 	 86.0954 	 
C 	 -50.3922 	 14.6278 	 87.8363 	 
H 	 -49.9471 	 14.2502 	 86.912 	 
H 	 -49.6563 	 14.5217 	 88.6113 	 
C 	 -50.5644 	 16.1976 	 87.7798 	 
H 	 -51.291 	 16.4078 	 86.9994 	 
H 	 -50.8885 	 16.5629 	 88.7634 	 
C 	 -49.3054 	 16.9463 	 87.4556 	 
H 	 -48.6108 	 17.2558 	 88.2694 	 
H 	 -48.8057 	 16.4462 	 86.6617 	 
H 	 -49.5419 	 17.9177 	 86.9456 	 
S 	 -55.6169 	 10.9047 	 87.6386 	 
C 	 -57.0738 	 11.0597 	 86.71 	 
C 	 -56.9618 	 12.2075 	 85.9525 	 
C 	 -55.7189 	 12.9896 	 86.1777 	 
C 	 -54.8653 	 12.3969 	 87.0837 	 
H 	 -57.7227 	 12.4403 	 85.2947 	 
C 	 -55.5081 	 14.2898 	 85.5052 	 
H 	 -54.5387 	 14.7414 	 85.8244 	 
H 	 -56.3089 	 15.0352 	 85.8314 	 
C 	 -55.4892 	 14.1556 	 83.9429 	 
H 	 -55.5621 	 15.1478 	 83.4441 	 
H 	 -56.4057 	 13.6465 	 83.6655 	 
C 	 -54.2474 	 13.3831 	 83.3295 	 
H 	 -54.1375 	 12.4146 	 83.801 	 
H 	 -53.3177 	 13.9553 	 83.5078 	 
H 	 -54.5148 	 13.1317 	 82.2375 	 
H 	 -51.4103 	 13.7829 	 90.3234 	 
H 	 -57.8495 	 10.3184 	 86.7083 	 
*
