! wB97X-D3 SP def2-SVP
%pal
nprocs 16
end

* xyz 0 1
S 	 15.2838 	 23.4624 	 60.6129 	 
C 	 15.6401 	 21.8716 	 60.0208 	 
C 	 15.1535 	 20.9192 	 60.92 	 
C 	 14.2899 	 21.5041 	 61.9302 	 
C 	 14.1149 	 22.9106 	 61.7665 	 
H 	 13.7633 	 21.0246 	 62.7642 	 
C 	 15.2476 	 19.3817 	 60.7449 	 
H 	 14.7557 	 19.0239 	 59.7758 	 
H 	 14.6841 	 18.9379 	 61.5667 	 
C 	 16.6938 	 18.7995 	 60.7901 	 
H 	 16.6292 	 17.7819 	 60.4338 	 
H 	 17.3362 	 19.3103 	 60.0511 	 
C 	 17.401 	 19.0441 	 62.1138 	 
H 	 17.5041 	 20.1127 	 62.2372 	 
H 	 16.8656 	 18.6412 	 63.0284 	 
H 	 18.3851 	 18.585 	 62.1589 	 
S 	 13.8165 	 24.5693 	 63.9136 	 
C 	 12.611 	 25.8118 	 63.829 	 
C 	 11.7737 	 25.5974 	 62.7569 	 
C 	 12.1847 	 24.5124 	 61.9371 	 
C 	 13.2792 	 23.8596 	 62.4746 	 
H 	 10.921 	 26.225 	 62.6217 	 
C 	 11.4868 	 24.0731 	 60.6396 	 
H 	 11.7065 	 22.9782 	 60.4623 	 
H 	 12.0516 	 24.6024 	 59.8858 	 
C 	 10.0409 	 24.3374 	 60.4852 	 
H 	 9.80904 	 24.0782 	 59.4356 	 
H 	 9.65327 	 25.267 	 60.6065 	 
C 	 9.18859 	 23.3381 	 61.2502 	 
H 	 9.16313 	 23.6387 	 62.2924 	 
H 	 9.67269 	 22.367 	 61.2489 	 
H 	 8.21595 	 23.2919 	 60.9277 	 
H 	 16.2317 	 21.6896 	 59.1462 	 
H 	 12.3521 	 26.6046 	 64.5192 	 
*
