! wB97X-D3 SP def2-SVP
%pal
nprocs 16
end

* xyz 0 1
S 	 -40.2077 	 54.2532 	 101.534 	 
C 	 -39.7458 	 53.534 	 103.042 	 
C 	 -40.4572 	 54.0756 	 104.087 	 
C 	 -41.4946 	 55.042 	 103.655 	 
C 	 -41.541 	 55.164 	 102.29 	 
H 	 -42.2928 	 55.5224 	 104.19 	 
C 	 -40.5034 	 53.6075 	 105.495 	 
H 	 -40.4113 	 54.4843 	 106.063 	 
H 	 -39.5961 	 52.9886 	 105.662 	 
C 	 -41.768 	 52.7577 	 105.915 	 
H 	 -41.8136 	 52.6528 	 106.984 	 
H 	 -42.5379 	 53.4301 	 105.654 	 
C 	 -41.9399 	 51.419 	 105.262 	 
H 	 -42.0243 	 51.4468 	 104.21 	 
H 	 -41.0368 	 50.8014 	 105.462 	 
H 	 -42.8601 	 50.8147 	 105.545 	 
S 	 -44.0612 	 55.2233 	 101.068 	 
C 	 -44.4414 	 56.5706 	 100.065 	 
C 	 -43.4557 	 57.5001 	 100.111 	 
C 	 -42.2772 	 57.1465 	 100.801 	 
C 	 -42.4902 	 55.9325 	 101.435 	 
H 	 -43.6598 	 58.4335 	 99.5482 	 
C 	 -41.0227 	 58.0307 	 100.985 	 
H 	 -41.0128 	 58.5545 	 100.056 	 
H 	 -40.1671 	 57.4486 	 101.276 	 
C 	 -41.3721 	 59.163 	 101.994 	 
H 	 -41.8553 	 58.8428 	 102.997 	 
H 	 -42.1272 	 59.7164 	 101.507 	 
C 	 -40.1815 	 60.1277 	 102.271 	 
H 	 -39.2523 	 59.6098 	 102.581 	 
H 	 -40.4989 	 61.0369 	 102.84 	 
H 	 -39.9169 	 60.437 	 101.291 	 
H 	 -38.9525 	 52.8053 	 103.198 	 
H 	 -45.3415 	 56.7581 	 99.5545 	 
*
