! wB97X-D3 SP def2-SVP
%pal
nprocs 16
end

* xyz 0 1
S 	 19.723 	 -9.02174 	 83.1645 	 
C 	 20.7251 	 -10.321 	 83.6459 	 
C 	 21.0256 	 -11.1957 	 82.6147 	 
C 	 20.7007 	 -10.6387 	 81.3561 	 
C 	 19.939 	 -9.44245 	 81.4438 	 
H 	 20.8869 	 -11.0452 	 80.3526 	 
C 	 21.7644 	 -12.4712 	 82.7546 	 
H 	 22.1875 	 -12.5263 	 83.7507 	 
H 	 22.665 	 -12.474 	 82.0942 	 
C 	 20.9731 	 -13.6693 	 82.3503 	 
H 	 19.958 	 -13.7065 	 82.6947 	 
H 	 20.7452 	 -13.612 	 81.303 	 
C 	 21.7064 	 -15.0853 	 82.646 	 
H 	 22.358 	 -15.3204 	 81.7629 	 
H 	 22.5161 	 -14.7934 	 83.3491 	 
H 	 21.1098 	 -15.8668 	 83.0146 	 
S 	 19.1423 	 -6.93563 	 80.7721 	 
C 	 19.2075 	 -6.23735 	 79.2229 	 
C 	 19.262 	 -7.30624 	 78.3469 	 
C 	 19.5151 	 -8.58344 	 78.911 	 
C 	 19.5693 	 -8.53659 	 80.2924 	 
H 	 19.1931 	 -7.24186 	 77.2938 	 
C 	 19.9198 	 -9.76614 	 78.104 	 
H 	 19.5243 	 -9.51686 	 77.1009 	 
H 	 19.405 	 -10.6352 	 78.3952 	 
C 	 21.3408 	 -9.95424 	 77.8295 	 
H 	 21.7558 	 -9.85947 	 78.8234 	 
H 	 21.7713 	 -9.07668 	 77.3777 	 
C 	 21.6949 	 -11.2596 	 77.1299 	 
H 	 21.1221 	 -11.4417 	 76.2159 	 
H 	 21.5355 	 -12.137 	 77.8151 	 
H 	 22.7337 	 -11.3358 	 76.8049 	 
H 	 20.877 	 -10.4663 	 84.6964 	 
H 	 18.9094 	 -5.26482 	 78.826 	 
*
