! wB97X-D3 SP def2-SVP
%pal
nprocs 16
end

* xyz 0 1
S 	 -39.4729 	 36.8348 	 82.6228 	 
C 	 -40.1584 	 36.0688 	 81.2255 	 
C 	 -40.4605 	 34.7663 	 81.5596 	 
C 	 -40.0535 	 34.411 	 82.858 	 
C 	 -39.5714 	 35.4539 	 83.6157 	 
H 	 -40.1355 	 33.4919 	 83.4463 	 
C 	 -41.0753 	 33.68 	 80.6831 	 
H 	 -41.816 	 34.1434 	 80.1389 	 
H 	 -41.5534 	 33.0018 	 81.4065 	 
C 	 -40.0232 	 33.0354 	 79.7507 	 
H 	 -40.6932 	 32.4464 	 79.155 	 
H 	 -39.6619 	 33.8755 	 79.1298 	 
C 	 -38.9736 	 32.1581 	 80.4183 	 
H 	 -38.4177 	 32.5942 	 81.2645 	 
H 	 -39.3462 	 31.2323 	 80.8348 	 
H 	 -38.1346 	 31.9391 	 79.73 	 
S 	 -39.7566 	 36.855 	 85.9353 	 
C 	 -38.958 	 36.2817 	 87.348 	 
C 	 -38.3715 	 35.0497 	 87.1324 	 
C 	 -38.7124 	 34.4594 	 85.8353 	 
C 	 -39.2951 	 35.4033 	 85.0122 	 
H 	 -37.9824 	 34.5929 	 88.0436 	 
C 	 -38.3515 	 33.0179 	 85.4278 	 
H 	 -37.7657 	 33.0549 	 84.5006 	 
H 	 -39.2191 	 32.4718 	 85.1459 	 
C 	 -37.7043 	 32.1449 	 86.5821 	 
H 	 -38.3128 	 32.1726 	 87.476 	 
H 	 -36.7376 	 32.5852 	 86.9084 	 
C 	 -37.5159 	 30.7023 	 86.0788 	 
H 	 -36.6902 	 30.648 	 85.334 	 
H 	 -38.396 	 30.2431 	 85.608 	 
H 	 -37.222 	 30.0992 	 86.9295 	 
H 	 -40.1666 	 36.5368 	 80.3345 	 
H 	 -39.1554 	 36.7508 	 88.3618 	 
*
