! wB97X-D3 SP def2-SVP
%pal
nprocs 16
end

* xyz 0 1
S 	 -46.4806 	 60.9117 	 133.962 	 
C 	 -45.6012 	 59.5282 	 134.661 	 
C 	 -46.5643 	 58.5913 	 135.099 	 
C 	 -47.898 	 59.0815 	 135.066 	 
C 	 -48.0256 	 60.3116 	 134.534 	 
H 	 -48.664 	 58.6103 	 135.572 	 
C 	 -46.2201 	 57.2469 	 135.737 	 
H 	 -46.5508 	 57.328 	 136.776 	 
H 	 -45.188 	 56.9944 	 135.717 	 
C 	 -47.0406 	 56.0127 	 135.12 	 
H 	 -48.0898 	 56.3808 	 134.977 	 
H 	 -46.703 	 55.7498 	 134.134 	 
C 	 -47.0548 	 54.8149 	 136.063 	 
H 	 -46.0439 	 54.5881 	 136.439 	 
H 	 -47.7419 	 54.9737 	 136.941 	 
H 	 -47.4109 	 54.0216 	 135.531 	 
S 	 -49.6916 	 61.5212 	 132.636 	 
C 	 -51.3429 	 61.9239 	 133 	 
C 	 -51.5174 	 61.5681 	 134.289 	 
C 	 -50.451 	 60.9793 	 135.017 	 
C 	 -49.3311 	 60.9248 	 134.271 	 
H 	 -52.5581 	 61.8358 	 134.598 	 
C 	 -50.6626 	 60.6448 	 136.506 	 
H 	 -50.3788 	 59.5723 	 136.822 	 
H 	 -51.7727 	 60.5511 	 136.622 	 
C 	 -50.0706 	 61.6629 	 137.424 	 
H 	 -50.6536 	 62.6219 	 137.357 	 
H 	 -49.0633 	 61.8456 	 137.101 	 
C 	 -49.9559 	 61.2602 	 138.884 	 
H 	 -49.3781 	 62.0036 	 139.386 	 
H 	 -49.5712 	 60.1821 	 139.073 	 
H 	 -50.922 	 61.2469 	 139.409 	 
H 	 -44.5111 	 59.5983 	 134.792 	 
H 	 -51.9807 	 62.3281 	 132.234 	 
*
