! wB97X-D3 SP def2-SVP
%pal
nprocs 16
end

* xyz 0 1
S 	 53.9992 	 3.39154 	 78.1738 	 
C 	 52.5297 	 2.78452 	 78.9323 	 
C 	 52.8161 	 2.23646 	 80.1916 	 
C 	 54.2254 	 2.28218 	 80.4533 	 
C 	 54.9958 	 2.68338 	 79.3898 	 
H 	 54.6523 	 1.89844 	 81.3533 	 
C 	 51.8 	 1.73414 	 81.2091 	 
H 	 50.8744 	 2.19449 	 80.7755 	 
H 	 51.9979 	 2.07469 	 82.2232 	 
C 	 51.6386 	 0.151368 	 81.3468 	 
H 	 51.5251 	 -0.331062 	 80.4165 	 
H 	 52.5794 	 -0.264465 	 81.7089 	 
C 	 50.4075 	 -0.155624 	 82.1944 	 
H 	 50.4035 	 0.465656 	 83.1082 	 
H 	 49.5656 	 0.012978 	 81.6066 	 
H 	 50.4338 	 -1.18587 	 82.5133 	 
S 	 57.3786 	 4.10713 	 79.9077 	 
C 	 58.8538 	 3.42652 	 79.5162 	 
C 	 58.7225 	 2.07893 	 79.263 	 
C 	 57.3426 	 1.6176 	 79.1522 	 
C 	 56.5046 	 2.69739 	 79.3202 	 
H 	 59.5247 	 1.47975 	 79.0698 	 
C 	 57.0089 	 0.125505 	 78.8584 	 
H 	 57.6888 	 -0.189545 	 78.079 	 
H 	 55.9894 	 0.00161212 	 78.5048 	 
C 	 57.1048 	 -0.838162 	 80.0844 	 
H 	 56.2344 	 -0.672334 	 80.7393 	 
H 	 58.0442 	 -0.547479 	 80.7111 	 
C 	 57.3712 	 -2.28637 	 79.579 	 
H 	 56.7843 	 -2.50585 	 78.6512 	 
H 	 56.9636 	 -2.8518 	 80.41 	 
H 	 58.4292 	 -2.578 	 79.3543 	 
H 	 51.5131 	 2.90549 	 78.6044 	 
H 	 59.8443 	 3.89083 	 79.5207 	 
*
