! wB97X-D3 SP def2-SVP
%pal
nprocs 16
end

* xyz 0 1
S 	 12.2708 	 -14.7854 	 66.7339 	 
C 	 11.0119 	 -14.0043 	 65.8484 	 
C 	 10.0866 	 -13.3103 	 66.6334 	 
C 	 10.428 	 -13.4648 	 68.0073 	 
C 	 11.5569 	 -14.2483 	 68.2698 	 
H 	 9.88261 	 -13.0099 	 68.8707 	 
C 	 8.88528 	 -12.5868 	 66.0866 	 
H 	 8.5418 	 -12.8657 	 65.0594 	 
H 	 9.29245 	 -11.6325 	 65.8597 	 
C 	 7.62335 	 -12.488 	 66.927 	 
H 	 7.96852 	 -12.0136 	 67.8553 	 
H 	 6.85824 	 -11.8615 	 66.4209 	 
C 	 6.98305 	 -13.7903 	 67.4167 	 
H 	 6.07773 	 -13.6985 	 67.9418 	 
H 	 6.80889 	 -14.3259 	 66.4546 	 
H 	 7.64689 	 -14.3896 	 68.0692 	 
S 	 13.9175 	 -14.7168 	 69.5211 	 
C 	 13.9614 	 -14.9269 	 71.2523 	 
C 	 12.6985 	 -14.893 	 71.7628 	 
C 	 11.67 	 -14.794 	 70.7464 	 
C 	 12.2093 	 -14.4848 	 69.5131 	 
H 	 12.5671 	 -15.1385 	 72.813 	 
C 	 10.182 	 -14.9677 	 71.0642 	 
H 	 9.7345 	 -14.2952 	 70.3951 	 
H 	 10.141 	 -14.604 	 72.0337 	 
C 	 9.50149 	 -16.3537 	 70.8162 	 
H 	 8.48576 	 -16.6087 	 71.1039 	 
H 	 10.0971 	 -17.0512 	 71.3232 	 
C 	 9.49878 	 -16.8125 	 69.3575 	 
H 	 10.5008 	 -17.0716 	 68.9108 	 
H 	 8.83395 	 -16.1357 	 68.7915 	 
H 	 8.90595 	 -17.6931 	 69.3327 	 
H 	 10.9221 	 -14.1533 	 64.7692 	 
H 	 14.9213 	 -15.0639 	 71.6867 	 
*
