! wB97X-D3 SP def2-SVP
%pal
nprocs 16
end

* xyz 0 1
S 	 -8.58119 	 31.0918 	 33.9916 	 
C 	 -7.76852 	 31.2013 	 32.4102 	 
C 	 -7.74999 	 32.5098 	 31.9362 	 
C 	 -8.423 	 33.4161 	 32.8762 	 
C 	 -8.84135 	 32.805 	 34.0544 	 
H 	 -8.60486 	 34.4978 	 32.6528 	 
C 	 -7.09403 	 32.9953 	 30.6563 	 
H 	 -7.57524 	 33.9178 	 30.3426 	 
H 	 -7.25561 	 32.1921 	 29.9064 	 
C 	 -5.61714 	 33.3141 	 30.8327 	 
H 	 -5.4275 	 34.2329 	 31.4077 	 
H 	 -4.98433 	 32.5211 	 31.3519 	 
C 	 -4.86153 	 33.5896 	 29.5547 	 
H 	 -3.78713 	 33.6511 	 29.7896 	 
H 	 -4.97995 	 32.8312 	 28.7536 	 
H 	 -5.23776 	 34.5827 	 29.1378 	 
S 	 -8.63044 	 34.5166 	 36.1857 	 
C 	 -10.1578 	 35.0945 	 36.9383 	 
C 	 -11.2752 	 34.4488 	 36.4385 	 
C 	 -10.9546 	 33.5024 	 35.4256 	 
C 	 -9.61429 	 33.5007 	 35.1283 	 
H 	 -12.2192 	 34.7938 	 36.836 	 
C 	 -12.0408 	 32.8254 	 34.5614 	 
H 	 -12.9606 	 32.7048 	 35.1723 	 
H 	 -11.6672 	 31.8276 	 34.3219 	 
C 	 -12.3344 	 33.4649 	 33.1685 	 
H 	 -12.6216 	 32.7327 	 32.5054 	 
H 	 -11.3295 	 33.7962 	 32.8007 	 
C 	 -13.2736 	 34.7521 	 33.2127 	 
H 	 -14.3088 	 34.6064 	 33.5968 	 
H 	 -13.3975 	 35.1855 	 32.2611 	 
H 	 -12.9049 	 35.4999 	 33.9385 	 
H 	 -7.38726 	 30.4148 	 31.7893 	 
H 	 -10.1119 	 35.8228 	 37.6847 	 
*
