! wB97X-D3 SP def2-SVP
%pal
nprocs 16
end

* xyz 0 1
S 	 -37.0103 	 52.4467 	 111.191 	 
C 	 -37.9492 	 53.9328 	 111.297 	 
C 	 -39.3289 	 53.6323 	 111.292 	 
C 	 -39.5512 	 52.2888 	 110.791 	 
C 	 -38.3844 	 51.603 	 110.69 	 
H 	 -40.539 	 51.9356 	 110.639 	 
C 	 -40.4884 	 54.6345 	 111.497 	 
H 	 -40.1531 	 55.625 	 111.604 	 
H 	 -40.8322 	 54.4474 	 112.424 	 
C 	 -41.6622 	 54.6535 	 110.467 	 
H 	 -42.0095 	 53.6513 	 110.499 	 
H 	 -42.4524 	 55.2572 	 110.724 	 
C 	 -41.2935 	 54.9846 	 109.026 	 
H 	 -41.0202 	 55.9705 	 109.026 	 
H 	 -40.3971 	 54.4302 	 108.724 	 
H 	 -42.025 	 54.8478 	 108.243 	 
S 	 -36.8707 	 49.262 	 110.792 	 
C 	 -37.3455 	 47.889 	 109.863 	 
C 	 -38.593 	 48.0354 	 109.303 	 
C 	 -39.1015 	 49.3685 	 109.562 	 
C 	 -38.2253 	 50.2215 	 110.244 	 
H 	 -39.0269 	 47.1916 	 108.894 	 
C 	 -40.5669 	 49.4938 	 109.087 	 
H 	 -40.6801 	 48.8044 	 108.269 	 
H 	 -40.8611 	 50.4801 	 108.703 	 
C 	 -41.598 	 49.0794 	 110.157 	 
H 	 -41.4033 	 49.7524 	 110.953 	 
H 	 -41.3537 	 48.0512 	 110.495 	 
C 	 -43.0229 	 49.2248 	 109.661 	 
H 	 -43.8039 	 49.2193 	 110.423 	 
H 	 -43.3112 	 48.3482 	 109.01 	 
H 	 -43.1511 	 50.0918 	 109.015 	 
H 	 -37.551 	 54.8356 	 111.524 	 
H 	 -36.8461 	 46.9765 	 109.836 	 
*
