! wB97X-D3 SP def2-SVP
%pal
nprocs 16
end

* xyz 0 1
S 	 -73.6561 	 40.723 	 138.896 	 
C 	 -74.1134 	 41.0472 	 137.169 	 
C 	 -73.3687 	 42.0817 	 136.577 	 
C 	 -72.4803 	 42.646 	 137.502 	 
C 	 -72.5871 	 42.1463 	 138.81 	 
H 	 -71.8035 	 43.4094 	 137.304 	 
C 	 -73.3901 	 42.5255 	 135.128 	 
H 	 -72.3941 	 42.8234 	 134.751 	 
H 	 -73.8944 	 43.4512 	 134.971 	 
C 	 -73.7985 	 41.4157 	 134.031 	 
H 	 -73.2549 	 40.4157 	 134.08 	 
H 	 -74.8237 	 41.1128 	 134.215 	 
C 	 -73.845 	 41.9444 	 132.636 	 
H 	 -74.2577 	 41.3725 	 131.914 	 
H 	 -74.5112 	 42.8259 	 132.462 	 
H 	 -72.7018 	 42.1835 	 132.384 	 
S 	 -70.7602 	 41.2937 	 140.667 	 
C 	 -69.9394 	 42.4605 	 141.675 	 
C 	 -70.2837 	 43.7259 	 141.284 	 
C 	 -71.2503 	 43.812 	 140.265 	 
C 	 -71.6963 	 42.5202 	 139.899 	 
H 	 -69.8527 	 44.5262 	 141.738 	 
C 	 -71.6997 	 45.132 	 139.772 	 
H 	 -71.8862 	 45.7471 	 140.687 	 
H 	 -72.6257 	 45.0678 	 139.169 	 
C 	 -70.895 	 45.7917 	 138.652 	 
H 	 -70.972 	 45.2126 	 137.786 	 
H 	 -69.8448 	 45.8069 	 138.918 	 
C 	 -71.4118 	 47.2212 	 138.228 	 
H 	 -72.307 	 47.2025 	 137.675 	 
H 	 -70.7356 	 47.6584 	 137.573 	 
H 	 -71.6805 	 47.8905 	 139.031 	 
H 	 -74.9366 	 40.5378 	 136.633 	 
H 	 -69.1483 	 42.2867 	 142.376 	 
*
