! wB97X-D3 SP def2-SVP
%pal
nprocs 16
end

* xyz 0 1
S 	 -2.06665 	 -21.1641 	 66.6391 	 
C 	 -1.41124 	 -21.4648 	 65.0179 	 
C 	 -1.80395 	 -20.559 	 64.0318 	 
C 	 -2.47393 	 -19.4675 	 64.6732 	 
C 	 -2.70388 	 -19.658 	 66.0346 	 
H 	 -2.95106 	 -18.6579 	 64.2387 	 
C 	 -1.50512 	 -20.4919 	 62.6004 	 
H 	 -0.815788 	 -21.2875 	 62.4461 	 
H 	 -1.04385 	 -19.4883 	 62.3746 	 
C 	 -2.64589 	 -20.7072 	 61.6553 	 
H 	 -2.16327 	 -20.8855 	 60.7071 	 
H 	 -3.20854 	 -21.6393 	 61.7442 	 
C 	 -3.58221 	 -19.566 	 61.433 	 
H 	 -2.96058 	 -18.7329 	 61.1261 	 
H 	 -4.31738 	 -19.6985 	 60.6408 	 
H 	 -4.05437 	 -19.1908 	 62.2942 	 
S 	 -4.92498 	 -19.3148 	 67.691 	 
C 	 -5.21138 	 -17.7377 	 68.3743 	 
C 	 -4.23315 	 -16.863 	 68.1 	 
C 	 -3.18733 	 -17.4223 	 67.331 	 
C 	 -3.4657 	 -18.7596 	 66.94 	 
H 	 -4.35273 	 -15.8363 	 68.3848 	 
C 	 -1.98809 	 -16.6292 	 66.8352 	 
H 	 -2.34978 	 -15.7882 	 66.2348 	 
H 	 -1.49836 	 -17.2288 	 66.0537 	 
C 	 -1.0381 	 -16.2982 	 68.0218 	 
H 	 -0.83362 	 -17.2786 	 68.446 	 
H 	 -1.62529 	 -15.8391 	 68.8821 	 
C 	 0.280509 	 -15.5563 	 67.7275 	 
H 	 0.19765 	 -14.7122 	 67.0339 	 
H 	 0.834872 	 -16.3467 	 67.2586 	 
H 	 0.881136 	 -15.3884 	 68.6837 	 
H 	 -0.753263 	 -22.2913 	 64.7602 	 
H 	 -6.08658 	 -17.3807 	 68.974 	 
*
