! wB97X-D3 SP def2-SVP
%pal
nprocs 16
end

* xyz 0 1
S 	 -37.0688 	 73.4424 	 147.123 	 
C 	 -35.5584 	 74.2877 	 146.942 	 
C 	 -34.5372 	 73.4833 	 147.391 	 
C 	 -34.9835 	 72.2864 	 147.939 	 
C 	 -36.3583 	 72.0236 	 147.853 	 
H 	 -34.4612 	 71.476 	 148.425 	 
C 	 -33.0723 	 73.8256 	 147.299 	 
H 	 -32.8552 	 74.524 	 148.103 	 
H 	 -32.8476 	 74.2474 	 146.297 	 
C 	 -32.1151 	 72.6204 	 147.401 	 
H 	 -32.178 	 72.1147 	 148.326 	 
H 	 -32.3882 	 71.9097 	 146.669 	 
C 	 -30.6083 	 72.9083 	 147.264 	 
H 	 -30.332 	 73.235 	 146.331 	 
H 	 -30.2501 	 73.7325 	 147.908 	 
H 	 -29.9786 	 72.0474 	 147.556 	 
S 	 -38.2404 	 70.1258 	 147.174 	 
C 	 -38.5351 	 68.7682 	 148.258 	 
C 	 -37.7486 	 68.8397 	 149.401 	 
C 	 -36.9227 	 69.994 	 149.412 	 
C 	 -37.086 	 70.8572 	 148.353 	 
H 	 -37.8127 	 68.0333 	 150.13 	 
C 	 -35.8762 	 70.2207 	 150.582 	 
H 	 -36.3618 	 70.1209 	 151.553 	 
H 	 -35.6358 	 71.3097 	 150.507 	 
C 	 -34.6629 	 69.2656 	 150.574 	 
H 	 -34.1138 	 69.4445 	 149.634 	 
H 	 -34.9814 	 68.2873 	 150.449 	 
C 	 -33.8839 	 69.375 	 151.865 	 
H 	 -33.0817 	 68.597 	 151.916 	 
H 	 -34.5303 	 69.2441 	 152.722 	 
H 	 -33.4957 	 70.3831 	 152.017 	 
H 	 -35.4 	 75.3302 	 146.546 	 
H 	 -39.2426 	 68.0129 	 148.047 	 
*
