! wB97X-D3 SP def2-SVP
%pal
nprocs 16
end

* xyz 0 1
S 	 35.105 	 3.57175 	 66.9559 	 
C 	 34.8287 	 5.22155 	 66.4495 	 
C 	 33.8351 	 5.33253 	 65.5367 	 
C 	 33.2272 	 4.08235 	 65.2666 	 
C 	 33.7645 	 2.9626 	 65.9127 	 
H 	 32.3377 	 3.88493 	 64.6516 	 
C 	 33.4981 	 6.65539 	 64.8414 	 
H 	 34.0906 	 7.54592 	 65.1019 	 
H 	 32.4742 	 6.94464 	 65.1444 	 
C 	 33.5734 	 6.60791 	 63.2738 	 
H 	 32.9083 	 5.76762 	 62.9229 	 
H 	 33.2352 	 7.45985 	 62.7442 	 
C 	 34.9693 	 6.24759 	 62.8082 	 
H 	 35.6571 	 7.05886 	 63.1363 	 
H 	 35.4064 	 5.32223 	 63.3197 	 
H 	 34.8424 	 6.0954 	 61.7343 	 
S 	 33.2574 	 0.634295 	 67.344 	 
C 	 32.8034 	 -0.813307 	 66.5647 	 
C 	 32.557 	 -0.616056 	 65.171 	 
C 	 32.809 	 0.768186 	 64.8548 	 
C 	 33.3863 	 1.5742 	 65.8459 	 
H 	 32.126 	 -1.36785 	 64.506 	 
C 	 32.5421 	 1.28807 	 63.4748 	 
H 	 32.7671 	 0.535771 	 62.6662 	 
H 	 33.1664 	 2.17204 	 63.2674 	 
C 	 31.032 	 1.58562 	 63.2618 	 
H 	 30.8707 	 2.26921 	 64.0825 	 
H 	 30.4459 	 0.691727 	 63.4116 	 
C 	 30.5798 	 2.07499 	 61.913 	 
H 	 30.8659 	 1.49492 	 60.9991 	 
H 	 31.1323 	 2.99625 	 61.6908 	 
H 	 29.5134 	 2.19217 	 61.9433 	 
H 	 35.5771 	 5.96728 	 66.6179 	 
H 	 32.7079 	 -1.82198 	 67.0829 	 
*
