! wB97X-D3 SP def2-SVP
%pal
nprocs 16
end

* xyz 0 1
S 	 -96.042 	 38.0428 	 123.808 	 
C 	 -96.7013 	 38.0939 	 122.205 	 
C 	 -97.2045 	 39.3141 	 121.934 	 
C 	 -97.1386 	 40.2042 	 123.042 	 
C 	 -96.5613 	 39.6091 	 124.17 	 
H 	 -97.5255 	 41.2315 	 123.164 	 
C 	 -97.8916 	 39.5783 	 120.555 	 
H 	 -97.3193 	 39.098 	 119.77 	 
H 	 -97.7969 	 40.635 	 120.346 	 
C 	 -99.3067 	 39.053 	 120.34 	 
H 	 -99.4697 	 39.1209 	 119.342 	 
H 	 -99.1564 	 37.9939 	 120.585 	 
C 	 -100.416 	 39.6277 	 121.253 	 
H 	 -100.234 	 39.4951 	 122.281 	 
H 	 -100.605 	 40.6692 	 120.989 	 
H 	 -101.356 	 39.1213 	 121.022 	 
S 	 -96.8939 	 39.3539 	 126.889 	 
C 	 -96.6714 	 40.7356 	 127.933 	 
C 	 -96.3123 	 41.8088 	 127.19 	 
C 	 -96.2074 	 41.5857 	 125.774 	 
C 	 -96.4798 	 40.2402 	 125.449 	 
H 	 -96.0955 	 42.7848 	 127.588 	 
C 	 -95.8486 	 42.7235 	 124.879 	 
H 	 -95.8352 	 42.3777 	 123.897 	 
H 	 -94.7626 	 42.987 	 124.991 	 
C 	 -96.8378 	 43.9095 	 125.024 	 
H 	 -96.8018 	 44.3511 	 126.039 	 
H 	 -97.8341 	 43.557 	 124.909 	 
C 	 -96.4574 	 45.0667 	 124.01 	 
H 	 -96.3633 	 44.6174 	 123.003 	 
H 	 -95.4862 	 45.3477 	 124.368 	 
H 	 -97.1287 	 45.8903 	 124.124 	 
H 	 -96.6665 	 37.2834 	 121.468 	 
H 	 -96.8098 	 40.8621 	 128.99 	 
*
