! wB97X-D3 SP def2-SVP
%pal
nprocs 16
end

* xyz 0 1
S 	 68.2702 	 20.5853 	 73.1114 	 
C 	 67.2173 	 19.2253 	 73.3142 	 
C 	 65.92 	 19.6606 	 73.4097 	 
C 	 65.7759 	 21.0701 	 73.6317 	 
C 	 66.9928 	 21.747 	 73.5206 	 
H 	 64.856 	 21.667 	 73.7854 	 
C 	 64.727 	 18.7415 	 73.4855 	 
H 	 64.4415 	 18.4757 	 74.5309 	 
H 	 65.1625 	 17.8 	 73.0611 	 
C 	 63.5016 	 19.007 	 72.608 	 
H 	 62.9901 	 20.0009 	 72.9407 	 
H 	 63.863 	 19.1851 	 71.587 	 
C 	 62.3981 	 17.9356 	 72.6558 	 
H 	 62.0111 	 17.6128 	 73.6463 	 
H 	 61.5645 	 18.2783 	 72.1085 	 
H 	 62.715 	 17.0651 	 72.1714 	 
S 	 65.899 	 24.2373 	 74.3457 	 
C 	 66.9669 	 25.5793 	 74.6195 	 
C 	 68.2558 	 25.2165 	 74.3547 	 
C 	 68.4628 	 23.8605 	 73.9372 	 
C 	 67.2728 	 23.1512 	 73.8763 	 
H 	 69.029 	 25.9315 	 74.582 	 
C 	 69.8298 	 23.3241 	 73.6574 	 
H 	 69.8973 	 22.7681 	 72.7023 	 
H 	 69.9685 	 22.7784 	 74.5689 	 
C 	 70.9985 	 24.313 	 73.4868 	 
H 	 71.0305 	 24.7716 	 74.4983 	 
H 	 70.9756 	 25.0861 	 72.7268 	 
C 	 72.3351 	 23.5734 	 73.2197 	 
H 	 73.1996 	 24.2176 	 73.1061 	 
H 	 72.3351 	 22.9733 	 72.3018 	 
H 	 72.6324 	 22.8907 	 73.9326 	 
H 	 67.4669 	 18.146 	 73.3925 	 
H 	 66.6494 	 26.6224 	 74.8753 	 
*
