! wB97X-D3 SP def2-SVP
%pal
nprocs 16
end

* xyz 0 1
S 	 37.4955 	 10.3329 	 77.4654 	 
C 	 37.927 	 11.3346 	 76.1026 	 
C 	 39.1302 	 11.9785 	 76.398 	 
C 	 39.3772 	 12.0417 	 77.8197 	 
C 	 38.4989 	 11.2673 	 78.5403 	 
H 	 40.0105 	 12.5733 	 78.3861 	 
C 	 40.0235 	 12.6899 	 75.4347 	 
H 	 40.8202 	 13.2161 	 75.9009 	 
H 	 39.2372 	 13.3515 	 75.0491 	 
C 	 40.7324 	 11.9297 	 74.29 	 
H 	 39.985 	 11.2291 	 73.8546 	 
H 	 41.0448 	 12.582 	 73.4121 	 
C 	 42.0253 	 11.1765 	 74.806 	 
H 	 42.1641 	 10.4009 	 74.0087 	 
H 	 42.7708 	 11.8722 	 74.9364 	 
H 	 41.924 	 10.674 	 75.787 	 
S 	 38.2305 	 12.9708 	 80.8262 	 
C 	 38.2222 	 12.1881 	 82.3615 	 
C 	 38.3579 	 10.8106 	 82.2724 	 
C 	 38.4491 	 10.2947 	 80.9614 	 
C 	 38.367 	 11.3311 	 80.0197 	 
H 	 38.2479 	 10.178 	 83.0951 	 
C 	 38.712 	 8.90691 	 80.5948 	 
H 	 37.857 	 8.60939 	 79.9893 	 
H 	 38.768 	 8.27786 	 81.4528 	 
C 	 40.1024 	 8.62735 	 79.7987 	 
H 	 40.0241 	 9.03535 	 78.7327 	 
H 	 40.4479 	 7.55843 	 79.6447 	 
C 	 41.2629 	 9.41447 	 80.4381 	 
H 	 41.2174 	 10.4711 	 80.1167 	 
H 	 42.2623 	 9.00721 	 80.1337 	 
H 	 41.1806 	 9.3601 	 81.5471 	 
H 	 37.6407 	 11.1057 	 75.0467 	 
H 	 37.9677 	 12.6274 	 83.353 	 
*
