! wB97X-D3 SP def2-SVP
%pal
nprocs 16
end

* xyz 0 1
S 	 -102.06 	 58.4293 	 121.03 	 
C 	 -101.817 	 59.7916 	 120.056 	 
C 	 -102.869 	 60.029 	 119.154 	 
C 	 -103.867 	 58.9778 	 119.189 	 
C 	 -103.58 	 58.0182 	 120.177 	 
H 	 -104.767 	 58.8342 	 118.541 	 
C 	 -102.825 	 61.1193 	 118.032 	 
H 	 -102.354 	 62.0565 	 118.458 	 
H 	 -103.807 	 61.4438 	 117.666 	 
C 	 -102.014 	 60.8516 	 116.743 	 
H 	 -102.317 	 59.9304 	 116.317 	 
H 	 -102.298 	 61.6831 	 116.119 	 
C 	 -100.518 	 60.8704 	 116.875 	 
H 	 -100.341 	 59.9716 	 117.466 	 
H 	 -99.9851 	 60.5792 	 115.975 	 
H 	 -100.074 	 61.7845 	 117.261 	 
S 	 -103.424 	 55.327 	 121.034 	 
C 	 -104.95 	 54.5064 	 121.212 	 
C 	 -106.032 	 55.3067 	 121.119 	 
C 	 -105.733 	 56.6056 	 120.717 	 
C 	 -104.34 	 56.82 	 120.556 	 
H 	 -107.027 	 54.9598 	 121.114 	 
C 	 -106.83 	 57.6259 	 120.446 	 
H 	 -107.78 	 57.1142 	 120.193 	 
H 	 -106.576 	 58.1224 	 119.491 	 
C 	 -106.812 	 58.76 	 121.535 	 
H 	 -105.961 	 59.2392 	 121.84 	 
H 	 -107.215 	 58.2823 	 122.432 	 
C 	 -107.695 	 59.9107 	 120.981 	 
H 	 -108.696 	 59.4524 	 120.694 	 
H 	 -107.262 	 60.244 	 120.076 	 
H 	 -107.788 	 60.6817 	 121.698 	 
H 	 -100.889 	 60.3777 	 120.052 	 
H 	 -104.967 	 53.5185 	 121.506 	 
*
