! wB97X-D3 SP def2-SVP
%pal
nprocs 16
end

* xyz 0 1
S 	 10.3713 	 -12.2292 	 93.1528 	 
C 	 11.3852 	 -11.9674 	 91.7814 	 
C 	 11.0411 	 -10.8077 	 91.121 	 
C 	 9.8366 	 -10.2596 	 91.6788 	 
C 	 9.26831 	 -10.9918 	 92.672 	 
H 	 9.31702 	 -9.34782 	 91.3761 	 
C 	 11.8219 	 -10.2393 	 89.9689 	 
H 	 12.8101 	 -10.3188 	 90.2944 	 
H 	 11.6305 	 -9.12506 	 89.9633 	 
C 	 11.6784 	 -10.9111 	 88.5935 	 
H 	 12.3003 	 -10.4063 	 87.8073 	 
H 	 11.9856 	 -11.9405 	 88.674 	 
C 	 10.2006 	 -11.1142 	 88.1908 	 
H 	 9.67539 	 -11.4714 	 89.0442 	 
H 	 9.70398 	 -10.159 	 87.8902 	 
H 	 9.9908 	 -11.8299 	 87.4269 	 
S 	 7.70715 	 -9.01165 	 93.6349 	 
C 	 6.24417 	 -9.40294 	 94.5139 	 
C 	 6.10748 	 -10.7373 	 94.7954 	 
C 	 7.21024 	 -11.4667 	 94.3014 	 
C 	 8.09238 	 -10.6745 	 93.4818 	 
H 	 5.20217 	 -11.2393 	 95.2325 	 
C 	 7.33884 	 -12.9394 	 94.4331 	 
H 	 8.27998 	 -13.0875 	 94.978 	 
H 	 7.457 	 -13.4469 	 93.4848 	 
C 	 6.17865 	 -13.7296 	 95.0944 	 
H 	 5.26676 	 -13.7749 	 94.4859 	 
H 	 5.98156 	 -13.268 	 96.056 	 
C 	 6.56679 	 -15.1508 	 95.3759 	 
H 	 6.5191 	 -15.6977 	 94.4859 	 
H 	 5.91089 	 -15.7856 	 95.9444 	 
H 	 7.55334 	 -15.3065 	 95.7746 	 
H 	 12.2461 	 -12.6222 	 91.4883 	 
H 	 5.50719 	 -8.66631 	 94.7343 	 
*
