! wB97X-D3 SP def2-SVP
%pal
nprocs 16
end

* xyz 0 1
S 	 -30.0353 	 59.2919 	 110.781 	 
C 	 -29.2313 	 59.4736 	 109.273 	 
C 	 -29.5956 	 58.606 	 108.283 	 
C 	 -30.6594 	 57.7969 	 108.796 	 
C 	 -30.9381 	 57.9475 	 110.115 	 
H 	 -31.1788 	 57.0745 	 108.219 	 
C 	 -29.0738 	 58.6185 	 106.865 	 
H 	 -28.9647 	 59.7368 	 106.558 	 
H 	 -29.806 	 58.3026 	 106.134 	 
C 	 -27.7917 	 57.7788 	 106.68 	 
H 	 -27.1568 	 58.0803 	 107.508 	 
H 	 -28.0781 	 56.7725 	 106.686 	 
C 	 -27.028 	 58.2033 	 105.427 	 
H 	 -27.5991 	 58.2143 	 104.462 	 
H 	 -26.7118 	 59.2135 	 105.496 	 
H 	 -26.1785 	 57.5709 	 105.234 	 
S 	 -33.0945 	 58.3134 	 111.779 	 
C 	 -34.0113 	 56.9136 	 112.313 	 
C 	 -33.4611 	 55.7144 	 111.874 	 
C 	 -32.4373 	 55.9457 	 110.903 	 
C 	 -32.0105 	 57.3084 	 110.839 	 
H 	 -33.8512 	 54.8196 	 112.307 	 
C 	 -31.776 	 54.7871 	 110.364 	 
H 	 -31.793 	 54.0026 	 111.192 	 
H 	 -30.6844 	 54.9328 	 110.115 	 
C 	 -32.359 	 54.2122 	 109.054 	 
H 	 -31.9805 	 53.2436 	 109.017 	 
H 	 -32.0407 	 54.669 	 108.088 	 
C 	 -33.8494 	 53.95 	 109.068 	 
H 	 -34.4869 	 54.9086 	 108.963 	 
H 	 -34.2764 	 53.5719 	 110.071 	 
H 	 -34.1111 	 53.2152 	 108.262 	 
H 	 -28.3843 	 60.1523 	 109.136 	 
H 	 -34.8558 	 56.9925 	 112.913 	 
*
