! wB97X-D3 SP def2-SVP
%pal
nprocs 16
end

* xyz 0 1
S 	 -38.6979 	 40.8726 	 95.2049 	 
C 	 -38.8504 	 41.5578 	 96.7803 	 
C 	 -37.6378 	 41.5977 	 97.4727 	 
C 	 -36.5877 	 41.1219 	 96.6758 	 
C 	 -36.9594 	 40.8267 	 95.4142 	 
H 	 -35.5916 	 41.1334 	 97.088 	 
C 	 -37.3801 	 42.2253 	 98.8741 	 
H 	 -36.3599 	 42.5919 	 98.9771 	 
H 	 -37.5165 	 41.4339 	 99.6127 	 
C 	 -38.4022 	 43.2726 	 99.3109 	 
H 	 -38.3543 	 44.0801 	 98.6666 	 
H 	 -39.3168 	 42.7377 	 99.217 	 
C 	 -38.2981 	 43.7641 	 100.729 	 
H 	 -37.5158 	 44.4449 	 101.032 	 
H 	 -39.1338 	 44.3704 	 100.992 	 
H 	 -38.4098 	 42.9979 	 101.539 	 
S 	 -35.4026 	 41.8695 	 93.3186 	 
C 	 -34.6072 	 40.7286 	 92.3164 	 
C 	 -34.8688 	 39.4155 	 92.663 	 
C 	 -35.809 	 39.2754 	 93.7538 	 
C 	 -36.0499 	 40.5435 	 94.3095 	 
H 	 -34.4367 	 38.5887 	 92.0736 	 
C 	 -36.2677 	 37.9969 	 94.4395 	 
H 	 -36.8445 	 38.1524 	 95.3095 	 
H 	 -35.3826 	 37.5478 	 94.9546 	 
C 	 -37.022 	 37.0534 	 93.5344 	 
H 	 -36.5038 	 36.9333 	 92.5903 	 
H 	 -37.9406 	 37.445 	 93.1891 	 
C 	 -37.2352 	 35.683 	 94.25 	 
H 	 -37.9125 	 35.0361 	 93.6236 	 
H 	 -37.8387 	 35.8523 	 95.1666 	 
H 	 -36.3577 	 35.1738 	 94.6558 	 
H 	 -39.8458 	 41.8156 	 97.1899 	 
H 	 -33.8984 	 40.927 	 91.5128 	 
*
