! wB97X-D3 SP def2-SVP
%pal
nprocs 16
end

* xyz 0 1
S 	 45.707 	 10.5116 	 50.742 	 
C 	 45.1687 	 10.8137 	 49.1453 	 
C 	 45.3424 	 12.1439 	 48.8863 	 
C 	 45.8297 	 12.8808 	 50.0061 	 
C 	 45.9848 	 12.1487 	 51.1242 	 
H 	 46.0669 	 13.9597 	 49.9311 	 
C 	 45.1449 	 12.7828 	 47.5641 	 
H 	 44.956 	 12.0306 	 46.7994 	 
H 	 46.0869 	 13.324 	 47.3271 	 
C 	 44.0545 	 13.8894 	 47.5595 	 
H 	 44.2148 	 14.7086 	 48.3361 	 
H 	 44.0502 	 14.2234 	 46.5477 	 
C 	 42.5781 	 13.5031 	 47.7286 	 
H 	 42.5046 	 12.6595 	 48.484 	 
H 	 42.2454 	 14.459 	 48.0602 	 
H 	 42.0551 	 13.1729 	 46.8481 	 
S 	 47.7267 	 11.6869 	 53.2931 	 
C 	 47.7098 	 12.8097 	 54.5302 	 
C 	 46.7193 	 13.7638 	 54.4268 	 
C 	 46.0731 	 13.7872 	 53.1489 	 
C 	 46.4674 	 12.621 	 52.461 	 
H 	 46.5871 	 14.5101 	 55.222 	 
C 	 45.0202 	 14.7665 	 52.7297 	 
H 	 45.2622 	 14.974 	 51.7286 	 
H 	 45.2709 	 15.726 	 53.1261 	 
C 	 43.5019 	 14.2713 	 52.7805 	 
H 	 43.3196 	 14.1839 	 53.8111 	 
H 	 43.3769 	 13.2831 	 52.3215 	 
C 	 42.6072 	 15.3716 	 52.0975 	 
H 	 41.5993 	 15.2587 	 52.5142 	 
H 	 42.5077 	 15.2801 	 51.006 	 
H 	 42.8245 	 16.3921 	 52.4186 	 
H 	 45.0284 	 10.0288 	 48.3872 	 
H 	 48.3556 	 12.7437 	 55.3968 	 
*
