! wB97X-D3 SP def2-SVP
%pal
nprocs 16
end

* xyz 0 1
S 	 -3.49851 	 50.3527 	 48.7671 	 
C 	 -4.35414 	 49.8519 	 50.2228 	 
C 	 -4.5915 	 50.8789 	 51.087 	 
C 	 -4.01391 	 52.1062 	 50.6111 	 
C 	 -3.53557 	 52.0688 	 49.3372 	 
H 	 -3.89613 	 53.0419 	 51.1506 	 
C 	 -5.38777 	 50.8346 	 52.3811 	 
H 	 -5.9161 	 49.9101 	 52.3396 	 
H 	 -6.07559 	 51.6697 	 52.4192 	 
C 	 -4.50935 	 50.8173 	 53.6608 	 
H 	 -3.78447 	 50.1015 	 53.689 	 
H 	 -4.05684 	 51.7933 	 53.7484 	 
C 	 -5.24434 	 50.7141 	 54.9144 	 
H 	 -5.81069 	 49.7853 	 54.944 	 
H 	 -4.64037 	 50.8237 	 55.8003 	 
H 	 -5.90991 	 51.5944 	 54.9527 	 
S 	 -1.43787 	 52.7067 	 47.5801 	 
C 	 -1.1212 	 54.2699 	 47.0911 	 
C 	 -2.09088 	 55.1151 	 47.63 	 
C 	 -3.09638 	 54.4613 	 48.4532 	 
C 	 -2.8485 	 53.1102 	 48.5304 	 
H 	 -2.07941 	 56.1814 	 47.3089 	 
C 	 -4.25329 	 55.2662 	 49.0497 	 
H 	 -4.11783 	 56.2821 	 48.6051 	 
H 	 -4.18711 	 55.3332 	 50.1686 	 
C 	 -5.5701 	 54.6933 	 48.5818 	 
H 	 -5.66335 	 53.6441 	 48.7807 	 
H 	 -5.65188 	 54.7789 	 47.5215 	 
C 	 -6.7891 	 55.4478 	 49.1452 	 
H 	 -7.73103 	 55.3174 	 48.6071 	 
H 	 -6.76118 	 56.5302 	 49.0491 	 
H 	 -7.00379 	 55.1315 	 50.1462 	 
H 	 -4.72073 	 48.9447 	 50.5039 	 
H 	 -0.356865 	 54.5252 	 46.3953 	 
*
