! wB97X-D3 SP def2-SVP
%pal
nprocs 16
end

* xyz 0 1
S 	 13.7389 	 24.7302 	 64.333 	 
C 	 14.1372 	 23.236 	 63.6226 	 
C 	 13.0137 	 22.4781 	 63.3972 	 
C 	 11.7795 	 23.2011 	 63.5926 	 
C 	 12.0271 	 24.4991 	 64.0708 	 
H 	 10.7519 	 22.8747 	 63.4391 	 
C 	 13.0747 	 20.9998 	 63.0034 	 
H 	 14.1274 	 20.6197 	 62.6607 	 
H 	 12.46 	 20.9488 	 62.0773 	 
C 	 12.5504 	 20.0377 	 64.0772 	 
H 	 12.962 	 18.9907 	 63.9659 	 
H 	 12.8827 	 20.381 	 65.0437 	 
C 	 11.0326 	 19.8815 	 64.0997 	 
H 	 10.5348 	 20.8248 	 64.1956 	 
H 	 10.7592 	 19.3254 	 63.1895 	 
H 	 10.7045 	 19.2602 	 64.9247 	 
S 	 11.0894 	 26.2625 	 65.8878 	 
C 	 9.56636 	 27.1249 	 65.574 	 
C 	 9.07882 	 26.8697 	 64.3018 	 
C 	 9.85624 	 25.9331 	 63.5969 	 
C 	 11.0075 	 25.5699 	 64.2612 	 
H 	 8.0755 	 27.1985 	 63.9889 	 
C 	 9.39891 	 25.445 	 62.1927 	 
H 	 9.78266 	 24.4178 	 61.886 	 
H 	 9.99397 	 25.8969 	 61.3973 	 
C 	 7.88216 	 25.5345 	 61.8305 	 
H 	 7.86307 	 25.0251 	 60.8508 	 
H 	 7.57106 	 26.565 	 61.8955 	 
C 	 6.84103 	 24.784 	 62.7039 	 
H 	 6.82539 	 23.6584 	 62.6127 	 
H 	 5.85367 	 25.0766 	 62.4857 	 
H 	 7.05766 	 25.0241 	 63.7878 	 
H 	 15.1165 	 23.0396 	 63.3474 	 
H 	 8.92069 	 27.5194 	 66.3956 	 
*
