! wB97X-D3 SP def2-SVP
%pal
nprocs 16
end

* xyz 0 1
S 	 8.64484 	 -8.08752 	 64.3298 	 
C 	 7.79096 	 -8.39771 	 65.7615 	 
C 	 8.17787 	 -9.64454 	 66.3145 	 
C 	 9.1111 	 -10.2991 	 65.4217 	 
C 	 9.32994 	 -9.65525 	 64.2254 	 
H 	 9.68921 	 -11.2375 	 65.5608 	 
C 	 7.90879 	 -10.0887 	 67.729 	 
H 	 7.87152 	 -11.1667 	 67.6984 	 
H 	 6.87304 	 -9.82934 	 68.0292 	 
C 	 8.86992 	 -9.58646 	 68.7591 	 
H 	 9.84027 	 -9.96254 	 68.5043 	 
H 	 9.01221 	 -8.54436 	 68.8456 	 
C 	 8.43953 	 -10.0357 	 70.1488 	 
H 	 8.9249 	 -9.3372 	 70.7899 	 
H 	 7.39132 	 -9.88238 	 70.301 	 
H 	 8.76321 	 -11.0657 	 70.4223 	 
S 	 11.381 	 -9.05423 	 62.3935 	 
C 	 11.8483 	 -10.2255 	 61.2126 	 
C 	 11.1818 	 -11.402 	 61.4101 	 
C 	 10.1632 	 -11.3444 	 62.4295 	 
C 	 10.0813 	 -10.1155 	 63.033 	 
H 	 11.4846 	 -12.1995 	 60.7618 	 
C 	 9.34436 	 -12.5804 	 62.9022 	 
H 	 9.02012 	 -13.1446 	 62.0119 	 
H 	 8.43584 	 -12.3507 	 63.4181 	 
C 	 10.2171 	 -13.6056 	 63.6994 	 
H 	 10.9052 	 -13.0169 	 64.3969 	 
H 	 10.8388 	 -14.1906 	 63.05 	 
C 	 9.38697 	 -14.6004 	 64.5305 	 
H 	 8.71151 	 -14.0625 	 65.1851 	 
H 	 10.0201 	 -15.3413 	 65.0326 	 
H 	 8.76006 	 -15.1905 	 63.8674 	 
H 	 7.34015 	 -7.5888 	 66.3105 	 
H 	 12.7838 	 -10.1928 	 60.6595 	 
*
