! wB97X-D3 SP def2-SVP
%pal
nprocs 16
end

* xyz 0 1
S 	 -53.7381 	 32.3302 	 93.9627 	 
C 	 -55.1674 	 32.0911 	 92.9869 	 
C 	 -55.8069 	 33.3273 	 92.6912 	 
C 	 -55.237 	 34.449 	 93.4192 	 
C 	 -54.0653 	 34.0747 	 94.1052 	 
H 	 -55.567 	 35.4628 	 93.2735 	 
C 	 -57.1024 	 33.503 	 91.9361 	 
H 	 -56.9755 	 32.9965 	 90.9818 	 
H 	 -57.1727 	 34.5606 	 91.6619 	 
C 	 -58.3338 	 33.0572 	 92.7628 	 
H 	 -58.3063 	 31.9863 	 92.9727 	 
H 	 -58.3778 	 33.4727 	 93.7439 	 
C 	 -59.694 	 33.3267 	 92.1593 	 
H 	 -60.4392 	 32.8301 	 92.8037 	 
H 	 -59.8594 	 34.3773 	 92.0066 	 
H 	 -59.8507 	 32.8088 	 91.1677 	 
S 	 -52.5996 	 34.4108 	 96.3899 	 
C 	 -51.8192 	 35.9132 	 96.7098 	 
C 	 -51.8157 	 36.7133 	 95.6074 	 
C 	 -52.6531 	 36.2119 	 94.5478 	 
C 	 -53.205 	 34.9628 	 94.8309 	 
H 	 -51.1605 	 37.5459 	 95.7581 	 
C 	 -52.8712 	 36.9851 	 93.256 	 
H 	 -53.8162 	 36.6984 	 92.8964 	 
H 	 -52.129 	 36.5025 	 92.6842 	 
C 	 -52.775 	 38.5151 	 93.19 	 
H 	 -51.7916 	 38.9672 	 93.3843 	 
H 	 -53.4414 	 38.7676 	 94.0794 	 
C 	 -53.4139 	 39.0715 	 91.9776 	 
H 	 -53.4429 	 40.1435 	 92.0905 	 
H 	 -54.3746 	 38.6695 	 91.9487 	 
H 	 -52.9782 	 39.0503 	 90.9512 	 
H 	 -55.2311 	 31.1789 	 92.3467 	 
H 	 -51.2891 	 36.2235 	 97.5415 	 
*
