! wB97X-D3 SP def2-SVP
%pal
nprocs 16
end

* xyz 0 1
S 	 -0.312106 	 22.3573 	 31.2231 	 
C 	 -1.49742 	 23.5979 	 31.5327 	 
C 	 -1.6601 	 23.8187 	 32.8516 	 
C 	 -0.603503 	 23.2344 	 33.6273 	 
C 	 0.244484 	 22.4176 	 32.9511 	 
H 	 -0.413019 	 23.3602 	 34.6936 	 
C 	 -2.78138 	 24.6511 	 33.4827 	 
H 	 -3.08172 	 25.4155 	 32.7145 	 
H 	 -2.46367 	 25.3541 	 34.2698 	 
C 	 -3.91479 	 23.8495 	 34.1402 	 
H 	 -4.32196 	 23.1003 	 33.4324 	 
H 	 -3.37379 	 23.3529 	 34.9281 	 
C 	 -5.06485 	 24.6588 	 34.7524 	 
H 	 -5.65189 	 24.9175 	 33.8934 	 
H 	 -5.46927 	 23.9681 	 35.5085 	 
H 	 -4.81719 	 25.5003 	 35.3465 	 
S 	 2.99359 	 21.9653 	 32.715 	 
C 	 3.76581 	 21.2071 	 34.0068 	 
C 	 2.8805 	 20.6215 	 34.9007 	 
C 	 1.53088 	 20.9133 	 34.5918 	 
C 	 1.43019 	 21.6944 	 33.4592 	 
H 	 3.12459 	 20.0248 	 35.7644 	 
C 	 0.376425 	 20.6505 	 35.5714 	 
H 	 -0.551144 	 20.8916 	 35.1407 	 
H 	 0.559115 	 21.3172 	 36.3493 	 
C 	 0.158942 	 19.2247 	 36.0821 	 
H 	 -0.453602 	 19.1983 	 37.0057 	 
H 	 1.07849 	 18.7798 	 36.4436 	 
C 	 -0.442494 	 18.1354 	 35.1272 	 
H 	 -1.27188 	 18.5014 	 34.5462 	 
H 	 -0.786365 	 17.2183 	 35.6772 	 
H 	 0.340771 	 17.7747 	 34.4023 	 
H 	 -2.1094 	 24.1067 	 30.7549 	 
H 	 4.82105 	 21.1192 	 34.0989 	 
*
