! wB97X-D3 SP def2-SVP
%pal
nprocs 16
end

* xyz 0 1
S 	 -40.0069 	 52.5059 	 104.513 	 
C 	 -38.5401 	 53.4862 	 104.694 	 
C 	 -37.5322 	 52.7498 	 105.294 	 
C 	 -37.9589 	 51.4326 	 105.634 	 
C 	 -39.2454 	 51.0926 	 105.286 	 
H 	 -37.329 	 50.7771 	 106.249 	 
C 	 -36.137 	 53.2983 	 105.755 	 
H 	 -35.958 	 54.2668 	 105.33 	 
H 	 -35.3208 	 52.699 	 105.359 	 
C 	 -35.9472 	 53.4764 	 107.291 	 
H 	 -36.1064 	 52.5072 	 107.773 	 
H 	 -34.952 	 53.697 	 107.573 	 
C 	 -36.9018 	 54.5999 	 107.936 	 
H 	 -36.5107 	 55.5326 	 107.679 	 
H 	 -37.8831 	 54.4937 	 107.573 	 
H 	 -36.8833 	 54.5712 	 109.047 	 
S 	 -41.1872 	 49.8869 	 106.793 	 
C 	 -41.3148 	 48.1622 	 106.857 	 
C 	 -40.4273 	 47.5718 	 105.986 	 
C 	 -39.686 	 48.5081 	 105.244 	 
C 	 -39.9146 	 49.8374 	 105.598 	 
H 	 -40.3058 	 46.5359 	 105.903 	 
C 	 -38.7489 	 48.1065 	 104.166 	 
H 	 -38.9141 	 48.7888 	 103.312 	 
H 	 -39.0837 	 47.1505 	 103.759 	 
C 	 -37.2704 	 48.078 	 104.412 	 
H 	 -37.1626 	 47.7456 	 105.426 	 
H 	 -36.8881 	 49.2259 	 104.465 	 
C 	 -36.4609 	 47.1993 	 103.428 	 
H 	 -36.9682 	 47.1259 	 102.462 	 
H 	 -36.2161 	 46.2231 	 103.778 	 
H 	 -35.517 	 47.5614 	 103.159 	 
H 	 -38.5419 	 54.5722 	 104.377 	 
H 	 -42.0099 	 47.6785 	 107.575 	 
*
