! wB97X-D3 SP def2-SVP
%pal
nprocs 16
end

* xyz 0 1
S 	 -28.7923 	 -1.5778 	 104.068 	 
C 	 -28.8312 	 -2.25882 	 105.678 	 
C 	 -28.2413 	 -1.50812 	 106.596 	 
C 	 -27.8873 	 -0.176646 	 106.107 	 
C 	 -28.172 	 -0.126115 	 104.732 	 
H 	 -27.358 	 0.6392 	 106.613 	 
C 	 -28.0379 	 -1.96322 	 108.012 	 
H 	 -28.5971 	 -2.90568 	 108.069 	 
H 	 -28.5099 	 -1.16368 	 108.628 	 
C 	 -26.5407 	 -2.22186 	 108.319 	 
H 	 -25.9204 	 -1.33299 	 108.034 	 
H 	 -26.3673 	 -2.29638 	 109.426 	 
C 	 -25.9368 	 -3.4551 	 107.583 	 
H 	 -26.2945 	 -3.41077 	 106.568 	 
H 	 -24.8561 	 -3.57521 	 107.643 	 
H 	 -26.4101 	 -4.33961 	 108.018 	 
S 	 -27.4102 	 0.742241 	 102.226 	 
C 	 -27.4337 	 2.41745 	 101.86 	 
C 	 -27.8377 	 3.18512 	 102.91 	 
C 	 -28.0221 	 2.42553 	 104.101 	 
C 	 -27.9013 	 1.07073 	 103.846 	 
H 	 -27.8469 	 4.2548 	 102.841 	 
C 	 -28.5481 	 3.03735 	 105.329 	 
H 	 -27.8282 	 3.70514 	 105.733 	 
H 	 -28.7533 	 2.26554 	 106.056 	 
C 	 -29.867 	 3.76018 	 105.051 	 
H 	 -30.4608 	 3.17671 	 104.356 	 
H 	 -29.6896 	 4.75155 	 104.556 	 
C 	 -30.6929 	 4.02384 	 106.311 	 
H 	 -30.3917 	 4.93286 	 106.92 	 
H 	 -30.5263 	 3.33012 	 107.112 	 
H 	 -31.6777 	 4.12184 	 106.16 	 
H 	 -29.2044 	 -3.25644 	 105.911 	 
H 	 -27.1115 	 2.82453 	 100.889 	 
*
