! wB97X-D3 SP def2-SVP
%pal
nprocs 16
end

* xyz 0 1
S 	 53.6377 	 27.6999 	 44.0781 	 
C 	 55.3368 	 28.1694 	 43.7011 	 
C 	 56.1302 	 27.0392 	 43.6054 	 
C 	 55.3595 	 25.8383 	 43.7786 	 
C 	 54.0203 	 26.0032 	 43.94 	 
H 	 55.6469 	 24.756 	 43.6671 	 
C 	 57.6269 	 27.0655 	 43.4292 	 
H 	 57.8486 	 27.7912 	 42.6446 	 
H 	 58.047 	 26.0942 	 43.1561 	 
C 	 58.5172 	 27.4426 	 44.6455 	 
H 	 59.5102 	 27.3095 	 44.4778 	 
H 	 58.3367 	 28.5447 	 44.8072 	 
C 	 58.2424 	 26.6679 	 45.9462 	 
H 	 57.2261 	 26.6518 	 46.3826 	 
H 	 58.3335 	 25.6371 	 45.666 	 
H 	 58.8779 	 26.9612 	 46.7226 	 
S 	 51.6095 	 25.4052 	 45.0657 	 
C 	 50.8846 	 23.7936 	 44.8544 	 
C 	 51.6121 	 22.9859 	 43.9596 	 
C 	 52.807 	 23.7288 	 43.5275 	 
C 	 52.9829 	 25.003 	 44.0892 	 
H 	 51.3092 	 21.994 	 43.6655 	 
C 	 53.6847 	 23.1081 	 42.4003 	 
H 	 54.7019 	 23.6468 	 42.2432 	 
H 	 53.1177 	 23.1659 	 41.535 	 
C 	 53.8934 	 21.6338 	 42.5188 	 
H 	 52.9911 	 21.1002 	 42.5503 	 
H 	 54.4794 	 21.4832 	 43.4742 	 
C 	 54.594 	 21.0222 	 41.3474 	 
H 	 54.0507 	 21.2281 	 40.478 	 
H 	 54.5225 	 19.8992 	 41.4538 	 
H 	 55.6054 	 21.4229 	 41.1505 	 
H 	 55.7191 	 29.207 	 43.7953 	 
H 	 49.9438 	 23.5145 	 45.3262 	 
*
