! wB97X-D3 SP def2-SVP
%pal
nprocs 16
end

* xyz 0 1
S 	 -16.2198 	 34.8318 	 38.9448 	 
C 	 -15.549 	 36.1807 	 39.7966 	 
C 	 -14.9483 	 37.0364 	 38.8901 	 
C 	 -15.096 	 36.5846 	 37.5347 	 
C 	 -15.8664 	 35.4348 	 37.357 	 
H 	 -14.7545 	 36.993 	 36.6514 	 
C 	 -14.0318 	 38.1588 	 39.3446 	 
H 	 -13.1683 	 38.2798 	 38.6484 	 
H 	 -13.5925 	 37.7974 	 40.2768 	 
C 	 -14.6321 	 39.5511 	 39.7084 	 
H 	 -15.5776 	 39.3845 	 40.2707 	 
H 	 -14.0403 	 40.1038 	 40.464 	 
C 	 -14.86 	 40.4629 	 38.4432 	 
H 	 -13.9666 	 40.7997 	 37.9851 	 
H 	 -15.4822 	 40.0331 	 37.6595 	 
H 	 -15.3641 	 41.3548 	 38.7464 	 
S 	 -15.5118 	 32.9941 	 36.0324 	 
C 	 -15.6675 	 32.9176 	 34.3576 	 
C 	 -16.0265 	 34.2151 	 33.8701 	 
C 	 -16.4401 	 35.1513 	 34.8306 	 
C 	 -16.1008 	 34.691 	 36.1032 	 
H 	 -16.1083 	 34.378 	 32.8264 	 
C 	 -16.9136 	 36.6078 	 34.5406 	 
H 	 -16.6435 	 37.2244 	 35.3447 	 
H 	 -18 	 36.4619 	 34.4618 	 
C 	 -16.4148 	 37.2503 	 33.1985 	 
H 	 -16.8476 	 36.6612 	 32.3696 	 
H 	 -15.3124 	 37.1391 	 33.1179 	 
C 	 -16.7532 	 38.7052 	 32.9558 	 
H 	 -16.3618 	 39.3958 	 33.6888 	 
H 	 -17.8707 	 38.8492 	 32.9601 	 
H 	 -16.3952 	 39.002 	 32.0252 	 
H 	 -15.3637 	 36.2518 	 40.8209 	 
H 	 -15.1986 	 32.2284 	 33.6793 	 
*
