! wB97X-D3 SP def2-SVP
%pal
nprocs 16
end

* xyz 0 1
S 	 44.2787 	 24.6884 	 93.0137 	 
C 	 45.6754 	 24.8858 	 94.024 	 
C 	 45.3091 	 25.3856 	 95.2488 	 
C 	 43.8706 	 25.4663 	 95.4398 	 
C 	 43.1634 	 25.0608 	 94.2881 	 
H 	 43.3654 	 25.7501 	 96.3093 	 
C 	 46.2225 	 25.694 	 96.4297 	 
H 	 45.593 	 25.7511 	 97.3876 	 
H 	 46.4846 	 26.7782 	 96.2157 	 
C 	 47.3307 	 24.6837 	 96.7175 	 
H 	 47.0079 	 23.6679 	 96.8908 	 
H 	 47.9557 	 24.6654 	 95.7968 	 
C 	 48.2197 	 24.9838 	 97.9209 	 
H 	 48.7767 	 25.8395 	 97.6905 	 
H 	 47.656 	 25.0941 	 98.8263 	 
H 	 48.9921 	 24.1721 	 97.8231 	 
S 	 40.9645 	 26.3902 	 94.8733 	 
C 	 39.4855 	 26.1164 	 94.0039 	 
C 	 39.5261 	 24.9026 	 93.3424 	 
C 	 40.8231 	 24.3031 	 93.3916 	 
C 	 41.7337 	 25.0286 	 94.1318 	 
H 	 38.7216 	 24.4555 	 92.8768 	 
C 	 41.1547 	 22.9762 	 92.7612 	 
H 	 40.2454 	 22.4129 	 92.8879 	 
H 	 41.9195 	 22.3919 	 93.2376 	 
C 	 41.4743 	 23.0541 	 91.2459 	 
H 	 42.3586 	 23.6758 	 90.97 	 
H 	 40.7028 	 23.5894 	 90.6652 	 
C 	 41.5425 	 21.6931 	 90.5823 	 
H 	 40.7339 	 20.9654 	 90.9151 	 
H 	 42.4518 	 21.1709 	 90.9484 	 
H 	 41.5003 	 21.8909 	 89.4735 	 
H 	 46.6531 	 24.6161 	 93.7328 	 
H 	 38.6154 	 26.7158 	 94.1946 	 
*
