! wB97X-D3 SP def2-SVP
%pal
nprocs 16
end

* xyz 0 1
S 	 -13.6561 	 31.5983 	 34.8468 	 
C 	 -14.4114 	 31.2079 	 36.3754 	 
C 	 -14.1357 	 32.1927 	 37.281 	 
C 	 -13.3079 	 33.2306 	 36.7671 	 
C 	 -12.9475 	 33.0186 	 35.4346 	 
H 	 -12.8929 	 34.1156 	 37.2385 	 
C 	 -14.5151 	 32.2267 	 38.8119 	 
H 	 -13.6595 	 32.514 	 39.474 	 
H 	 -14.7907 	 31.1327 	 38.8729 	 
C 	 -15.7522 	 33.1191 	 39.1723 	 
H 	 -16.5902 	 32.9216 	 38.4511 	 
H 	 -16.1363 	 32.7298 	 40.0791 	 
C 	 -15.5239 	 34.6187 	 39.2505 	 
H 	 -14.5815 	 34.8849 	 39.7249 	 
H 	 -15.46 	 35.0727 	 38.1875 	 
H 	 -16.3263 	 35.0774 	 39.8499 	 
S 	 -11.5369 	 33.0832 	 33.1128 	 
C 	 -10.9554 	 34.574 	 32.4586 	 
C 	 -11.3102 	 35.607 	 33.3092 	 
C 	 -11.776 	 35.1982 	 34.5821 	 
C 	 -12.2154 	 33.8791 	 34.5223 	 
H 	 -11.1329 	 36.6328 	 32.9662 	 
C 	 -12.0341 	 36.2117 	 35.6438 	 
H 	 -11.4238 	 37.0895 	 35.3954 	 
H 	 -11.574 	 35.8929 	 36.5479 	 
C 	 -13.5458 	 36.5715 	 35.6986 	 
H 	 -14.2369 	 35.8375 	 36.1546 	 
H 	 -13.966 	 36.7284 	 34.6862 	 
C 	 -13.6932 	 37.9034 	 36.4574 	 
H 	 -14.7363 	 38.31 	 36.4316 	 
H 	 -13.0401 	 38.6995 	 36.0127 	 
H 	 -13.2962 	 37.7163 	 37.5165 	 
H 	 -14.8554 	 30.2844 	 36.5774 	 
H 	 -10.5093 	 34.7276 	 31.469 	 
*
