! wB97X-D3 SP def2-SVP
%pal
nprocs 16
end

* xyz 0 1
S 	 9.34835 	 -13.0357 	 66.5223 	 
C 	 9.15334 	 -14.5247 	 65.7333 	 
C 	 8.38906 	 -15.3481 	 66.54 	 
C 	 8.28864 	 -14.8536 	 67.8676 	 
C 	 8.89909 	 -13.6664 	 68.0859 	 
H 	 7.69178 	 -15.2042 	 68.6797 	 
C 	 7.9896 	 -16.7294 	 66.1071 	 
H 	 8.78643 	 -17.0895 	 65.3687 	 
H 	 6.99269 	 -16.5361 	 65.6953 	 
C 	 7.90069 	 -17.7762 	 67.1917 	 
H 	 7.07422 	 -17.6149 	 67.8952 	 
H 	 7.52519 	 -18.6765 	 66.7353 	 
C 	 9.27936 	 -18.0972 	 67.8316 	 
H 	 9.1612 	 -18.8857 	 68.58 	 
H 	 10.0067 	 -18.3825 	 67.0432 	 
H 	 9.71963 	 -17.1962 	 68.311 	 
S 	 8.4096 	 -11.1201 	 69.0795 	 
C 	 8.57996 	 -10.6939 	 70.7585 	 
C 	 8.8841 	 -11.8278 	 71.5015 	 
C 	 9.04789 	 -13.0207 	 70.6707 	 
C 	 8.82998 	 -12.7885 	 69.2903 	 
H 	 8.96687 	 -11.6979 	 72.5622 	 
C 	 9.44269 	 -14.4318 	 71.3489 	 
H 	 8.75531 	 -15.1692 	 70.8664 	 
H 	 9.16552 	 -14.5586 	 72.3699 	 
C 	 10.9669 	 -14.7976 	 71.2914 	 
H 	 11.1151 	 -15.7922 	 71.6983 	 
H 	 11.6426 	 -14.2031 	 71.9111 	 
C 	 11.5387 	 -14.8972 	 69.8384 	 
H 	 11.628 	 -13.91 	 69.4448 	 
H 	 10.9195 	 -15.5624 	 69.2177 	 
H 	 12.5675 	 -15.2707 	 69.9545 	 
H 	 9.47943 	 -14.7526 	 64.7696 	 
H 	 8.49488 	 -9.65489 	 71.2384 	 
*
