! wB97X-D3 SP def2-SVP
%pal
nprocs 16
end

* xyz 0 1
S 	 -2.44333 	 -15.641 	 82.5012 	 
C 	 -1.03382 	 -15.7105 	 81.4804 	 
C 	 0.0537015 	 -15.1482 	 82.1088 	 
C 	 -0.361327 	 -14.6098 	 83.37 	 
C 	 -1.68445 	 -14.6512 	 83.7852 	 
H 	 0.348358 	 -14.1075 	 84.0466 	 
C 	 1.50176 	 -15.1123 	 81.5969 	 
H 	 1.93794 	 -14.158 	 81.8065 	 
H 	 1.6178 	 -15.2791 	 80.5654 	 
C 	 2.39122 	 -16.1521 	 82.3763 	 
H 	 2.18662 	 -16.1521 	 83.4169 	 
H 	 2.06408 	 -17.1203 	 82.102 	 
C 	 3.91464 	 -16.0466 	 82.233 	 
H 	 4.44234 	 -17.048 	 82.2764 	 
H 	 4.04712 	 -15.7344 	 81.201 	 
H 	 4.52558 	 -15.3317 	 82.8099 	 
S 	 -2.88433 	 -15.6753 	 86.0523 	 
C 	 -3.50057 	 -14.5322 	 87.2754 	 
C 	 -2.94585 	 -13.2423 	 87.1562 	 
C 	 -2.31755 	 -13.0856 	 85.8625 	 
C 	 -2.2188 	 -14.2999 	 85.1255 	 
H 	 -3.06137 	 -12.5462 	 87.9228 	 
C 	 -1.73215 	 -11.7633 	 85.3549 	 
H 	 -0.811967 	 -12.0705 	 84.851 	 
H 	 -1.47178 	 -11.1971 	 86.3099 	 
C 	 -2.68366 	 -11.0751 	 84.3182 	 
H 	 -2.61925 	 -11.5177 	 83.371 	 
H 	 -2.38702 	 -10.1062 	 84.2303 	 
C 	 -4.17154 	 -11.1435 	 84.7496 	 
H 	 -4.573 	 -12.1625 	 84.8005 	 
H 	 -4.88067 	 -10.6689 	 84.0607 	 
H 	 -4.33528 	 -10.6701 	 85.7508 	 
H 	 -0.956074 	 -16.0941 	 80.4342 	 
H 	 -4.13128 	 -14.7687 	 88.0815 	 
*
