! wB97X-D3 SP def2-SVP
%pal
nprocs 16
end

* xyz 0 1
S 	 41.7422 	 21.2919 	 83.917 	 
C 	 41.2854 	 23.0192 	 83.8863 	 
C 	 42.4397 	 23.7783 	 83.8776 	 
C 	 43.66 	 23.0171 	 83.834 	 
C 	 43.3925 	 21.6849 	 83.8678 	 
H 	 44.6491 	 23.4613 	 83.8577 	 
C 	 42.3329 	 25.2195 	 83.8041 	 
H 	 42.1698 	 25.5577 	 82.8043 	 
H 	 43.2805 	 25.6958 	 83.997 	 
C 	 41.2619 	 25.9563 	 84.658 	 
H 	 40.2073 	 25.7344 	 84.4429 	 
H 	 41.4939 	 25.7891 	 85.6969 	 
C 	 41.3406 	 27.4596 	 84.3314 	 
H 	 40.9084 	 27.5565 	 83.318 	 
H 	 40.5867 	 27.9323 	 84.8703 	 
H 	 42.2794 	 27.9322 	 84.4918 	 
S 	 44.3452 	 19.4991 	 82.7077 	 
C 	 45.7199 	 18.639 	 83.2858 	 
C 	 46.1722 	 19.2281 	 84.4717 	 
C 	 45.4622 	 20.4289 	 84.8148 	 
C 	 44.3626 	 20.6043 	 83.9995 	 
H 	 47.0679 	 18.7715 	 85.054 	 
C 	 45.8575 	 21.3396 	 85.9641 	 
H 	 46.1483 	 20.7065 	 86.8034 	 
H 	 44.9773 	 21.9132 	 86.2267 	 
C 	 47.0122 	 22.3801 	 85.5485 	 
H 	 46.7173 	 22.9381 	 84.6647 	 
H 	 47.8458 	 21.7398 	 85.214 	 
C 	 47.6452 	 23.0363 	 86.7972 	 
H 	 47.5511 	 22.3676 	 87.6998 	 
H 	 47.1767 	 23.9923 	 86.9889 	 
H 	 48.6978 	 23.1951 	 86.4426 	 
H 	 40.2389 	 23.3309 	 83.9544 	 
H 	 46.2525 	 17.7616 	 82.7981 	 
*
