! wB97X-D3 SP def2-SVP
%pal
nprocs 16
end

* xyz 0 1
S 	 46.7622 	 10.2471 	 52.813 	 
C 	 45.1041 	 9.71959 	 52.8381 	 
C 	 44.3052 	 10.479 	 52.0007 	 
C 	 45.0661 	 11.4908 	 51.3302 	 
C 	 46.4022 	 11.6326 	 51.7881 	 
H 	 44.5608 	 12.2074 	 50.6944 	 
C 	 42.7691 	 10.4066 	 51.848 	 
H 	 42.5532 	 9.40316 	 52.1606 	 
H 	 42.4144 	 10.2573 	 50.8685 	 
C 	 41.95 	 11.5184 	 52.5605 	 
H 	 42.2779 	 12.4519 	 52.067 	 
H 	 40.8704 	 11.4481 	 52.2462 	 
C 	 42.0557 	 11.6232 	 54.1003 	 
H 	 43.0837 	 11.683 	 54.5047 	 
H 	 41.3923 	 12.4823 	 54.3671 	 
H 	 41.6581 	 10.7264 	 54.4974 	 
S 	 48.9035 	 11.7295 	 50.7427 	 
C 	 49.6312 	 13.2229 	 50.309 	 
C 	 48.7199 	 14.2096 	 50.3753 	 
C 	 47.4597 	 13.823 	 50.9076 	 
C 	 47.44 	 12.466 	 51.2546 	 
H 	 49.0268 	 15.1396 	 49.964 	 
C 	 46.342 	 14.8211 	 51.1228 	 
H 	 45.4217 	 14.3239 	 51.4119 	 
H 	 46.1773 	 15.3176 	 50.1033 	 
C 	 46.648 	 15.8764 	 52.2022 	 
H 	 45.8267 	 16.6509 	 52.1408 	 
H 	 47.5301 	 16.3918 	 51.9996 	 
C 	 46.5455 	 15.2969 	 53.6481 	 
H 	 45.5014 	 14.8226 	 53.8253 	 
H 	 46.6843 	 16.01 	 54.3781 	 
H 	 47.3239 	 14.5554 	 53.7727 	 
H 	 44.6002 	 9.00804 	 53.529 	 
H 	 50.5904 	 13.3543 	 49.8175 	 
*
