! wB97X-D3 SP def2-SVP
%pal
nprocs 16
end

* xyz 0 1
S 	 -54.6534 	 54.1115 	 134.829 	 
C 	 -53.2312 	 54.9806 	 135.357 	 
C 	 -53.5704 	 56.2755 	 135.76 	 
C 	 -54.9842 	 56.4449 	 135.693 	 
C 	 -55.7324 	 55.2815 	 135.487 	 
H 	 -55.4442 	 57.424 	 135.771 	 
C 	 -52.6188 	 57.3779 	 136.068 	 
H 	 -52.8983 	 58.2082 	 135.391 	 
H 	 -51.6405 	 57.0699 	 135.712 	 
C 	 -52.3629 	 57.7618 	 137.578 	 
H 	 -53.3128 	 57.8971 	 138.064 	 
H 	 -51.8277 	 56.9364 	 138.168 	 
C 	 -51.4228 	 58.9028 	 137.72 	 
H 	 -51.8902 	 59.6721 	 137.147 	 
H 	 -51.3445 	 59.2027 	 138.784 	 
H 	 -50.4577 	 58.7326 	 137.288 	 
S 	 -57.7744 	 55.0213 	 133.656 	 
C 	 -59.4127 	 55.2297 	 134.21 	 
C 	 -59.4755 	 55.3448 	 135.557 	 
C 	 -58.235 	 55.5239 	 136.199 	 
C 	 -57.1652 	 55.2576 	 135.316 	 
H 	 -60.4012 	 55.4042 	 136.085 	 
C 	 -58.0718 	 55.5958 	 137.746 	 
H 	 -57.1237 	 56.0046 	 138.055 	 
H 	 -58.1045 	 54.5313 	 138.051 	 
C 	 -59.1097 	 56.4488 	 138.495 	 
H 	 -60.0839 	 56.0895 	 138.177 	 
H 	 -59.0402 	 57.5605 	 138.34 	 
C 	 -58.8645 	 56.2731 	 140.026 	 
H 	 -59.7538 	 56.6097 	 140.514 	 
H 	 -58.0048 	 56.8747 	 140.271 	 
H 	 -58.7309 	 55.2501 	 140.311 	 
H 	 -52.1997 	 54.7372 	 135.152 	 
H 	 -60.334 	 55.0706 	 133.644 	 
*
