! wB97X-D3 SP def2-SVP
%pal
nprocs 16
end

* xyz 0 1
S 	 39.5992 	 12.4956 	 81.1918 	 
C 	 39.5161 	 12.3778 	 79.4678 	 
C 	 40.2352 	 13.3896 	 78.829 	 
C 	 40.8996 	 14.209 	 79.7913 	 
C 	 40.6667 	 13.8905 	 81.0694 	 
H 	 41.5722 	 15.0569 	 79.5519 	 
C 	 40.3852 	 13.6595 	 77.302 	 
H 	 41.3559 	 14.1836 	 77.1206 	 
H 	 39.5611 	 14.2821 	 77.0355 	 
C 	 40.4504 	 12.3808 	 76.4472 	 
H 	 40.9617 	 11.5742 	 76.8497 	 
H 	 39.3838 	 12.1108 	 76.4885 	 
C 	 40.8398 	 12.6949 	 74.9941 	 
H 	 40.3106 	 13.5606 	 74.5728 	 
H 	 41.9177 	 12.887 	 74.879 	 
H 	 40.5622 	 11.8867 	 74.2926 	 
S 	 40.4806 	 15.6684 	 83.2097 	 
C 	 41.881 	 16.0457 	 84.1044 	 
C 	 42.9486 	 15.2041 	 83.799 	 
C 	 42.7331 	 14.4169 	 82.6232 	 
C 	 41.397 	 14.5331 	 82.1969 	 
H 	 43.8996 	 15.41 	 84.3165 	 
C 	 43.7491 	 13.4723 	 82.0249 	 
H 	 44.1484 	 14.036 	 81.1804 	 
H 	 43.2637 	 12.5691 	 81.7497 	 
C 	 44.8712 	 13.106 	 82.9472 	 
H 	 44.6355 	 12.3448 	 83.6479 	 
H 	 45.2192 	 13.9446 	 83.5441 	 
C 	 46.0587 	 12.5776 	 82.1881 	 
H 	 46.8893 	 12.2633 	 82.7047 	 
H 	 46.426 	 13.1795 	 81.3829 	 
H 	 45.6821 	 11.6773 	 81.6414 	 
H 	 39.0474 	 11.5542 	 78.9423 	 
H 	 41.9882 	 16.9415 	 84.7899 	 
*
