! wB97X-D3 SP def2-SVP
%pal
nprocs 16
end

* xyz 0 1
S 	 -2.0879 	 -14.7686 	 82.4245 	 
C 	 -3.51161 	 -15.8203 	 82.1381 	 
C 	 -3.41758 	 -16.9564 	 82.8704 	 
C 	 -2.13948 	 -17.0762 	 83.5415 	 
C 	 -1.31066 	 -16.0332 	 83.3222 	 
H 	 -1.7287 	 -17.9322 	 83.9712 	 
C 	 -4.53927 	 -17.9445 	 82.9553 	 
H 	 -5.37033 	 -17.4036 	 83.2663 	 
H 	 -4.30801 	 -18.702 	 83.6736 	 
C 	 -4.95009 	 -18.5823 	 81.6011 	 
H 	 -5.79301 	 -19.3529 	 81.7561 	 
H 	 -5.23542 	 -17.7989 	 80.9458 	 
C 	 -3.68826 	 -19.3447 	 81.0504 	 
H 	 -3.96322 	 -19.8592 	 80.1149 	 
H 	 -2.76424 	 -18.715 	 80.8774 	 
H 	 -3.342 	 -20.0871 	 81.7786 	 
S 	 0.322209 	 -15.2294 	 85.3833 	 
C 	 2.06628 	 -15.2013 	 85.2076 	 
C 	 2.36651 	 -15.464 	 83.9268 	 
C 	 1.25406 	 -15.9455 	 83.1293 	 
C 	 0.0238995 	 -15.8933 	 83.7948 	 
H 	 3.41865 	 -15.4407 	 83.6498 	 
C 	 1.42025 	 -16.3655 	 81.7075 	 
H 	 2.24546 	 -15.7155 	 81.311 	 
H 	 0.544564 	 -16.1155 	 81.1606 	 
C 	 1.65438 	 -17.8803 	 81.4156 	 
H 	 2.54835 	 -18.1042 	 82.015 	 
H 	 1.83303 	 -18.1055 	 80.3458 	 
C 	 0.58374 	 -18.8118 	 81.8712 	 
H 	 0.525457 	 -18.7369 	 82.994 	 
H 	 0.789727 	 -19.831 	 81.6244 	 
H 	 -0.38914 	 -18.4847 	 81.5032 	 
H 	 -4.38222 	 -15.5258 	 81.5351 	 
H 	 2.77533 	 -14.9939 	 85.9814 	 
*
