! wB97X-D3 SP def2-SVP
%pal
nprocs 16
end

* xyz 0 1
S 	 -4.72173 	 -9.65732 	 85.1647 	 
C 	 -3.53085 	 -10.8407 	 85.5151 	 
C 	 -2.92407 	 -10.6001 	 86.7471 	 
C 	 -3.47017 	 -9.46928 	 87.4301 	 
C 	 -4.4853 	 -8.86387 	 86.686 	 
H 	 -3.07003 	 -8.98782 	 88.3503 	 
C 	 -1.97836 	 -11.531 	 87.4243 	 
H 	 -1.5619 	 -11.038 	 88.3265 	 
H 	 -1.06363 	 -11.7162 	 86.8115 	 
C 	 -2.51885 	 -12.9264 	 87.8232 	 
H 	 -3.41998 	 -13.0336 	 88.4816 	 
H 	 -2.87566 	 -13.443 	 86.866 	 
C 	 -1.50036 	 -13.935 	 88.3898 	 
H 	 -1.81727 	 -14.9107 	 88.077 	 
H 	 -0.510053 	 -13.9137 	 87.9823 	 
H 	 -1.39676 	 -13.8595 	 89.4752 	 
S 	 -6.21977 	 -6.88352 	 85.8871 	 
C 	 -6.62845 	 -5.58057 	 87.0109 	 
C 	 -5.9088 	 -5.71742 	 88.1603 	 
C 	 -5.09035 	 -6.8664 	 88.2369 	 
C 	 -5.14707 	 -7.58447 	 87.0728 	 
H 	 -6.08012 	 -5.01382 	 88.8944 	 
C 	 -4.34552 	 -7.04925 	 89.54 	 
H 	 -4.44907 	 -6.04698 	 89.9857 	 
H 	 -3.29734 	 -7.12436 	 89.2966 	 
C 	 -4.83361 	 -8.22452 	 90.3439 	 
H 	 -5.09877 	 -9.17909 	 89.7389 	 
H 	 -5.81113 	 -7.98074 	 90.6631 	 
C 	 -3.77585 	 -8.62808 	 91.3527 	 
H 	 -2.84046 	 -8.78189 	 90.8623 	 
H 	 -4.01182 	 -9.63022 	 91.7728 	 
H 	 -3.65938 	 -7.87737 	 92.1778 	 
H 	 -3.34423 	 -11.7835 	 85.0229 	 
H 	 -7.42719 	 -4.73259 	 86.8956 	 
*
