! wB97X-D3 SP def2-SVP
%pal
nprocs 16
end

* xyz 0 1
S 	 -46.0357 	 32.3606 	 94.4491 	 
C 	 -46.3622 	 31.1033 	 93.3245 	 
C 	 -47.1884 	 31.5576 	 92.3343 	 
C 	 -47.5893 	 32.9308 	 92.5354 	 
C 	 -47.044 	 33.5361 	 93.6539 	 
H 	 -48.1277 	 33.5308 	 91.8317 	 
C 	 -47.5316 	 30.7511 	 91.0846 	 
H 	 -48.6353 	 30.5918 	 91.1699 	 
H 	 -47.1038 	 29.7488 	 91.2703 	 
C 	 -47.1515 	 31.4068 	 89.6892 	 
H 	 -47.6143 	 32.3858 	 89.59 	 
H 	 -46.1127 	 31.4837 	 89.6554 	 
C 	 -47.7395 	 30.6958 	 88.4911 	 
H 	 -48.8596 	 30.6882 	 88.4471 	 
H 	 -47.3691 	 31.1081 	 87.57 	 
H 	 -47.5385 	 29.6595 	 88.4572 	 
S 	 -45.6859 	 35.8788 	 94.0264 	 
C 	 -46.5815 	 37.4095 	 94.0875 	 
C 	 -47.9559 	 37.1013 	 94.0935 	 
C 	 -48.276 	 35.7466 	 93.9762 	 
C 	 -47.1814 	 34.9216 	 94.0388 	 
H 	 -48.6147 	 37.9327 	 94.2444 	 
C 	 -49.7234 	 35.2947 	 93.8496 	 
H 	 -49.8267 	 34.631 	 92.9981 	 
H 	 -50.3798 	 36.166 	 93.6466 	 
C 	 -50.2814 	 34.641 	 95.0615 	 
H 	 -50.4197 	 35.318 	 95.8564 	 
H 	 -49.5576 	 33.9346 	 95.4779 	 
C 	 -51.6319 	 34.0596 	 94.7598 	 
H 	 -51.5725 	 33.2265 	 94.0412 	 
H 	 -52.2472 	 34.8162 	 94.3149 	 
H 	 -52.1314 	 33.5924 	 95.6311 	 
H 	 -45.9853 	 30.1505 	 93.3322 	 
H 	 -46.1521 	 38.309 	 94.3804 	 
*
