! wB97X-D3 SP def2-SVP
%pal
nprocs 16
end

* xyz 0 1
S 	 -54.3423 	 59.9461 	 133.678 	 
C 	 -53.432 	 60.5468 	 132.344 	 
C 	 -52.4568 	 61.4472 	 132.716 	 
C 	 -52.7389 	 62.0174 	 134.032 	 
C 	 -53.7025 	 61.279 	 134.678 	 
H 	 -52.1563 	 62.8071 	 134.534 	 
C 	 -51.6302 	 62.1948 	 131.674 	 
H 	 -51.1964 	 63.0688 	 132.19 	 
H 	 -52.35 	 62.6437 	 130.972 	 
C 	 -50.56 	 61.3134 	 130.96 	 
H 	 -49.9894 	 60.7541 	 131.732 	 
H 	 -51.062 	 60.5523 	 130.362 	 
C 	 -49.5454 	 62.1434 	 130.191 	 
H 	 -48.7521 	 61.4296 	 129.748 	 
H 	 -50.1003 	 62.6319 	 129.33 	 
H 	 -49.0689 	 62.9277 	 130.751 	 
S 	 -55.8638 	 62.2504 	 136.073 	 
C 	 -55.7935 	 62.2771 	 137.909 	 
C 	 -54.5703 	 61.7772 	 138.289 	 
C 	 -53.7471 	 61.4459 	 137.228 	 
C 	 -54.3093 	 61.6132 	 135.967 	 
H 	 -54.4083 	 61.4455 	 139.287 	 
C 	 -52.4308 	 60.8365 	 137.474 	 
H 	 -51.9256 	 61.1945 	 138.35 	 
H 	 -51.7797 	 60.8399 	 136.648 	 
C 	 -52.5182 	 59.3207 	 137.732 	 
H 	 -53.1322 	 59.0788 	 138.568 	 
H 	 -51.5135 	 58.8703 	 137.861 	 
C 	 -52.999 	 58.469 	 136.538 	 
H 	 -52.3192 	 58.6405 	 135.734 	 
H 	 -53.9875 	 58.8293 	 136.216 	 
H 	 -52.9683 	 57.372 	 136.753 	 
H 	 -53.3826 	 60.0894 	 131.382 	 
H 	 -56.6052 	 62.328 	 138.65 	 
*
