! wB97X-D3 SP def2-SVP
%pal
nprocs 16
end

* xyz 0 1
S 	 -39.0738 	 57.7665 	 106.74 	 
C 	 -40.4558 	 57.6446 	 107.77 	 
C 	 -41.2058 	 56.5422 	 107.424 	 
C 	 -40.7109 	 55.95 	 106.236 	 
C 	 -39.5257 	 56.3917 	 105.737 	 
H 	 -41.0932 	 55.1217 	 105.681 	 
C 	 -42.4919 	 56.1176 	 108.076 	 
H 	 -42.473 	 56.3004 	 109.241 	 
H 	 -42.5517 	 55.0813 	 107.963 	 
C 	 -43.7884 	 56.686 	 107.498 	 
H 	 -43.9028 	 56.4254 	 106.425 	 
H 	 -44.4688 	 56.0797 	 108.095 	 
C 	 -43.9385 	 58.1741 	 107.656 	 
H 	 -43.957 	 58.446 	 108.701 	 
H 	 -43.0359 	 58.7131 	 107.183 	 
H 	 -44.9222 	 58.4808 	 107.22 	 
S 	 -38.9209 	 57.1488 	 103.153 	 
C 	 -38.0422 	 56.0388 	 102.133 	 
C 	 -37.9896 	 54.7481 	 102.693 	 
C 	 -38.4424 	 54.7287 	 104.04 	 
C 	 -38.895 	 55.996 	 104.443 	 
H 	 -37.5992 	 53.9509 	 102.044 	 
C 	 -38.4065 	 53.4636 	 104.841 	 
H 	 -39.2352 	 52.8144 	 104.398 	 
H 	 -38.7661 	 53.8844 	 105.818 	 
C 	 -36.9952 	 52.9073 	 105.147 	 
H 	 -36.3043 	 53.648 	 105.451 	 
H 	 -36.6503 	 52.7147 	 104.186 	 
C 	 -37.0149 	 51.7914 	 106.162 	 
H 	 -37.5494 	 52.2233 	 106.971 	 
H 	 -36.0154 	 51.618 	 106.487 	 
H 	 -37.4681 	 50.875 	 105.816 	 
H 	 -40.6898 	 58.2877 	 108.68 	 
H 	 -37.7938 	 56.2885 	 101.082 	 
*
