! wB97X-D3 SP def2-SVP
%pal
nprocs 16
end

* xyz 0 1
S 	 -36.3843 	 70.8371 	 109.853 	 
C 	 -36.721 	 70.1011 	 108.294 	 
C 	 -35.5665 	 69.5175 	 107.779 	 
C 	 -34.4007 	 69.6417 	 108.608 	 
C 	 -34.7509 	 70.1749 	 109.837 	 
H 	 -33.4484 	 69.2167 	 108.349 	 
C 	 -35.5136 	 68.7308 	 106.495 	 
H 	 -35.4617 	 69.4511 	 105.649 	 
H 	 -36.4978 	 68.2865 	 106.498 	 
C 	 -34.3717 	 67.6658 	 106.344 	 
H 	 -33.4473 	 68.2544 	 106.453 	 
H 	 -34.3531 	 67.0605 	 107.251 	 
C 	 -34.5188 	 66.904 	 104.985 	 
H 	 -34.9819 	 67.5434 	 104.308 	 
H 	 -33.5658 	 66.4385 	 104.599 	 
H 	 -35.2483 	 66.0923 	 105.032 	 
S 	 -34.5387 	 70.3055 	 112.568 	 
C 	 -33.0197 	 70.4198 	 113.242 	 
C 	 -32.0667 	 70.7665 	 112.348 	 
C 	 -32.5695 	 70.749 	 110.986 	 
C 	 -33.8846 	 70.4001 	 110.971 	 
H 	 -31.0016 	 70.9028 	 112.676 	 
C 	 -31.6617 	 71.0881 	 109.833 	 
H 	 -32.0023 	 70.6667 	 108.873 	 
H 	 -30.6466 	 70.7307 	 109.973 	 
C 	 -31.6226 	 72.6302 	 109.566 	 
H 	 -30.9768 	 72.8138 	 108.743 	 
H 	 -31.4404 	 73.2323 	 110.47 	 
C 	 -33.0031 	 73.1689 	 109.134 	 
H 	 -33.7379 	 73.0629 	 109.895 	 
H 	 -33.5045 	 72.6246 	 108.305 	 
H 	 -32.9162 	 74.214 	 108.799 	 
H 	 -37.7178 	 70.0999 	 107.891 	 
H 	 -32.8296 	 70.4981 	 114.322 	 
*
