! wB97X-D3 SP def2-SVP
%pal
nprocs 16
end

* xyz 0 1
S 	 41.1869 	 15.1522 	 47.5291 	 
C 	 41.7026 	 14.3459 	 48.9483 	 
C 	 40.8312 	 14.4856 	 50.0093 	 
C 	 39.612 	 15.1009 	 49.6583 	 
C 	 39.5856 	 15.4079 	 48.2992 	 
H 	 38.6995 	 15.2244 	 50.2554 	 
C 	 41.2063 	 14.2357 	 51.4382 	 
H 	 41.7963 	 13.3037 	 51.4145 	 
H 	 40.4237 	 14.0418 	 52.1435 	 
C 	 42.0239 	 15.4882 	 51.9245 	 
H 	 42.8304 	 15.6185 	 51.2261 	 
H 	 41.5109 	 16.4648 	 52.0699 	 
C 	 42.626 	 15.1579 	 53.3336 	 
H 	 43.6129 	 15.5505 	 53.419 	 
H 	 41.9947 	 15.505 	 54.1725 	 
H 	 42.6583 	 14.0988 	 53.5143 	 
S 	 38.6705 	 17.6987 	 47.1224 	 
C 	 37.09 	 17.7504 	 46.3985 	 
C 	 36.5007 	 16.4559 	 46.5111 	 
C 	 37.376 	 15.4612 	 47.0106 	 
C 	 38.5423 	 16.0004 	 47.4901 	 
H 	 35.5413 	 16.2186 	 46.2457 	 
C 	 36.974 	 14.0115 	 46.9233 	 
H 	 36.0373 	 13.7853 	 47.3779 	 
H 	 37.761 	 13.4812 	 47.4072 	 
C 	 36.7873 	 13.4232 	 45.568 	 
H 	 35.8873 	 13.8413 	 45.0563 	 
H 	 36.5832 	 12.2948 	 45.6984 	 
C 	 37.9151 	 13.5923 	 44.5944 	 
H 	 38.8621 	 13.1574 	 44.9508 	 
H 	 38.1134 	 14.6443 	 44.4679 	 
H 	 37.8053 	 13.1907 	 43.5485 	 
H 	 42.6801 	 14.0015 	 49.1204 	 
H 	 36.6296 	 18.5702 	 45.8618 	 
*
