! wB97X-D3 SP def2-SVP
%pal
nprocs 16
end

* xyz 0 1
S 	 -8.83709 	 46.0789 	 40.0074 	 
C 	 -10.127 	 47.1275 	 39.6917 	 
C 	 -9.73482 	 48.4367 	 39.6325 	 
C 	 -8.33099 	 48.6098 	 39.5994 	 
C 	 -7.69859 	 47.3984 	 39.7197 	 
H 	 -7.83238 	 49.5353 	 39.3398 	 
C 	 -10.6228 	 49.6184 	 39.4544 	 
H 	 -10.7689 	 49.8843 	 38.4072 	 
H 	 -10.0906 	 50.4996 	 39.8758 	 
C 	 -11.9787 	 49.3576 	 40.201 	 
H 	 -12.7297 	 50.0472 	 39.7416 	 
H 	 -12.3459 	 48.3741 	 40.0179 	 
C 	 -12.0145 	 49.4841 	 41.6766 	 
H 	 -12.911 	 49.0685 	 42.1276 	 
H 	 -11.1607 	 48.9794 	 42.0938 	 
H 	 -11.8184 	 50.5146 	 42.0221 	 
S 	 -5.31904 	 46.5001 	 40.7023 	 
C 	 -3.8365 	 46.5706 	 39.7785 	 
C 	 -4.13119 	 47.1006 	 38.5603 	 
C 	 -5.49235 	 47.5564 	 38.3617 	 
C 	 -6.30067 	 47.2722 	 39.4448 	 
H 	 -3.44116 	 47.0723 	 37.7286 	 
C 	 -5.83257 	 48.24 	 37.1429 	 
H 	 -4.92504 	 48.4696 	 36.5818 	 
H 	 -6.21627 	 49.186 	 37.4523 	 
C 	 -6.86211 	 47.4337 	 36.3732 	 
H 	 -7.68723 	 47.4816 	 37.1372 	 
H 	 -6.51933 	 46.387 	 36.2068 	 
C 	 -7.39473 	 47.9993 	 35.0728 	 
H 	 -8.10148 	 48.8343 	 35.2722 	 
H 	 -7.92814 	 47.1357 	 34.6855 	 
H 	 -6.63255 	 48.2596 	 34.372 	 
H 	 -11.0786 	 46.6827 	 39.5313 	 
H 	 -2.92834 	 46.0849 	 40.0178 	 
*
