! wB97X-D3 SP def2-SVP
%pal
nprocs 16
end

* xyz 0 1
S 	 -48.8725 	 65.3572 	 130.945 	 
C 	 -49.1755 	 63.67 	 130.815 	 
C 	 -48.6479 	 62.9588 	 131.917 	 
C 	 -48.1292 	 63.8266 	 132.873 	 
C 	 -48.2244 	 65.1724 	 132.562 	 
H 	 -47.7018 	 63.4933 	 133.819 	 
C 	 -48.6801 	 61.444 	 132.047 	 
H 	 -49.6909 	 61.109 	 132.303 	 
H 	 -48.0628 	 61.0551 	 132.92 	 
C 	 -48.3286 	 60.576 	 130.872 	 
H 	 -48.6659 	 59.5857 	 131.068 	 
H 	 -48.8691 	 61.0101 	 129.978 	 
C 	 -46.7872 	 60.5502 	 130.591 	 
H 	 -46.2536 	 60.4207 	 131.472 	 
H 	 -46.4882 	 59.8328 	 129.725 	 
H 	 -46.3945 	 61.5287 	 130.216 	 
S 	 -47.1227 	 67.5833 	 132.559 	 
C 	 -46.9936 	 68.4438 	 134.107 	 
C 	 -47.2321 	 67.6825 	 135.174 	 
C 	 -47.8771 	 66.4627 	 134.759 	 
C 	 -47.8224 	 66.2329 	 133.402 	 
H 	 -47.1078 	 68.1429 	 136.152 	 
C 	 -48.2133 	 65.5267 	 135.907 	 
H 	 -47.1797 	 65.2415 	 136.238 	 
H 	 -48.738 	 64.6716 	 135.492 	 
C 	 -49.1583 	 66.0921 	 136.994 	 
H 	 -50.0882 	 66.4596 	 136.642 	 
H 	 -48.7353 	 67.0768 	 137.37 	 
C 	 -49.4206 	 65.2909 	 138.254 	 
H 	 -48.5324 	 64.9566 	 138.833 	 
H 	 -50.0931 	 64.5105 	 138.025 	 
H 	 -49.8416 	 65.9027 	 138.948 	 
H 	 -49.5567 	 63.1315 	 129.911 	 
H 	 -46.6707 	 69.4856 	 134.18 	 
*
