! wB97X-D3 SP def2-SVP
%pal
nprocs 16
end

* xyz 0 1
S 	 41.4747 	 9.25674 	 77.7377 	 
C 	 41.5716 	 8.79332 	 79.4033 	 
C 	 40.6019 	 9.33718 	 80.1594 	 
C 	 39.9138 	 10.3285 	 79.4637 	 
C 	 40.2621 	 10.4532 	 78.1175 	 
H 	 39.222 	 11.0246 	 79.8846 	 
C 	 40.3679 	 9.20541 	 81.6466 	 
H 	 40.7176 	 8.20305 	 81.9242 	 
H 	 39.3142 	 9.23395 	 81.8176 	 
C 	 41.0061 	 10.1862 	 82.6749 	 
H 	 40.8761 	 11.1725 	 82.3081 	 
H 	 40.5833 	 10.067 	 83.6831 	 
C 	 42.5001 	 10.0114 	 82.8691 	 
H 	 42.687 	 9.14697 	 83.421 	 
H 	 43.2156 	 10.1538 	 82.0663 	 
H 	 42.8454 	 10.8431 	 83.4447 	 
S 	 40.6609 	 12.0569 	 75.8906 	 
C 	 39.379 	 12.9603 	 75.1926 	 
C 	 38.2327 	 12.7552 	 75.8789 	 
C 	 38.362 	 11.7925 	 76.9558 	 
C 	 39.6655 	 11.3752 	 77.1724 	 
H 	 37.3431 	 13.3602 	 75.5857 	 
C 	 37.1638 	 11.2466 	 77.7294 	 
H 	 37.4385 	 10.2091 	 78.1195 	 
H 	 36.338 	 11.0504 	 77.0721 	 
C 	 36.6289 	 12.0282 	 78.9945 	 
H 	 37.3582 	 11.9791 	 79.8137 	 
H 	 35.8009 	 11.4441 	 79.437 	 
C 	 36.0476 	 13.4469 	 78.6132 	 
H 	 36.8018 	 13.9308 	 77.9488 	 
H 	 35.9169 	 13.9835 	 79.5379 	 
H 	 35.0673 	 13.2778 	 78.1894 	 
H 	 42.2971 	 8.14161 	 79.8357 	 
H 	 39.4784 	 13.6681 	 74.4423 	 
*
