! wB97X-D3 SP def2-SVP
%pal
nprocs 16
end

* xyz 0 1
S 	 -48.3341 	 63.1021 	 142.729 	 
C 	 -46.8996 	 62.1231 	 142.524 	 
C 	 -45.8684 	 62.813 	 141.865 	 
C 	 -46.2413 	 64.1442 	 141.577 	 
C 	 -47.4782 	 64.5032 	 142.109 	 
H 	 -45.5751 	 64.932 	 141.229 	 
C 	 -44.5244 	 62.3086 	 141.485 	 
H 	 -44.2382 	 62.3302 	 140.428 	 
H 	 -44.4371 	 61.2646 	 141.77 	 
C 	 -43.4079 	 63.0351 	 142.252 	 
H 	 -43.6148 	 63.3479 	 143.307 	 
H 	 -42.6712 	 62.2197 	 142.369 	 
C 	 -42.6965 	 64.1619 	 141.426 	 
H 	 -42.5925 	 63.9181 	 140.408 	 
H 	 -43.3255 	 65.0464 	 141.363 	 
H 	 -41.6984 	 64.4652 	 141.74 	 
S 	 -49.6809 	 66.1123 	 141.953 	 
C 	 -49.568 	 67.8461 	 142.333 	 
C 	 -48.2533 	 68.2084 	 142.664 	 
C 	 -47.3135 	 67.0746 	 142.614 	 
C 	 -47.9361 	 65.862 	 142.299 	 
H 	 -48.0554 	 69.2278 	 142.953 	 
C 	 -45.8739 	 67.1617 	 143.182 	 
H 	 -45.6374 	 66.1009 	 143.316 	 
H 	 -45.8916 	 67.5722 	 144.141 	 
C 	 -44.8226 	 67.8735 	 142.353 	 
H 	 -45.0723 	 68.8797 	 142.167 	 
H 	 -44.6828 	 67.2896 	 141.402 	 
C 	 -43.4807 	 68.0543 	 143.088 	 
H 	 -42.689 	 68.47 	 142.378 	 
H 	 -43.1682 	 67.1078 	 143.415 	 
H 	 -43.449 	 68.7295 	 143.962 	 
H 	 -46.8064 	 61.0284 	 142.679 	 
H 	 -50.3991 	 68.4675 	 142.245 	 
*
