! wB97X-D3 SP def2-SVP
%pal
nprocs 16
end

* xyz 0 1
S 	 24.8159 	 6.38788 	 64.811 	 
C 	 25.8234 	 7.45996 	 63.9068 	 
C 	 26.3317 	 8.53142 	 64.6545 	 
C 	 26.0038 	 8.4288 	 66.0456 	 
C 	 25.1252 	 7.35783 	 66.2984 	 
H 	 26.2622 	 9.13218 	 66.8438 	 
C 	 27.1321 	 9.61009 	 63.8871 	 
H 	 27.5958 	 9.19314 	 63.0059 	 
H 	 27.9824 	 9.90545 	 64.5323 	 
C 	 26.3624 	 10.8321 	 63.5676 	 
H 	 25.8815 	 11.1344 	 64.4541 	 
H 	 27.061 	 11.6024 	 63.2976 	 
C 	 25.2676 	 10.6842 	 62.4825 	 
H 	 25.6775 	 10.2048 	 61.6437 	 
H 	 24.4389 	 10.1346 	 62.9072 	 
H 	 24.8793 	 11.7048 	 62.3086 	 
S 	 22.7939 	 6.87922 	 67.5066 	 
C 	 22.6517 	 6.97019 	 69.2436 	 
C 	 23.89 	 7.18894 	 69.8057 	 
C 	 24.945 	 7.27333 	 68.8525 	 
C 	 24.4643 	 7.18015 	 67.5337 	 
H 	 23.8313 	 7.13858 	 70.878 	 
C 	 26.3897 	 7.59367 	 69.2068 	 
H 	 26.4612 	 8.57218 	 69.7899 	 
H 	 26.9963 	 7.80086 	 68.316 	 
C 	 27.1266 	 6.48958 	 70.0404 	 
H 	 26.7189 	 5.50304 	 69.7164 	 
H 	 26.774 	 6.50683 	 71.0502 	 
C 	 28.7364 	 6.42935 	 69.8832 	 
H 	 29.0084 	 5.90124 	 68.9623 	 
H 	 29.2303 	 5.98845 	 70.8054 	 
H 	 29.1003 	 7.43331 	 69.7407 	 
H 	 25.9483 	 7.50037 	 62.8074 	 
H 	 21.7443 	 7.02985 	 69.7899 	 
*
