! wB97X-D3 SP def2-SVP
%pal
nprocs 16
end

* xyz 0 1
S 	 -99.3127 	 48.7841 	 118.926 	 
C 	 -100.889 	 48.3679 	 119.497 	 
C 	 -101.96 	 48.9662 	 118.88 	 
C 	 -101.51 	 49.9618 	 117.995 	 
C 	 -100.117 	 50.0689 	 118.025 	 
H 	 -102.078 	 50.6145 	 117.401 	 
C 	 -103.419 	 48.6342 	 119.148 	 
H 	 -103.962 	 49.477 	 119.5 	 
H 	 -103.58 	 47.9852 	 120.007 	 
C 	 -104.02 	 47.9859 	 117.868 	 
H 	 -103.801 	 48.4956 	 116.954 	 
H 	 -103.588 	 46.9589 	 117.787 	 
C 	 -105.509 	 47.8081 	 118.039 	 
H 	 -105.869 	 47.6601 	 117.064 	 
H 	 -105.764 	 46.9428 	 118.715 	 
H 	 -105.956 	 48.7374 	 118.405 	 
S 	 -98.1288 	 49.9858 	 116.152 	 
C 	 -97.642 	 51.3689 	 115.322 	 
C 	 -98.4297 	 52.4562 	 115.582 	 
C 	 -99.4199 	 52.2454 	 116.637 	 
C 	 -99.3287 	 50.9415 	 117.088 	 
H 	 -98.3537 	 53.2724 	 114.937 	 
C 	 -100.473 	 53.2033 	 117.111 	 
H 	 -100.048 	 54.1844 	 117.25 	 
H 	 -100.779 	 52.902 	 118.115 	 
C 	 -101.717 	 53.324 	 116.216 	 
H 	 -102.334 	 54.0392 	 116.72 	 
H 	 -102.286 	 52.4236 	 116.357 	 
C 	 -101.482 	 53.6125 	 114.742 	 
H 	 -100.873 	 52.8828 	 114.263 	 
H 	 -101.028 	 54.5483 	 114.464 	 
H 	 -102.485 	 53.5303 	 114.225 	 
H 	 -101.003 	 47.498 	 120.099 	 
H 	 -96.9166 	 51.3399 	 114.545 	 
*
