! wB97X-D3 SP def2-SVP
%pal
nprocs 16
end

* xyz 0 1
S 	 -73.9255 	 57.0068 	 121.57 	 
C 	 -73.8694 	 58.8344 	 121.396 	 
C 	 -74.3577 	 59.4478 	 122.577 	 
C 	 -74.8647 	 58.5503 	 123.516 	 
C 	 -74.5478 	 57.2583 	 123.246 	 
H 	 -75.1197 	 58.8467 	 124.459 	 
C 	 -74.5089 	 60.9433 	 122.724 	 
H 	 -73.5385 	 61.3457 	 122.488 	 
H 	 -74.6677 	 61.2162 	 123.732 	 
C 	 -75.4677 	 61.5288 	 121.701 	 
H 	 -74.9637 	 61.3306 	 120.699 	 
H 	 -76.3791 	 61.0816 	 121.824 	 
C 	 -75.6096 	 63.076 	 121.779 	 
H 	 -74.6621 	 63.6122 	 121.822 	 
H 	 -76.1856 	 63.5408 	 120.982 	 
H 	 -75.9685 	 63.43 	 122.725 	 
S 	 -76.0006 	 55.8223 	 124.976 	 
C 	 -75.2716 	 54.4929 	 125.936 	 
C 	 -73.936 	 54.2657 	 125.532 	 
C 	 -73.5197 	 55.1698 	 124.517 	 
C 	 -74.4894 	 56.1224 	 124.184 	 
H 	 -73.321 	 53.3783 	 125.843 	 
C 	 -72.0822 	 55.1747 	 124.071 	 
H 	 -71.5611 	 55.1675 	 125.016 	 
H 	 -71.8691 	 56.1206 	 123.545 	 
C 	 -71.5589 	 53.9454 	 123.282 	 
H 	 -72.1068 	 53.8912 	 122.365 	 
H 	 -71.5534 	 53.1052 	 123.913 	 
C 	 -70.0833 	 54.1758 	 122.973 	 
H 	 -70.0391 	 54.9788 	 122.227 	 
H 	 -69.7068 	 53.2848 	 122.481 	 
H 	 -69.4681 	 54.4043 	 123.857 	 
H 	 -73.4129 	 59.2745 	 120.537 	 
H 	 -75.7573 	 54.0194 	 126.823 	 
*
