! wB97X-D3 SP def2-SVP
%pal
nprocs 16
end

* xyz 0 1
S 	 -17.0186 	 31.625 	 39.6625 	 
C 	 -17.1418 	 33.1684 	 40.4687 	 
C 	 -17.8342 	 34.1287 	 39.6687 	 
C 	 -18.3043 	 33.5439 	 38.4527 	 
C 	 -17.9391 	 32.2249 	 38.2231 	 
H 	 -18.9295 	 33.9278 	 37.7652 	 
C 	 -18.128 	 35.5952 	 39.9558 	 
H 	 -17.7112 	 36.2363 	 39.1961 	 
H 	 -17.6546 	 35.8315 	 40.9649 	 
C 	 -19.643 	 35.834 	 40.2595 	 
H 	 -20.2509 	 35.5165 	 39.4009 	 
H 	 -19.9524 	 35.1836 	 41.0213 	 
C 	 -19.9549 	 37.287 	 40.6778 	 
H 	 -21.0129 	 37.2282 	 40.983 	 
H 	 -19.2788 	 37.6136 	 41.436 	 
H 	 -19.9158 	 37.9613 	 39.8254 	 
S 	 -19.1584 	 29.829 	 37.7012 	 
C 	 -19.1303 	 29.2267 	 36.0038 	 
C 	 -18.3659 	 30.1198 	 35.2464 	 
C 	 -17.9893 	 31.3224 	 35.8762 	 
C 	 -18.269 	 31.3374 	 37.1783 	 
H 	 -18.1246 	 29.9314 	 34.1836 	 
C 	 -17.2754 	 32.4333 	 35.1768 	 
H 	 -16.4994 	 31.9579 	 34.5955 	 
H 	 -16.7938 	 33.0482 	 35.8807 	 
C 	 -18.1648 	 33.1962 	 34.1862 	 
H 	 -18.5012 	 32.483 	 33.4936 	 
H 	 -17.6373 	 33.971 	 33.6262 	 
C 	 -19.3248 	 33.8963 	 34.8419 	 
H 	 -19.0505 	 34.8478 	 35.3133 	 
H 	 -19.8737 	 33.1965 	 35.5668 	 
H 	 -20.0025 	 34.1786 	 34.0696 	 
H 	 -16.5629 	 33.4599 	 41.3211 	 
H 	 -19.4963 	 28.2189 	 35.7245 	 
*
