! wB97X-D3 SP def2-SVP
%pal
nprocs 16
end

* xyz 0 1
S 	 58.1745 	 16.9403 	 55.9731 	 
C 	 57.0197 	 18.135 	 56.3643 	 
C 	 55.9948 	 18.1419 	 55.4003 	 
C 	 55.9889 	 16.9647 	 54.6093 	 
C 	 57.0857 	 16.1351 	 54.8738 	 
H 	 55.2461 	 16.7195 	 53.9007 	 
C 	 54.8898 	 19.1009 	 55.3921 	 
H 	 54.401 	 19.0696 	 54.4373 	 
H 	 55.1938 	 20.1334 	 55.5435 	 
C 	 53.7382 	 18.8096 	 56.3528 	 
H 	 53.2746 	 17.8232 	 56.2501 	 
H 	 54.1985 	 18.7267 	 57.3915 	 
C 	 52.5923 	 19.8412 	 56.4832 	 
H 	 51.9654 	 19.6675 	 57.3919 	 
H 	 52.9601 	 20.8337 	 56.5333 	 
H 	 52.1385 	 19.7228 	 55.4686 	 
S 	 57.4615 	 13.4437 	 55.4314 	 
C 	 57.3906 	 12.306 	 54.1586 	 
C 	 57.0849 	 12.9015 	 52.9149 	 
C 	 57.0669 	 14.3067 	 53.0432 	 
C 	 57.2262 	 14.7607 	 54.3243 	 
H 	 57.008 	 12.3839 	 51.9336 	 
C 	 56.8805 	 15.1232 	 51.7485 	 
H 	 57.6793 	 14.9155 	 51.0137 	 
H 	 57.0488 	 16.1666 	 51.9104 	 
C 	 55.4714 	 15.0271 	 51.238 	 
H 	 54.7806 	 15.4383 	 51.9735 	 
H 	 55.2835 	 13.9564 	 50.9695 	 
C 	 55.3155 	 15.8359 	 49.9311 	 
H 	 55.9135 	 15.5169 	 49.05 	 
H 	 55.4058 	 16.9164 	 49.9416 	 
H 	 54.2516 	 15.7224 	 49.6769 	 
H 	 57.0962 	 18.8776 	 57.1866 	 
H 	 57.4828 	 11.2522 	 54.2786 	 
*
