! wB97X-D3 SP def2-SVP
%pal
nprocs 16
end

* xyz 0 1
S 	 0.586242 	 -6.87427 	 77.0712 	 
C 	 -0.147375 	 -6.32888 	 78.4909 	 
C 	 0.497464 	 -5.1975 	 79.0268 	 
C 	 1.44748 	 -4.63791 	 78.0894 	 
C 	 1.62839 	 -5.50827 	 77.0112 	 
H 	 2.01017 	 -3.75016 	 78.1952 	 
C 	 0.343442 	 -4.55833 	 80.3803 	 
H 	 -0.719607 	 -4.6318 	 80.5431 	 
H 	 0.559026 	 -3.47313 	 80.4073 	 
C 	 0.980547 	 -5.30601 	 81.5409 	 
H 	 0.603213 	 -5.03716 	 82.5071 	 
H 	 0.758653 	 -6.38719 	 81.5002 	 
C 	 2.4875 	 -5.14929 	 81.7368 	 
H 	 2.95084 	 -5.71405 	 82.5716 	 
H 	 2.93851 	 -5.40039 	 80.7766 	 
H 	 2.57323 	 -4.07244 	 81.8597 	 
S 	 3.69051 	 -6.89401 	 75.9215 	 
C 	 4.57756 	 -5.98254 	 74.6241 	 
C 	 4.30125 	 -4.60378 	 74.5611 	 
C 	 3.12984 	 -4.35001 	 75.2689 	 
C 	 2.64816 	 -5.46683 	 76.0291 	 
H 	 4.81574 	 -3.95236 	 73.8074 	 
C 	 2.38149 	 -2.94689 	 75.2786 	 
H 	 2.08506 	 -2.73241 	 76.3536 	 
H 	 1.46363 	 -3.04562 	 74.7865 	 
C 	 3.04199 	 -1.6701 	 74.7262 	 
H 	 3.29312 	 -1.85354 	 73.6435 	 
H 	 3.98578 	 -1.57188 	 75.3003 	 
C 	 2.00399 	 -0.520076 	 74.7937 	 
H 	 1.70714 	 -0.192625 	 75.842 	 
H 	 1.02857 	 -0.670818 	 74.2349 	 
H 	 2.43082 	 0.388378 	 74.404 	 
H 	 -1.02609 	 -6.81405 	 78.9736 	 
H 	 5.45432 	 -6.32062 	 74.1344 	 
*
