! wB97X-D3 SP def2-SVP
%pal
nprocs 16
end

* xyz 0 1
S 	 -62.6993 	 51.6591 	 128.036 	 
C 	 -63.6522 	 50.222 	 127.732 	 
C 	 -62.9167 	 49.2825 	 127.085 	 
C 	 -61.5825 	 49.6435 	 126.836 	 
C 	 -61.2631 	 50.8686 	 127.35 	 
H 	 -60.8198 	 49.0533 	 126.301 	 
C 	 -63.4275 	 47.9808 	 126.688 	 
H 	 -63.1904 	 47.9128 	 125.652 	 
H 	 -64.5047 	 47.9889 	 126.73 	 
C 	 -62.8979 	 46.8322 	 127.508 	 
H 	 -61.8077 	 46.8898 	 127.646 	 
H 	 -63.331 	 46.8664 	 128.532 	 
C 	 -63.1861 	 45.4402 	 126.874 	 
H 	 -62.5474 	 45.3611 	 126.003 	 
H 	 -62.7472 	 44.6783 	 127.516 	 
H 	 -64.1963 	 45.2719 	 126.593 	 
S 	 -59.7172 	 52.8417 	 126.217 	 
C 	 -57.9421 	 52.7391 	 126.48 	 
C 	 -57.6451 	 51.7617 	 127.431 	 
C 	 -58.7559 	 51.121 	 127.915 	 
C 	 -59.9519 	 51.4755 	 127.313 	 
H 	 -56.6709 	 51.5821 	 127.622 	 
C 	 -58.6313 	 50.147 	 129.072 	 
H 	 -57.6985 	 49.6461 	 129.284 	 
H 	 -59.2843 	 49.2575 	 129 	 
C 	 -58.8776 	 50.8485 	 130.36 	 
H 	 -58.7827 	 50.1006 	 131.142 	 
H 	 -59.9222 	 51.1864 	 130.27 	 
C 	 -58.0632 	 52.0768 	 130.829 	 
H 	 -57.9134 	 52.6696 	 129.934 	 
H 	 -57.0963 	 51.6783 	 131.153 	 
H 	 -58.6265 	 52.6716 	 131.58 	 
H 	 -64.7183 	 50.0103 	 127.914 	 
H 	 -57.2833 	 53.3797 	 125.862 	 
*
