! wB97X-D3 SP def2-SVP
%pal
nprocs 16
end

* xyz 0 1
S 	 -118.474 	 47.3489 	 130.639 	 
C 	 -118.302 	 47.6072 	 132.339 	 
C 	 -117.926 	 46.4387 	 132.957 	 
C 	 -117.759 	 45.3276 	 132.095 	 
C 	 -117.807 	 45.6863 	 130.764 	 
H 	 -117.624 	 44.3301 	 132.474 	 
C 	 -117.832 	 46.3722 	 134.45 	 
H 	 -117.19 	 47.2281 	 134.75 	 
H 	 -117.262 	 45.5127 	 134.786 	 
C 	 -119.097 	 46.512 	 135.345 	 
H 	 -118.912 	 46.3721 	 136.442 	 
H 	 -119.582 	 47.5037 	 135.125 	 
C 	 -120.164 	 45.4806 	 134.966 	 
H 	 -121.1 	 45.6032 	 135.51 	 
H 	 -120.489 	 45.4427 	 133.941 	 
H 	 -119.798 	 44.4818 	 135.191 	 
S 	 -119.4 	 44.8295 	 128.713 	 
C 	 -118.928 	 43.2884 	 127.965 	 
C 	 -117.666 	 42.7996 	 128.205 	 
C 	 -117.061 	 43.7334 	 129.155 	 
C 	 -117.942 	 44.7936 	 129.611 	 
H 	 -117.301 	 41.9131 	 127.707 	 
C 	 -115.657 	 43.4851 	 129.605 	 
H 	 -115.454 	 42.4474 	 129.477 	 
H 	 -115.502 	 43.7202 	 130.677 	 
C 	 -114.622 	 44.0887 	 128.731 	 
H 	 -114.972 	 44.1628 	 127.718 	 
H 	 -113.855 	 43.363 	 128.511 	 
C 	 -114.19 	 45.4541 	 129.078 	 
H 	 -113.442 	 45.8051 	 128.41 	 
H 	 -113.817 	 45.5071 	 130.062 	 
H 	 -115.027 	 46.1517 	 129.018 	 
H 	 -118.55 	 48.5206 	 132.866 	 
H 	 -119.523 	 42.7277 	 127.305 	 
*
