! wB97X-D3 SP def2-SVP
%pal
nprocs 16
end

* xyz 0 1
S 	 -38.868 	 63.2145 	 110.471 	 
C 	 -37.8773 	 62.2985 	 111.617 	 
C 	 -36.6498 	 62.0322 	 111.145 	 
C 	 -36.5012 	 62.4335 	 109.756 	 
C 	 -37.6436 	 63.0043 	 109.194 	 
H 	 -35.6602 	 62.2744 	 109.088 	 
C 	 -35.6007 	 61.1839 	 111.87 	 
H 	 -35.1264 	 60.5186 	 111.118 	 
H 	 -36.1692 	 60.79 	 112.771 	 
C 	 -34.5461 	 62.0778 	 112.526 	 
H 	 -34.8762 	 63.107 	 112.597 	 
H 	 -34.4179 	 61.6651 	 113.516 	 
C 	 -33.1203 	 62.0722 	 111.853 	 
H 	 -32.4528 	 62.9253 	 112.053 	 
H 	 -32.5652 	 61.1757 	 112.091 	 
H 	 -33.3405 	 61.9411 	 110.751 	 
S 	 -36.6548 	 63.898 	 106.779 	 
C 	 -37.657 	 63.7545 	 105.399 	 
C 	 -38.8844 	 63.2134 	 105.616 	 
C 	 -39.0818 	 62.8481 	 106.964 	 
C 	 -37.9375 	 63.1719 	 107.761 	 
H 	 -39.6398 	 63.1302 	 104.855 	 
C 	 -40.2708 	 62.0595 	 107.394 	 
H 	 -39.9954 	 61.3711 	 108.158 	 
H 	 -40.5514 	 61.4711 	 106.552 	 
C 	 -41.4473 	 62.9863 	 107.685 	 
H 	 -41.1859 	 63.6566 	 108.549 	 
H 	 -42.2219 	 62.5155 	 108.248 	 
C 	 -41.9925 	 63.6623 	 106.53 	 
H 	 -42.6631 	 63.0256 	 105.931 	 
H 	 -41.2591 	 64.0916 	 105.858 	 
H 	 -42.6796 	 64.5399 	 106.808 	 
H 	 -38.2678 	 62.0307 	 112.572 	 
H 	 -37.3449 	 64.0803 	 104.427 	 
*
