! wB97X-D3 SP def2-SVP
%pal
nprocs 16
end

* xyz 0 1
S 	 -41.1895 	 34.2945 	 86.5167 	 
C 	 -42.801 	 34.8742 	 86.5835 	 
C 	 -43.6965 	 34.0856 	 85.8874 	 
C 	 -43.0472 	 32.9783 	 85.3283 	 
C 	 -41.6817 	 32.8549 	 85.5957 	 
H 	 -43.6016 	 32.2482 	 84.7613 	 
C 	 -45.1485 	 34.3786 	 85.8203 	 
H 	 -45.4966 	 34.0875 	 86.8464 	 
H 	 -45.5112 	 33.5395 	 85.1936 	 
C 	 -45.5838 	 35.8166 	 85.3977 	 
H 	 -45.9842 	 36.3877 	 86.2322 	 
H 	 -44.7202 	 36.464 	 85.1159 	 
C 	 -46.6057 	 35.7161 	 84.2879 	 
H 	 -46.2221 	 35.2487 	 83.4072 	 
H 	 -47.3689 	 35.0844 	 84.6773 	 
H 	 -46.958 	 36.7164 	 83.9653 	 
S 	 -39.4407 	 32.27 	 84.1281 	 
C 	 -38.9167 	 30.5845 	 84.0104 	 
C 	 -39.861 	 29.7222 	 84.592 	 
C 	 -40.9701 	 30.3773 	 85.16 	 
C 	 -40.8104 	 31.7776 	 85.1907 	 
H 	 -39.6897 	 28.6175 	 84.4025 	 
C 	 -42.0115 	 29.5258 	 85.8997 	 
H 	 -42.7411 	 30.2558 	 86.2792 	 
H 	 -41.4921 	 29.1666 	 86.7839 	 
C 	 -42.6837 	 28.2564 	 85.1556 	 
H 	 -43.4144 	 27.8519 	 85.9231 	 
H 	 -42.0115 	 27.3759 	 85.0053 	 
C 	 -43.3115 	 28.5577 	 83.837 	 
H 	 -43.0305 	 29.5177 	 83.4021 	 
H 	 -44.4404 	 28.5848 	 84.0234 	 
H 	 -42.9875 	 27.8387 	 83.1315 	 
H 	 -43.0136 	 35.7551 	 87.1727 	 
H 	 -38.0451 	 30.2729 	 83.3828 	 
*
