! wB97X-D3 SP def2-SVP
%pal
nprocs 16
end

* xyz 0 1
S 	 5.47141 	 -10.992 	 76.4885 	 
C 	 3.79383 	 -10.9545 	 77.1086 	 
C 	 3.00003 	 -11.6219 	 76.175 	 
C 	 3.78024 	 -12.3028 	 75.121 	 
C 	 5.13333 	 -12.0544 	 75.172 	 
H 	 3.42146 	 -13.0251 	 74.2955 	 
C 	 1.51882 	 -11.7149 	 76.189 	 
H 	 1.16643 	 -11.1086 	 75.4153 	 
H 	 1.16807 	 -11.2358 	 77.1023 	 
C 	 0.829537 	 -13.1002 	 76.1159 	 
H 	 1.01479 	 -13.4543 	 75.0806 	 
H 	 1.32438 	 -13.7827 	 76.836 	 
C 	 -0.701044 	 -13.1656 	 76.2483 	 
H 	 -1.17118 	 -14.1132 	 76.0498 	 
H 	 -0.993814 	 -12.9076 	 77.2375 	 
H 	 -1.10351 	 -12.4789 	 75.5288 	 
S 	 6.9439 	 -10.8097 	 73.4233 	 
C 	 7.54303 	 -11.7868 	 72.109 	 
C 	 7.51783 	 -13.1262 	 72.5095 	 
C 	 6.55549 	 -13.4032 	 73.5624 	 
C 	 6.16066 	 -12.2449 	 74.144 	 
H 	 7.89904 	 -13.8659 	 71.8498 	 
C 	 6.15434 	 -14.8301 	 73.7718 	 
H 	 5.44279 	 -15.1069 	 73.0205 	 
H 	 5.59618 	 -14.8471 	 74.7311 	 
C 	 7.16326 	 -15.9917 	 73.9057 	 
H 	 7.90456 	 -15.4706 	 74.5286 	 
H 	 7.64213 	 -16.2557 	 72.9623 	 
C 	 6.6541 	 -17.3408 	 74.5307 	 
H 	 5.92544 	 -17.185 	 75.2775 	 
H 	 7.48398 	 -17.8651 	 74.8948 	 
H 	 6.34712 	 -17.9408 	 73.6901 	 
H 	 3.2913 	 -10.406 	 77.9531 	 
H 	 7.93369 	 -11.4273 	 71.2246 	 
*
