! wB97X-D3 SP def2-SVP
%pal
nprocs 16
end

* xyz 0 1
S 	 54.1125 	 18.8064 	 80.3854 	 
C 	 55.2958 	 18.9431 	 81.5929 	 
C 	 54.723 	 19.5894 	 82.7032 	 
C 	 53.4825 	 20.1745 	 82.4408 	 
C 	 53.0141 	 19.9938 	 81.1703 	 
H 	 52.9457 	 20.7954 	 83.1394 	 
C 	 55.4388 	 19.8726 	 83.995 	 
H 	 54.7547 	 20.3375 	 84.7256 	 
H 	 56.2949 	 20.5713 	 83.8503 	 
C 	 56.0004 	 18.6019 	 84.6845 	 
H 	 56.257 	 18.9348 	 85.7347 	 
H 	 55.1809 	 17.8875 	 84.8929 	 
C 	 57.2779 	 18.0172 	 84.1704 	 
H 	 57.0324 	 17.1178 	 83.6293 	 
H 	 57.8579 	 18.673 	 83.472 	 
H 	 57.8632 	 17.7175 	 85.0406 	 
S 	 50.9022 	 19.0132 	 79.7618 	 
C 	 49.7545 	 20.1372 	 79.0548 	 
C 	 49.9406 	 21.4415 	 79.4292 	 
C 	 51.0094 	 21.5688 	 80.3523 	 
C 	 51.7373 	 20.3697 	 80.5535 	 
H 	 49.3361 	 22.2716 	 79.0845 	 
C 	 51.4176 	 22.8436 	 80.9928 	 
H 	 52.4012 	 22.8212 	 81.4526 	 
H 	 50.6511 	 22.9708 	 81.6865 	 
C 	 51.4109 	 24.0778 	 80.1062 	 
H 	 50.3656 	 24.4552 	 80.1031 	 
H 	 51.5273 	 23.7895 	 79.0586 	 
C 	 52.3985 	 25.2466 	 80.4175 	 
H 	 52.1948 	 25.6744 	 81.4088 	 
H 	 52.3012 	 26.0593 	 79.678 	 
H 	 53.4451 	 24.9012 	 80.4161 	 
H 	 56.2177 	 18.4819 	 81.5429 	 
H 	 49.0242 	 19.8253 	 78.3864 	 
*
