! wB97X-D3 SP def2-SVP
%pal
nprocs 16
end

* xyz 0 1
S 	 -40.6013 	 26.2356 	 77.1912 	 
C 	 -40.4447 	 27.6281 	 78.2747 	 
C 	 -40.6722 	 27.2847 	 79.5817 	 
C 	 -41.0484 	 25.9091 	 79.6529 	 
C 	 -41.0647 	 25.1483 	 78.479 	 
H 	 -41.3562 	 25.4436 	 80.5666 	 
C 	 -40.8641 	 28.1624 	 80.8065 	 
H 	 -40.2103 	 29.01 	 80.5237 	 
H 	 -40.5053 	 27.605 	 81.6677 	 
C 	 -42.3429 	 28.4388 	 81.1897 	 
H 	 -42.6869 	 29.0907 	 80.3253 	 
H 	 -42.9653 	 27.5424 	 81.2229 	 
C 	 -42.5126 	 29.2507 	 82.4647 	 
H 	 -42.0071 	 30.2034 	 82.4132 	 
H 	 -43.5465 	 29.5192 	 82.6259 	 
H 	 -42.116 	 28.6849 	 83.3295 	 
S 	 -42.6747 	 23.4387 	 77.0901 	 
C 	 -42.4017 	 21.7183 	 77.2158 	 
C 	 -41.4987 	 21.4501 	 78.212 	 
C 	 -40.918 	 22.6054 	 78.7943 	 
C 	 -41.3727 	 23.7468 	 78.1788 	 
H 	 -41.306 	 20.3954 	 78.4589 	 
C 	 -39.776 	 22.6036 	 79.8203 	 
H 	 -39.7943 	 21.6272 	 80.3 	 
H 	 -39.914 	 23.3035 	 80.5983 	 
C 	 -38.4102 	 22.8937 	 79.1191 	 
H 	 -38.4 	 23.8721 	 78.6862 	 
H 	 -38.4304 	 22.2684 	 78.2127 	 
C 	 -37.1636 	 22.5433 	 79.9825 	 
H 	 -37.0936 	 23.0177 	 81.0085 	 
H 	 -36.2349 	 22.6885 	 79.4447 	 
H 	 -37.1384 	 21.4875 	 80.0648 	 
H 	 -40.1756 	 28.6403 	 77.893 	 
H 	 -43.1047 	 21.0486 	 76.7133 	 
*
