! wB97X-D3 SP def2-SVP
%pal
nprocs 16
end

* xyz 0 1
S 	 0.435997 	 8.73288 	 79.3359 	 
C 	 0.260114 	 7.71969 	 77.9164 	 
C 	 -1.00262 	 7.54303 	 77.5104 	 
C 	 -1.84802 	 8.14682 	 78.4634 	 
C 	 -1.31082 	 8.88021 	 79.4841 	 
H 	 -2.88688 	 8.14733 	 78.4343 	 
C 	 -1.4594 	 6.79055 	 76.2965 	 
H 	 -0.73479 	 7.08543 	 75.4703 	 
H 	 -2.38018 	 7.19403 	 75.9763 	 
C 	 -1.57572 	 5.31026 	 76.5218 	 
H 	 -0.617096 	 5.01064 	 76.9188 	 
H 	 -2.31985 	 5.15125 	 77.3378 	 
C 	 -1.87653 	 4.61675 	 75.2488 	 
H 	 -2.84143 	 4.97977 	 74.8533 	 
H 	 -1.12323 	 4.88232 	 74.6104 	 
H 	 -1.99165 	 3.58682 	 75.3232 	 
S 	 -1.30676 	 10.5724 	 81.6257 	 
C 	 -2.67954 	 10.6984 	 82.6593 	 
C 	 -3.56388 	 9.70975 	 82.3558 	 
C 	 -3.23264 	 8.87463 	 81.2678 	 
C 	 -2.06264 	 9.33234 	 80.657 	 
H 	 -4.50328 	 9.72936 	 82.8542 	 
C 	 -4.01404 	 7.60079 	 80.9531 	 
H 	 -4.37295 	 7.18535 	 81.8097 	 
H 	 -3.21183 	 7.03002 	 80.6247 	 
C 	 -5.24087 	 7.72217 	 79.9996 	 
H 	 -5.65902 	 6.67328 	 79.9497 	 
H 	 -4.89335 	 7.88534 	 78.9843 	 
C 	 -6.30971 	 8.79156 	 80.4086 	 
H 	 -6.63893 	 8.65252 	 81.4755 	 
H 	 -7.22968 	 8.74672 	 79.7753 	 
H 	 -5.8559 	 9.83321 	 80.3046 	 
H 	 1.13752 	 7.37144 	 77.4548 	 
H 	 -2.69848 	 11.4191 	 83.4797 	 
*
