! wB97X-D3 SP def2-SVP
%pal
nprocs 16
end

* xyz 0 1
S 	 45.2071 	 18.4246 	 46.8167 	 
C 	 44.6134 	 16.8279 	 46.9664 	 
C 	 44.1418 	 16.2157 	 45.8003 	 
C 	 44.2606 	 17.1329 	 44.75 	 
C 	 44.739 	 18.4036 	 45.1043 	 
H 	 44.1219 	 16.8989 	 43.6982 	 
C 	 43.6802 	 14.7859 	 45.6966 	 
H 	 43.2313 	 14.6234 	 44.7436 	 
H 	 42.8112 	 14.6663 	 46.4383 	 
C 	 44.6945 	 13.6413 	 46.0226 	 
H 	 45.0517 	 13.9198 	 47.0082 	 
H 	 44.3367 	 12.6555 	 46.0298 	 
C 	 45.9488 	 13.7863 	 45.1811 	 
H 	 45.5274 	 13.8569 	 44.142 	 
H 	 46.4779 	 14.7572 	 45.3288 	 
H 	 46.5987 	 12.9044 	 45.2359 	 
S 	 46.783 	 19.6442 	 43.8055 	 
C 	 46.4553 	 21.0135 	 42.8119 	 
C 	 45.0914 	 21.2505 	 42.6273 	 
C 	 44.3126 	 20.3787 	 43.4835 	 
C 	 45.0861 	 19.4586 	 44.2058 	 
H 	 44.8422 	 22.0011 	 41.8559 	 
C 	 42.8163 	 20.4419 	 43.4448 	 
H 	 42.3169 	 21.4151 	 43.6746 	 
H 	 42.4299 	 19.7403 	 44.1989 	 
C 	 42.2646 	 20.0877 	 42.0796 	 
H 	 42.7789 	 20.6347 	 41.2998 	 
H 	 41.1616 	 20.1863 	 42.1129 	 
C 	 42.4979 	 18.5738 	 41.7542 	 
H 	 43.5763 	 18.3486 	 41.5442 	 
H 	 41.8561 	 18.2553 	 40.9862 	 
H 	 42.157 	 18.0052 	 42.6309 	 
H 	 44.5433 	 16.1929 	 47.8303 	 
H 	 47.1385 	 21.3473 	 42.0432 	 
*
