! wB97X-D3 SP def2-SVP
%pal
nprocs 16
end

* xyz 0 1
S 	 41.7243 	 12.9636 	 88.5323 	 
C 	 43.2372 	 13.789 	 88.2294 	 
C 	 44.1909 	 12.9016 	 87.6969 	 
C 	 43.6947 	 11.6132 	 87.7181 	 
C 	 42.479 	 11.4397 	 88.3404 	 
H 	 44.0559 	 10.7009 	 87.3181 	 
C 	 45.5931 	 13.2771 	 87.158 	 
H 	 46.5619 	 12.9079 	 87.7837 	 
H 	 45.6307 	 14.4182 	 87.2352 	 
C 	 45.6792 	 12.9045 	 85.6574 	 
H 	 46.6673 	 13.3076 	 85.309 	 
H 	 45.6687 	 11.8456 	 85.6263 	 
C 	 44.5888 	 13.5636 	 84.7823 	 
H 	 43.6107 	 13.2178 	 85.0256 	 
H 	 44.643 	 14.6805 	 84.8597 	 
H 	 44.8632 	 13.267 	 83.7608 	 
S 	 40.0972 	 10.223 	 87.9382 	 
C 	 40.1524 	 8.52621 	 87.8853 	 
C 	 41.2199 	 7.90583 	 88.5413 	 
C 	 42.1995 	 8.9108 	 88.8202 	 
C 	 41.7816 	 10.19 	 88.4513 	 
H 	 41.3193 	 6.91263 	 88.5659 	 
C 	 43.583 	 8.50256 	 89.3091 	 
H 	 43.3875 	 7.90285 	 90.1958 	 
H 	 44.1747 	 9.33997 	 89.6869 	 
C 	 44.4555 	 7.81201 	 88.2661 	 
H 	 44.5618 	 8.48271 	 87.4318 	 
H 	 43.9574 	 6.90976 	 87.9405 	 
C 	 45.7476 	 7.49748 	 88.8614 	 
H 	 46.2723 	 8.33754 	 89.3805 	 
H 	 46.4563 	 7.21729 	 88.0711 	 
H 	 45.7539 	 6.6259 	 89.5892 	 
H 	 43.4617 	 14.858 	 88.2628 	 
H 	 39.2834 	 7.86871 	 87.5551 	 
*
