! wB97X-D3 SP def2-SVP
%pal
nprocs 16
end

* xyz 0 1
S 	 -64.6169 	 57.3968 	 127.5 	 
C 	 -65.8546 	 56.839 	 128.538 	 
C 	 -65.5547 	 55.6305 	 129.111 	 
C 	 -64.326 	 55.1001 	 128.629 	 
C 	 -63.6437 	 56.017 	 127.863 	 
H 	 -63.8346 	 54.2107 	 128.966 	 
C 	 -66.23 	 54.9089 	 130.195 	 
H 	 -66.8542 	 55.5185 	 130.802 	 
H 	 -65.4926 	 54.7843 	 130.961 	 
C 	 -66.8597 	 53.5243 	 129.796 	 
H 	 -67.8395 	 53.6113 	 129.272 	 
H 	 -66.1919 	 52.9759 	 129.107 	 
C 	 -66.9267 	 52.7175 	 131.043 	 
H 	 -67.5666 	 53.0363 	 131.899 	 
H 	 -67.2555 	 51.7393 	 130.74 	 
H 	 -65.9678 	 52.5702 	 131.533 	 
S 	 -61.0077 	 55.7198 	 128.647 	 
C 	 -59.7247 	 55.7309 	 127.418 	 
C 	 -60.2748 	 55.6272 	 126.172 	 
C 	 -61.7479 	 55.77 	 126.153 	 
C 	 -62.2811 	 55.8328 	 127.462 	 
H 	 -59.6445 	 55.5879 	 125.268 	 
C 	 -62.4785 	 55.8218 	 124.795 	 
H 	 -62.5136 	 56.882 	 124.614 	 
H 	 -63.5085 	 55.4648 	 125.059 	 
C 	 -61.9462 	 54.9633 	 123.618 	 
H 	 -62.0317 	 53.9516 	 123.895 	 
H 	 -60.9073 	 55.2284 	 123.61 	 
C 	 -62.5857 	 55.2475 	 122.185 	 
H 	 -62.0493 	 54.7728 	 121.348 	 
H 	 -62.5882 	 56.3093 	 121.939 	 
H 	 -63.6007 	 54.9482 	 122.19 	 
H 	 -66.7881 	 57.3549 	 128.85 	 
H 	 -58.66 	 55.6401 	 127.672 	 
*
