! wB97X-D3 SP def2-SVP
%pal
nprocs 16
end

* xyz 0 1
S 	 -48.351 	 35.2436 	 95.3746 	 
C 	 -48.5246 	 33.9934 	 94.1168 	 
C 	 -49.7777 	 34.2007 	 93.4385 	 
C 	 -50.5236 	 35.2676 	 93.9313 	 
C 	 -49.8987 	 35.9367 	 95.0003 	 
H 	 -51.5025 	 35.6759 	 93.6952 	 
C 	 -50.2041 	 33.581 	 92.1253 	 
H 	 -49.4598 	 33.8326 	 91.3098 	 
H 	 -51.1481 	 34.1541 	 91.8691 	 
C 	 -50.5668 	 32.0723 	 92.2792 	 
H 	 -50.7595 	 31.6328 	 91.3586 	 
H 	 -49.7266 	 31.5501 	 92.7098 	 
C 	 -51.7732 	 31.9532 	 93.234 	 
H 	 -51.4739 	 32.1387 	 94.2946 	 
H 	 -52.577 	 32.6429 	 92.9218 	 
H 	 -52.1192 	 30.9176 	 93.2615 	 
S 	 -49.3698 	 38.6337 	 95.4653 	 
C 	 -50.4704 	 39.5731 	 96.4664 	 
C 	 -51.5393 	 38.835 	 96.8276 	 
C 	 -51.5453 	 37.4571 	 96.3635 	 
C 	 -50.3598 	 37.1682 	 95.6789 	 
H 	 -52.3067 	 39.2933 	 97.3735 	 
C 	 -52.6217 	 36.3903 	 96.7528 	 
H 	 -52.7523 	 36.522 	 97.8081 	 
H 	 -52.4824 	 35.3972 	 96.5757 	 
C 	 -53.9612 	 36.8659 	 96.2131 	 
H 	 -54.159 	 37.911 	 96.5226 	 
H 	 -54.776 	 36.1605 	 96.5156 	 
C 	 -54.1883 	 36.7064 	 94.6874 	 
H 	 -53.6047 	 37.3733 	 94.085 	 
H 	 -55.2737 	 36.9332 	 94.4804 	 
H 	 -54.0993 	 35.6905 	 94.3211 	 
H 	 -47.8371 	 33.204 	 93.9226 	 
H 	 -50.4248 	 40.6475 	 96.5214 	 
*
