! wB97X-D3 SP def2-SVP
%pal
nprocs 16
end

* xyz 0 1
S 	 48.6973 	 11.4535 	 85.5727 	 
C 	 47.4644 	 12.519 	 84.7414 	 
C 	 48.113 	 13.3059 	 83.8198 	 
C 	 49.5289 	 13.086 	 83.7185 	 
C 	 49.9099 	 12.016 	 84.4437 	 
H 	 50.1691 	 13.6657 	 83.0772 	 
C 	 47.4134 	 14.3234 	 82.8658 	 
H 	 46.35 	 14.1943 	 83.0547 	 
H 	 47.4862 	 14.1403 	 81.8514 	 
C 	 47.795 	 15.8248 	 83.1494 	 
H 	 48.7792 	 15.9788 	 82.5928 	 
H 	 47.0041 	 16.4623 	 82.6619 	 
C 	 47.7971 	 16.2858 	 84.588 	 
H 	 47.7754 	 17.3583 	 84.6211 	 
H 	 46.8215 	 16.1659 	 85.0751 	 
H 	 48.5924 	 15.8536 	 85.2111 	 
S 	 52.5672 	 12.3415 	 84.3576 	 
C 	 53.629 	 10.9744 	 84.3475 	 
C 	 52.9512 	 9.84095 	 84.0862 	 
C 	 51.5399 	 9.99092 	 83.99 	 
C 	 51.2002 	 11.3236 	 84.267 	 
H 	 53.4091 	 8.84189 	 84.1109 	 
C 	 50.5645 	 8.80323 	 83.7135 	 
H 	 49.5372 	 9.1466 	 83.6797 	 
H 	 50.4511 	 8.3633 	 84.6264 	 
C 	 50.9318 	 7.73025 	 82.656 	 
H 	 50.7871 	 6.72065 	 83.0666 	 
H 	 51.9867 	 7.80823 	 82.4673 	 
C 	 50.2756 	 7.88475 	 81.2804 	 
H 	 50.2057 	 8.85375 	 80.8269 	 
H 	 49.2621 	 7.51669 	 81.4157 	 
H 	 50.8214 	 7.28206 	 80.5711 	 
H 	 46.3885 	 12.444 	 84.9057 	 
H 	 54.6924 	 11.0743 	 84.7318 	 
*
