! wB97X-D3 SP def2-SVP
%pal
nprocs 16
end

* xyz 0 1
S 	 -39.4918 	 20.5771 	 84.2037 	 
C 	 -39.0812 	 18.9405 	 83.7986 	 
C 	 -40.1966 	 18.2983 	 83.2875 	 
C 	 -41.2119 	 19.2324 	 83.0665 	 
C 	 -40.8781 	 20.5321 	 83.2292 	 
H 	 -42.1247 	 19.0015 	 82.4996 	 
C 	 -40.1637 	 16.8134 	 82.8977 	 
H 	 -39.3679 	 16.7608 	 82.1251 	 
H 	 -41.1243 	 16.5325 	 82.4674 	 
C 	 -39.6879 	 15.9514 	 84.02 	 
H 	 -39.5714 	 14.8956 	 83.6633 	 
H 	 -38.7603 	 16.2073 	 84.3357 	 
C 	 -40.5843 	 16.0939 	 85.253 	 
H 	 -41.6626 	 15.8925 	 85.1415 	 
H 	 -40.299 	 15.3933 	 86.0389 	 
H 	 -40.4244 	 17.1012 	 85.7206 	 
S 	 -41.5212 	 23.0547 	 84.1795 	 
C 	 -42.7558 	 23.9263 	 83.3949 	 
C 	 -43.1811 	 23.2925 	 82.2516 	 
C 	 -42.6262 	 22.0143 	 82.0581 	 
C 	 -41.7325 	 21.7009 	 83.0381 	 
H 	 -43.8475 	 23.703 	 81.5652 	 
C 	 -42.9132 	 21.2089 	 80.7986 	 
H 	 -42.1987 	 20.4038 	 80.6778 	 
H 	 -42.7816 	 21.7069 	 79.8135 	 
C 	 -44.3399 	 20.7448 	 80.67 	 
H 	 -45.0651 	 21.5712 	 80.7362 	 
H 	 -44.6464 	 19.9578 	 81.4074 	 
C 	 -44.5757 	 19.8545 	 79.3918 	 
H 	 -44.5428 	 20.3337 	 78.4579 	 
H 	 -45.578 	 19.4983 	 79.5125 	 
H 	 -43.8283 	 19.064 	 79.1824 	 
H 	 -38.1213 	 18.3716 	 83.9106 	 
H 	 -42.9152 	 24.9945 	 83.6893 	 
*
