! wB97X-D3 SP def2-SVP
%pal
nprocs 16
end

* xyz 0 1
S 	 20.9643 	 1.29669 	 84.7865 	 
C 	 22.2885 	 1.82804 	 83.8292 	 
C 	 21.8566 	 2.86949 	 82.9995 	 
C 	 20.4505 	 2.89002 	 82.9151 	 
C 	 19.7162 	 2.01197 	 83.7391 	 
H 	 19.8871 	 3.57567 	 82.3713 	 
C 	 22.7326 	 3.81923 	 82.2409 	 
H 	 22.3014 	 3.99709 	 81.2741 	 
H 	 23.7067 	 3.36482 	 82.0222 	 
C 	 23.1033 	 5.07098 	 83.0747 	 
H 	 22.2026 	 5.54994 	 83.3242 	 
H 	 23.5838 	 4.97524 	 84.0624 	 
C 	 23.937 	 6.08156 	 82.1912 	 
H 	 23.4019 	 6.43582 	 81.3414 	 
H 	 24.179 	 7.00907 	 82.6935 	 
H 	 24.8629 	 5.7632 	 81.7809 	 
S 	 17.7992 	 2.4431 	 85.5988 	 
C 	 16.1954 	 2.09634 	 85.3159 	 
C 	 15.993 	 1.90823 	 83.9649 	 
C 	 17.1882 	 1.77144 	 83.1753 	 
C 	 18.3074 	 1.87636 	 83.9871 	 
H 	 14.9947 	 1.95025 	 83.6254 	 
C 	 17.1568 	 1.66803 	 81.6039 	 
H 	 17.6927 	 2.52622 	 81.3069 	 
H 	 16.1512 	 1.95101 	 81.2722 	 
C 	 17.7894 	 0.35923 	 80.9962 	 
H 	 17.3863 	 -0.36326 	 81.719 	 
H 	 18.9391 	 0.39476 	 81.0952 	 
C 	 17.2968 	 -0.040293 	 79.5723 	 
H 	 16.2267 	 0.151223 	 79.4537 	 
H 	 17.5533 	 -1.07419 	 79.266 	 
H 	 17.7699 	 0.629146 	 78.8728 	 
H 	 23.3582 	 1.64068 	 84.0876 	 
H 	 15.3767 	 2.24319 	 86.0602 	 
*
