! wB97X-D3 SP def2-SVP
%pal
nprocs 16
end

* xyz 0 1
S 	 -11.8674 	 65.6118 	 50.9439 	 
C 	 -11.6659 	 63.8929 	 50.6597 	 
C 	 -10.6921 	 63.3394 	 51.4824 	 
C 	 -10.062 	 64.353 	 52.2997 	 
C 	 -10.5402 	 65.6223 	 52.0065 	 
H 	 -9.33137 	 64.2006 	 53.0359 	 
C 	 -10.212 	 61.8957 	 51.5456 	 
H 	 -11.0067 	 61.3156 	 51.5295 	 
H 	 -9.82195 	 61.7252 	 52.6079 	 
C 	 -9.20622 	 61.4686 	 50.5012 	 
H 	 -9.54056 	 60.4049 	 50.2942 	 
H 	 -9.36488 	 62.0387 	 49.5738 	 
C 	 -7.7386 	 61.568 	 50.9479 	 
H 	 -7.4413 	 60.5702 	 51.453 	 
H 	 -7.10383 	 61.674 	 50.1083 	 
H 	 -7.61769 	 62.4737 	 51.5957 	 
S 	 -11.1094 	 67.4384 	 53.983 	 
C 	 -9.92064 	 68.7086 	 54.3497 	 
C 	 -8.86043 	 68.6404 	 53.4959 	 
C 	 -8.94229 	 67.5294 	 52.608 	 
C 	 -10.1584 	 66.8767 	 52.6247 	 
H 	 -8.08065 	 69.3667 	 53.7379 	 
C 	 -7.67938 	 67.1764 	 51.8403 	 
H 	 -7.10322 	 68.1308 	 51.8174 	 
H 	 -7.92629 	 66.9518 	 50.8188 	 
C 	 -6.75255 	 66.1009 	 52.3783 	 
H 	 -7.28119 	 65.147 	 52.3416 	 
H 	 -6.61798 	 66.3388 	 53.423 	 
C 	 -5.34894 	 65.9073 	 51.8373 	 
H 	 -4.94367 	 65.0289 	 52.3256 	 
H 	 -4.67535 	 66.6975 	 52.047 	 
H 	 -5.2241 	 65.7805 	 50.7441 	 
H 	 -12.3456 	 63.4035 	 50.0441 	 
H 	 -10.027 	 69.4658 	 55.1253 	 
*
