! wB97X-D3 SP def2-SVP
%pal
nprocs 16
end

* xyz 0 1
S 	 -13.8731 	 75.8806 	 54.6665 	 
C 	 -15.289 	 76.6436 	 54.0515 	 
C 	 -16.2995 	 75.73 	 53.8035 	 
C 	 -15.8329 	 74.4449 	 53.8184 	 
C 	 -14.5055 	 74.3529 	 53.983 	 
H 	 -16.4317 	 73.5915 	 53.6559 	 
C 	 -17.7347 	 76.1559 	 53.6725 	 
H 	 -17.8785 	 77.0632 	 54.2803 	 
H 	 -18.4762 	 75.4649 	 54.088 	 
C 	 -18.0523 	 76.3098 	 52.1655 	 
H 	 -17.513 	 77.1682 	 51.8709 	 
H 	 -17.7844 	 75.4013 	 51.5613 	 
C 	 -19.5156 	 76.5904 	 51.9508 	 
H 	 -20.1665 	 75.8234 	 52.3567 	 
H 	 -19.8709 	 77.4587 	 52.5114 	 
H 	 -19.8269 	 76.6725 	 50.8839 	 
S 	 -12.7642 	 72.7439 	 55.3474 	 
C 	 -12.1775 	 71.2162 	 54.7242 	 
C 	 -12.7515 	 71.0681 	 53.4697 	 
C 	 -13.5531 	 72.1579 	 52.9713 	 
C 	 -13.7043 	 73.1661 	 53.9095 	 
H 	 -12.5309 	 70.1407 	 52.9422 	 
C 	 -14.2171 	 72.1891 	 51.5547 	 
H 	 -13.4543 	 71.981 	 50.8064 	 
H 	 -14.5773 	 73.1282 	 51.2852 	 
C 	 -15.4678 	 71.244 	 51.3882 	 
H 	 -16.1671 	 71.5177 	 52.2789 	 
H 	 -15.148 	 70.2586 	 51.6673 	 
C 	 -16.1974 	 71.2836 	 50.0209 	 
H 	 -15.6759 	 71.1169 	 49.0693 	 
H 	 -16.7035 	 72.2239 	 50.0468 	 
H 	 -16.9237 	 70.4983 	 50.0504 	 
H 	 -15.4954 	 77.6918 	 54.2277 	 
H 	 -11.5161 	 70.5013 	 55.2468 	 
*
