! wB97X-D3 SP def2-SVP
%pal
nprocs 16
end

* xyz 0 1
S 	 -20.0957 	 1.12952 	 75.326 	 
C 	 -19.0356 	 -0.140907 	 74.8466 	 
C 	 -19.0442 	 -1.23915 	 75.7512 	 
C 	 -19.9911 	 -0.966383 	 76.7933 	 
C 	 -20.7737 	 0.181815 	 76.5777 	 
H 	 -20.2449 	 -1.68164 	 77.5335 	 
C 	 -18.0586 	 -2.39808 	 75.7955 	 
H 	 -17.7585 	 -2.57861 	 74.765 	 
H 	 -18.6165 	 -3.26982 	 76.1844 	 
C 	 -16.8953 	 -2.24022 	 76.8694 	 
H 	 -16.1794 	 -1.49773 	 76.5255 	 
H 	 -17.3248 	 -1.9602 	 77.851 	 
C 	 -16.2638 	 -3.55945 	 77.0825 	 
H 	 -16.9942 	 -4.31148 	 77.4374 	 
H 	 -15.9096 	 -3.92864 	 76.1353 	 
H 	 -15.4873 	 -3.50833 	 77.8267 	 
S 	 -21.7785 	 2.3012 	 77.7441 	 
C 	 -23.0031 	 2.21759 	 79.0005 	 
C 	 -23.4192 	 0.878916 	 79.2186 	 
C 	 -22.6326 	 -0.0274553 	 78.4389 	 
C 	 -21.7286 	 0.626256 	 77.5676 	 
H 	 -24.1695 	 0.557988 	 79.9048 	 
C 	 -22.9952 	 -1.46503 	 78.5002 	 
H 	 -22.4569 	 -1.90997 	 77.6603 	 
H 	 -24.0459 	 -1.45293 	 78.2528 	 
C 	 -22.7916 	 -2.1896 	 79.7673 	 
H 	 -23.3481 	 -1.82699 	 80.5636 	 
H 	 -21.7111 	 -2.02204 	 79.9018 	 
C 	 -23.0547 	 -3.70816 	 79.559 	 
H 	 -24.0778 	 -3.93942 	 79.2809 	 
H 	 -22.9055 	 -4.24582 	 80.4422 	 
H 	 -22.3782 	 -3.96547 	 78.8326 	 
H 	 -18.6061 	 -0.100982 	 73.8561 	 
H 	 -23.4711 	 3.10118 	 79.4918 	 
*
