! wB97X-D3 SP def2-SVP
%pal
nprocs 16
end

* xyz 0 1
S 	 -30.4761 	 -0.386702 	 106.842 	 
C 	 -29.2913 	 -1.49698 	 107.54 	 
C 	 -28.473 	 -2.05778 	 106.559 	 
C 	 -28.8448 	 -1.70045 	 105.217 	 
C 	 -29.9407 	 -0.818942 	 105.252 	 
H 	 -28.4369 	 -2.03782 	 104.294 	 
C 	 -27.3665 	 -3.01492 	 106.838 	 
H 	 -26.5178 	 -2.72502 	 106.163 	 
H 	 -27.7127 	 -4.02455 	 106.575 	 
C 	 -26.7897 	 -2.9928 	 108.308 	 
H 	 -27.6093 	 -3.09977 	 108.968 	 
H 	 -26.1636 	 -3.84135 	 108.43 	 
C 	 -26.0209 	 -1.72587 	 108.603 	 
H 	 -26.6167 	 -0.817028 	 108.554 	 
H 	 -25.6756 	 -1.76969 	 109.575 	 
H 	 -25.2501 	 -1.62696 	 107.884 	 
S 	 -29.833 	 0.598127 	 102.859 	 
C 	 -31.1091 	 0.398865 	 101.623 	 
C 	 -32.1787 	 -0.329985 	 102.149 	 
C 	 -31.9556 	 -0.690083 	 103.524 	 
C 	 -30.6592 	 -0.443753 	 103.99 	 
H 	 -33.0972 	 -0.512249 	 101.607 	 
C 	 -32.9509 	 -1.41424 	 104.442 	 
H 	 -33.9466 	 -1.47272 	 104.03 	 
H 	 -32.9948 	 -0.863547 	 105.374 	 
C 	 -32.5985 	 -2.95102 	 104.867 	 
H 	 -31.632 	 -3.02986 	 105.414 	 
H 	 -32.4374 	 -3.67686 	 104.064 	 
C 	 -33.7583 	 -3.7471 	 105.601 	 
H 	 -34.5678 	 -3.8525 	 104.86 	 
H 	 -34.2418 	 -3.17372 	 106.365 	 
H 	 -33.5169 	 -4.69952 	 106.046 	 
H 	 -29.2438 	 -1.69081 	 108.559 	 
H 	 -31.1145 	 0.90345 	 100.734 	 
*
