! wB97X-D3 SP def2-SVP
%pal
nprocs 16
end

* xyz 0 1
S 	 4.88876 	 15.2733 	 48.5854 	 
C 	 4.25297 	 14.2637 	 47.3289 	 
C 	 2.89282 	 14.6746 	 47.0731 	 
C 	 2.46742 	 15.8397 	 47.7749 	 
C 	 3.4886 	 16.3569 	 48.5909 	 
H 	 1.51293 	 16.3163 	 47.7994 	 
C 	 1.84345 	 13.8366 	 46.2691 	 
H 	 1.06788 	 13.5139 	 47.0368 	 
H 	 2.31751 	 12.9221 	 45.9265 	 
C 	 1.1408 	 14.6183 	 45.0161 	 
H 	 0.724179 	 15.5279 	 45.4012 	 
H 	 1.97489 	 14.8072 	 44.2571 	 
C 	 0.0163618 	 13.8201 	 44.2206 	 
H 	 -0.341785 	 14.3883 	 43.3674 	 
H 	 0.545169 	 12.9768 	 43.8065 	 
H 	 -0.83415 	 13.5296 	 44.8246 	 
S 	 2.838 	 17.7878 	 50.8834 	 
C 	 3.06708 	 19.5071 	 50.8683 	 
C 	 3.64234 	 19.936 	 49.6945 	 
C 	 3.86119 	 18.8694 	 48.7308 	 
C 	 3.52426 	 17.6458 	 49.2503 	 
H 	 4.04009 	 20.9046 	 49.5153 	 
C 	 4.52031 	 19.1704 	 47.3855 	 
H 	 5.51178 	 18.7663 	 47.2708 	 
H 	 4.78032 	 20.2626 	 47.4029 	 
C 	 3.6962 	 18.9801 	 46.0836 	 
H 	 2.59142 	 19.2405 	 46.142 	 
H 	 3.80269 	 17.9456 	 45.8724 	 
C 	 4.401 	 19.6436 	 44.9379 	 
H 	 3.92422 	 19.5302 	 43.9817 	 
H 	 5.41441 	 19.24 	 44.8715 	 
H 	 4.42098 	 20.7723 	 45.049 	 
H 	 4.64908 	 13.3022 	 47.0184 	 
H 	 2.94655 	 20.1882 	 51.6457 	 
*
