! wB97X-D3 SP def2-SVP
%pal
nprocs 16
end

* xyz 0 1
S 	 44.8426 	 14.194 	 81.0419 	 
C 	 44.7884 	 15.7526 	 80.2589 	 
C 	 43.7532 	 16.5733 	 80.7479 	 
C 	 43.0567 	 15.8754 	 81.7735 	 
C 	 43.4663 	 14.5333 	 81.9976 	 
H 	 42.2257 	 16.3546 	 82.4034 	 
C 	 43.4242 	 17.94 	 80.2288 	 
H 	 44.373 	 18.3802 	 79.9159 	 
H 	 42.9548 	 18.5901 	 80.9319 	 
C 	 42.6769 	 17.7915 	 78.8559 	 
H 	 43.1804 	 17.1264 	 78.1501 	 
H 	 41.68 	 17.39 	 79.0737 	 
C 	 42.2238 	 19.1681 	 78.1941 	 
H 	 41.5839 	 19.7696 	 78.7818 	 
H 	 43.0552 	 19.8577 	 78.0013 	 
H 	 41.6254 	 19.0201 	 77.2554 	 
S 	 41.2622 	 13.1583 	 82.8735 	 
C 	 41.2769 	 11.8312 	 84.0441 	 
C 	 42.5146 	 11.9261 	 84.6551 	 
C 	 43.4685 	 12.8284 	 84.0339 	 
C 	 42.9299 	 13.5435 	 82.9729 	 
H 	 42.7552 	 11.225 	 85.4504 	 
C 	 44.9196 	 12.8843 	 84.4776 	 
H 	 45.4841 	 13.3241 	 83.7537 	 
H 	 45.3133 	 11.8901 	 84.8205 	 
C 	 45.0278 	 13.8952 	 85.6545 	 
H 	 45.9805 	 13.897 	 85.9483 	 
H 	 44.4715 	 13.5784 	 86.5118 	 
C 	 44.6871 	 15.3439 	 85.3579 	 
H 	 43.7308 	 15.4092 	 84.9721 	 
H 	 45.3291 	 15.6442 	 84.6113 	 
H 	 44.9283 	 15.9603 	 86.2476 	 
H 	 45.296 	 15.9379 	 79.3174 	 
H 	 40.4689 	 11.2032 	 84.4409 	 
*
