! wB97X-D3 SP def2-SVP
%pal
nprocs 16
end

* xyz 0 1
S 	 -48.0851 	 30.1863 	 92.3165 	 
C 	 -48.3889 	 28.48 	 92.3447 	 
C 	 -48.1847 	 27.9486 	 91.117 	 
C 	 -47.8639 	 28.9352 	 90.1454 	 
C 	 -48.0303 	 30.2417 	 90.5962 	 
H 	 -47.6533 	 28.722 	 89.1324 	 
C 	 -48.1776 	 26.4919 	 90.8439 	 
H 	 -47.779 	 25.9371 	 91.6976 	 
H 	 -47.53 	 26.2518 	 90.0804 	 
C 	 -49.5232 	 25.8351 	 90.3717 	 
H 	 -49.9535 	 26.1578 	 89.4185 	 
H 	 -49.4222 	 24.7774 	 90.3221 	 
C 	 -50.5271 	 26.0793 	 91.5189 	 
H 	 -50.9245 	 27.1612 	 91.6016 	 
H 	 -51.3134 	 25.3301 	 91.517 	 
H 	 -49.9622 	 25.9256 	 92.4337 	 
S 	 -46.0793 	 32.1036 	 89.8396 	 
C 	 -46.3603 	 33.0311 	 88.3701 	 
C 	 -47.6474 	 32.9103 	 87.9581 	 
C 	 -48.4419 	 31.9651 	 88.7061 	 
C 	 -47.7763 	 31.4403 	 89.8482 	 
H 	 -48.0753 	 33.4013 	 87.1507 	 
C 	 -49.7304 	 31.4429 	 88.3002 	 
H 	 -49.6168 	 30.354 	 88.2537 	 
H 	 -49.8882 	 31.7051 	 87.2391 	 
C 	 -50.9533 	 31.9575 	 89.1359 	 
H 	 -51.1031 	 33.0381 	 88.9909 	 
H 	 -50.6951 	 31.7682 	 90.1071 	 
C 	 -52.3223 	 31.2337 	 88.8158 	 
H 	 -52.3207 	 30.1714 	 88.954 	 
H 	 -52.6427 	 31.3859 	 87.7443 	 
H 	 -53.0345 	 31.8074 	 89.4357 	 
H 	 -48.4527 	 27.8587 	 93.254 	 
H 	 -45.7492 	 33.7936 	 87.9848 	 
*
