! wB97X-D3 SP def2-SVP
%pal
nprocs 16
end

* xyz 0 1
S 	 1.96002 	 16.1957 	 87.4613 	 
C 	 2.7783 	 17.6381 	 86.8576 	 
C 	 4.03924 	 17.3547 	 86.282 	 
C 	 4.37982 	 15.9996 	 86.5032 	 
C 	 3.387 	 15.2643 	 87.1032 	 
H 	 5.26834 	 15.4939 	 86.1806 	 
C 	 4.891 	 18.4302 	 85.6412 	 
H 	 5.65717 	 17.916 	 85.1641 	 
H 	 5.2723 	 19.0866 	 86.4007 	 
C 	 4.18523 	 19.3302 	 84.5646 	 
H 	 3.64252 	 18.6812 	 83.8869 	 
H 	 3.36992 	 19.9218 	 84.9921 	 
C 	 5.12526 	 20.0728 	 83.6759 	 
H 	 5.41489 	 20.9588 	 84.149 	 
H 	 6.0862 	 19.535 	 83.5354 	 
H 	 4.63538 	 20.3254 	 82.78 	 
S 	 1.84934 	 13.0832 	 86.6648 	 
C 	 2.52353 	 11.516 	 86.7694 	 
C 	 3.84075 	 11.5331 	 87.2381 	 
C 	 4.31817 	 12.8409 	 87.4507 	 
C 	 3.36836 	 13.7873 	 87.1673 	 
H 	 4.27007 	 10.5524 	 87.4141 	 
C 	 5.80997 	 13.0358 	 87.8456 	 
H 	 5.8317 	 13.7094 	 88.6956 	 
H 	 6.3312 	 13.4325 	 86.9884 	 
C 	 6.54325 	 11.7874 	 88.3347 	 
H 	 7.55882 	 12.1259 	 88.5065 	 
H 	 6.57615 	 10.947 	 87.6476 	 
C 	 5.98857 	 11.2616 	 89.6527 	 
H 	 5.83996 	 12.0702 	 90.3691 	 
H 	 6.58217 	 10.5244 	 90.2439 	 
H 	 5.00796 	 10.8293 	 89.4555 	 
H 	 2.3381 	 18.6274 	 86.8464 	 
H 	 1.97459 	 10.6474 	 86.4423 	 
*
