! wB97X-D3 SP def2-SVP
%pal
nprocs 16
end

* xyz 0 1
S 	 -11.6332 	 45.6392 	 40.2336 	 
C 	 -11.8251 	 44.648 	 38.8266 	 
C 	 -10.6384 	 44.0207 	 38.3928 	 
C 	 -9.58661 	 44.2494 	 39.3716 	 
C 	 -9.95465 	 45.1882 	 40.3545 	 
H 	 -8.5548 	 43.8564 	 39.3173 	 
C 	 -10.525 	 43.0355 	 37.2908 	 
H 	 -9.54258 	 42.6505 	 37.3776 	 
H 	 -10.4975 	 43.5843 	 36.3443 	 
C 	 -11.6028 	 41.9743 	 37.1334 	 
H 	 -11.4844 	 41.2679 	 38.0151 	 
H 	 -12.5994 	 42.487 	 37.0831 	 
C 	 -11.3477 	 41.2585 	 35.8267 	 
H 	 -11.8313 	 40.3224 	 35.858 	 
H 	 -11.764 	 41.8487 	 34.9422 	 
H 	 -10.2596 	 41.1299 	 35.7179 	 
S 	 -10.0393 	 45.9728 	 42.9416 	 
C 	 -8.66412 	 46.7974 	 43.5748 	 
C 	 -7.63 	 46.9016 	 42.684 	 
C 	 -7.88476 	 46.2012 	 41.4542 	 
C 	 -9.14298 	 45.619 	 41.4312 	 
H 	 -6.72301 	 47.4497 	 42.9687 	 
C 	 -6.93057 	 46.2385 	 40.3195 	 
H 	 -6.29148 	 47.0683 	 40.3728 	 
H 	 -7.68434 	 46.3162 	 39.4556 	 
C 	 -5.99982 	 44.9767 	 40.2338 	 
H 	 -6.50611 	 44.104 	 40.405 	 
H 	 -5.37637 	 44.8686 	 41.1488 	 
C 	 -4.98822 	 44.7906 	 39.0732 	 
H 	 -4.24389 	 45.5602 	 39.1124 	 
H 	 -5.52062 	 44.7368 	 38.1331 	 
H 	 -4.58814 	 43.8087 	 39.2671 	 
H 	 -12.7001 	 44.6052 	 38.2218 	 
H 	 -8.5488 	 47.3573 	 44.4741 	 
*
