! wB97X-D3 SP def2-SVP
%pal
nprocs 16
end

* xyz 0 1
S 	 9.60703 	 -8.95606 	 98.2415 	 
C 	 10.9629 	 -8.82336 	 99.3365 	 
C 	 11.9391 	 -7.967 	 98.8742 	 
C 	 11.5514 	 -7.43447 	 97.5896 	 
C 	 10.2988 	 -7.83145 	 97.1154 	 
H 	 12.163 	 -6.72956 	 97.0821 	 
C 	 13.2382 	 -7.64047 	 99.5801 	 
H 	 14.0817 	 -7.84226 	 98.9146 	 
H 	 13.4032 	 -8.33572 	 100.469 	 
C 	 13.2496 	 -6.20148 	 100.137 	 
H 	 14.2257 	 -6.00126 	 100.47 	 
H 	 13.1628 	 -5.50979 	 99.2321 	 
C 	 12.208 	 -5.87341 	 101.252 	 
H 	 11.1747 	 -5.82761 	 101.022 	 
H 	 12.4552 	 -6.47307 	 102.16 	 
H 	 12.3304 	 -4.82144 	 101.644 	 
S 	 8.81587 	 -8.61427 	 94.9688 	 
C 	 8.02725 	 -7.43425 	 94.0898 	 
C 	 8.37936 	 -6.17733 	 94.418 	 
C 	 9.16816 	 -6.14332 	 95.5838 	 
C 	 9.5457 	 -7.38933 	 95.9857 	 
H 	 8.00085 	 -5.30691 	 93.8952 	 
C 	 9.43373 	 -4.81279 	 96.3836 	 
H 	 9.62089 	 -4.01076 	 95.784 	 
H 	 10.2986 	 -4.99281 	 97.0033 	 
C 	 8.27665 	 -4.3197 	 97.169 	 
H 	 7.52676 	 -3.88558 	 96.5919 	 
H 	 8.6017 	 -3.49505 	 97.8012 	 
C 	 7.76629 	 -5.36994 	 98.1584 	 
H 	 7.17175 	 -6.17757 	 97.6287 	 
H 	 7.16674 	 -4.8776 	 98.8848 	 
H 	 8.57426 	 -5.86675 	 98.6828 	 
H 	 11.1448 	 -9.41583 	 100.262 	 
H 	 7.5535 	 -7.67801 	 93.132 	 
*
