! wB97X-D3 SP def2-SVP
%pal
nprocs 16
end

* xyz 0 1
S 	 54.0496 	 16.2786 	 51.4254 	 
C 	 55.0442 	 16.8446 	 52.6905 	 
C 	 54.4114 	 17.5744 	 53.6541 	 
C 	 53.0481 	 17.763 	 53.2988 	 
C 	 52.672 	 17.1439 	 52.0844 	 
H 	 52.3233 	 18.42 	 53.8041 	 
C 	 54.9443 	 17.9846 	 54.9463 	 
H 	 55.7279 	 17.3301 	 55.3029 	 
H 	 54.1386 	 17.8589 	 55.5913 	 
C 	 55.3336 	 19.4574 	 55.0876 	 
H 	 54.4652 	 20.0728 	 54.8487 	 
H 	 55.7719 	 19.6124 	 56.0647 	 
C 	 56.4397 	 19.9273 	 54.112 	 
H 	 56.0935 	 19.8763 	 53.1025 	 
H 	 56.5745 	 21.0046 	 54.2159 	 
H 	 57.4247 	 19.5173 	 54.1346 	 
S 	 51.2663 	 16.7808 	 49.8735 	 
C 	 49.5438 	 17.1004 	 49.8594 	 
C 	 49.0644 	 17.255 	 51.1182 	 
C 	 50.1089 	 17.3155 	 52.0976 	 
C 	 51.3604 	 17.1737 	 51.5181 	 
H 	 47.9985 	 17.2896 	 51.3668 	 
C 	 49.8316 	 17.4533 	 53.6004 	 
H 	 50.0777 	 18.502 	 53.7685 	 
H 	 50.6297 	 16.9327 	 54.1409 	 
C 	 48.5335 	 16.8871 	 54.1351 	 
H 	 48.3295 	 16.0048 	 53.5648 	 
H 	 47.6922 	 17.4567 	 53.8315 	 
C 	 48.4662 	 16.6656 	 55.7136 	 
H 	 49.2759 	 16.0052 	 55.8294 	 
H 	 47.5295 	 16.1245 	 55.9991 	 
H 	 48.5361 	 17.5797 	 56.3213 	 
H 	 56.0443 	 16.432 	 52.869 	 
H 	 48.8553 	 16.9626 	 49.0008 	 
*
