! wB97X-D3 SP def2-SVP
%pal
nprocs 16
end

* xyz 0 1
S 	 1.8974 	 29.6617 	 42.4428 	 
C 	 1.18332 	 28.5297 	 41.3007 	 
C 	 0.23918 	 29.1165 	 40.4995 	 
C 	 0.415714 	 30.5341 	 40.6211 	 
C 	 1.26867 	 31.1 	 41.5684 	 
H 	 -0.0735781 	 31.1588 	 39.954 	 
C 	 -0.645695 	 28.4076 	 39.4653 	 
H 	 -0.0533792 	 27.9807 	 38.675 	 
H 	 -1.47285 	 29.0565 	 39.1338 	 
C 	 -1.34312 	 27.1967 	 40.0267 	 
H 	 -0.596813 	 26.5681 	 40.5482 	 
H 	 -2.05005 	 27.5364 	 40.7838 	 
C 	 -2.19356 	 26.312 	 39.0952 	 
H 	 -2.6896 	 26.8329 	 38.3587 	 
H 	 -1.63102 	 25.4706 	 38.6908 	 
H 	 -2.83146 	 25.7468 	 39.7589 	 
S 	 1.56143 	 33.3694 	 43.0834 	 
C 	 2.01754 	 34.8263 	 42.3767 	 
C 	 2.27157 	 34.6286 	 41.0616 	 
C 	 2.20841 	 33.3024 	 40.6224 	 
C 	 1.64681 	 32.4677 	 41.5809 	 
H 	 2.56301 	 35.4714 	 40.4346 	 
C 	 2.56115 	 32.8868 	 39.2096 	 
H 	 1.83002 	 33.3598 	 38.6051 	 
H 	 2.41741 	 31.8591 	 38.9708 	 
C 	 3.98622 	 33.2551 	 38.8656 	 
H 	 4.82338 	 32.9398 	 39.598 	 
H 	 4.0482 	 34.3962 	 38.8895 	 
C 	 4.49272 	 32.6692 	 37.4743 	 
H 	 4.3499 	 31.5735 	 37.3833 	 
H 	 5.57128 	 33.0573 	 37.2453 	 
H 	 3.86996 	 33.1421 	 36.7685 	 
H 	 1.34391 	 27.4734 	 41.4742 	 
H 	 2.15809 	 35.7258 	 42.9425 	 
*
