! wB97X-D3 SP def2-SVP
%pal
nprocs 16
end

* xyz 0 1
S 	 -41.747 	 37.3567 	 80.1239 	 
C 	 -40.5501 	 38.4815 	 79.5586 	 
C 	 -40.9775 	 39.2615 	 78.4486 	 
C 	 -42.3437 	 38.9149 	 78.1833 	 
C 	 -42.9248 	 37.9411 	 79.0116 	 
H 	 -42.9655 	 39.2742 	 77.3314 	 
C 	 -40.1933 	 40.1924 	 77.6527 	 
H 	 -40.2404 	 41.2235 	 78.0689 	 
H 	 -40.6084 	 40.2537 	 76.6765 	 
C 	 -38.7163 	 39.7656 	 77.4479 	 
H 	 -38.1825 	 40.5142 	 76.8955 	 
H 	 -38.2662 	 39.6076 	 78.4456 	 
C 	 -38.5767 	 38.5964 	 76.525 	 
H 	 -37.5439 	 38.4795 	 76.2605 	 
H 	 -38.9157 	 37.665 	 76.9908 	 
H 	 -39.1399 	 38.7007 	 75.6543 	 
S 	 -44.8768 	 37.1923 	 77.2899 	 
C 	 -46.3734 	 36.5953 	 77.894 	 
C 	 -46.2915 	 36.1402 	 79.1757 	 
C 	 -45.0991 	 36.571 	 79.8017 	 
C 	 -44.2996 	 37.3371 	 78.9034 	 
H 	 -47.1595 	 35.6864 	 79.6475 	 
C 	 -44.9052 	 36.3367 	 81.2712 	 
H 	 -43.8484 	 36.0776 	 81.5315 	 
H 	 -45.464 	 35.4826 	 81.5301 	 
C 	 -45.0577 	 37.5176 	 82.271 	 
H 	 -44.1568 	 38.0482 	 82.2723 	 
H 	 -45.0814 	 37.1591 	 83.2962 	 
C 	 -46.1336 	 38.5904 	 82.1427 	 
H 	 -46.0326 	 39.0122 	 81.12 	 
H 	 -46.1411 	 39.4376 	 82.9288 	 
H 	 -47.0572 	 38.1466 	 82.1632 	 
H 	 -39.5246 	 38.402 	 79.825 	 
H 	 -47.2932 	 36.5286 	 77.3339 	 
*
