! wB97X-D3 SP def2-SVP
%pal
nprocs 16
end

* xyz 0 1
S 	 -79.751 	 42.6596 	 141.254 	 
C 	 -79.2534 	 41.0957 	 141.656 	 
C 	 -78.6711 	 40.4336 	 140.608 	 
C 	 -78.2799 	 41.3471 	 139.552 	 
C 	 -78.9719 	 42.5317 	 139.727 	 
H 	 -77.5902 	 41.2152 	 138.712 	 
C 	 -78.2281 	 38.9814 	 140.81 	 
H 	 -78.3059 	 38.6219 	 141.846 	 
H 	 -77.187 	 38.8076 	 140.473 	 
C 	 -78.992 	 37.9931 	 139.872 	 
H 	 -79.044 	 38.54 	 138.908 	 
H 	 -78.5949 	 36.9953 	 139.693 	 
C 	 -80.349 	 37.7161 	 140.491 	 
H 	 -80.9824 	 37.2433 	 139.767 	 
H 	 -80.2781 	 37.1919 	 141.485 	 
H 	 -80.8311 	 38.6831 	 140.814 	 
S 	 -77.6421 	 44.76 	 139.254 	 
C 	 -77.4377 	 45.3064 	 137.639 	 
C 	 -78.4131 	 44.7408 	 136.824 	 
C 	 -79.0074 	 43.606 	 137.355 	 
C 	 -78.7454 	 43.5622 	 138.728 	 
H 	 -78.5768 	 45.1173 	 135.829 	 
C 	 -79.8997 	 42.6927 	 136.496 	 
H 	 -79.2637 	 41.8111 	 135.976 	 
H 	 -80.1639 	 43.3519 	 135.643 	 
C 	 -81.1225 	 42.0517 	 137.168 	 
H 	 -80.7318 	 41.5404 	 138.085 	 
H 	 -81.4914 	 41.1784 	 136.573 	 
C 	 -82.1372 	 43.1758 	 137.379 	 
H 	 -83.1112 	 42.8603 	 137.807 	 
H 	 -82.4429 	 43.6648 	 136.466 	 
H 	 -81.6152 	 43.8354 	 138.11 	 
H 	 -79.4725 	 40.6309 	 142.518 	 
H 	 -76.9612 	 46.2374 	 137.268 	 
*
