! wB97X-D3 SP def2-SVP
%pal
nprocs 16
end

* xyz 0 1
S 	 37.9278 	 17.543 	 78.7566 	 
C 	 36.492 	 16.8845 	 77.9555 	 
C 	 35.4912 	 16.4153 	 78.8529 	 
C 	 35.9466 	 16.5275 	 80.1887 	 
C 	 37.2734 	 17.0236 	 80.3497 	 
H 	 35.3442 	 16.2597 	 81.0566 	 
C 	 34.2415 	 15.6973 	 78.4737 	 
H 	 33.8247 	 16.254 	 77.5979 	 
H 	 33.5148 	 15.889 	 79.2834 	 
C 	 34.3867 	 14.1966 	 78.1369 	 
H 	 34.7319 	 14.2069 	 77.084 	 
H 	 35.1877 	 13.7721 	 78.7968 	 
C 	 33.0663 	 13.3791 	 78.1424 	 
H 	 32.3682 	 13.4962 	 77.3749 	 
H 	 33.3084 	 12.3656 	 78.3204 	 
H 	 32.5362 	 13.6153 	 79.0562 	 
S 	 39.7135 	 16.6889 	 81.5914 	 
C 	 40.0694 	 17.4071 	 83.1307 	 
C 	 38.9623 	 18.0625 	 83.5634 	 
C 	 37.7916 	 17.8837 	 82.73 	 
C 	 38.0805 	 17.1316 	 81.5652 	 
H 	 38.9461 	 18.5944 	 84.5084 	 
C 	 36.4916 	 18.6639 	 82.9732 	 
H 	 35.605 	 18.1484 	 82.4887 	 
H 	 36.6775 	 19.5699 	 82.4349 	 
C 	 36.1093 	 18.9076 	 84.4103 	 
H 	 36.834 	 19.5419 	 84.9584 	 
H 	 36.146 	 17.9586 	 84.9343 	 
C 	 34.7245 	 19.5414 	 84.5299 	 
H 	 34.3993 	 19.9036 	 85.4767 	 
H 	 34.0148 	 18.8208 	 84.1749 	 
H 	 34.6582 	 20.3433 	 83.835 	 
H 	 36.3819 	 16.8845 	 76.8736 	 
H 	 41.0131 	 17.3844 	 83.5211 	 
*
