! wB97X-D3 SP def2-SVP
%pal
nprocs 16
end

* xyz 0 1
S 	 53.5413 	 22.2927 	 93.9247 	 
C 	 51.7956 	 22.2237 	 94.1416 	 
C 	 51.1963 	 21.0496 	 93.7234 	 
C 	 52.1739 	 20.2976 	 93.0236 	 
C 	 53.4731 	 20.8449 	 92.9398 	 
H 	 52.0632 	 19.3024 	 92.5443 	 
C 	 49.8091 	 20.6415 	 94.075 	 
H 	 49.2072 	 21.055 	 93.2884 	 
H 	 49.5221 	 20.9958 	 95.0373 	 
C 	 49.2838 	 19.2288 	 93.9932 	 
H 	 48.2039 	 19.2971 	 94.0141 	 
H 	 49.4904 	 18.6778 	 93.0338 	 
C 	 49.73 	 18.2567 	 95.1846 	 
H 	 49.3505 	 18.7467 	 96.0836 	 
H 	 49.2015 	 17.3088 	 95.0493 	 
H 	 50.7259 	 18.273 	 95.3508 	 
S 	 55.4872 	 21.2434 	 91.1558 	 
C 	 56.4219 	 19.9417 	 90.5246 	 
C 	 55.9943 	 18.7325 	 91.1097 	 
C 	 55.0587 	 18.8793 	 92.1301 	 
C 	 54.6328 	 20.2223 	 92.2943 	 
H 	 56.3462 	 17.8715 	 90.5493 	 
C 	 54.5092 	 17.618 	 92.7509 	 
H 	 54.6184 	 16.8033 	 92.075 	 
H 	 53.4256 	 17.6315 	 92.8033 	 
C 	 55.065 	 17.3392 	 94.1731 	 
H 	 54.5723 	 16.4816 	 94.7411 	 
H 	 55.0056 	 18.2556 	 94.822 	 
C 	 56.6033 	 16.9422 	 94.1935 	 
H 	 56.7814 	 15.9913 	 93.7352 	 
H 	 56.964 	 16.949 	 95.1845 	 
H 	 57.2112 	 17.6789 	 93.5979 	 
H 	 51.2507 	 23.0178 	 94.666 	 
H 	 57.079 	 20.067 	 89.6451 	 
*
