! wB97X-D3 SP def2-SVP
%pal
nprocs 16
end

* xyz 0 1
S 	 50.8663 	 15.3039 	 78.3244 	 
C 	 51.7445 	 15.8627 	 79.7295 	 
C 	 50.9973 	 16.6425 	 80.6176 	 
C 	 49.6953 	 16.8103 	 80.0445 	 
C 	 49.4733 	 16.2521 	 78.7804 	 
H 	 48.9355 	 17.4035 	 80.4857 	 
C 	 51.4369 	 17.2712 	 81.9545 	 
H 	 52.4693 	 17.0641 	 82.0437 	 
H 	 51.0089 	 16.7046 	 82.7921 	 
C 	 51.1801 	 18.754 	 81.9453 	 
H 	 51.3419 	 19.2339 	 80.9906 	 
H 	 50.13 	 18.7803 	 82.1494 	 
C 	 51.9602 	 19.3823 	 83.1039 	 
H 	 53.0071 	 19.3975 	 82.9632 	 
H 	 51.732 	 20.5221 	 83.179 	 
H 	 51.7816 	 18.9623 	 84.0667 	 
S 	 48.4126 	 16.3587 	 76.2194 	 
C 	 46.694 	 16.6248 	 75.9409 	 
C 	 46.0514 	 16.7619 	 77.1186 	 
C 	 46.89 	 16.5482 	 78.2744 	 
C 	 48.2751 	 16.4051 	 77.9672 	 
H 	 44.9803 	 17.0637 	 77.0772 	 
C 	 46.3526 	 16.7244 	 79.735 	 
H 	 47.0404 	 16.3734 	 80.5377 	 
H 	 45.6031 	 15.9686 	 79.8583 	 
C 	 45.8342 	 18.1455 	 80.0248 	 
H 	 45.0529 	 18.4179 	 79.2843 	 
H 	 46.6436 	 18.8174 	 79.8575 	 
C 	 45.2185 	 18.4345 	 81.4427 	 
H 	 44.1322 	 18.043 	 81.4456 	 
H 	 45.1118 	 19.4797 	 81.7602 	 
H 	 45.8421 	 17.9545 	 82.1318 	 
H 	 52.7778 	 15.7955 	 80.0145 	 
H 	 46.2043 	 16.5402 	 75.0162 	 
*
