! wB97X-D3 SP def2-SVP
%pal
nprocs 16
end

* xyz 0 1
S 	 -101.205 	 42.482 	 129.638 	 
C 	 -99.644 	 42.618 	 130.309 	 
C 	 -98.7195 	 43.0974 	 129.405 	 
C 	 -99.4052 	 43.5032 	 128.192 	 
C 	 -100.772 	 43.2277 	 128.14 	 
H 	 -98.9481 	 43.9261 	 127.341 	 
C 	 -97.2455 	 43.1991 	 129.67 	 
H 	 -97.229 	 43.1276 	 130.795 	 
H 	 -96.8124 	 44.133 	 129.354 	 
C 	 -96.3462 	 42.0478 	 129.273 	 
H 	 -96.4613 	 41.1262 	 129.798 	 
H 	 -96.6674 	 41.6939 	 128.282 	 
C 	 -94.8783 	 42.4144 	 129.301 	 
H 	 -94.3435 	 42.2878 	 130.261 	 
H 	 -94.2527 	 41.8882 	 128.587 	 
H 	 -94.7289 	 43.4819 	 129.152 	 
S 	 -103.103 	 44.381 	 127.403 	 
C 	 -103.491 	 44.433 	 125.715 	 
C 	 -102.491 	 43.9266 	 124.932 	 
C 	 -101.481 	 43.2817 	 125.677 	 
C 	 -101.609 	 43.5383 	 127.039 	 
H 	 -102.641 	 43.8581 	 123.886 	 
C 	 -100.413 	 42.4451 	 125.085 	 
H 	 -99.5116 	 42.7446 	 125.501 	 
H 	 -100.353 	 42.4889 	 123.992 	 
C 	 -100.548 	 40.8963 	 125.408 	 
H 	 -101.605 	 40.6305 	 125.201 	 
H 	 -100.322 	 40.5779 	 126.43 	 
C 	 -99.8828 	 40.0528 	 124.316 	 
H 	 -100.128 	 40.3414 	 123.281 	 
H 	 -100.01 	 38.9928 	 124.408 	 
H 	 -98.7966 	 40.1866 	 124.404 	 
H 	 -99.4969 	 42.3271 	 131.344 	 
H 	 -104.258 	 44.9711 	 125.17 	 
*
