! wB97X-D3 SP def2-SVP
%pal
nprocs 16
end

* xyz 0 1
S 	 -1.21461 	 -13.9807 	 82.5165 	 
C 	 -2.46913 	 -14.5826 	 83.5546 	 
C 	 -3.38456 	 -13.605 	 83.8845 	 
C 	 -3.00601 	 -12.3656 	 83.2508 	 
C 	 -1.8418 	 -12.3469 	 82.5789 	 
H 	 -3.51621 	 -11.434 	 83.4155 	 
C 	 -4.47183 	 -13.7224 	 84.9231 	 
H 	 -4.52412 	 -14.7639 	 85.09 	 
H 	 -5.43081 	 -13.4009 	 84.5942 	 
C 	 -3.98411 	 -13.0435 	 86.1822 	 
H 	 -3.15164 	 -13.4609 	 86.6269 	 
H 	 -3.73778 	 -11.9994 	 86.0581 	 
C 	 -4.87729 	 -13.1101 	 87.393 	 
H 	 -4.62865 	 -14.013 	 87.9909 	 
H 	 -4.64988 	 -12.2176 	 87.9936 	 
H 	 -5.96696 	 -13.067 	 87.1527 	 
S 	 -0.907957 	 -11.5895 	 80.1604 	 
C 	 -0.565641 	 -9.98517 	 79.8303 	 
C 	 -0.573115 	 -9.22225 	 80.9768 	 
C 	 -1.01368 	 -9.94298 	 82.1386 	 
C 	 -1.27256 	 -11.2747 	 81.8447 	 
H 	 -0.324792 	 -8.15955 	 80.8745 	 
C 	 -1.07921 	 -9.26836 	 83.4643 	 
H 	 -0.319586 	 -8.52877 	 83.5125 	 
H 	 -0.956681 	 -9.94443 	 84.3425 	 
C 	 -2.30678 	 -8.38496 	 83.7543 	 
H 	 -3.10951 	 -9.10099 	 83.7791 	 
H 	 -2.61661 	 -7.70019 	 82.9418 	 
C 	 -2.09929 	 -7.73806 	 85.1861 	 
H 	 -2.11276 	 -8.57623 	 85.8568 	 
H 	 -2.9444 	 -7.08702 	 85.392 	 
H 	 -1.14068 	 -7.17065 	 85.3198 	 
H 	 -2.38804 	 -15.5449 	 84.0582 	 
H 	 -0.124999 	 -9.69619 	 78.9043 	 
*
