! wB97X-D3 SP def2-SVP
%pal
nprocs 16
end

* xyz 0 1
S 	 64.0762 	 -5.98568 	 88.829 	 
C 	 62.6799 	 -5.12266 	 89.3323 	 
C 	 61.8815 	 -4.84489 	 88.2047 	 
C 	 62.4453 	 -5.28395 	 86.9684 	 
C 	 63.6863 	 -5.8745 	 87.1359 	 
H 	 62.0567 	 -5.06601 	 85.9662 	 
C 	 60.6793 	 -3.94932 	 88.2294 	 
H 	 59.9003 	 -4.27399 	 88.9589 	 
H 	 60.1056 	 -4.03255 	 87.2394 	 
C 	 61.0661 	 -2.49639 	 88.5593 	 
H 	 60.0337 	 -2.02564 	 88.6495 	 
H 	 61.5437 	 -2.28327 	 89.5058 	 
C 	 61.8828 	 -1.73881 	 87.5373 	 
H 	 62.8493 	 -2.22445 	 87.3733 	 
H 	 61.4896 	 -1.73303 	 86.5535 	 
H 	 62.0736 	 -0.70452 	 87.9143 	 
S 	 64.7394 	 -8.00839 	 85.8331 	 
C 	 65.7515 	 -7.73789 	 84.4568 	 
C 	 65.9771 	 -6.39878 	 84.2585 	 
C 	 65.2615 	 -5.52578 	 85.1622 	 
C 	 64.5301 	 -6.28482 	 86.0597 	 
H 	 66.6337 	 -6.08995 	 83.4509 	 
C 	 65.2001 	 -4.03784 	 84.924 	 
H 	 64.1515 	 -3.69813 	 85.2273 	 
H 	 65.0878 	 -3.7655 	 83.9188 	 
C 	 66.2166 	 -3.27806 	 85.6595 	 
H 	 66.1964 	 -3.60529 	 86.7186 	 
H 	 65.9283 	 -2.23075 	 85.5538 	 
C 	 67.5889 	 -3.45341 	 85.1398 	 
H 	 68.1791 	 -2.67719 	 85.6085 	 
H 	 67.6719 	 -3.54633 	 84.0778 	 
H 	 67.9486 	 -4.37967 	 85.5011 	 
H 	 62.5568 	 -4.56973 	 90.2516 	 
H 	 66.241 	 -8.49404 	 83.8178 	 
*
