! wB97X-D3 SP def2-SVP
%pal
nprocs 16
end

* xyz 0 1
S 	 -16.3917 	 -4.21015 	 85.4238 	 
C 	 -15.2145 	 -3.96286 	 86.6855 	 
C 	 -14.5134 	 -5.15483 	 86.9862 	 
C 	 -14.8469 	 -6.19342 	 86.0495 	 
C 	 -15.6837 	 -5.79528 	 85.0387 	 
H 	 -14.4964 	 -7.18352 	 86.0718 	 
C 	 -13.7007 	 -5.4157 	 88.2103 	 
H 	 -14.2643 	 -6.10178 	 88.914 	 
H 	 -13.6711 	 -4.42204 	 88.6636 	 
C 	 -12.2624 	 -5.97698 	 87.9982 	 
H 	 -11.6964 	 -6.12682 	 88.9596 	 
H 	 -12.3945 	 -7.06076 	 87.6839 	 
C 	 -11.3675 	 -5.21181 	 86.997 	 
H 	 -10.433 	 -5.78144 	 86.7535 	 
H 	 -11.9548 	 -5.05632 	 86.089 	 
H 	 -11.0233 	 -4.1942 	 87.4175 	 
S 	 -17.9016 	 -6.96385 	 83.8249 	 
C 	 -17.6019 	 -7.79956 	 82.3023 	 
C 	 -16.3101 	 -7.76551 	 81.9085 	 
C 	 -15.5201 	 -6.9906 	 82.8255 	 
C 	 -16.1605 	 -6.54699 	 83.9293 	 
H 	 -16.0546 	 -8.16021 	 80.9228 	 
C 	 -14.0569 	 -6.61039 	 82.4523 	 
H 	 -13.7122 	 -6.07016 	 83.2736 	 
H 	 -14.1528 	 -5.90316 	 81.6122 	 
C 	 -13.2064 	 -7.84122 	 82.1693 	 
H 	 -13.7892 	 -8.25831 	 81.3321 	 
H 	 -13.2739 	 -8.59986 	 82.9744 	 
C 	 -11.7634 	 -7.51346 	 81.8797 	 
H 	 -11.629 	 -6.78782 	 81.1112 	 
H 	 -11.2226 	 -8.44004 	 81.6521 	 
H 	 -11.2144 	 -7.14253 	 82.7547 	 
H 	 -15.1173 	 -3.08871 	 87.3356 	 
H 	 -18.233 	 -8.40139 	 81.697 	 
*
