! wB97X-D3 SP def2-SVP
%pal
nprocs 16
end

* xyz 0 1
S 	 -62.8505 	 51.8284 	 122.596 	 
C 	 -63.3757 	 50.4519 	 123.49 	 
C 	 -63.3503 	 50.7614 	 124.828 	 
C 	 -62.9992 	 52.1192 	 125.106 	 
C 	 -62.6131 	 52.7886 	 123.97 	 
H 	 -62.9412 	 52.6048 	 126.081 	 
C 	 -63.9449 	 49.8206 	 125.909 	 
H 	 -63.4 	 50.0362 	 126.808 	 
H 	 -63.851 	 48.7754 	 125.695 	 
C 	 -65.4658 	 50.0056 	 126.279 	 
H 	 -66.0519 	 49.7703 	 125.46 	 
H 	 -65.71 	 49.2494 	 127.066 	 
C 	 -65.998 	 51.4096 	 126.591 	 
H 	 -65.8613 	 52.1039 	 125.693 	 
H 	 -67.0491 	 51.4114 	 126.806 	 
H 	 -65.414 	 51.9958 	 127.389 	 
S 	 -60.1568 	 53.8847 	 123.501 	 
C 	 -59.9982 	 55.6218 	 123.808 	 
C 	 -61.2247 	 56.2539 	 123.547 	 
C 	 -62.2845 	 55.3492 	 123.756 	 
C 	 -61.8761 	 54.0136 	 123.837 	 
H 	 -61.2135 	 57.3307 	 123.425 	 
C 	 -63.7246 	 55.8724 	 123.954 	 
H 	 -63.7059 	 56.9668 	 124.087 	 
H 	 -64.0561 	 55.4357 	 124.945 	 
C 	 -64.6937 	 55.467 	 122.89 	 
H 	 -64.7447 	 54.3629 	 122.726 	 
H 	 -64.4209 	 55.916 	 121.927 	 
C 	 -66.1619 	 55.9507 	 123.143 	 
H 	 -66.753 	 55.7031 	 122.195 	 
H 	 -66.3348 	 57.0193 	 123.525 	 
H 	 -66.6008 	 55.3312 	 123.927 	 
H 	 -63.6962 	 49.5086 	 123.187 	 
H 	 -59.0367 	 56.1291 	 123.756 	 
*
