! wB97X-D3 SP def2-SVP
%pal
nprocs 16
end

* xyz 0 1
S 	 -44.6386 	 52.0057 	 102.998 	 
C 	 -43.8588 	 51.9962 	 101.409 	 
C 	 -43.2107 	 53.2095 	 101.15 	 
C 	 -43.0437 	 54.009 	 102.394 	 
C 	 -43.6941 	 53.4434 	 103.472 	 
H 	 -42.4655 	 54.9003 	 102.536 	 
C 	 -42.5501 	 53.6345 	 99.9238 	 
H 	 -42.6953 	 54.6544 	 99.7181 	 
H 	 -43.0538 	 53.1278 	 99.1035 	 
C 	 -41.0903 	 53.4807 	 99.8121 	 
H 	 -40.7377 	 53.79 	 98.8858 	 
H 	 -40.6493 	 54.1971 	 100.556 	 
C 	 -40.579 	 52.0712 	 100.079 	 
H 	 -40.9458 	 51.7588 	 101.044 	 
H 	 -40.8835 	 51.311 	 99.2891 	 
H 	 -39.4995 	 52.1766 	 100.016 	 
S 	 -45.2115 	 54.3268 	 105.489 	 
C 	 -44.5627 	 54.7106 	 107.016 	 
C 	 -43.1355 	 54.5078 	 106.995 	 
C 	 -42.6895 	 54.0001 	 105.763 	 
C 	 -43.6844 	 53.9171 	 104.82 	 
H 	 -42.5115 	 54.7413 	 107.894 	 
C 	 -41.237 	 53.8719 	 105.585 	 
H 	 -40.6098 	 54.4416 	 106.231 	 
H 	 -40.8747 	 54.3443 	 104.647 	 
C 	 -40.6119 	 52.4516 	 105.716 	 
H 	 -40.7571 	 52.113 	 106.717 	 
H 	 -39.5445 	 52.5047 	 105.588 	 
C 	 -41.1789 	 51.4216 	 104.718 	 
H 	 -42.2209 	 51.2504 	 104.918 	 
H 	 -40.6219 	 50.4533 	 104.843 	 
H 	 -41.106 	 51.7834 	 103.696 	 
H 	 -43.9358 	 51.3154 	 100.585 	 
H 	 -45.1449 	 55.2269 	 107.851 	 
*
