! wB97X-D3 SP def2-SVP
%pal
nprocs 16
end

* xyz 0 1
S 	 -14.8451 	 -6.45165 	 89.4442 	 
C 	 -16.568 	 -6.574 	 89.2483 	 
C 	 -17.0417 	 -7.58918 	 90.0203 	 
C 	 -16.0188 	 -8.35501 	 90.7671 	 
C 	 -14.7657 	 -7.91272 	 90.4768 	 
H 	 -16.1831 	 -9.2056 	 91.472 	 
C 	 -18.4763 	 -7.86634 	 90.1134 	 
H 	 -19.1135 	 -6.9835 	 90.3288 	 
H 	 -18.5231 	 -8.59413 	 90.9036 	 
C 	 -18.9784 	 -8.38279 	 88.7328 	 
H 	 -18.9139 	 -7.60058 	 87.9453 	 
H 	 -18.3863 	 -9.25831 	 88.3931 	 
C 	 -20.335 	 -9.16652 	 88.7869 	 
H 	 -20.6327 	 -9.57783 	 87.874 	 
H 	 -20.3469 	 -9.98239 	 89.4664 	 
H 	 -21.1134 	 -8.53053 	 89.1458 	 
S 	 -12.5573 	 -7.2607 	 92.0449 	 
C 	 -11.7433 	 -8.63056 	 92.8354 	 
C 	 -11.8288 	 -9.76737 	 92.0804 	 
C 	 -12.8448 	 -9.63738 	 91.0562 	 
C 	 -13.4922 	 -8.38334 	 91.0828 	 
H 	 -11.2886 	 -10.6674 	 92.2732 	 
C 	 -13.2355 	 -10.7601 	 90.0569 	 
H 	 -13.0335 	 -10.3018 	 89.0283 	 
H 	 -14.3072 	 -11.0212 	 90.0294 	 
C 	 -12.3215 	 -12.0401 	 90.1247 	 
H 	 -12.3991 	 -12.6222 	 91.0744 	 
H 	 -11.2529 	 -11.6899 	 90.1793 	 
C 	 -12.5242 	 -12.9861 	 88.8863 	 
H 	 -13.5569 	 -13.3149 	 88.8589 	 
H 	 -12.0146 	 -13.8742 	 89.0976 	 
H 	 -12.1374 	 -12.5789 	 87.938 	 
H 	 -17.2815 	 -5.91644 	 88.6582 	 
H 	 -10.9521 	 -8.65209 	 93.5905 	 
*
