! wB97X-D3 SP def2-SVP
%pal
nprocs 16
end

* xyz 0 1
S 	 -36.5994 	 58.1224 	 114.187 	 
C 	 -38.1401 	 58.5921 	 113.697 	 
C 	 -38.7898 	 57.6003 	 112.95 	 
C 	 -37.9717 	 56.4198 	 112.895 	 
C 	 -36.7023 	 56.5668 	 113.375 	 
H 	 -38.3011 	 55.4578 	 112.424 	 
C 	 -40.1864 	 57.6671 	 112.397 	 
H 	 -40.7146 	 58.2587 	 113.143 	 
H 	 -40.7193 	 56.7161 	 112.229 	 
C 	 -40.234 	 58.4538 	 111.096 	 
H 	 -39.3098 	 58.1879 	 110.628 	 
H 	 -41.1014 	 58.0576 	 110.609 	 
C 	 -40.3204 	 59.9614 	 111.228 	 
H 	 -41.3116 	 60.3052 	 111.354 	 
H 	 -39.7212 	 60.434 	 111.977 	 
H 	 -39.8852 	 60.4035 	 110.319 	 
S 	 -34.9342 	 55.4004 	 111.681 	 
C 	 -34.1399 	 53.9702 	 112.15 	 
C 	 -34.3148 	 53.6275 	 113.486 	 
C 	 -35.1544 	 54.5732 	 114.168 	 
C 	 -35.6948 	 55.5247 	 113.248 	 
H 	 -33.7605 	 52.8362 	 113.851 	 
C 	 -35.5401 	 54.4405 	 115.595 	 
H 	 -35.8369 	 55.4052 	 115.974 	 
H 	 -34.5821 	 54.1708 	 116.06 	 
C 	 -36.5698 	 53.3359 	 115.772 	 
H 	 -36.1072 	 52.4015 	 115.457 	 
H 	 -37.4057 	 53.4667 	 115.076 	 
C 	 -37.1311 	 53.2891 	 117.209 	 
H 	 -36.4091 	 52.9576 	 117.91 	 
H 	 -38.0125 	 52.6671 	 117.372 	 
H 	 -37.5416 	 54.2363 	 117.313 	 
H 	 -38.6222 	 59.5085 	 113.955 	 
H 	 -33.4848 	 53.3966 	 111.563 	 
*
