! wB97X-D3 SP def2-SVP
%pal
nprocs 16
end

* xyz 0 1
S 	 -18.3327 	 -2.23518 	 87.3215 	 
C 	 -18.1052 	 -1.00959 	 86.0977 	 
C 	 -16.806 	 -0.591919 	 86.0127 	 
C 	 -15.9022 	 -1.40317 	 86.7679 	 
C 	 -16.6151 	 -2.32985 	 87.5277 	 
H 	 -14.8385 	 -1.27112 	 86.8861 	 
C 	 -16.416 	 0.759545 	 85.2171 	 
H 	 -15.3767 	 0.9282 	 85.6211 	 
H 	 -17.0408 	 1.64124 	 85.4792 	 
C 	 -16.303 	 0.552886 	 83.6566 	 
H 	 -17.2726 	 0.25551 	 83.2235 	 
H 	 -16.0305 	 1.44521 	 83.2253 	 
C 	 -15.3168 	 -0.607012 	 83.2432 	 
H 	 -15.5219 	 -1.60698 	 83.612 	 
H 	 -15.3135 	 -0.631205 	 82.1317 	 
H 	 -14.3033 	 -0.306015 	 83.4786 	 
S 	 -14.3739 	 -3.8088 	 87.9974 	 
C 	 -14.3796 	 -4.8552 	 89.387 	 
C 	 -15.5545 	 -4.87753 	 90.0713 	 
C 	 -16.4297 	 -3.90248 	 89.6243 	 
C 	 -15.991 	 -3.25771 	 88.4483 	 
H 	 -15.7217 	 -5.67946 	 90.7999 	 
C 	 -17.8492 	 -3.80561 	 90.2102 	 
H 	 -18.4287 	 -4.63136 	 89.9026 	 
H 	 -18.2943 	 -2.87289 	 89.7941 	 
C 	 -17.9447 	 -3.77806 	 91.7568 	 
H 	 -17.2244 	 -3.02427 	 92.0853 	 
H 	 -17.3364 	 -4.53727 	 92.1498 	 
C 	 -19.369 	 -3.71785 	 92.3119 	 
H 	 -19.8771 	 -4.71532 	 92.1618 	 
H 	 -20.0444 	 -2.93524 	 91.9966 	 
H 	 -19.2477 	 -3.59871 	 93.3926 	 
H 	 -18.9223 	 -0.463065 	 85.5851 	 
H 	 -13.6209 	 -5.53553 	 89.6582 	 
*
