! wB97X-D3 SP def2-SVP
%pal
nprocs 16
end

* xyz 0 1
S 	 -48.6854 	 49.0047 	 105.923 	 
C 	 -47.9209 	 49.037 	 107.479 	 
C 	 -47.424 	 47.7742 	 107.89 	 
C 	 -47.7035 	 46.8112 	 106.897 	 
C 	 -48.3104 	 47.2615 	 105.72 	 
H 	 -47.3571 	 45.7557 	 106.904 	 
C 	 -46.5291 	 47.5769 	 109.097 	 
H 	 -46.1654 	 48.5154 	 109.409 	 
H 	 -45.6603 	 46.9567 	 108.741 	 
C 	 -47.1644 	 46.746 	 110.214 	 
H 	 -48.0304 	 47.2369 	 110.687 	 
H 	 -47.4761 	 45.8198 	 109.754 	 
C 	 -46.1024 	 46.5661 	 111.369 	 
H 	 -45.1238 	 46.2788 	 111.056 	 
H 	 -45.9995 	 47.4303 	 111.922 	 
H 	 -46.4365 	 45.8023 	 112.075 	 
S 	 -49.142 	 47.6398 	 103.11 	 
C 	 -49.4476 	 46.1953 	 102.192 	 
C 	 -49.1101 	 45.0645 	 102.824 	 
C 	 -48.8584 	 45.2376 	 104.212 	 
C 	 -48.6854 	 46.5974 	 104.484 	 
H 	 -49.2796 	 44.1478 	 102.233 	 
C 	 -48.6684 	 44.0288 	 105.176 	 
H 	 -47.6495 	 44.0039 	 105.588 	 
H 	 -48.826 	 43.0959 	 104.644 	 
C 	 -49.7818 	 43.9136 	 106.284 	 
H 	 -49.5495 	 44.5841 	 107.148 	 
H 	 -49.6381 	 43.0332 	 106.81 	 
C 	 -51.2383 	 43.9113 	 105.847 	 
H 	 -51.8142 	 43.4149 	 106.598 	 
H 	 -51.4399 	 43.6803 	 104.881 	 
H 	 -51.4595 	 45.0365 	 105.97 	 
H 	 -47.7434 	 49.8815 	 108.108 	 
H 	 -49.965 	 46.1061 	 101.224 	 
*
