! wB97X-D3 SP def2-SVP
%pal
nprocs 16
end

* xyz 0 1
S 	 -5.04169 	 -19.2384 	 80.2703 	 
C 	 -4.31021 	 -18.9185 	 81.7964 	 
C 	 -4.16447 	 -17.5973 	 82.1418 	 
C 	 -4.80191 	 -16.7717 	 81.176 	 
C 	 -5.38498 	 -17.4659 	 80.0986 	 
H 	 -4.87268 	 -15.7268 	 81.1928 	 
C 	 -3.29052 	 -17.0981 	 83.2744 	 
H 	 -2.3156 	 -16.8239 	 82.9462 	 
H 	 -3.18366 	 -17.9441 	 83.9909 	 
C 	 -3.83494 	 -15.9791 	 84.1011 	 
H 	 -3.79639 	 -15.1993 	 83.3592 	 
H 	 -4.80005 	 -16.07 	 84.4988 	 
C 	 -2.98252 	 -15.648 	 85.2952 	 
H 	 -2.55016 	 -16.5252 	 85.6712 	 
H 	 -2.14963 	 -15.0868 	 84.9059 	 
H 	 -3.43109 	 -14.9797 	 86.011 	 
S 	 -5.69027 	 -17.1169 	 77.3295 	 
C 	 -6.92491 	 -16.1691 	 76.7354 	 
C 	 -7.63368 	 -15.5086 	 77.7535 	 
C 	 -7.20563 	 -15.8832 	 79.0917 	 
C 	 -6.1722 	 -16.8043 	 79.0384 	 
H 	 -8.46508 	 -14.8852 	 77.5241 	 
C 	 -7.98088 	 -15.4007 	 80.2795 	 
H 	 -7.6466 	 -15.9579 	 81.1489 	 
H 	 -9.09904 	 -15.6207 	 80.2021 	 
C 	 -7.71846 	 -13.9135 	 80.6414 	 
H 	 -8.65467 	 -13.6607 	 81.1138 	 
H 	 -7.57025 	 -13.3026 	 79.7358 	 
C 	 -6.62289 	 -13.6455 	 81.6689 	 
H 	 -6.62855 	 -12.5707 	 81.9417 	 
H 	 -5.60442 	 -13.7639 	 81.3377 	 
H 	 -6.81265 	 -14.2958 	 82.5746 	 
H 	 -3.96384 	 -19.688 	 82.4109 	 
H 	 -7.23659 	 -16.0201 	 75.6736 	 
*
