! wB97X-D3 SP def2-SVP
%pal
nprocs 16
end

* xyz 0 1
S 	 -89.0231 	 41.6543 	 113.672 	 
C 	 -88.1799 	 42.7744 	 112.623 	 
C 	 -88.7504 	 44.0688 	 112.784 	 
C 	 -90.0855 	 44.0055 	 113.335 	 
C 	 -90.3992 	 42.7624 	 113.865 	 
H 	 -90.849 	 44.7884 	 113.429 	 
C 	 -88.2765 	 45.3073 	 112.079 	 
H 	 -89.1832 	 45.7264 	 111.596 	 
H 	 -87.5982 	 45.0846 	 111.243 	 
C 	 -87.6733 	 46.4298 	 112.997 	 
H 	 -86.7289 	 46.1512 	 113.475 	 
H 	 -87.3463 	 47.1617 	 112.291 	 
C 	 -88.6873 	 47.0521 	 113.968 	 
H 	 -89.0555 	 46.38 	 114.781 	 
H 	 -88.1707 	 47.8884 	 114.428 	 
H 	 -89.6021 	 47.4943 	 113.566 	 
S 	 -93.0158 	 42.2987 	 113.769 	 
C 	 -93.9992 	 42.2301 	 115.147 	 
C 	 -93.2894 	 42.1439 	 116.273 	 
C 	 -91.9302 	 42.4331 	 116.001 	 
C 	 -91.6046 	 42.5245 	 114.634 	 
H 	 -93.7117 	 41.9471 	 117.238 	 
C 	 -90.797 	 42.4841 	 117.051 	 
H 	 -91.0766 	 43.341 	 117.636 	 
H 	 -89.8108 	 42.8305 	 116.719 	 
C 	 -90.6004 	 41.2185 	 117.931 	 
H 	 -90.1103 	 40.3599 	 117.42 	 
H 	 -91.6137 	 40.8455 	 118.12 	 
C 	 -89.9594 	 41.4478 	 119.307 	 
H 	 -89.055 	 42.0263 	 119.217 	 
H 	 -89.6442 	 40.4866 	 119.747 	 
H 	 -90.7482 	 41.9103 	 119.95 	 
H 	 -87.2656 	 42.6417 	 112.223 	 
H 	 -95.0244 	 41.9025 	 115.118 	 
*
