! wB97X-D3 SP def2-SVP
%pal
nprocs 16
end

* xyz 0 1
S 	 9.56362 	 23.7635 	 67.0491 	 
C 	 8.21032 	 23.5383 	 66.0507 	 
C 	 7.47508 	 24.7119 	 65.9921 	 
C 	 8.05793 	 25.7929 	 66.6378 	 
C 	 9.14222 	 25.4372 	 67.4772 	 
H 	 7.63052 	 26.8059 	 66.6552 	 
C 	 6.24226 	 24.8537 	 65.1541 	 
H 	 6.44474 	 24.1763 	 64.3538 	 
H 	 6.25409 	 25.8947 	 64.7217 	 
C 	 4.91881 	 24.4801 	 65.8691 	 
H 	 4.04475 	 24.6974 	 65.215 	 
H 	 4.88194 	 23.3772 	 66.1761 	 
C 	 4.71875 	 25.2708 	 67.2086 	 
H 	 4.76512 	 26.3529 	 66.9515 	 
H 	 3.76205 	 25.1175 	 67.7432 	 
H 	 5.47981 	 24.9182 	 67.9394 	 
S 	 10.0675 	 25.618 	 70.0324 	 
C 	 11.0806 	 26.9462 	 70.4352 	 
C 	 11.1598 	 27.864 	 69.3977 	 
C 	 10.4935 	 27.4621 	 68.2374 	 
C 	 9.96789 	 26.1841 	 68.4028 	 
H 	 11.4816 	 28.8446 	 69.5725 	 
C 	 10.3406 	 28.2947 	 66.9844 	 
H 	 10.5531 	 29.293 	 67.1684 	 
H 	 9.32562 	 28.4414 	 66.7062 	 
C 	 11.0242 	 27.8389 	 65.6913 	 
H 	 10.6829 	 28.4417 	 64.8293 	 
H 	 10.8749 	 26.7929 	 65.3543 	 
C 	 12.5909 	 28.0866 	 65.7139 	 
H 	 12.8672 	 29.0332 	 66.1289 	 
H 	 12.9385 	 27.947 	 64.7003 	 
H 	 12.994 	 27.3102 	 66.333 	 
H 	 7.96389 	 22.7411 	 65.3842 	 
H 	 11.3176 	 27.0973 	 71.4423 	 
*
