! wB97X-D3 SP def2-SVP
%pal
nprocs 16
end

* xyz 0 1
S 	 -72.6515 	 51.4376 	 123.989 	 
C 	 -72.0207 	 52.879 	 124.787 	 
C 	 -72.8586 	 53.9208 	 124.412 	 
C 	 -74.0404 	 53.6291 	 123.636 	 
C 	 -73.9986 	 52.2989 	 123.309 	 
H 	 -74.8108 	 54.3367 	 123.349 	 
C 	 -72.7049 	 55.3258 	 124.974 	 
H 	 -71.919 	 55.3464 	 125.764 	 
H 	 -73.6958 	 55.4674 	 125.453 	 
C 	 -72.4518 	 56.449 	 123.996 	 
H 	 -71.507 	 56.2326 	 123.467 	 
H 	 -73.2732 	 56.5904 	 123.295 	 
C 	 -72.284 	 57.8188 	 124.692 	 
H 	 -71.7146 	 58.3997 	 123.98 	 
H 	 -73.25 	 58.1786 	 124.997 	 
H 	 -71.6712 	 57.6761 	 125.614 	 
S 	 -74.0309 	 50.6686 	 121.09 	 
C 	 -75.5174 	 50.3757 	 120.249 	 
C 	 -76.5941 	 50.9 	 120.917 	 
C 	 -76.2159 	 51.7431 	 121.963 	 
C 	 -74.8172 	 51.6806 	 122.266 	 
H 	 -77.5815 	 50.6188 	 120.57 	 
C 	 -77.2508 	 52.4265 	 122.803 	 
H 	 -77.9828 	 52.8471 	 122.023 	 
H 	 -76.8366 	 53.3173 	 123.328 	 
C 	 -77.9861 	 51.5124 	 123.807 	 
H 	 -77.3852 	 51.2887 	 124.683 	 
H 	 -78.3288 	 50.5846 	 123.4 	 
C 	 -79.1652 	 52.143 	 124.364 	 
H 	 -79.9264 	 52.5301 	 123.68 	 
H 	 -78.8568 	 53.0013 	 125.011 	 
H 	 -79.7799 	 51.449 	 124.942 	 
H 	 -71.2997 	 52.8177 	 125.607 	 
H 	 -75.6774 	 49.7096 	 119.392 	 
*
