! wB97X-D3 SP def2-SVP
%pal
nprocs 16
end

* xyz 0 1
S 	 -80.876 	 43.9197 	 127.926 	 
C 	 -82.5868 	 44.0066 	 127.486 	 
C 	 -83.2626 	 44.6507 	 128.537 	 
C 	 -82.41 	 45.2526 	 129.555 	 
C 	 -81.1368 	 44.834 	 129.384 	 
H 	 -82.6372 	 45.9196 	 130.355 	 
C 	 -84.7448 	 44.9491 	 128.527 	 
H 	 -85.0779 	 44.5172 	 129.493 	 
H 	 -85.2284 	 44.3289 	 127.728 	 
C 	 -85.0986 	 46.4643 	 128.293 	 
H 	 -86.1978 	 46.7468 	 128.33 	 
H 	 -84.7023 	 47.1091 	 129.108 	 
C 	 -84.57 	 46.9555 	 127.019 	 
H 	 -84.8737 	 47.9842 	 126.978 	 
H 	 -83.4905 	 46.8128 	 126.953 	 
H 	 -85.0121 	 46.358 	 126.206 	 
S 	 -78.5846 	 45.61 	 129.636 	 
C 	 -77.8853 	 45.8166 	 131.222 	 
C 	 -78.7468 	 45.5073 	 132.222 	 
C 	 -80.0243 	 45.1767 	 131.7 	 
C 	 -80.0522 	 45.0388 	 130.308 	 
H 	 -78.38 	 45.6098 	 133.196 	 
C 	 -81.2181 	 44.7721 	 132.653 	 
H 	 -80.7708 	 44.2288 	 133.533 	 
H 	 -81.8045 	 44.0048 	 132.145 	 
C 	 -82.023 	 45.9473 	 133.334 	 
H 	 -82.5115 	 46.268 	 132.459 	 
H 	 -81.3925 	 46.7598 	 133.734 	 
C 	 -83.1642 	 45.5169 	 134.307 	 
H 	 -83.9731 	 46.2137 	 134.219 	 
H 	 -82.7002 	 45.6158 	 135.331 	 
H 	 -83.5218 	 44.4573 	 134.209 	 
H 	 -83.1619 	 43.4406 	 126.77 	 
H 	 -76.8872 	 46.2086 	 131.342 	 
*
