! wB97X-D3 SP def2-SVP
%pal
nprocs 16
end

* xyz 0 1
S 	 -7.95285 	 31.2957 	 53.9789 	 
C 	 -7.60208 	 29.5455 	 54.0505 	 
C 	 -6.19374 	 29.3461 	 53.917 	 
C 	 -5.54993 	 30.5236 	 53.4975 	 
C 	 -6.33867 	 31.6477 	 53.4681 	 
H 	 -4.49317 	 30.5883 	 53.2379 	 
C 	 -5.3663 	 28.0052 	 53.9414 	 
H 	 -4.46036 	 28.0882 	 53.3622 	 
H 	 -5.95432 	 27.2477 	 53.4465 	 
C 	 -5.02562 	 27.5366 	 55.3528 	 
H 	 -4.40256 	 26.6893 	 55.2806 	 
H 	 -4.46946 	 28.2482 	 55.9714 	 
C 	 -6.28201 	 27.2169 	 56.1832 	 
H 	 -6.6509 	 28.1213 	 56.6794 	 
H 	 -7.14233 	 26.8959 	 55.595 	 
H 	 -6.06545 	 26.4097 	 56.8313 	 
S 	 -4.17185 	 33.4236 	 53.4819 	 
C 	 -4.25309 	 34.9258 	 52.6011 	 
C 	 -5.49306 	 35.0231 	 52.0803 	 
C 	 -6.4955 	 34.0171 	 52.365 	 
C 	 -5.84309 	 32.9663 	 53.0112 	 
H 	 -5.68296 	 35.837 	 51.4248 	 
C 	 -7.96023 	 34.0762 	 51.8899 	 
H 	 -8.32857 	 33.1782 	 51.4357 	 
H 	 -8.02725 	 34.8122 	 51.0087 	 
C 	 -8.96178 	 34.4465 	 52.9696 	 
H 	 -8.86109 	 33.7417 	 53.8291 	 
H 	 -9.94894 	 34.2997 	 52.5779 	 
C 	 -8.71371 	 35.9317 	 53.4212 	 
H 	 -9.33646 	 36.1343 	 54.3594 	 
H 	 -8.99766 	 36.6633 	 52.7291 	 
H 	 -7.67629 	 36.1315 	 53.6396 	 
H 	 -8.36322 	 28.7568 	 54.1366 	 
H 	 -3.44062 	 35.6368 	 52.3886 	 
*
