! wB97X-D3 SP def2-SVP
%pal
nprocs 16
end

* xyz 0 1
S 	 6.1087 	 -14.0811 	 63.4326 	 
C 	 6.70173 	 -13.5681 	 64.949 	 
C 	 7.13119 	 -14.6928 	 65.727 	 
C 	 6.66425 	 -15.8933 	 65.1779 	 
C 	 6.22369 	 -15.7872 	 63.8489 	 
H 	 6.53834 	 -16.8447 	 65.6767 	 
C 	 7.70168 	 -14.5572 	 67.0869 	 
H 	 7.94292 	 -15.5248 	 67.4111 	 
H 	 6.86152 	 -14.3063 	 67.7901 	 
C 	 8.89011 	 -13.6088 	 67.3554 	 
H 	 8.59731 	 -12.5761 	 67.1763 	 
H 	 9.02759 	 -13.8465 	 68.3786 	 
C 	 10.1884 	 -14.006 	 66.6419 	 
H 	 9.95671 	 -14.2458 	 65.5648 	 
H 	 10.8629 	 -13.1561 	 66.883 	 
H 	 10.6412 	 -14.9544 	 67.0832 	 
S 	 7.17592 	 -18.0171 	 62.5671 	 
C 	 6.06859 	 -19.119 	 61.7749 	 
C 	 4.82244 	 -18.5065 	 61.4847 	 
C 	 4.75066 	 -17.225 	 62.1578 	 
C 	 5.87804 	 -16.905 	 62.9223 	 
H 	 4.14747 	 -19.0749 	 60.8239 	 
C 	 3.42869 	 -16.4832 	 62.0727 	 
H 	 3.25271 	 -15.8084 	 62.8796 	 
H 	 2.523 	 -17.0927 	 61.9817 	 
C 	 3.42933 	 -15.5927 	 60.7857 	 
H 	 3.42088 	 -16.2059 	 59.9642 	 
H 	 4.25783 	 -14.8325 	 60.8037 	 
C 	 2.12614 	 -14.6441 	 60.6353 	 
H 	 1.20302 	 -15.1901 	 60.5347 	 
H 	 2.2486 	 -13.9534 	 59.8458 	 
H 	 2.00411 	 -14.2224 	 61.5984 	 
H 	 6.76423 	 -12.5023 	 65.2859 	 
H 	 6.30998 	 -20.1101 	 61.4328 	 
*
