! wB97X-D3 SP def2-SVP
%pal
nprocs 16
end

* xyz 0 1
S 	 -98.6378 	 40.2845 	 126.97 	 
C 	 -98.9524 	 40.3783 	 128.636 	 
C 	 -97.7612 	 40.2789 	 129.346 	 
C 	 -96.5601 	 40.322 	 128.547 	 
C 	 -96.8896 	 40.2368 	 127.213 	 
H 	 -95.5075 	 40.47 	 128.834 	 
C 	 -97.6639 	 40.3337 	 130.855 	 
H 	 -98.082 	 41.2379 	 131.178 	 
H 	 -96.6496 	 40.4195 	 131.178 	 
C 	 -98.2897 	 39.1737 	 131.598 	 
H 	 -99.4289 	 39.2041 	 131.558 	 
H 	 -97.9041 	 38.3036 	 131.027 	 
C 	 -97.7175 	 39.0459 	 133.077 	 
H 	 -98.1029 	 39.7144 	 133.762 	 
H 	 -97.9671 	 38.0577 	 133.546 	 
H 	 -96.6399 	 39.2279 	 133.061 	 
S 	 -94.454 	 39.7561 	 125.978 	 
C 	 -94.0537 	 40.7587 	 124.565 	 
C 	 -94.8354 	 41.8493 	 124.527 	 
C 	 -95.9838 	 41.7548 	 125.348 	 
C 	 -95.9466 	 40.6197 	 126.151 	 
H 	 -94.574 	 42.6432 	 123.926 	 
C 	 -97.1685 	 42.8063 	 125.361 	 
H 	 -97.2406 	 43.3985 	 126.306 	 
H 	 -97.9928 	 42.1765 	 125.231 	 
C 	 -97.222 	 43.807 	 124.161 	 
H 	 -96.3156 	 44.4052 	 124.154 	 
H 	 -98.0992 	 44.441 	 124.357 	 
C 	 -97.4378 	 43.1822 	 122.792 	 
H 	 -96.6945 	 42.3993 	 122.558 	 
H 	 -97.4337 	 43.9029 	 121.981 	 
H 	 -98.4072 	 42.691 	 122.679 	 
H 	 -99.8995 	 40.2953 	 129.102 	 
H 	 -93.0461 	 40.8266 	 124.196 	 
*
