! wB97X-D3 SP def2-SVP
%pal
nprocs 16
end

* xyz 0 1
S 	 3.88699 	 17.9557 	 51.6628 	 
C 	 3.16471 	 16.4322 	 51.3563 	 
C 	 1.80879 	 16.4979 	 51.509 	 
C 	 1.3686 	 17.7647 	 52.0462 	 
C 	 2.33523 	 18.7254 	 52.1132 	 
H 	 0.342968 	 17.9161 	 52.3271 	 
C 	 0.854069 	 15.3327 	 51.3971 	 
H 	 0.565594 	 14.9688 	 52.3814 	 
H 	 1.42514 	 14.5106 	 50.9548 	 
C 	 -0.30127 	 15.6517 	 50.4896 	 
H 	 -0.734656 	 16.5651 	 50.7681 	 
H 	 -0.165204 	 15.7601 	 49.4548 	 
C 	 -1.39093 	 14.6981 	 50.8211 	 
H 	 -2.22452 	 14.7992 	 50.0673 	 
H 	 -1.143 	 13.6201 	 50.665 	 
H 	 -1.67327 	 14.7589 	 51.8836 	 
S 	 1.1498 	 20.3393 	 53.8559 	 
C 	 1.54321 	 22.0827 	 53.8653 	 
C 	 2.50187 	 22.4072 	 52.9324 	 
C 	 2.85193 	 21.2933 	 52.1316 	 
C 	 2.23708 	 20.0768 	 52.5455 	 
H 	 2.99344 	 23.4115 	 52.9635 	 
C 	 3.81944 	 21.5149 	 50.9337 	 
H 	 3.40901 	 21.92 	 50.024 	 
H 	 4.10965 	 20.5717 	 50.6147 	 
C 	 5.16387 	 22.3457 	 51.271 	 
H 	 4.92066 	 23.3825 	 51.5479 	 
H 	 5.59374 	 22.6434 	 50.2895 	 
C 	 6.19823 	 21.635 	 52.1673 	 
H 	 7.22022 	 22.0363 	 52.025 	 
H 	 6.11871 	 20.5706 	 51.8449 	 
H 	 5.91572 	 21.7877 	 53.1936 	 
H 	 3.62926 	 15.4926 	 51.1125 	 
H 	 1.10137 	 22.7917 	 54.5046 	 
*
