! wB97X-D3 SP def2-SVP
%pal
nprocs 16
end

* xyz 0 1
S 	 -43.1708 	 26.8708 	 77.3907 	 
C 	 -44.461 	 26.1657 	 78.3342 	 
C 	 -44.3133 	 24.8061 	 78.5775 	 
C 	 -43.0658 	 24.348 	 77.9503 	 
C 	 -42.264 	 25.3725 	 77.3733 	 
H 	 -42.6655 	 23.3271 	 78.0034 	 
C 	 -45.3547 	 23.9447 	 79.3202 	 
H 	 -45.5818 	 24.4332 	 80.3502 	 
H 	 -44.8916 	 23.0432 	 79.6552 	 
C 	 -46.647 	 23.6123 	 78.6359 	 
H 	 -47.2571 	 23.1497 	 79.4069 	 
H 	 -47.0518 	 24.5307 	 78.2877 	 
C 	 -46.5385 	 22.6564 	 77.4986 	 
H 	 -45.9884 	 21.7908 	 77.8767 	 
H 	 -47.5088 	 22.4413 	 77.1602 	 
H 	 -46.0741 	 23.1522 	 76.6652 	 
S 	 -40.5597 	 23.8585 	 75.8452 	 
C 	 -39.0871 	 24.5706 	 75.3517 	 
C 	 -38.7255 	 25.6108 	 76.1582 	 
C 	 -39.8313 	 26.0748 	 76.8763 	 
C 	 -40.9387 	 25.253 	 76.8379 	 
H 	 -37.7501 	 26.0335 	 76.1103 	 
C 	 -39.8934 	 27.4275 	 77.5892 	 
H 	 -38.9297 	 27.4794 	 78.0908 	 
H 	 -40.6865 	 27.3565 	 78.2566 	 
C 	 -40.0342 	 28.6684 	 76.7399 	 
H 	 -40.9744 	 28.6419 	 76.2779 	 
H 	 -39.2807 	 28.627 	 76.0457 	 
C 	 -40.0597 	 29.9773 	 77.4689 	 
H 	 -40.8464 	 30.0143 	 78.1951 	 
H 	 -40.3744 	 30.8454 	 76.8631 	 
H 	 -39.1265 	 30.2191 	 78.0415 	 
H 	 -45.347 	 26.6963 	 78.424 	 
H 	 -38.522 	 23.9837 	 74.6453 	 
*
