! wB97X-D3 SP def2-SVP
%pal
nprocs 16
end

* xyz 0 1
S 	 31.5989 	 4.76905 	 66.0417 	 
C 	 31.7845 	 6.48687 	 66.2531 	 
C 	 30.785 	 7.18653 	 65.571 	 
C 	 29.7072 	 6.30334 	 65.2249 	 
C 	 29.9861 	 4.95728 	 65.4283 	 
H 	 28.7449 	 6.49435 	 64.7409 	 
C 	 30.6899 	 8.73036 	 65.3694 	 
H 	 30.9575 	 9.16106 	 66.3278 	 
H 	 29.6731 	 9.05323 	 65.2209 	 
C 	 31.4051 	 9.34334 	 64.2198 	 
H 	 30.9894 	 9.0494 	 63.3011 	 
H 	 31.2381 	 10.4528 	 64.3268 	 
C 	 32.9491 	 9.1814 	 64.2241 	 
H 	 33.2834 	 8.13834 	 64.1913 	 
H 	 33.4921 	 9.70087 	 63.3122 	 
H 	 33.3541 	 9.66296 	 65.0869 	 
S 	 29.8843 	 2.4788 	 64.2068 	 
C 	 28.4536 	 1.53943 	 64.3705 	 
C 	 27.378 	 2.15533 	 65.0093 	 
C 	 27.8341 	 3.43533 	 65.5435 	 
C 	 29.1255 	 3.76409 	 65.1041 	 
H 	 26.463 	 1.59373 	 65.1713 	 
C 	 26.9725 	 4.38156 	 66.3523 	 
H 	 27.4815 	 5.33016 	 66.5746 	 
H 	 26.8966 	 3.76747 	 67.3516 	 
C 	 25.5644 	 4.62634 	 65.9291 	 
H 	 24.9773 	 3.72622 	 66.1296 	 
H 	 25.4761 	 5.09687 	 64.8967 	 
C 	 24.8645 	 5.42809 	 67.0646 	 
H 	 25.0111 	 4.8255 	 67.9525 	 
H 	 23.8151 	 5.45428 	 66.8158 	 
H 	 25.1832 	 6.44198 	 67.097 	 
H 	 32.5961 	 7.00977 	 66.6704 	 
H 	 28.2247 	 0.546168 	 64.0015 	 
*
