! wB97X-D3 SP def2-SVP
%pal
nprocs 16
end

* xyz 0 1
S 	 58.6186 	 -7.62289 	 88.7351 	 
C 	 58.8358 	 -5.87068 	 88.7144 	 
C 	 58.5029 	 -5.30915 	 87.483 	 
C 	 57.989 	 -6.28692 	 86.5912 	 
C 	 57.947 	 -7.56892 	 87.1696 	 
H 	 57.6364 	 -6.11744 	 85.596 	 
C 	 58.4937 	 -3.84597 	 87.0759 	 
H 	 58.553 	 -3.30091 	 88.0523 	 
H 	 57.5051 	 -3.50595 	 86.8023 	 
C 	 59.6224 	 -3.42633 	 86.024 	 
H 	 59.6164 	 -2.32809 	 86.2121 	 
H 	 60.5238 	 -3.8948 	 86.3592 	 
C 	 59.3742 	 -3.78609 	 84.5335 	 
H 	 59.3633 	 -4.80497 	 84.2435 	 
H 	 58.5592 	 -3.24711 	 84.1319 	 
H 	 60.2395 	 -3.43654 	 83.9899 	 
S 	 55.8572 	 -9.41945 	 87.2495 	 
C 	 55.6944 	 -10.6052 	 86.0021 	 
C 	 56.6577 	 -10.426 	 85.0197 	 
C 	 57.5438 	 -9.35238 	 85.3077 	 
C 	 57.3297 	 -8.75967 	 86.5183 	 
H 	 56.6353 	 -11.1966 	 84.272 	 
C 	 58.6711 	 -8.95313 	 84.4054 	 
H 	 59.0912 	 -7.93893 	 84.7129 	 
H 	 58.3027 	 -8.68086 	 83.3965 	 
C 	 59.9017 	 -9.83986 	 84.2003 	 
H 	 59.5666 	 -10.8369 	 83.7404 	 
H 	 60.256 	 -9.98138 	 85.1617 	 
C 	 61.0516 	 -9.29777 	 83.3653 	 
H 	 61.5655 	 -8.52089 	 83.9658 	 
H 	 60.792 	 -8.83423 	 82.4123 	 
H 	 61.7959 	 -10.038 	 83.0926 	 
H 	 59.2738 	 -5.30375 	 89.5385 	 
H 	 55.0758 	 -11.489 	 85.9525 	 
*
