! wB97X-D3 SP def2-SVP
%pal
nprocs 16
end

* xyz 0 1
S 	 -66.6285 	 38.8931 	 135.779 	 
C 	 -65.0563 	 39.4111 	 135.206 	 
C 	 -63.9913 	 38.6867 	 135.747 	 
C 	 -64.507 	 37.4642 	 136.286 	 
C 	 -65.8832 	 37.413 	 136.484 	 
H 	 -63.8149 	 36.6942 	 136.681 	 
C 	 -62.4855 	 39.0179 	 135.57 	 
H 	 -61.8876 	 38.1006 	 135.579 	 
H 	 -62.1976 	 39.6697 	 136.352 	 
C 	 -62.0356 	 39.675 	 134.285 	 
H 	 -62.3713 	 39.2641 	 133.312 	 
H 	 -62.4284 	 40.7444 	 134.332 	 
C 	 -60.5053 	 39.9594 	 134.242 	 
H 	 -60.0825 	 39.054 	 134.548 	 
H 	 -60.1309 	 40.1722 	 133.223 	 
H 	 -60.2174 	 40.7682 	 134.873 	 
S 	 -67.5573 	 36.981 	 138.543 	 
C 	 -68.0421 	 35.3314 	 138.897 	 
C 	 -67.2989 	 34.4293 	 138.216 	 
C 	 -66.5746 	 34.9927 	 137.151 	 
C 	 -66.6348 	 36.4017 	 137.199 	 
H 	 -67.4524 	 33.3909 	 138.472 	 
C 	 -65.7585 	 34.1447 	 136.22 	 
H 	 -64.9216 	 33.7207 	 136.874 	 
H 	 -65.214 	 34.9072 	 135.561 	 
C 	 -66.5685 	 33.1063 	 135.368 	 
H 	 -66.04 	 32.8311 	 134.47 	 
H 	 -67.3774 	 33.5807 	 134.871 	 
C 	 -67.0345 	 31.8278 	 136.084 	 
H 	 -67.7589 	 31.9551 	 136.874 	 
H 	 -66.185 	 31.3455 	 136.589 	 
H 	 -67.5332 	 31.2139 	 135.447 	 
H 	 -64.9572 	 40.4119 	 134.917 	 
H 	 -68.7873 	 35.04 	 139.635 	 
*
