! wB97X-D3 SP def2-SVP
%pal
nprocs 16
end

* xyz 0 1
S 	 -42.0122 	 38.149 	 81.2885 	 
C 	 -41.4072 	 38.7876 	 79.758 	 
C 	 -42.0987 	 39.9306 	 79.4101 	 
C 	 -43.0578 	 40.2725 	 80.4052 	 
C 	 -43.0794 	 39.4681 	 81.5292 	 
H 	 -43.7982 	 41.0514 	 80.3466 	 
C 	 -41.8298 	 40.8146 	 78.1734 	 
H 	 -42.7871 	 40.7564 	 77.6105 	 
H 	 -41.178 	 40.2166 	 77.5348 	 
C 	 -41.3247 	 42.2345 	 78.4219 	 
H 	 -41.3636 	 42.8588 	 77.5388 	 
H 	 -41.9468 	 42.8457 	 79.0801 	 
C 	 -39.864 	 42.2633 	 79.0145 	 
H 	 -39.8384 	 41.7705 	 80.0198 	 
H 	 -39.2166 	 41.7922 	 78.315 	 
H 	 -39.6091 	 43.3094 	 79.1013 	 
S 	 -45.6428 	 39.2986 	 82.3583 	 
C 	 -46.0619 	 39.4315 	 84.0158 	 
C 	 -44.9048 	 39.5185 	 84.8173 	 
C 	 -43.7057 	 39.7656 	 84.0377 	 
C 	 -43.9822 	 39.5816 	 82.6767 	 
H 	 -45.1093 	 39.3932 	 85.852 	 
C 	 -42.3489 	 39.9761 	 84.6606 	 
H 	 -41.9072 	 39.0426 	 84.3295 	 
H 	 -42.3333 	 40.034 	 85.7509 	 
C 	 -41.5657 	 41.1984 	 84.1937 	 
H 	 -41.3984 	 41.1855 	 83.0849 	 
H 	 -40.6174 	 41.2893 	 84.7227 	 
C 	 -42.4237 	 42.4361 	 84.504 	 
H 	 -42.5424 	 42.4329 	 85.6183 	 
H 	 -43.3529 	 42.5779 	 83.9026 	 
H 	 -41.7684 	 43.2821 	 84.3725 	 
H 	 -40.5028 	 38.4222 	 79.2212 	 
H 	 -47.0391 	 39.2088 	 84.5052 	 
*
