! wB97X-D3 SP def2-SVP
%pal
nprocs 16
end

* xyz 0 1
S 	 61.8199 	 25.4705 	 75.7122 	 
C 	 62.3319 	 26.0224 	 74.1397 	 
C 	 63.1594 	 25.1044 	 73.49 	 
C 	 63.3467 	 23.9853 	 74.3142 	 
C 	 62.704 	 23.9548 	 75.5169 	 
H 	 63.9453 	 23.1501 	 73.9877 	 
C 	 63.671 	 25.2084 	 72.0572 	 
H 	 64.1079 	 26.2364 	 71.9423 	 
H 	 62.7638 	 25.156 	 71.4311 	 
C 	 64.6834 	 24.0963 	 71.5996 	 
H 	 65.4317 	 23.8821 	 72.3114 	 
H 	 64.2476 	 23.1136 	 71.4664 	 
C 	 65.3915 	 24.4791 	 70.3014 	 
H 	 65.9972 	 23.6902 	 69.892 	 
H 	 64.6556 	 24.4954 	 69.4208 	 
H 	 65.9021 	 25.4203 	 70.416 	 
S 	 62.3942 	 23.4407 	 78.1934 	 
C 	 62.3093 	 21.7705 	 78.6818 	 
C 	 62.5181 	 20.8845 	 77.6685 	 
C 	 62.726 	 21.5529 	 76.4136 	 
C 	 62.6899 	 22.9102 	 76.5114 	 
H 	 62.6431 	 19.8113 	 77.9298 	 
C 	 63.12 	 20.6924 	 75.2026 	 
H 	 64.0721 	 20.939 	 74.7743 	 
H 	 62.5415 	 21.1827 	 74.3927 	 
C 	 62.6319 	 19.1771 	 75.2171 	 
H 	 63.0872 	 18.7415 	 76.1155 	 
H 	 63.1324 	 18.7136 	 74.3041 	 
C 	 61.1169 	 19.0193 	 75.2325 	 
H 	 60.8763 	 17.9988 	 75.1797 	 
H 	 60.5892 	 19.481 	 74.3786 	 
H 	 60.5531 	 19.3676 	 76.1745 	 
H 	 62.0494 	 26.916 	 73.6795 	 
H 	 61.9715 	 21.4583 	 79.6898 	 
*
