! wB97X-D3 SP def2-SVP
%pal
nprocs 16
end

* xyz 0 1
S 	 48.8544 	 7.25342 	 84.6163 	 
C 	 50.2486 	 8.03608 	 83.9056 	 
C 	 50.8694 	 7.11904 	 83.0407 	 
C 	 50.3332 	 5.80654 	 83.1621 	 
C 	 49.203 	 5.74109 	 83.958 	 
H 	 50.7334 	 4.90329 	 82.6909 	 
C 	 52.1666 	 7.37372 	 82.2797 	 
H 	 52.6805 	 8.23215 	 82.8157 	 
H 	 51.9726 	 7.77594 	 81.2657 	 
C 	 53.111 	 6.14953 	 82.0898 	 
H 	 53.241 	 5.56475 	 83.0402 	 
H 	 52.5024 	 5.42253 	 81.5416 	 
C 	 54.4201 	 6.50663 	 81.4643 	 
H 	 54.7876 	 7.40734 	 82.0225 	 
H 	 55.2636 	 5.86316 	 81.483 	 
H 	 54.1925 	 6.74722 	 80.3991 	 
S 	 46.5903 	 4.9093 	 84.252 	 
C 	 46.2785 	 3.35723 	 84.8096 	 
C 	 47.4179 	 2.67024 	 85.1112 	 
C 	 48.5454 	 3.42925 	 84.8355 	 
C 	 48.3273 	 4.72375 	 84.397 	 
H 	 47.4169 	 1.71824 	 85.5735 	 
C 	 49.9809 	 2.89203 	 85.027 	 
H 	 49.8132 	 2.31744 	 85.9095 	 
H 	 50.6766 	 3.741 	 85.3004 	 
C 	 50.5168 	 2.18752 	 83.8215 	 
H 	 50.2616 	 2.77308 	 82.9462 	 
H 	 49.8924 	 1.29535 	 83.8232 	 
C 	 51.9864 	 1.67559 	 83.8963 	 
H 	 52.3256 	 1.39767 	 82.8926 	 
H 	 51.8817 	 0.793737 	 84.5536 	 
H 	 52.6978 	 2.36048 	 84.3055 	 
H 	 50.6167 	 9.03144 	 84.1055 	 
H 	 45.2877 	 2.97985 	 85.0247 	 
*
