! wB97X-D3 SP def2-SVP
%pal
nprocs 16
end

* xyz 0 1
S 	 49.214 	 13.5396 	 85.2622 	 
C 	 47.9955 	 13.5044 	 84.0293 	 
C 	 48.4661 	 12.7361 	 82.9747 	 
C 	 49.6856 	 12.0345 	 83.3012 	 
C 	 50.1984 	 12.2955 	 84.5397 	 
H 	 50.1736 	 11.2878 	 82.6831 	 
C 	 47.7795 	 12.596 	 81.6678 	 
H 	 48.4936 	 12.1194 	 81.0058 	 
H 	 47.4977 	 13.5306 	 81.27 	 
C 	 46.5795 	 11.6865 	 81.5406 	 
H 	 45.68 	 12.1319 	 82.0467 	 
H 	 46.0626 	 11.6958 	 80.547 	 
C 	 46.8472 	 10.2473 	 81.8439 	 
H 	 46.9863 	 10.1192 	 82.9214 	 
H 	 46.0708 	 9.55909 	 81.5281 	 
H 	 47.7417 	 9.85091 	 81.3062 	 
S 	 52.7463 	 12.5995 	 85.3115 	 
C 	 53.606 	 11.2731 	 85.968 	 
C 	 52.8612 	 10.1267 	 86.0303 	 
C 	 51.5846 	 10.3207 	 85.4992 	 
C 	 51.3262 	 11.6374 	 85.1547 	 
H 	 53.351 	 9.2073 	 86.3707 	 
C 	 50.6726 	 9.1875 	 85.3311 	 
H 	 49.8256 	 9.65196 	 84.8262 	 
H 	 50.2064 	 8.83583 	 86.2635 	 
C 	 51.0011 	 7.96607 	 84.3655 	 
H 	 50.2285 	 7.24993 	 84.3864 	 
H 	 51.9877 	 7.64258 	 84.7076 	 
C 	 51.1064 	 8.4267 	 82.8859 	 
H 	 50.3051 	 9.10192 	 82.6161 	 
H 	 51.15 	 7.53645 	 82.2657 	 
H 	 51.9886 	 9.05984 	 82.8572 	 
H 	 47.047 	 13.9562 	 84.0743 	 
H 	 54.5136 	 11.435 	 86.4068 	 
*
