! wB97X-D3 SP def2-SVP
%pal
nprocs 16
end

* xyz 0 1
S 	 -3.67269 	 -15.3667 	 83.3731 	 
C 	 -3.20995 	 -16.2085 	 84.8753 	 
C 	 -4.04047 	 -15.8187 	 85.8865 	 
C 	 -5.12692 	 -15.0318 	 85.3962 	 
C 	 -5.13793 	 -14.8032 	 84.0558 	 
H 	 -5.94189 	 -14.5365 	 85.9382 	 
C 	 -3.85471 	 -16.2806 	 87.3359 	 
H 	 -2.84108 	 -16.7451 	 87.4117 	 
H 	 -4.49647 	 -17.1458 	 87.5161 	 
C 	 -4.12109 	 -15.2021 	 88.3562 	 
H 	 -3.32912 	 -14.4417 	 88.1478 	 
H 	 -5.11403 	 -14.712 	 88.2821 	 
C 	 -3.92171 	 -15.7967 	 89.7293 	 
H 	 -4.02021 	 -14.9982 	 90.4359 	 
H 	 -4.79061 	 -16.4922 	 89.889 	 
H 	 -2.98728 	 -16.3808 	 89.9648 	 
S 	 -5.52434 	 -12.4371 	 82.8022 	 
C 	 -7.03659 	 -12.0815 	 81.9009 	 
C 	 -7.93816 	 -13.1003 	 82.0711 	 
C 	 -7.40368 	 -14.146 	 82.8961 	 
C 	 -6.04612 	 -14.0337 	 83.2561 	 
H 	 -8.93756 	 -12.9511 	 81.6434 	 
C 	 -8.31361 	 -15.3888 	 83.1483 	 
H 	 -9.12349 	 -15.0752 	 83.808 	 
H 	 -7.70562 	 -16.0849 	 83.7379 	 
C 	 -8.99408 	 -16.0511 	 81.927 	 
H 	 -8.20292 	 -16.5998 	 81.3629 	 
H 	 -9.34898 	 -15.2869 	 81.3472 	 
C 	 -9.96521 	 -17.1613 	 82.3618 	 
H 	 -10.7997 	 -16.8564 	 82.99 	 
H 	 -9.36237 	 -17.8459 	 82.9936 	 
H 	 -10.2661 	 -17.68 	 81.4988 	 
H 	 -2.33003 	 -16.826 	 84.9399 	 
H 	 -7.25306 	 -11.1041 	 81.4991 	 
*
