! wB97X-D3 SP def2-SVP
%pal
nprocs 16
end

* xyz 0 1
S 	 -37.74 	 55.0118 	 115.559 	 
C 	 -38.2588 	 56.2928 	 116.5 	 
C 	 -39.5932 	 56.1953 	 116.945 	 
C 	 -40.1235 	 54.9465 	 116.559 	 
C 	 -39.2872 	 54.2389 	 115.685 	 
H 	 -41.1377 	 54.6167 	 116.832 	 
C 	 -40.3072 	 57.1868 	 117.878 	 
H 	 -39.6104 	 57.9606 	 118.149 	 
H 	 -40.5231 	 56.6282 	 118.735 	 
C 	 -41.543 	 57.7541 	 117.236 	 
H 	 -42.337 	 57.0094 	 117.27 	 
H 	 -41.9758 	 58.5324 	 117.828 	 
C 	 -41.3226 	 58.4418 	 115.858 	 
H 	 -40.987 	 59.495 	 115.958 	 
H 	 -40.5118 	 57.921 	 115.287 	 
H 	 -42.2805 	 58.3488 	 115.308 	 
S 	 -38.3056 	 51.8256 	 115.107 	 
C 	 -39.1521 	 50.6772 	 114.203 	 
C 	 -40.2725 	 51.2121 	 113.655 	 
C 	 -40.6024 	 52.5272 	 114.216 	 
C 	 -39.6158 	 52.9549 	 115.051 	 
H 	 -40.8558 	 50.6467 	 112.894 	 
C 	 -41.822 	 53.2586 	 113.824 	 
H 	 -42.1603 	 53.0003 	 112.794 	 
H 	 -41.5051 	 54.278 	 113.669 	 
C 	 -42.9752 	 53.2527 	 114.835 	 
H 	 -42.6437 	 53.4901 	 115.788 	 
H 	 -43.3703 	 52.1694 	 114.917 	 
C 	 -44.0819 	 54.2379 	 114.4 	 
H 	 -44.2403 	 54.0587 	 113.334 	 
H 	 -43.7483 	 55.312 	 114.504 	 
H 	 -45.0251 	 54.1417 	 114.988 	 
H 	 -37.7421 	 57.2582 	 116.718 	 
H 	 -38.7455 	 49.6865 	 113.762 	 
*
