! wB97X-D3 SP def2-SVP
%pal
nprocs 16
end

* xyz 0 1
S 	 52.4899 	 2.89388 	 83.3412 	 
C 	 50.8726 	 2.73812 	 84.0801 	 
C 	 50.5389 	 1.40104 	 84.0543 	 
C 	 51.4451 	 0.56947 	 83.4127 	 
C 	 52.5795 	 1.20649 	 82.9394 	 
H 	 51.3981 	 -0.475553 	 83.2131 	 
C 	 49.2317 	 0.870727 	 84.6655 	 
H 	 48.4787 	 1.64742 	 84.462 	 
H 	 49.333 	 0.759292 	 85.6891 	 
C 	 48.7365 	 -0.451006 	 84.1379 	 
H 	 48.4604 	 -0.282497 	 83.05 	 
H 	 49.4702 	 -1.31777 	 84.1142 	 
C 	 47.5802 	 -1.05692 	 85.0675 	 
H 	 46.6503 	 -0.43171 	 85.1516 	 
H 	 47.251 	 -2.09074 	 84.8082 	 
H 	 48.0052 	 -1.10143 	 86.0427 	 
S 	 55.0693 	 -0.191461 	 83.1243 	 
C 	 55.9585 	 -0.587202 	 81.7185 	 
C 	 55.2186 	 -0.218401 	 80.6027 	 
C 	 54.0217 	 0.552536 	 80.8951 	 
C 	 53.7308 	 0.610565 	 82.2233 	 
H 	 55.614 	 -0.53653 	 79.6615 	 
C 	 53.0907 	 0.94992 	 79.7759 	 
H 	 52.1227 	 1.0815 	 80.1924 	 
H 	 53.0076 	 0.133426 	 79.0763 	 
C 	 53.5148 	 2.23017 	 79.0598 	 
H 	 54.5101 	 2.00147 	 78.7256 	 
H 	 53.6557 	 3.08178 	 79.7848 	 
C 	 52.6209 	 2.67264 	 77.9165 	 
H 	 51.5905 	 2.769 	 78.3038 	 
H 	 52.4893 	 1.94276 	 77.0982 	 
H 	 52.8765 	 3.61084 	 77.5065 	 
H 	 50.1929 	 3.49615 	 84.3641 	 
H 	 56.9497 	 -1.06768 	 81.8525 	 
*
