! wB97X-D3 SP def2-SVP
%pal
nprocs 16
end

* xyz 0 1
S 	 3.07988 	 75.788 	 48.1049 	 
C 	 2.67202 	 75.2457 	 49.7571 	 
C 	 2.04192 	 76.2666 	 50.4995 	 
C 	 1.9559 	 77.4989 	 49.7266 	 
C 	 2.56793 	 77.4264 	 48.4712 	 
H 	 1.6059 	 78.4457 	 50.0563 	 
C 	 1.45932 	 76.2092 	 51.8625 	 
H 	 1.79495 	 76.9951 	 52.5216 	 
H 	 1.73421 	 75.3172 	 52.3954 	 
C 	 -0.100519 	 76.1714 	 51.8421 	 
H 	 -0.490457 	 76.1008 	 52.8654 	 
H 	 -0.521672 	 77.0836 	 51.3713 	 
C 	 -0.716514 	 74.9384 	 51.1776 	 
H 	 -0.695179 	 74.834 	 50.0916 	 
H 	 -0.48636 	 73.959 	 51.5272 	 
H 	 -1.78261 	 74.927 	 51.3578 	 
S 	 3.94025 	 78.0613 	 46.0736 	 
C 	 3.75223 	 79.679 	 45.4915 	 
C 	 2.81932 	 80.4347 	 46.2394 	 
C 	 2.28287 	 79.7528 	 47.3565 	 
C 	 2.79073 	 78.4329 	 47.4431 	 
H 	 2.58923 	 81.4859 	 46.057 	 
C 	 1.20804 	 80.4803 	 48.1545 	 
H 	 0.602272 	 79.8111 	 48.788 	 
H 	 0.431197 	 80.7386 	 47.4552 	 
C 	 1.49259 	 81.7693 	 48.9417 	 
H 	 0.533291 	 82.2661 	 49.3092 	 
H 	 2.02701 	 82.5926 	 48.2829 	 
C 	 2.45323 	 81.4326 	 50.1598 	 
H 	 3.41177 	 80.9959 	 49.9608 	 
H 	 1.93709 	 80.6835 	 50.7402 	 
H 	 2.55802 	 82.1872 	 50.9441 	 
H 	 2.84073 	 74.211 	 50.0996 	 
H 	 4.26369 	 80.1367 	 44.643 	 
*
