! wB97X-D3 SP def2-SVP
%pal
nprocs 16
end

* xyz 0 1
S 	 -13.7345 	 -3.72048 	 84.5573 	 
C 	 -13.1049 	 -3.43042 	 86.121 	 
C 	 -13.4746 	 -4.51072 	 86.9709 	 
C 	 -14.1315 	 -5.52175 	 86.2665 	 
C 	 -14.1755 	 -5.41069 	 84.9113 	 
H 	 -14.6389 	 -6.35325 	 86.7415 	 
C 	 -13.1945 	 -4.49539 	 88.5009 	 
H 	 -14.1422 	 -4.58799 	 89.0372 	 
H 	 -12.6105 	 -3.62285 	 88.7942 	 
C 	 -12.2054 	 -5.51428 	 88.8603 	 
H 	 -12.7748 	 -6.39021 	 88.4937 	 
H 	 -11.2525 	 -5.50759 	 88.3656 	 
C 	 -11.7001 	 -5.67229 	 90.3178 	 
H 	 -11.5181 	 -4.7088 	 90.682 	 
H 	 -12.375 	 -6.28061 	 90.9173 	 
H 	 -10.7616 	 -6.2111 	 90.419 	 
S 	 -15.7376 	 -5.89748 	 82.6333 	 
C 	 -15.7058 	 -7.43311 	 81.9636 	 
C 	 -14.7746 	 -8.26432 	 82.5635 	 
C 	 -14.185 	 -7.69133 	 83.736 	 
C 	 -14.6078 	 -6.38834 	 83.9199 	 
H 	 -14.7408 	 -9.27333 	 82.1542 	 
C 	 -13.1471 	 -8.34156 	 84.6301 	 
H 	 -13.402 	 -8.3563 	 85.7144 	 
H 	 -12.1911 	 -7.82481 	 84.4678 	 
C 	 -13.0176 	 -9.88976 	 84.299 	 
H 	 -12.5785 	 -10.0067 	 83.2983 	 
H 	 -13.9847 	 -10.299 	 84.3086 	 
C 	 -12.1553 	 -10.6461 	 85.2919 	 
H 	 -11.1669 	 -10.3603 	 85.491 	 
H 	 -12.0246 	 -11.7201 	 84.9401 	 
H 	 -12.6502 	 -10.6638 	 86.2711 	 
H 	 -12.6237 	 -2.60528 	 86.5023 	 
H 	 -16.3386 	 -7.67582 	 81.2011 	 
*
