! wB97X-D3 SP def2-SVP
%pal
nprocs 16
end

* xyz 0 1
S 	 -0.827837 	 -25.0622 	 58.0143 	 
C 	 -1.88247 	 -23.6679 	 58.4674 	 
C 	 -1.54844 	 -23.2145 	 59.7504 	 
C 	 -0.45295 	 -23.961 	 60.2983 	 
C 	 0.0255755 	 -25.0331 	 59.5234 	 
H 	 0.0572702 	 -23.812 	 61.278 	 
C 	 -2.16643 	 -22.07 	 60.5068 	 
H 	 -2.30556 	 -21.2032 	 59.8058 	 
H 	 -1.51428 	 -21.8306 	 61.3396 	 
C 	 -3.51117 	 -22.3946 	 61.1899 	 
H 	 -3.89012 	 -21.4825 	 61.7572 	 
H 	 -4.18711 	 -22.6916 	 60.4016 	 
C 	 -3.38033 	 -23.4672 	 62.2602 	 
H 	 -2.95465 	 -24.3736 	 61.9425 	 
H 	 -2.76131 	 -23.1163 	 63.1099 	 
H 	 -4.32207 	 -23.6875 	 62.7345 	 
S 	 0.887075 	 -27.6249 	 59.4851 	 
C 	 2.42296 	 -28.0704 	 60.1876 	 
C 	 3.10136 	 -26.9738 	 60.6458 	 
C 	 2.38264 	 -25.767 	 60.3921 	 
C 	 1.11818 	 -25.9739 	 59.7992 	 
H 	 4.14745 	 -26.9869 	 61.0055 	 
C 	 2.89911 	 -24.3995 	 60.7578 	 
H 	 2.15101 	 -23.6535 	 60.655 	 
H 	 3.70799 	 -24.1928 	 59.9899 	 
C 	 3.43482 	 -24.3843 	 62.248 	 
H 	 3.93933 	 -23.3944 	 62.3983 	 
H 	 4.24731 	 -25.1116 	 62.3926 	 
C 	 2.30926 	 -24.4627 	 63.2828 	 
H 	 1.82939 	 -25.4146 	 63.2473 	 
H 	 1.68784 	 -23.6175 	 63.3098 	 
H 	 2.818 	 -24.6483 	 64.229 	 
H 	 -2.61227 	 -23.1924 	 57.89 	 
H 	 2.80676 	 -29.1034 	 60.3337 	 
*
