! wB97X-D3 SP def2-SVP
%pal
nprocs 16
end

* xyz 0 1
S 	 39.4176 	 10.1804 	 79.5828 	 
C 	 40.8299 	 9.68996 	 80.5704 	 
C 	 41.3903 	 10.7985 	 81.1764 	 
C 	 40.6542 	 12.0009 	 80.8446 	 
C 	 39.7607 	 11.8953 	 79.7671 	 
H 	 40.8775 	 12.9914 	 81.2412 	 
C 	 42.4329 	 10.7952 	 82.2402 	 
H 	 42.3297 	 9.82674 	 82.8481 	 
H 	 42.2219 	 11.6917 	 82.7986 	 
C 	 43.8672 	 11.0297 	 81.7128 	 
H 	 44.478 	 10.8699 	 82.5718 	 
H 	 44.0143 	 10.3409 	 80.8711 	 
C 	 44.1042 	 12.3795 	 81.112 	 
H 	 43.5287 	 13.1265 	 81.6258 	 
H 	 45.2001 	 12.5992 	 81.1767 	 
H 	 43.8681 	 12.4035 	 80.0617 	 
S 	 37.254 	 12.9562 	 79.3176 	 
C 	 37.2329 	 14.4469 	 78.5389 	 
C 	 38.4439 	 15.1681 	 78.4516 	 
C 	 39.4583 	 14.2516 	 78.7745 	 
C 	 38.9989 	 13.0075 	 79.2789 	 
H 	 38.4666 	 16.1715 	 77.9817 	 
C 	 40.952 	 14.6488 	 78.639 	 
H 	 41.589 	 13.9916 	 79.2635 	 
H 	 41.0946 	 15.6417 	 79.0097 	 
C 	 41.2471 	 14.6458 	 77.1328 	 
H 	 42.0161 	 15.3661 	 76.8707 	 
H 	 40.4419 	 14.9883 	 76.5521 	 
C 	 41.6954 	 13.3055 	 76.5602 	 
H 	 42.6485 	 12.933 	 76.9737 	 
H 	 41.6275 	 13.339 	 75.4535 	 
H 	 41.0044 	 12.5673 	 76.9196 	 
H 	 41.1365 	 8.63587 	 80.6454 	 
H 	 36.2732 	 14.8108 	 78.2522 	 
*
