! wB97X-D3 SP def2-SVP
%pal
nprocs 16
end

* xyz 0 1
S 	 -111.717 	 54.0901 	 113.768 	 
C 	 -111.739 	 54.2401 	 112.068 	 
C 	 -110.833 	 53.412 	 111.336 	 
C 	 -110.122 	 52.6003 	 112.288 	 
C 	 -110.471 	 52.8235 	 113.625 	 
H 	 -109.354 	 51.8991 	 112.091 	 
C 	 -110.506 	 53.3169 	 109.847 	 
H 	 -111.41 	 53.3574 	 109.332 	 
H 	 -110.235 	 52.3138 	 109.477 	 
C 	 -109.391 	 54.3058 	 109.331 	 
H 	 -109.099 	 54.0672 	 108.269 	 
H 	 -109.874 	 55.2756 	 109.31 	 
C 	 -108.136 	 54.4199 	 110.157 	 
H 	 -107.43 	 55.0644 	 109.638 	 
H 	 -108.494 	 54.8638 	 111.134 	 
H 	 -107.681 	 53.4724 	 110.389 	 
S 	 -109.451 	 52.8467 	 116.096 	 
C 	 -109.305 	 51.391 	 116.998 	 
C 	 -109.706 	 50.3118 	 116.19 	 
C 	 -110.119 	 50.5764 	 114.867 	 
C 	 -110.202 	 51.9502 	 114.736 	 
H 	 -109.496 	 49.3702 	 116.66 	 
C 	 -110.443 	 49.3906 	 113.997 	 
H 	 -110.041 	 48.4539 	 114.482 	 
H 	 -109.953 	 49.4755 	 113.062 	 
C 	 -111.983 	 49.138 	 113.806 	 
H 	 -112.565 	 49.1151 	 114.745 	 
H 	 -112.113 	 48.1412 	 113.284 	 
C 	 -112.773 	 50.0869 	 112.883 	 
H 	 -113.061 	 51.044 	 113.26 	 
H 	 -113.756 	 49.6396 	 112.604 	 
H 	 -112.192 	 50.1526 	 111.933 	 
H 	 -112.312 	 54.8688 	 111.543 	 
H 	 -109.042 	 51.388 	 118.044 	 
*
