! wB97X-D3 SP def2-SVP
%pal
nprocs 16
end

* xyz 0 1
S 	 -5.13519 	 19.2595 	 51.828 	 
C 	 -3.5291 	 18.549 	 51.8156 	 
C 	 -2.82036 	 18.7787 	 52.9935 	 
C 	 -3.50749 	 19.6143 	 53.9139 	 
C 	 -4.74586 	 19.9595 	 53.4501 	 
H 	 -3.24174 	 19.8568 	 54.9762 	 
C 	 -1.41416 	 18.3165 	 53.234 	 
H 	 -1.44415 	 17.3909 	 52.6801 	 
H 	 -1.25123 	 18.3096 	 54.3163 	 
C 	 -0.394863 	 19.369 	 52.7008 	 
H 	 -0.841892 	 19.6841 	 51.7742 	 
H 	 -0.538846 	 20.2593 	 53.3312 	 
C 	 0.989712 	 18.8091 	 52.4693 	 
H 	 1.447 	 18.5729 	 53.3725 	 
H 	 0.894952 	 17.9601 	 51.769 	 
H 	 1.70302 	 19.5571 	 52.0831 	 
S 	 -6.41809 	 19.8359 	 55.6305 	 
C 	 -7.15198 	 21.3373 	 56.2623 	 
C 	 -6.93622 	 22.4443 	 55.424 	 
C 	 -6.07313 	 22.0278 	 54.3166 	 
C 	 -5.72649 	 20.6546 	 54.2632 	 
H 	 -7.45582 	 23.4384 	 55.5202 	 
C 	 -5.63506 	 23.0889 	 53.3561 	 
H 	 -6.53921 	 23.6395 	 53.0074 	 
H 	 -5.17047 	 22.5291 	 52.4452 	 
C 	 -4.61878 	 24.0971 	 53.8357 	 
H 	 -4.99421 	 24.6269 	 54.719 	 
H 	 -4.54734 	 24.884 	 53.1007 	 
C 	 -3.20746 	 23.4326 	 54.0236 	 
H 	 -2.51117 	 24.2673 	 54.1032 	 
H 	 -2.90786 	 22.8355 	 53.1425 	 
H 	 -3.20056 	 22.8229 	 54.9275 	 
H 	 -3.10741 	 17.9283 	 51.0612 	 
H 	 -7.74657 	 21.2099 	 57.1435 	 
*
