! wB97X-D3 SP def2-SVP
%pal
nprocs 16
end

* xyz 0 1
S 	 -71.8855 	 51.3242 	 136.896 	 
C 	 -71.1112 	 52.8975 	 137.217 	 
C 	 -71.3971 	 53.8161 	 136.215 	 
C 	 -72.2466 	 53.2596 	 135.215 	 
C 	 -72.7089 	 51.9467 	 135.512 	 
H 	 -72.5195 	 53.8866 	 134.348 	 
C 	 -70.8454 	 55.2401 	 136.173 	 
H 	 -71.261 	 55.6485 	 135.313 	 
H 	 -69.7737 	 55.0474 	 136.168 	 
C 	 -71.3071 	 56.0063 	 137.397 	 
H 	 -70.8603 	 55.6323 	 138.339 	 
H 	 -70.8626 	 56.9852 	 137.364 	 
C 	 -72.8061 	 56.1042 	 137.649 	 
H 	 -73.3894 	 56.3665 	 136.717 	 
H 	 -73.1768 	 55.0623 	 137.871 	 
H 	 -73.1937 	 56.7408 	 138.499 	 
S 	 -72.5441 	 49.7182 	 133.813 	 
C 	 -73.9683 	 49.1049 	 133.086 	 
C 	 -75.0738 	 49.9116 	 133.356 	 
C 	 -74.7101 	 51.0363 	 134.207 	 
C 	 -73.386 	 51.0424 	 134.569 	 
H 	 -76.0676 	 49.7421 	 132.939 	 
C 	 -75.7128 	 52.1971 	 134.53 	 
H 	 -76.6763 	 51.9115 	 134.053 	 
H 	 -75.466 	 53.1496 	 134.155 	 
C 	 -75.9797 	 52.3817 	 136.052 	 
H 	 -76.8209 	 53.0765 	 136.221 	 
H 	 -75.1202 	 52.9141 	 136.618 	 
C 	 -76.3983 	 51.0299 	 136.679 	 
H 	 -77.2984 	 50.7615 	 136.143 	 
H 	 -76.7952 	 51.0696 	 137.684 	 
H 	 -75.622 	 50.1958 	 136.631 	 
H 	 -70.5375 	 53.1646 	 138.101 	 
H 	 -73.9793 	 48.2233 	 132.476 	 
*
