! wB97X-D3 SP def2-SVP
%pal
nprocs 16
end

* xyz 0 1
S 	 -112.768 	 51.5999 	 133.053 	 
C 	 -111.934 	 52.9538 	 133.883 	 
C 	 -111.477 	 52.6821 	 135.165 	 
C 	 -111.899 	 51.3373 	 135.474 	 
C 	 -112.672 	 50.7163 	 134.566 	 
H 	 -111.749 	 50.737 	 136.382 	 
C 	 -110.536 	 53.581 	 136 	 
H 	 -110.388 	 54.4942 	 135.421 	 
H 	 -109.587 	 53.0284 	 136.058 	 
C 	 -111.108 	 54.032 	 137.366 	 
H 	 -112.061 	 54.6752 	 137.344 	 
H 	 -111.442 	 53.1024 	 137.842 	 
C 	 -110.061 	 54.7532 	 138.253 	 
H 	 -110.448 	 54.9931 	 139.295 	 
H 	 -109.274 	 54.0914 	 138.43 	 
H 	 -109.806 	 55.7654 	 137.742 	 
S 	 -112.521 	 48.257 	 133.579 	 
C 	 -113.088 	 46.927 	 134.477 	 
C 	 -113.896 	 47.3322 	 135.478 	 
C 	 -113.904 	 48.7089 	 135.761 	 
C 	 -113.189 	 49.3532 	 134.73 	 
H 	 -114.261 	 46.4773 	 136.145 	 
C 	 -114.535 	 49.3419 	 136.994 	 
H 	 -113.894 	 49.2067 	 137.887 	 
H 	 -115.419 	 48.745 	 137.169 	 
C 	 -115.076 	 50.7668 	 136.864 	 
H 	 -115.802 	 50.7357 	 136.015 	 
H 	 -114.222 	 51.4111 	 136.568 	 
C 	 -115.813 	 51.3212 	 138.023 	 
H 	 -115.174 	 51.6383 	 138.93 	 
H 	 -116.691 	 50.6949 	 138.447 	 
H 	 -116.306 	 52.2115 	 137.806 	 
H 	 -111.761 	 53.9589 	 133.561 	 
H 	 -112.968 	 45.8977 	 134.204 	 
*
