! wB97X-D3 SP def2-SVP
%pal
nprocs 16
end

* xyz 0 1
S 	 -117.75 	 47.7606 	 132.702 	 
C 	 -117.574 	 47.57 	 134.448 	 
C 	 -117.818 	 46.2999 	 134.836 	 
C 	 -118.082 	 45.3758 	 133.741 	 
C 	 -118.076 	 46.0418 	 132.511 	 
H 	 -118.171 	 44.2901 	 133.844 	 
C 	 -117.725 	 45.8339 	 136.313 	 
H 	 -118.4 	 45.0268 	 136.422 	 
H 	 -117.93 	 46.6534 	 137.033 	 
C 	 -116.372 	 45.2763 	 136.721 	 
H 	 -116.52 	 44.7495 	 137.667 	 
H 	 -115.982 	 44.6555 	 135.939 	 
C 	 -115.263 	 46.3314 	 136.822 	 
H 	 -114.347 	 46.0217 	 137.366 	 
H 	 -114.986 	 46.8278 	 135.917 	 
H 	 -115.772 	 47.0737 	 137.49 	 
S 	 -119.759 	 45.733 	 130.286 	 
C 	 -119.29 	 44.7887 	 128.973 	 
C 	 -118.06 	 44.1513 	 129.197 	 
C 	 -117.442 	 44.4862 	 130.457 	 
C 	 -118.203 	 45.4149 	 131.172 	 
H 	 -117.657 	 43.4887 	 128.504 	 
C 	 -116.209 	 43.8565 	 130.861 	 
H 	 -116.184 	 42.899 	 130.326 	 
H 	 -116.226 	 43.6353 	 131.885 	 
C 	 -114.979 	 44.6883 	 130.557 	 
H 	 -114.816 	 45.0335 	 129.539 	 
H 	 -114.159 	 43.9717 	 130.666 	 
C 	 -114.722 	 45.8164 	 131.568 	 
H 	 -114.351 	 46.734 	 131.095 	 
H 	 -113.979 	 45.4815 	 132.343 	 
H 	 -115.656 	 46.0774 	 132.023 	 
H 	 -117.346 	 48.2749 	 135.24 	 
H 	 -119.914 	 44.6582 	 128.07 	 
*
