! wB97X-D3 SP def2-SVP
%pal
nprocs 16
end

* xyz 0 1
S 	 -38.6916 	 40.5345 	 94.9553 	 
C 	 -40.0284 	 41.5939 	 94.4768 	 
C 	 -41.2246 	 41.326 	 95.2176 	 
C 	 -40.9549 	 40.3151 	 96.2127 	 
C 	 -39.6747 	 39.7278 	 96.15 	 
H 	 -41.64 	 39.8614 	 96.8508 	 
C 	 -42.5302 	 42.0114 	 95.0837 	 
H 	 -43.232 	 41.3301 	 95.5263 	 
H 	 -42.844 	 42.095 	 93.9863 	 
C 	 -42.6379 	 43.4083 	 95.7321 	 
H 	 -42.1723 	 43.4115 	 96.7166 	 
H 	 -41.9958 	 43.9789 	 95.0828 	 
C 	 -44.0896 	 44.0267 	 95.7338 	 
H 	 -44.5714 	 43.9706 	 94.7648 	 
H 	 -44.7484 	 43.3333 	 96.3674 	 
H 	 -44.1246 	 45.0645 	 96.1268 	 
S 	 -38.7402 	 37.1418 	 95.7536 	 
C 	 -38.0872 	 36.3737 	 97.2451 	 
C 	 -38.2613 	 37.0848 	 98.4178 	 
C 	 -38.8091 	 38.3566 	 98.1484 	 
C 	 -39.2967 	 38.5051 	 96.8381 	 
H 	 -37.8693 	 36.7129 	 99.3099 	 
C 	 -38.7458 	 39.446 	 99.2049 	 
H 	 -38.3952 	 40.3474 	 98.765 	 
H 	 -38.0835 	 39.2127 	 100.045 	 
C 	 -40.0629 	 39.8784 	 99.7301 	 
H 	 -40.4021 	 39.0015 	 100.335 	 
H 	 -40.8051 	 39.7962 	 98.966 	 
C 	 -40.1195 	 41.2367 	 100.509 	 
H 	 -39.4483 	 41.2227 	 101.366 	 
H 	 -41.1479 	 41.4485 	 100.849 	 
H 	 -39.8276 	 42.1508 	 99.9146 	 
H 	 -39.9088 	 42.2588 	 93.6154 	 
H 	 -37.5761 	 35.4153 	 97.1116 	 
*
