! wB97X-D3 SP def2-SVP
%pal
nprocs 16
end

* xyz 0 1
S 	 -2.81705 	 -5.64427 	 80.6073 	 
C 	 -2.9951 	 -7.36838 	 80.7622 	 
C 	 -2.5188 	 -7.79821 	 81.9605 	 
C 	 -1.83874 	 -6.73132 	 82.6595 	 
C 	 -2.00441 	 -5.4808 	 82.1122 	 
H 	 -1.33541 	 -6.90187 	 83.5714 	 
C 	 -2.61217 	 -9.2195 	 82.4771 	 
H 	 -1.68652 	 -9.6083 	 82.9145 	 
H 	 -2.84648 	 -9.85513 	 81.6582 	 
C 	 -3.78162 	 -9.43489 	 83.4721 	 
H 	 -3.54641 	 -10.483 	 83.6933 	 
H 	 -3.53428 	 -8.97963 	 84.4018 	 
C 	 -5.18289 	 -9.21962 	 82.8766 	 
H 	 -6.1162 	 -9.50843 	 83.4543 	 
H 	 -5.20513 	 -8.16166 	 82.6464 	 
H 	 -5.3647 	 -9.76961 	 81.9502 	 
S 	 -0.796953 	 -3.1199 	 81.292 	 
C 	 -0.641659 	 -1.65494 	 82.4059 	 
C 	 -0.87624 	 -2.12173 	 83.6817 	 
C 	 -1.21065 	 -3.56765 	 83.7718 	 
C 	 -1.38242 	 -4.18704 	 82.5329 	 
H 	 -0.665265 	 -1.41409 	 84.4195 	 
C 	 -1.31336 	 -4.10197 	 85.1657 	 
H 	 -0.968396 	 -3.42619 	 85.9111 	 
H 	 -0.552642 	 -4.92186 	 85.2248 	 
C 	 -2.60939 	 -4.58857 	 85.576 	 
H 	 -2.46179 	 -5.05702 	 86.4838 	 
H 	 -3.08611 	 -5.31182 	 84.994 	 
C 	 -3.58392 	 -3.45832 	 85.9873 	 
H 	 -3.25161 	 -2.96968 	 86.8742 	 
H 	 -4.57733 	 -3.70206 	 86.2605 	 
H 	 -3.56768 	 -2.69414 	 85.2473 	 
H 	 -3.59544 	 -7.9864 	 80.0973 	 
H 	 -0.325758 	 -0.66933 	 82.2032 	 
*
