! wB97X-D3 SP def2-SVP
%pal
nprocs 16
end

* xyz 0 1
S 	 -0.250388 	 80.3633 	 48.2819 	 
C 	 -0.679117 	 79.2471 	 49.5285 	 
C 	 -0.567424 	 77.9049 	 49.16 	 
C 	 -0.0300137 	 77.8032 	 47.8354 	 
C 	 0.0905955 	 79.0451 	 47.1882 	 
H 	 0.221857 	 76.8613 	 47.2915 	 
C 	 -0.632374 	 76.6805 	 50.0031 	 
H 	 -1.30301 	 75.978 	 49.5467 	 
H 	 -1.00959 	 76.9716 	 50.9633 	 
C 	 0.720473 	 76.1462 	 50.5073 	 
H 	 0.608237 	 75.1805 	 51.1028 	 
H 	 1.33331 	 75.8948 	 49.6564 	 
C 	 1.52734 	 77.1586 	 51.4073 	 
H 	 1.87267 	 77.9658 	 50.795 	 
H 	 0.88042 	 77.6044 	 52.2142 	 
H 	 2.46592 	 76.804 	 51.7981 	 
S 	 -0.663681 	 79.6599 	 44.6149 	 
C 	 0.605213 	 79.9075 	 43.3657 	 
C 	 1.87754 	 79.4961 	 43.8389 	 
C 	 1.83764 	 79.2367 	 45.2794 	 
C 	 0.561819 	 79.2512 	 45.8216 	 
H 	 2.74513 	 79.6655 	 43.2645 	 
C 	 3.19247 	 78.9941 	 45.9971 	 
H 	 3.04902 	 78.9293 	 47.1609 	 
H 	 3.86375 	 79.8726 	 45.8645 	 
C 	 3.97543 	 77.8173 	 45.569 	 
H 	 4.84382 	 77.7907 	 46.1752 	 
H 	 4.30834 	 77.9544 	 44.5537 	 
C 	 3.30453 	 76.4659 	 45.8478 	 
H 	 2.38437 	 76.4053 	 45.2872 	 
H 	 2.9457 	 76.3361 	 46.8201 	 
H 	 4.04054 	 75.6522 	 45.7334 	 
H 	 -0.903204 	 79.6517 	 50.4937 	 
H 	 0.462756 	 80.4031 	 42.4476 	 
*
