! wB97X-D3 SP def2-SVP
%pal
nprocs 16
end

* xyz 0 1
S 	 53.884 	 19.7287 	 49.0344 	 
C 	 54.3933 	 21.4379 	 48.9983 	 
C 	 53.6359 	 22.2132 	 49.8606 	 
C 	 52.5607 	 21.4962 	 50.405 	 
C 	 52.6284 	 20.1239 	 50.2411 	 
H 	 51.7542 	 21.9125 	 50.9875 	 
C 	 53.7828 	 23.6885 	 50.1228 	 
H 	 54.4669 	 24.1218 	 49.3766 	 
H 	 54.108 	 23.8254 	 51.1759 	 
C 	 52.4995 	 24.5412 	 49.9159 	 
H 	 51.738 	 24.018 	 50.5446 	 
H 	 52.4447 	 25.5604 	 50.3217 	 
C 	 52.227 	 24.7477 	 48.4477 	 
H 	 52.9136 	 25.4975 	 48.0795 	 
H 	 52.4244 	 23.8207 	 47.9386 	 
H 	 51.2418 	 25.0952 	 48.3336 	 
S 	 52.2607 	 17.982 	 51.9449 	 
C 	 50.6624 	 17.6174 	 52.4721 	 
C 	 49.6891 	 18.24 	 51.7123 	 
C 	 50.2751 	 19.1046 	 50.6481 	 
C 	 51.687 	 19.103 	 50.6531 	 
H 	 48.6241 	 17.9649 	 51.8317 	 
C 	 49.4083 	 19.7088 	 49.5818 	 
H 	 50.1299 	 20.106 	 48.8794 	 
H 	 48.898 	 20.6277 	 50.0105 	 
C 	 48.331 	 18.9591 	 48.7896 	 
H 	 47.488 	 18.7297 	 49.4773 	 
H 	 48.8448 	 18.0352 	 48.4698 	 
C 	 47.6949 	 19.6965 	 47.57 	 
H 	 48.5419 	 20.0616 	 46.9449 	 
H 	 47.0337 	 20.5826 	 47.8589 	 
H 	 46.9935 	 19.0702 	 46.927 	 
H 	 55.3024 	 21.8999 	 48.6395 	 
H 	 50.4529 	 16.9006 	 53.2192 	 
*
