! wB97X-D3 SP def2-SVP
%pal
nprocs 16
end

* xyz 0 1
S 	 69.2617 	 21.2634 	 79.4815 	 
C 	 68.7027 	 19.7046 	 79.8214 	 
C 	 67.9414 	 19.2424 	 78.7928 	 
C 	 67.7695 	 20.2129 	 77.6789 	 
C 	 68.6489 	 21.31 	 77.901 	 
H 	 67.1911 	 20.1261 	 76.7505 	 
C 	 67.2679 	 17.907 	 78.7609 	 
H 	 67.9016 	 17.2936 	 79.3473 	 
H 	 67.3679 	 17.4776 	 77.7672 	 
C 	 65.8556 	 17.8477 	 79.3755 	 
H 	 65.9048 	 18.0826 	 80.4418 	 
H 	 65.1902 	 18.5926 	 78.977 	 
C 	 65.1964 	 16.4266 	 79.1915 	 
H 	 65.2064 	 16.1382 	 78.1633 	 
H 	 65.754 	 15.7287 	 79.8458 	 
H 	 64.1437 	 16.4988 	 79.426 	 
S 	 67.5091 	 23.5716 	 76.7184 	 
C 	 68.5484 	 24.7302 	 75.9425 	 
C 	 69.813 	 24.2125 	 75.8444 	 
C 	 70.0123 	 22.9245 	 76.4487 	 
C 	 68.8104 	 22.4524 	 76.9951 	 
H 	 70.557 	 24.745 	 75.3569 	 
C 	 71.3379 	 22.1987 	 76.5713 	 
H 	 71.6296 	 21.877 	 77.548 	 
H 	 72.143 	 22.8792 	 76.4185 	 
C 	 71.415 	 21.115 	 75.5271 	 
H 	 70.6972 	 20.3827 	 75.8089 	 
H 	 72.3718 	 20.6516 	 75.4976 	 
C 	 71.1999 	 21.5589 	 74.0159 	 
H 	 71.796 	 22.4531 	 73.8185 	 
H 	 70.0814 	 21.7525 	 73.81 	 
H 	 71.625 	 20.7567 	 73.3627 	 
H 	 68.8264 	 19.1406 	 80.6881 	 
H 	 68.3398 	 25.6099 	 75.4956 	 
*
