! wB97X-D3 SP def2-SVP
%pal
nprocs 16
end

* xyz 0 1
S 	 -83.5799 	 52.2677 	 136.49 	 
C 	 -84.7418 	 52.8727 	 137.768 	 
C 	 -84.2154 	 53.9309 	 138.493 	 
C 	 -82.8165 	 54.148 	 138.181 	 
C 	 -82.3405 	 53.3106 	 137.217 	 
H 	 -82.1022 	 54.7768 	 138.621 	 
C 	 -84.9784 	 54.6648 	 139.576 	 
H 	 -86.008 	 54.3146 	 139.682 	 
H 	 -85.0098 	 55.77 	 139.446 	 
C 	 -84.4375 	 54.4876 	 141.015 	 
H 	 -84.1836 	 53.4875 	 141.145 	 
H 	 -83.5796 	 55.1053 	 141.258 	 
C 	 -85.3954 	 54.7953 	 142.06 	 
H 	 -85.0155 	 54.6529 	 143.106 	 
H 	 -85.7014 	 55.8133 	 141.953 	 
H 	 -86.2614 	 54.2043 	 142 	 
S 	 -80.9128 	 54.15 	 134.99 	 
C 	 -79.1103 	 54.2374 	 135.099 	 
C 	 -78.6821 	 53.6875 	 136.259 	 
C 	 -79.7465 	 53.3916 	 137.211 	 
C 	 -81.0268 	 53.5102 	 136.616 	 
H 	 -77.6581 	 53.5841 	 136.432 	 
C 	 -79.4815 	 52.9204 	 138.6 	 
H 	 -79.0647 	 51.9928 	 138.457 	 
H 	 -80.3617 	 52.6045 	 139.192 	 
C 	 -78.7759 	 53.9036 	 139.526 	 
H 	 -77.8615 	 54.0929 	 138.992 	 
H 	 -78.5773 	 53.328 	 140.433 	 
C 	 -79.6029 	 55.1996 	 139.852 	 
H 	 -78.921 	 55.7279 	 140.472 	 
H 	 -80.5166 	 55.1519 	 140.441 	 
H 	 -79.6931 	 55.7212 	 138.88 	 
H 	 -85.7746 	 52.5011 	 137.91 	 
H 	 -78.4537 	 54.4223 	 134.277 	 
*
