! wB97X-D3 SP def2-SVP
%pal
nprocs 16
end

* xyz 0 1
S 	 56.2001 	 16.0905 	 59.9261 	 
C 	 57.436 	 17.1336 	 60.6116 	 
C 	 57.8656 	 16.6974 	 61.8261 	 
C 	 57.3597 	 15.4444 	 62.1756 	 
C 	 56.3893 	 14.9907 	 61.3001 	 
H 	 57.7387 	 14.8436 	 62.9997 	 
C 	 59.0553 	 17.3652 	 62.5341 	 
H 	 59.9688 	 17.2222 	 62.0357 	 
H 	 59.1747 	 16.8716 	 63.5016 	 
C 	 58.9303 	 18.8648 	 62.8521 	 
H 	 59.8374 	 19.2596 	 63.1975 	 
H 	 58.8484 	 19.4791 	 61.9008 	 
C 	 57.7616 	 19.1967 	 63.8161 	 
H 	 56.8985 	 18.7739 	 63.2863 	 
H 	 57.8021 	 18.6784 	 64.8376 	 
H 	 57.6852 	 20.2878 	 63.9823 	 
S 	 53.8018 	 14.1049 	 61.458 	 
C 	 53.384 	 12.4149 	 61.3126 	 
C 	 54.5192 	 11.6412 	 61.3367 	 
C 	 55.7777 	 12.4335 	 61.3991 	 
C 	 55.5828 	 13.8327 	 61.412 	 
H 	 54.4525 	 10.5046 	 61.2524 	 
C 	 57.1137 	 11.7385 	 61.4034 	 
H 	 57.1308 	 11.1251 	 62.2731 	 
H 	 57.955 	 12.4166 	 61.5973 	 
C 	 57.4353 	 10.9099 	 60.1174 	 
H 	 56.8505 	 9.95348 	 60.1224 	 
H 	 58.5329 	 10.7281 	 60.2274 	 
C 	 57.3931 	 11.606 	 58.771 	 
H 	 57.5455 	 10.9304 	 57.9014 	 
H 	 58.1992 	 12.3421 	 58.6614 	 
H 	 56.4469 	 11.9759 	 58.761 	 
H 	 57.7099 	 18.0636 	 60.1407 	 
H 	 52.3417 	 12.0431 	 61.4282 	 
*
