! wB97X-D3 SP def2-SVP
%pal
nprocs 16
end

* xyz 0 1
S 	 -57.5395 	 28.3152 	 93.2333 	 
C 	 -56.2899 	 28.8672 	 94.3025 	 
C 	 -55.8925 	 27.8068 	 95.149 	 
C 	 -56.5917 	 26.5578 	 94.8137 	 
C 	 -57.5652 	 26.6849 	 93.7893 	 
H 	 -56.5528 	 25.6782 	 95.3784 	 
C 	 -55.0308 	 27.9752 	 96.3224 	 
H 	 -55.6116 	 27.9922 	 97.2942 	 
H 	 -54.5803 	 29.0282 	 96.2599 	 
C 	 -53.8669 	 26.9308 	 96.4666 	 
H 	 -54.2519 	 25.9001 	 96.469 	 
H 	 -53.2786 	 27.0368 	 95.5662 	 
C 	 -52.9036 	 27.0569 	 97.7009 	 
H 	 -53.4176 	 27.5782 	 98.5346 	 
H 	 -52.6106 	 26.0807 	 97.9191 	 
H 	 -52.0575 	 27.6221 	 97.4443 	 
S 	 -59.629 	 24.9407 	 94.193 	 
C 	 -60.0613 	 23.8909 	 92.9128 	 
C 	 -59.3344 	 24.068 	 91.7838 	 
C 	 -58.3764 	 25.1033 	 91.9395 	 
C 	 -58.3578 	 25.6382 	 93.2394 	 
H 	 -59.5045 	 23.4661 	 90.8614 	 
C 	 -57.3882 	 25.4931 	 90.8185 	 
H 	 -56.9524 	 24.5997 	 90.4876 	 
H 	 -56.6115 	 26.1473 	 91.1562 	 
C 	 -58.1203 	 25.9834 	 89.5835 	 
H 	 -58.6653 	 25.1572 	 89.0725 	 
H 	 -57.3538 	 26.0445 	 88.8297 	 
C 	 -58.9917 	 27.248 	 89.5911 	 
H 	 -59.8948 	 27.2507 	 90.2062 	 
H 	 -59.2263 	 27.5338 	 88.5051 	 
H 	 -58.3881 	 28.0064 	 90.0548 	 
H 	 -56.0964 	 29.904 	 94.3179 	 
H 	 -60.9212 	 23.1838 	 92.844 	 
*
