! wB97X-D3 SP def2-SVP
%pal
nprocs 16
end

* xyz 0 1
S 	 -29.9968 	 28.868 	 48.6396 	 
C 	 -29.7521 	 29.6998 	 50.1296 	 
C 	 -30.8173 	 30.5028 	 50.4791 	 
C 	 -31.8987 	 30.4074 	 49.568 	 
C 	 -31.6032 	 29.5551 	 48.5176 	 
H 	 -32.8929 	 30.8867 	 49.6342 	 
C 	 -30.8973 	 31.3981 	 51.7345 	 
H 	 -29.8794 	 31.7361 	 52.0389 	 
H 	 -31.3894 	 30.8858 	 52.5544 	 
C 	 -31.6997 	 32.7431 	 51.5879 	 
H 	 -32.7138 	 32.5194 	 51.3279 	 
H 	 -31.7611 	 33.3147 	 52.5323 	 
C 	 -31.107 	 33.7332 	 50.528 	 
H 	 -31.0232 	 33.3477 	 49.5584 	 
H 	 -31.8854 	 34.5094 	 50.517 	 
H 	 -30.1811 	 34.1797 	 50.8372 	 
S 	 -32.212 	 29.5752 	 45.8246 	 
C 	 -33.6188 	 28.7401 	 45.2629 	 
C 	 -34.2878 	 28.1571 	 46.2864 	 
C 	 -33.6665 	 28.3254 	 47.5843 	 
C 	 -32.5535 	 29.1246 	 47.4833 	 
H 	 -35.2695 	 27.6455 	 46.0768 	 
C 	 -34.296 	 27.7483 	 48.8157 	 
H 	 -35.3015 	 28.0688 	 48.9118 	 
H 	 -33.8312 	 28.3828 	 49.6366 	 
C 	 -34.2509 	 26.2303 	 49.057 	 
H 	 -33.1969 	 25.9815 	 49.1154 	 
H 	 -34.6767 	 25.6941 	 48.2291 	 
C 	 -35.1325 	 25.8013 	 50.2588 	 
H 	 -34.8533 	 24.8093 	 50.4108 	 
H 	 -36.1704 	 25.9468 	 49.9785 	 
H 	 -34.9913 	 26.5324 	 51.0399 	 
H 	 -28.8816 	 29.519 	 50.6874 	 
H 	 -34.0065 	 28.8298 	 44.2558 	 
*
