! wB97X-D3 SP def2-SVP
%pal
nprocs 16
end

* xyz 0 1
S 	 -3.26978 	 -10.52 	 83.6572 	 
C 	 -2.21706 	 -11.9396 	 83.6222 	 
C 	 -2.89162 	 -12.9613 	 84.2929 	 
C 	 -4.26331 	 -12.6153 	 84.6203 	 
C 	 -4.67687 	 -11.3653 	 84.1491 	 
H 	 -4.96884 	 -13.2638 	 85.1687 	 
C 	 -2.22191 	 -14.2899 	 84.6019 	 
H 	 -1.70351 	 -14.0528 	 85.5304 	 
H 	 -1.49491 	 -14.4418 	 83.8765 	 
C 	 -3.17712 	 -15.5578 	 84.7163 	 
H 	 -3.83334 	 -15.5796 	 85.5979 	 
H 	 -3.9132 	 -15.6443 	 84.0135 	 
C 	 -2.34568 	 -16.8809 	 84.8693 	 
H 	 -2.86397 	 -17.6123 	 85.4436 	 
H 	 -2.09209 	 -17.2571 	 83.8827 	 
H 	 -1.40036 	 -16.7855 	 85.3983 	 
S 	 -6.10705 	 -8.9578 	 84.4186 	 
C 	 -7.8977 	 -9.01543 	 84.4445 	 
C 	 -8.28904 	 -10.3229 	 84.4315 	 
C 	 -7.30395 	 -11.3466 	 84.2321 	 
C 	 -6.05729 	 -10.7493 	 84.2542 	 
H 	 -9.33286 	 -10.5285 	 84.7185 	 
C 	 -7.61624 	 -12.7423 	 84.0731 	 
H 	 -6.70165 	 -13.2846 	 83.7139 	 
H 	 -8.38292 	 -12.9419 	 83.2653 	 
C 	 -7.9365 	 -13.4945 	 85.4135 	 
H 	 -8.82011 	 -13.0217 	 85.8773 	 
H 	 -7.17941 	 -13.3782 	 86.1824 	 
C 	 -8.20948 	 -14.9835 	 85.2092 	 
H 	 -7.4454 	 -15.3522 	 84.5095 	 
H 	 -9.16127 	 -15.1059 	 84.711 	 
H 	 -8.26815 	 -15.4774 	 86.1801 	 
H 	 -1.21082 	 -11.9927 	 83.2686 	 
H 	 -8.53675 	 -8.17884 	 84.5292 	 
*
