! wB97X-D3 SP def2-SVP
%pal
nprocs 16
end

* xyz 0 1
S 	 23.1331 	 -0.938342 	 84.3704 	 
C 	 24.5885 	 -0.162464 	 83.6597 	 
C 	 24.2936 	 1.01425 	 82.9995 	 
C 	 22.9007 	 1.38084 	 83.1311 	 
C 	 22.1033 	 0.380226 	 83.7475 	 
H 	 22.5038 	 2.27911 	 82.6515 	 
C 	 25.2184 	 1.85729 	 82.1744 	 
H 	 25.5993 	 1.4203 	 81.2116 	 
H 	 26.1004 	 2.04453 	 82.843 	 
C 	 24.7375 	 3.30786 	 81.7256 	 
H 	 23.788 	 3.37174 	 81.2366 	 
H 	 24.6991 	 3.93328 	 82.5798 	 
C 	 25.7465 	 4.02465 	 80.7559 	 
H 	 25.754 	 3.42219 	 79.8593 	 
H 	 25.3569 	 5.0312 	 80.5215 	 
H 	 26.7767 	 4.16728 	 81.0877 	 
S 	 19.9845 	 0.023128 	 85.5156 	 
C 	 18.3687 	 0.0949093 	 84.951 	 
C 	 18.3228 	 0.436208 	 83.5989 	 
C 	 19.6027 	 0.477959 	 83.0011 	 
C 	 20.6502 	 0.304305 	 83.899 	 
H 	 17.3237 	 0.536583 	 83.1823 	 
C 	 19.7718 	 0.97452 	 81.5146 	 
H 	 19.0534 	 0.399993 	 80.9158 	 
H 	 20.7615 	 0.553849 	 81.2668 	 
C 	 19.6179 	 2.43462 	 81.2867 	 
H 	 20.0654 	 3.03476 	 82.0766 	 
H 	 18.5756 	 2.73404 	 81.2494 	 
C 	 20.372 	 2.75384 	 80.0343 	 
H 	 21.4232 	 2.4785 	 80.1524 	 
H 	 20.3967 	 3.88027 	 79.8673 	 
H 	 19.9847 	 2.28094 	 79.1328 	 
H 	 25.6026 	 -0.521084 	 83.6072 	 
H 	 17.5265 	 0.192589 	 85.5988 	 
*
