! wB97X-D3 SP def2-SVP
%pal
nprocs 16
end

* xyz 0 1
S 	 16.4849 	 4.09588 	 84.8681 	 
C 	 17.389 	 5.51834 	 85.0704 	 
C 	 17.7294 	 5.79633 	 86.3376 	 
C 	 17.1073 	 4.89617 	 87.2674 	 
C 	 16.408 	 3.91106 	 86.5627 	 
H 	 17.0775 	 4.93653 	 88.3303 	 
C 	 18.6052 	 6.90851 	 86.8455 	 
H 	 19.3418 	 7.13192 	 86.1129 	 
H 	 19.2533 	 6.57114 	 87.6725 	 
C 	 17.7694 	 8.18905 	 87.2784 	 
H 	 16.9556 	 7.92123 	 87.9261 	 
H 	 18.5367 	 8.7632 	 87.8705 	 
C 	 17.3309 	 9.03412 	 86.0649 	 
H 	 16.9824 	 10.0387 	 86.2365 	 
H 	 18.0978 	 9.16224 	 85.3181 	 
H 	 16.5203 	 8.48151 	 85.5279 	 
S 	 16.3367 	 1.57202 	 88.1571 	 
C 	 14.7815 	 1.08716 	 88.7044 	 
C 	 13.7963 	 1.70289 	 88.0522 	 
C 	 14.218 	 2.6206 	 87.1138 	 
C 	 15.5618 	 2.81033 	 87.1795 	 
H 	 12.7911 	 1.52601 	 88.4863 	 
C 	 13.2694 	 3.46458 	 86.3902 	 
H 	 13.7496 	 4.43332 	 86.2427 	 
H 	 12.3781 	 3.63058 	 86.9905 	 
C 	 12.7128 	 3.033 	 85.0213 	 
H 	 12.3937 	 1.98933 	 84.9492 	 
H 	 13.5528 	 3.08186 	 84.3056 	 
C 	 11.6908 	 4.0098 	 84.4775 	 
H 	 10.8249 	 3.88989 	 85.0136 	 
H 	 11.4751 	 3.83884 	 83.3787 	 
H 	 12.1154 	 5.02817 	 84.596 	 
H 	 17.7912 	 6.02558 	 84.248 	 
H 	 14.5711 	 0.606957 	 89.644 	 
*
