! wB97X-D3 SP def2-SVP
%pal
nprocs 16
end

* xyz 0 1
S 	 -1.2916 	 2.38738 	 80.9265 	 
C 	 -1.88199 	 1.02827 	 81.7515 	 
C 	 -1.44554 	 0.98224 	 83.0863 	 
C 	 -0.769054 	 2.15423 	 83.4104 	 
C 	 -0.563896 	 3.00283 	 82.3242 	 
H 	 -0.353484 	 2.38458 	 84.389 	 
C 	 -1.68363 	 -0.126077 	 84.0657 	 
H 	 -2.40951 	 -0.875787 	 83.6704 	 
H 	 -2.35051 	 0.243535 	 84.8674 	 
C 	 -0.500434 	 -0.91378 	 84.698 	 
H 	 -0.175708 	 -1.60877 	 83.8989 	 
H 	 0.28395 	 -0.173586 	 84.9521 	 
C 	 -0.945365 	 -1.66678 	 85.9289 	 
H 	 -0.131047 	 -2.09481 	 86.4795 	 
H 	 -1.2984 	 -0.817275 	 86.5128 	 
H 	 -1.71887 	 -2.38218 	 85.5937 	 
S 	 1.18778 	 4.38885 	 80.869 	 
C 	 2.05553 	 5.75985 	 81.4582 	 
C 	 1.76597 	 5.98267 	 82.7378 	 
C 	 0.820957 	 5.0082 	 83.2429 	 
C 	 0.341665 	 4.14466 	 82.2977 	 
H 	 2.23431 	 6.76035 	 83.2187 	 
C 	 0.308428 	 5.08665 	 84.6248 	 
H 	 -0.646743 	 4.62264 	 84.5763 	 
H 	 0.166934 	 6.12862 	 84.8213 	 
C 	 1.27861 	 4.50166 	 85.6281 	 
H 	 1.32902 	 3.43638 	 85.5034 	 
H 	 0.83964 	 4.60767 	 86.5947 	 
C 	 2.63921 	 5.19911 	 85.7773 	 
H 	 3.36789 	 4.92161 	 85.0177 	 
H 	 2.97694 	 4.92562 	 86.7464 	 
H 	 2.49563 	 6.30083 	 85.749 	 
H 	 -2.45473 	 0.255556 	 81.3029 	 
H 	 2.62598 	 6.47794 	 80.8932 	 
*
