! wB97X-D3 SP def2-SVP
%pal
nprocs 16
end

* xyz 0 1
S 	 -1.79821 	 -10.7558 	 94.8692 	 
C 	 -3.16149 	 -11.6486 	 95.4787 	 
C 	 -3.63099 	 -12.6411 	 94.6587 	 
C 	 -2.87556 	 -12.699 	 93.4929 	 
C 	 -1.89842 	 -11.7794 	 93.4288 	 
H 	 -3.10189 	 -13.3364 	 92.6492 	 
C 	 -4.71866 	 -13.5462 	 95.0767 	 
H 	 -5.49539 	 -13.1197 	 95.7414 	 
H 	 -4.24135 	 -14.3191 	 95.7026 	 
C 	 -5.50766 	 -14.3555 	 93.9622 	 
H 	 -4.78582 	 -15.0344 	 93.6084 	 
H 	 -6.2911 	 -15.0051 	 94.3721 	 
C 	 -6.10346 	 -13.4655 	 92.8345 	 
H 	 -6.88353 	 -12.9418 	 93.3662 	 
H 	 -5.53802 	 -12.6014 	 92.45 	 
H 	 -6.38002 	 -14.0538 	 91.9936 	 
S 	 -0.503116 	 -9.95265 	 92.0209 	 
C 	 0.508683 	 -10.328 	 90.6487 	 
C 	 0.343798 	 -11.7222 	 90.3752 	 
C 	 -0.560415 	 -12.4448 	 91.2542 	 
C 	 -1.00827 	 -11.6149 	 92.267 	 
H 	 0.78446 	 -12.1108 	 89.4952 	 
C 	 -0.878208 	 -13.9232 	 91.0017 	 
H 	 -1.79664 	 -14.0895 	 90.505 	 
H 	 -1.05817 	 -14.2644 	 91.9465 	 
C 	 0.19404 	 -14.8213 	 90.3123 	 
H 	 1.11554 	 -14.7974 	 90.7766 	 
H 	 0.263671 	 -14.4303 	 89.2878 	 
C 	 -0.387258 	 -16.2663 	 90.2939 	 
H 	 0.297028 	 -16.8964 	 89.7435 	 
H 	 -1.29324 	 -16.2989 	 89.7863 	 
H 	 -0.52252 	 -16.6895 	 91.3159 	 
H 	 -3.63694 	 -11.4908 	 96.3957 	 
H 	 1.14918 	 -9.75376 	 90.0378 	 
*
