! wB97X-D3 SP def2-SVP
%pal
nprocs 16
end

* xyz 0 1
S 	 39.2969 	 29.2118 	 56.5359 	 
C 	 38.5047 	 30.0987 	 55.1793 	 
C 	 37.1797 	 30.3089 	 55.4239 	 
C 	 36.9046 	 30.169 	 56.8553 	 
C 	 37.9906 	 29.7276 	 57.6186 	 
H 	 35.9572 	 30.4166 	 57.2229 	 
C 	 36.1381 	 30.6342 	 54.3504 	 
H 	 35.1222 	 30.7324 	 54.7384 	 
H 	 36.1904 	 29.7807 	 53.6549 	 
C 	 36.4639 	 31.9524 	 53.6732 	 
H 	 36.7973 	 32.6466 	 54.4488 	 
H 	 37.2343 	 31.6511 	 52.9516 	 
C 	 35.3239 	 32.6053 	 52.9402 	 
H 	 34.6437 	 33.0461 	 53.648 	 
H 	 35.6743 	 33.434 	 52.3153 	 
H 	 34.7222 	 31.8948 	 52.3372 	 
S 	 39.3496 	 28.1885 	 59.3482 	 
C 	 39.2949 	 28.5417 	 61.1209 	 
C 	 38.1918 	 29.3794 	 61.3391 	 
C 	 37.5235 	 29.8769 	 60.2181 	 
C 	 38.1111 	 29.409 	 59.0725 	 
H 	 37.9631 	 29.5725 	 62.3183 	 
C 	 36.3293 	 30.8377 	 60.2376 	 
H 	 35.7928 	 30.8476 	 61.2291 	 
H 	 35.7434 	 30.2844 	 59.5643 	 
C 	 36.6026 	 32.2564 	 59.7508 	 
H 	 37.3157 	 32.2639 	 58.9386 	 
H 	 37.1606 	 32.7307 	 60.604 	 
C 	 35.3881 	 33.151 	 59.4272 	 
H 	 34.8265 	 33.2802 	 60.3109 	 
H 	 34.8576 	 32.6377 	 58.5972 	 
H 	 35.694 	 34.1744 	 59.1541 	 
H 	 38.8011 	 30.1231 	 54.1372 	 
H 	 40.0867 	 28.1261 	 61.7708 	 
*
