! wB97X-D3 SP def2-SVP
%pal
nprocs 16
end

* xyz 0 1
S 	 53.6278 	 20.4957 	 48.4591 	 
C 	 53.9935 	 22.1707 	 48.3668 	 
C 	 53.4303 	 22.9573 	 49.3823 	 
C 	 52.5634 	 22.1144 	 50.1799 	 
C 	 52.5907 	 20.7211 	 49.8313 	 
H 	 51.8794 	 22.428 	 50.95 	 
C 	 53.464 	 24.4819 	 49.3427 	 
H 	 53.5348 	 24.7048 	 48.2173 	 
H 	 54.395 	 24.8765 	 49.7945 	 
C 	 52.2003 	 25.1722 	 49.8345 	 
H 	 51.9712 	 25.0093 	 50.9316 	 
H 	 52.4179 	 26.2674 	 49.6756 	 
C 	 50.906 	 25.045 	 49.0331 	 
H 	 50.074 	 25.6261 	 49.6202 	 
H 	 51.0646 	 25.5476 	 48.1109 	 
H 	 50.6709 	 23.9835 	 48.9128 	 
S 	 52.6338 	 19.1501 	 52.1551 	 
C 	 51.5493 	 17.7888 	 52.2178 	 
C 	 50.6756 	 17.7715 	 51.156 	 
C 	 50.9173 	 18.8292 	 50.259 	 
C 	 52.0506 	 19.6219 	 50.5818 	 
H 	 49.8607 	 17.1199 	 51.0954 	 
C 	 49.8353 	 19.1863 	 49.239 	 
H 	 49.3084 	 18.2532 	 48.8771 	 
H 	 50.2643 	 19.7251 	 48.4127 	 
C 	 48.7819 	 20.2551 	 49.7482 	 
H 	 49.2113 	 21.2761 	 49.814 	 
H 	 48.4789 	 20.033 	 50.7852 	 
C 	 47.4637 	 20.3868 	 48.8719 	 
H 	 46.773 	 21.0519 	 49.3523 	 
H 	 46.9445 	 19.4199 	 48.8775 	 
H 	 47.6479 	 20.8093 	 47.9443 	 
H 	 54.6308 	 22.5488 	 47.5975 	 
H 	 51.5416 	 16.9852 	 52.939 	 
*
