! wB97X-D3 SP def2-SVP
%pal
nprocs 16
end

* xyz 0 1
S 	 -3.0994 	 -14.789 	 85.7861 	 
C 	 -4.21561 	 -15.8526 	 84.9458 	 
C 	 -3.65423 	 -16.272 	 83.7715 	 
C 	 -2.38192 	 -15.7953 	 83.4902 	 
C 	 -1.95154 	 -14.8149 	 84.4497 	 
H 	 -1.71987 	 -15.8646 	 82.6453 	 
C 	 -4.39978 	 -17.2118 	 82.8402 	 
H 	 -4.44506 	 -18.1429 	 83.3617 	 
H 	 -3.83644 	 -17.3613 	 81.9096 	 
C 	 -5.8077 	 -16.8221 	 82.4042 	 
H 	 -6.32529 	 -17.6859 	 82.0069 	 
H 	 -6.35927 	 -16.5817 	 83.301 	 
C 	 -5.92937 	 -15.6457 	 81.4303 	 
H 	 -6.77073 	 -14.9695 	 81.6619 	 
H 	 -5.01884 	 -15.0162 	 81.2471 	 
H 	 -6.09578 	 -16.0094 	 80.4167 	 
S 	 0.0978337 	 -14.1213 	 86.2541 	 
C 	 1.55332 	 -13.5089 	 85.535 	 
C 	 1.37392 	 -13.1675 	 84.3009 	 
C 	 0.112855 	 -13.435 	 83.7004 	 
C 	 -0.667328 	 -14.1025 	 84.6188 	 
H 	 2.31041 	 -12.8352 	 83.7839 	 
C 	 -0.215849 	 -13.267 	 82.225 	 
H 	 -0.171758 	 -12.2096 	 82.1121 	 
H 	 -1.28158 	 -13.5657 	 82.0166 	 
C 	 0.749831 	 -13.958 	 81.1526 	 
H 	 1.71973 	 -13.5215 	 81.2542 	 
H 	 0.416364 	 -13.7315 	 80.1562 	 
C 	 0.83193 	 -15.438 	 81.2454 	 
H 	 1.27162 	 -15.6991 	 82.1909 	 
H 	 1.51272 	 -15.9053 	 80.5107 	 
H 	 -0.00469765 	 -16.0985 	 81.1779 	 
H 	 -5.25803 	 -16.1571 	 85.2088 	 
H 	 2.47171 	 -13.488 	 86.0905 	 
*
