! wB97X-D3 SP def2-SVP
%pal
nprocs 16
end

* xyz 0 1
S 	 -67.9709 	 38.7155 	 138.787 	 
C 	 -66.5564 	 39.5047 	 139.403 	 
C 	 -65.4671 	 39.4386 	 138.572 	 
C 	 -65.7253 	 38.6303 	 137.424 	 
C 	 -67.0701 	 38.1778 	 137.296 	 
H 	 -65.0425 	 38.2788 	 136.681 	 
C 	 -64.0233 	 39.8941 	 138.926 	 
H 	 -64.0975 	 40.8047 	 139.516 	 
H 	 -63.5383 	 40.3566 	 138.095 	 
C 	 -63.1549 	 38.7642 	 139.365 	 
H 	 -63.1526 	 37.955 	 138.573 	 
H 	 -62.0999 	 39.1161 	 139.359 	 
C 	 -63.5253 	 38.1827 	 140.755 	 
H 	 -64.6374 	 38.1357 	 140.821 	 
H 	 -63.1984 	 37.1718 	 140.827 	 
H 	 -63.1284 	 38.8453 	 141.567 	 
S 	 -69.0603 	 36.535 	 136.511 	 
C 	 -69.2117 	 36.0813 	 134.868 	 
C 	 -68.191 	 36.6052 	 134.135 	 
C 	 -67.3055 	 37.4696 	 134.847 	 
C 	 -67.7124 	 37.5715 	 136.162 	 
H 	 -68.132 	 36.2722 	 133.067 	 
C 	 -66.1321 	 38.2642 	 134.241 	 
H 	 -65.8341 	 38.9966 	 134.941 	 
H 	 -66.4804 	 38.7607 	 133.384 	 
C 	 -64.9685 	 37.3965 	 133.808 	 
H 	 -64.1544 	 38.0409 	 133.339 	 
H 	 -65.374 	 36.6978 	 133.048 	 
C 	 -64.2591 	 36.3575 	 134.841 	 
H 	 -63.6146 	 36.8173 	 135.567 	 
H 	 -63.6151 	 35.6196 	 134.293 	 
H 	 -64.9596 	 35.7116 	 135.373 	 
H 	 -66.5141 	 40.0568 	 140.297 	 
H 	 -69.9674 	 35.4491 	 134.453 	 
*
