! wB97X-D3 SP def2-SVP
%pal
nprocs 16
end

* xyz 0 1
S 	 -75.1978 	 47.3178 	 124.198 	 
C 	 -74.9455 	 45.593 	 123.992 	 
C 	 -73.7073 	 45.1463 	 124.354 	 
C 	 -72.9298 	 46.235 	 124.815 	 
C 	 -73.6004 	 47.4378 	 124.84 	 
H 	 -71.8968 	 46.1673 	 125.131 	 
C 	 -73.1491 	 43.7822 	 124.086 	 
H 	 -73.9344 	 43.1019 	 123.973 	 
H 	 -72.6924 	 43.4812 	 124.979 	 
C 	 -71.9487 	 43.5333 	 123.096 	 
H 	 -71.0315 	 43.8602 	 123.583 	 
H 	 -71.7981 	 42.4487 	 123.208 	 
C 	 -72.1612 	 43.9582 	 121.629 	 
H 	 -71.3838 	 43.6876 	 121.026 	 
H 	 -73.1314 	 43.627 	 121.269 	 
H 	 -72.2521 	 45.0898 	 121.674 	 
S 	 -74.2195 	 49.6472 	 126.194 	 
C 	 -72.9202 	 50.6702 	 126.841 	 
C 	 -71.688 	 50.3553 	 126.327 	 
C 	 -71.8032 	 49.1863 	 125.503 	 
C 	 -73.0746 	 48.6457 	 125.415 	 
H 	 -70.9057 	 51.0481 	 126.502 	 
C 	 -70.5747 	 48.7243 	 124.728 	 
H 	 -70.9097 	 47.907 	 124.082 	 
H 	 -69.7229 	 48.4329 	 125.365 	 
C 	 -69.9469 	 49.8112 	 123.774 	 
H 	 -69.3826 	 50.6451 	 124.254 	 
H 	 -70.7571 	 50.2763 	 123.18 	 
C 	 -69.0641 	 49.2176 	 122.68 	 
H 	 -68.6907 	 49.9228 	 122.022 	 
H 	 -69.6979 	 48.5252 	 122.08 	 
H 	 -68.3051 	 48.6104 	 123.08 	 
H 	 -75.7321 	 44.9728 	 123.582 	 
H 	 -73.1778 	 51.6081 	 127.314 	 
*
