! wB97X-D3 SP def2-SVP
%pal
nprocs 16
end

* xyz 0 1
S 	 -15.3896 	 -7.89962 	 85.7762 	 
C 	 -15.2086 	 -9.47586 	 84.9825 	 
C 	 -16.1926 	 -9.70125 	 84.0884 	 
C 	 -17.0788 	 -8.57295 	 84.0069 	 
C 	 -16.7967 	 -7.47783 	 84.8339 	 
H 	 -17.9613 	 -8.55522 	 83.3365 	 
C 	 -16.3523 	 -10.8457 	 83.139 	 
H 	 -17.0938 	 -11.5285 	 83.5922 	 
H 	 -15.4583 	 -11.4353 	 83.0591 	 
C 	 -16.7726 	 -10.67 	 81.6661 	 
H 	 -17.2847 	 -11.6131 	 81.3394 	 
H 	 -17.7236 	 -10.1892 	 81.4726 	 
C 	 -15.5786 	 -10.275 	 80.7795 	 
H 	 -15.8531 	 -10.3468 	 79.7239 	 
H 	 -15.1804 	 -9.23766 	 80.9581 	 
H 	 -14.8364 	 -11.0676 	 81.0332 	 
S 	 -18.0573 	 -5.56258 	 83.3377 	 
C 	 -18.7817 	 -4.18309 	 84.1 	 
C 	 -18.4169 	 -4.10713 	 85.4705 	 
C 	 -17.6304 	 -5.25972 	 85.8629 	 
C 	 -17.4439 	 -6.19993 	 84.8678 	 
H 	 -18.6213 	 -3.22718 	 86.144 	 
C 	 -17.2622 	 -5.49047 	 87.3443 	 
H 	 -16.1889 	 -5.75309 	 87.4469 	 
H 	 -17.8057 	 -6.33886 	 87.6882 	 
C 	 -17.5833 	 -4.29944 	 88.3634 	 
H 	 -18.6452 	 -4.18503 	 88.4869 	 
H 	 -17.1302 	 -3.4387 	 88.036 	 
C 	 -16.9948 	 -4.61462 	 89.7461 	 
H 	 -17.0577 	 -3.78864 	 90.5617 	 
H 	 -15.9035 	 -4.73496 	 89.6081 	 
H 	 -17.2744 	 -5.57573 	 90.2094 	 
H 	 -14.4078 	 -10.1772 	 85.276 	 
H 	 -19.083 	 -3.25762 	 83.5857 	 
*
