! wB97X-D3 SP def2-SVP
%pal
nprocs 16
end

* xyz 0 1
S 	 -73.0354 	 51.609 	 137.062 	 
C 	 -73.2644 	 53.3468 	 137.473 	 
C 	 -73.9872 	 53.9721 	 136.516 	 
C 	 -74.4838 	 53.0863 	 135.516 	 
C 	 -74.1043 	 51.7745 	 135.717 	 
H 	 -75.1094 	 53.2962 	 134.684 	 
C 	 -74.1485 	 55.5097 	 136.436 	 
H 	 -74.423 	 55.804 	 135.418 	 
H 	 -73.1089 	 55.9478 	 136.565 	 
C 	 -74.9355 	 56.1948 	 137.565 	 
H 	 -74.4862 	 56.0047 	 138.57 	 
H 	 -74.8618 	 57.3051 	 137.361 	 
C 	 -76.3754 	 55.7575 	 137.773 	 
H 	 -76.992 	 55.7978 	 136.865 	 
H 	 -76.3568 	 54.718 	 138.072 	 
H 	 -76.7413 	 56.483 	 138.444 	 
S 	 -73.3835 	 49.4262 	 134.616 	 
C 	 -74.5759 	 48.4302 	 133.732 	 
C 	 -75.7916 	 49.0204 	 133.628 	 
C 	 -75.8488 	 50.2681 	 134.36 	 
C 	 -74.6311 	 50.5719 	 134.995 	 
H 	 -76.569 	 48.5663 	 132.992 	 
C 	 -77.1477 	 51.0048 	 134.537 	 
H 	 -77.8266 	 50.3173 	 134.064 	 
H 	 -77.1684 	 51.8563 	 133.942 	 
C 	 -77.6373 	 51.2594 	 135.944 	 
H 	 -78.5572 	 51.7571 	 135.824 	 
H 	 -76.9701 	 51.9419 	 136.458 	 
C 	 -77.8246 	 49.997 	 136.824 	 
H 	 -78.3881 	 49.267 	 136.231 	 
H 	 -78.3899 	 50.2718 	 137.703 	 
H 	 -76.8635 	 49.5707 	 137.143 	 
H 	 -72.7705 	 53.835 	 138.318 	 
H 	 -74.3092 	 47.6186 	 133.113 	 
*
