! wB97X-D3 SP def2-SVP
%pal
nprocs 16
end

* xyz 0 1
S 	 -74.5389 	 48.9554 	 138.359 	 
C 	 -74.9148 	 50.6334 	 138.292 	 
C 	 -73.8981 	 51.4583 	 137.902 	 
C 	 -72.6954 	 50.7188 	 137.924 	 
C 	 -72.86 	 49.3044 	 138.09 	 
H 	 -71.7203 	 51.0212 	 137.683 	 
C 	 -73.9737 	 52.9693 	 137.878 	 
H 	 -74.3608 	 53.3571 	 138.814 	 
H 	 -74.7435 	 53.2117 	 137.104 	 
C 	 -72.7497 	 53.6954 	 137.371 	 
H 	 -71.8518 	 53.3827 	 137.883 	 
H 	 -72.5514 	 53.4399 	 136.367 	 
C 	 -72.9125 	 55.1787 	 137.383 	 
H 	 -72.063 	 55.6149 	 136.972 	 
H 	 -73.8834 	 55.4821 	 136.908 	 
H 	 -72.891 	 55.502 	 138.391 	 
S 	 -71.7272 	 47.2956 	 139.522 	 
C 	 -70.5686 	 46.31 	 138.682 	 
C 	 -70.0834 	 46.8744 	 137.536 	 
C 	 -70.798 	 48.0605 	 137.172 	 
C 	 -71.7902 	 48.338 	 138.097 	 
H 	 -69.3569 	 46.3933 	 137.021 	 
C 	 -70.6224 	 48.7419 	 135.834 	 
H 	 -69.7077 	 48.3958 	 135.497 	 
H 	 -70.4268 	 49.8076 	 135.952 	 
C 	 -71.723 	 48.4693 	 134.78 	 
H 	 -72.6668 	 48.7958 	 135.135 	 
H 	 -71.8259 	 47.3642 	 134.607 	 
C 	 -71.4303 	 49.1929 	 133.428 	 
H 	 -70.6457 	 48.8116 	 132.81 	 
H 	 -71.1998 	 50.2587 	 133.723 	 
H 	 -72.322 	 49.1618 	 132.797 	 
H 	 -75.871 	 51.0926 	 138.673 	 
H 	 -70.1338 	 45.3737 	 138.985 	 
*
