! wB97X-D3 SP def2-SVP
%pal
nprocs 16
end

* xyz 0 1
S 	 40.4301 	 16.5064 	 67.4537 	 
C 	 38.6674 	 16.7364 	 67.7971 	 
C 	 37.8876 	 16.0997 	 66.8133 	 
C 	 38.6894 	 15.4861 	 65.807 	 
C 	 40.0671 	 15.5663 	 66.0254 	 
H 	 38.3956 	 14.937 	 64.9473 	 
C 	 36.4477 	 16.141 	 66.787 	 
H 	 36.0486 	 16.1917 	 65.7586 	 
H 	 36.086 	 17.0347 	 67.2625 	 
C 	 35.7125 	 14.9263 	 67.4878 	 
H 	 35.8755 	 14.089 	 66.7956 	 
H 	 36.2833 	 14.6473 	 68.308 	 
C 	 34.1897 	 15.0708 	 67.6998 	 
H 	 34.0711 	 16.1481 	 67.7954 	 
H 	 33.6904 	 14.7364 	 66.77 	 
H 	 33.7541 	 14.5526 	 68.575 	 
S 	 41.1914 	 13.2443 	 65.2554 	 
C 	 42.6111 	 13.2832 	 64.1716 	 
C 	 42.7714 	 14.5346 	 63.6756 	 
C 	 41.8636 	 15.5287 	 64.1589 	 
C 	 41.0495 	 14.9582 	 65.1518 	 
H 	 43.4474 	 14.7153 	 62.8203 	 
C 	 42.0749 	 17.0011 	 63.8969 	 
H 	 41.1952 	 17.5329 	 64.2017 	 
H 	 42.1424 	 17.1792 	 62.7617 	 
C 	 43.2444 	 17.4684 	 64.7379 	 
H 	 43.8662 	 16.612 	 64.836 	 
H 	 42.92 	 17.8115 	 65.7744 	 
C 	 44.1106 	 18.5643 	 64.09 	 
H 	 44.893 	 18.8507 	 64.7921 	 
H 	 43.5576 	 19.4727 	 63.8302 	 
H 	 44.5023 	 18.085 	 63.2502 	 
H 	 38.3333 	 17.29 	 68.6645 	 
H 	 43.2079 	 12.4523 	 63.9434 	 
*
