! wB97X-D3 SP def2-SVP
%pal
nprocs 16
end

* xyz 0 1
S 	 -97.3517 	 41.1194 	 125.033 	 
C 	 -95.7742 	 40.6931 	 124.449 	 
C 	 -95.7852 	 40.683 	 123.056 	 
C 	 -96.9909 	 41.0528 	 122.474 	 
C 	 -98.0022 	 41.2849 	 123.427 	 
H 	 -97.2137 	 41.2334 	 121.4 	 
C 	 -94.6849 	 40.2026 	 122.157 	 
H 	 -95.0619 	 39.3347 	 121.629 	 
H 	 -93.8441 	 39.9108 	 122.774 	 
C 	 -94.1876 	 41.2018 	 121.18 	 
H 	 -94.8978 	 41.4001 	 120.472 	 
H 	 -93.9947 	 42.2326 	 121.557 	 
C 	 -93.1389 	 40.6721 	 120.224 	 
H 	 -93.0045 	 39.5904 	 120.441 	 
H 	 -93.487 	 40.8172 	 119.216 	 
H 	 -92.162 	 41.145 	 120.301 	 
S 	 -100.647 	 41.4428 	 124.297 	 
C 	 -101.77 	 42.2432 	 123.244 	 
C 	 -101.219 	 42.6094 	 122.001 	 
C 	 -99.8185 	 42.4471 	 122.033 	 
C 	 -99.348 	 41.8003 	 123.194 	 
H 	 -101.857 	 43.0881 	 121.247 	 
C 	 -99.0532 	 42.8091 	 120.772 	 
H 	 -98.0912 	 43.0459 	 121.051 	 
H 	 -99.6144 	 43.6164 	 120.422 	 
C 	 -99.0674 	 41.6773 	 119.718 	 
H 	 -100.097 	 41.5682 	 119.539 	 
H 	 -98.7665 	 40.6881 	 120.156 	 
C 	 -98.3764 	 42.0433 	 118.398 	 
H 	 -97.258 	 41.8639 	 118.502 	 
H 	 -98.6041 	 43.0424 	 118.023 	 
H 	 -98.6154 	 41.2152 	 117.667 	 
H 	 -94.8825 	 40.3094 	 125.095 	 
H 	 -102.797 	 42.3573 	 123.516 	 
*
