! wB97X-D3 SP def2-SVP
%pal
nprocs 16
end

* xyz 0 1
S 	 -97.297 	 43.7616 	 118.753 	 
C 	 -97.4075 	 44.9632 	 120.02 	 
C 	 -96.2893 	 45.1012 	 120.751 	 
C 	 -95.3552 	 44.063 	 120.479 	 
C 	 -95.6683 	 43.2625 	 119.361 	 
H 	 -94.427 	 43.8958 	 120.959 	 
C 	 -95.9547 	 46.1101 	 121.819 	 
H 	 -95.2481 	 45.7432 	 122.513 	 
H 	 -96.8585 	 46.3268 	 122.466 	 
C 	 -95.4255 	 47.442 	 121.097 	 
H 	 -94.3571 	 47.2165 	 120.789 	 
H 	 -95.993 	 47.4865 	 120.173 	 
C 	 -95.5875 	 48.7099 	 122.025 	 
H 	 -96.6878 	 48.8231 	 122.24 	 
H 	 -95.0709 	 48.5182 	 122.97 	 
H 	 -95.2741 	 49.6638 	 121.593 	 
S 	 -95.7407 	 40.6948 	 118.48 	 
C 	 -94.4307 	 40.1657 	 117.421 	 
C 	 -93.5789 	 41.1397 	 117.057 	 
C 	 -93.8902 	 42.3506 	 117.786 	 
C 	 -94.9082 	 42.2789 	 118.69 	 
H 	 -92.7453 	 40.9619 	 116.363 	 
C 	 -93.0329 	 43.6026 	 117.498 	 
H 	 -91.9944 	 43.2518 	 117.417 	 
H 	 -93.1485 	 44.1651 	 118.402 	 
C 	 -93.4026 	 44.6321 	 116.417 	 
H 	 -93.2029 	 44.1129 	 115.411 	 
H 	 -92.562 	 45.3891 	 116.588 	 
C 	 -94.8187 	 45.1416 	 116.472 	 
H 	 -95.1814 	 45.4379 	 115.526 	 
H 	 -95.1129 	 45.977 	 117.091 	 
H 	 -95.41 	 44.2562 	 116.632 	 
H 	 -98.2384 	 45.6748 	 120.085 	 
H 	 -94.5195 	 39.1704 	 116.96 	 
*
