! wB97X-D3 SP def2-SVP
%pal
nprocs 16
end

* xyz 0 1
S 	 -8.69758 	 47.0539 	 39.7319 	 
C 	 -9.61929 	 47.9352 	 38.5285 	 
C 	 -9.14238 	 49.1835 	 38.2524 	 
C 	 -7.91899 	 49.3565 	 38.9673 	 
C 	 -7.56194 	 48.3448 	 39.8686 	 
H 	 -7.32349 	 50.2636 	 38.9586 	 
C 	 -9.58087 	 50.2537 	 37.2625 	 
H 	 -9.32088 	 49.7798 	 36.3255 	 
H 	 -8.97321 	 51.1541 	 37.5095 	 
C 	 -11.0399 	 50.5728 	 37.019 	 
H 	 -10.9939 	 51.269 	 36.1965 	 
H 	 -11.5968 	 49.713 	 36.6569 	 
C 	 -11.7249 	 51.2738 	 38.2123 	 
H 	 -12.5069 	 51.9302 	 37.9474 	 
H 	 -12.0575 	 50.5906 	 38.9486 	 
H 	 -11.0181 	 51.9356 	 38.6797 	 
S 	 -6.74177 	 48.3047 	 42.4337 	 
C 	 -5.0443 	 48.0458 	 42.8134 	 
C 	 -4.29404 	 48.0815 	 41.6279 	 
C 	 -5.06068 	 48.2727 	 40.4528 	 
C 	 -6.36065 	 48.2674 	 40.713 	 
H 	 -3.2033 	 48.0801 	 41.5858 	 
C 	 -4.40458 	 48.4522 	 39.1459 	 
H 	 -3.33242 	 48.4692 	 39.095 	 
H 	 -4.84769 	 49.3646 	 38.7813 	 
C 	 -4.85108 	 47.3902 	 38.1362 	 
H 	 -5.845 	 47.4065 	 37.6983 	 
H 	 -4.86054 	 46.4203 	 38.6317 	 
C 	 -3.94535 	 47.2761 	 36.8681 	 
H 	 -3.87298 	 48.1453 	 36.2447 	 
H 	 -4.2387 	 46.4306 	 36.192 	 
H 	 -2.88619 	 47.1627 	 37.1502 	 
H 	 -10.5367 	 47.6013 	 38.0704 	 
H 	 -4.76936 	 48.0979 	 43.8159 	 
*
