! wB97X-D3 SP def2-SVP
%pal
nprocs 16
end

* xyz 0 1
S 	 2.54788 	 -12.3906 	 52.9819 	 
C 	 1.08457 	 -12.3408 	 51.915 	 
C 	 0.179802 	 -13.3612 	 52.1433 	 
C 	 0.743039 	 -14.2802 	 53.1366 	 
C 	 2.00466 	 -13.9801 	 53.5645 	 
H 	 0.432403 	 -15.2151 	 53.5691 	 
C 	 -1.14782 	 -13.5842 	 51.5159 	 
H 	 -1.11699 	 -13.1372 	 50.5261 	 
H 	 -1.76093 	 -12.9432 	 52.196 	 
C 	 -1.85005 	 -14.9844 	 51.4576 	 
H 	 -2.64655 	 -14.9113 	 50.6783 	 
H 	 -1.16244 	 -15.7063 	 50.9649 	 
C 	 -2.44695 	 -15.4289 	 52.7723 	 
H 	 -3.10621 	 -16.3298 	 52.5281 	 
H 	 -1.75603 	 -15.8309 	 53.5451 	 
H 	 -3.15878 	 -14.7812 	 53.2774 	 
S 	 4.54851 	 -15.0962 	 53.9559 	 
C 	 4.7154 	 -16.2567 	 55.2339 	 
C 	 3.64167 	 -16.205 	 56.0405 	 
C 	 2.53268 	 -15.4461 	 55.6291 	 
C 	 2.85667 	 -14.7876 	 54.4662 	 
H 	 3.78675 	 -16.7783 	 56.9932 	 
C 	 1.2592 	 -15.2973 	 56.5406 	 
H 	 0.756956 	 -16.2448 	 56.379 	 
H 	 0.629663 	 -14.5231 	 56.0681 	 
C 	 1.64704 	 -14.965 	 57.9708 	 
H 	 2.39008 	 -14.1525 	 58.0026 	 
H 	 2.01962 	 -15.8476 	 58.5158 	 
C 	 0.46931 	 -14.4888 	 58.7806 	 
H 	 0.710109 	 -14.2971 	 59.8653 	 
H 	 -0.31423 	 -15.2287 	 58.713 	 
H 	 0.0381425 	 -13.5832 	 58.4717 	 
H 	 0.939044 	 -11.5851 	 51.14 	 
H 	 5.44818 	 -17.0292 	 55.3147 	 
*
