! wB97X-D3 SP def2-SVP
%pal
nprocs 16
end

* xyz 0 1
S 	 -89.6747 	 41.3872 	 114.117 	 
C 	 -89.0106 	 42.2518 	 112.725 	 
C 	 -89.948 	 43.1746 	 112.262 	 
C 	 -91.2589 	 43.041 	 112.876 	 
C 	 -91.3115 	 41.9616 	 113.794 	 
H 	 -92.1826 	 43.4905 	 112.548 	 
C 	 -89.7811 	 44.0455 	 111.01 	 
H 	 -90.8488 	 44.1429 	 110.73 	 
H 	 -89.2131 	 43.4725 	 110.286 	 
C 	 -89.1525 	 45.4571 	 111.249 	 
H 	 -88.2124 	 45.3542 	 111.728 	 
H 	 -89.0156 	 46.0418 	 110.314 	 
C 	 -90.0384 	 46.31 	 112.165 	 
H 	 -89.5688 	 47.3045 	 112.446 	 
H 	 -91.0286 	 46.4627 	 111.642 	 
H 	 -90.3603 	 45.8417 	 113.125 	 
S 	 -93.5451 	 40.638 	 113.763 	 
C 	 -94.6685 	 40.6643 	 115.072 	 
C 	 -94.0978 	 41.3327 	 116.188 	 
C 	 -92.803 	 41.8323 	 115.938 	 
C 	 -92.4029 	 41.5794 	 114.679 	 
H 	 -94.6016 	 41.4031 	 117.056 	 
C 	 -91.9021 	 42.5186 	 116.941 	 
H 	 -90.7475 	 42.3664 	 116.687 	 
H 	 -92.1537 	 42.1371 	 117.898 	 
C 	 -92.0789 	 43.9963 	 116.93 	 
H 	 -93.1461 	 44.2408 	 116.606 	 
H 	 -91.319 	 44.3583 	 116.182 	 
C 	 -91.7478 	 44.6542 	 118.283 	 
H 	 -92.0427 	 45.7728 	 118.284 	 
H 	 -90.7576 	 44.5414 	 118.593 	 
H 	 -92.2557 	 44.1758 	 119.142 	 
H 	 -87.9523 	 42.0468 	 112.442 	 
H 	 -95.6489 	 40.1676 	 115.083 	 
*
