! wB97X-D3 SP def2-SVP
%pal
nprocs 16
end

* xyz 0 1
S 	 50.7042 	 23.0473 	 88.1493 	 
C 	 49.0938 	 22.3709 	 88.4693 	 
C 	 48.7655 	 22.4677 	 89.7936 	 
C 	 49.7921 	 23.0081 	 90.6022 	 
C 	 50.9198 	 23.3627 	 89.9006 	 
H 	 49.8444 	 23.1549 	 91.714 	 
C 	 47.3789 	 22.0396 	 90.3384 	 
H 	 47.565 	 21.0267 	 90.7114 	 
H 	 46.6196 	 21.8004 	 89.5582 	 
C 	 46.8054 	 22.903 	 91.4494 	 
H 	 47.6688 	 23.1061 	 92.1367 	 
H 	 46.4304 	 23.8972 	 91.1091 	 
C 	 45.6201 	 22.2243 	 92.1026 	 
H 	 44.6949 	 22.1435 	 91.4654 	 
H 	 45.7795 	 21.234 	 92.3542 	 
H 	 45.2891 	 22.7114 	 93.0217 	 
S 	 53.1585 	 24.917 	 89.3069 	 
C 	 54.3074 	 25.359 	 90.466 	 
C 	 53.95 	 24.8646 	 91.7061 	 
C 	 52.7594 	 24.078 	 91.7179 	 
C 	 52.1411 	 24.0836 	 90.4507 	 
H 	 54.7435 	 24.9799 	 92.5405 	 
C 	 52.3669 	 23.2813 	 92.9348 	 
H 	 53.2443 	 22.9507 	 93.4182 	 
H 	 51.9301 	 22.3901 	 92.5661 	 
C 	 51.3929 	 24.0086 	 93.975 	 
H 	 50.5131 	 24.3218 	 93.4208 	 
H 	 51.8425 	 24.9511 	 94.2385 	 
C 	 51.0608 	 23.2686 	 95.2523 	 
H 	 51.9342 	 23.15 	 95.9098 	 
H 	 50.6143 	 22.2104 	 95.0184 	 
H 	 50.3013 	 23.7592 	 95.882 	 
H 	 48.4947 	 21.9174 	 87.6766 	 
H 	 55.181 	 25.9231 	 90.2232 	 
*
