! wB97X-D3 SP def2-SVP
%pal
nprocs 16
end

* xyz 0 1
S 	 0.227301 	 -26.153 	 85.0891 	 
C 	 1.06048 	 -27.5296 	 84.3321 	 
C 	 2.41959 	 -27.2678 	 84.1829 	 
C 	 2.68975 	 -25.863 	 84.2937 	 
C 	 1.61387 	 -25.1433 	 84.7088 	 
H 	 3.61463 	 -25.384 	 84.2166 	 
C 	 3.47109 	 -28.2661 	 83.799 	 
H 	 3.16305 	 -29.223 	 84.2205 	 
H 	 4.43249 	 -28.021 	 84.2558 	 
C 	 3.62877 	 -28.4478 	 82.2982 	 
H 	 2.68637 	 -28.5592 	 81.8327 	 
H 	 4.21039 	 -27.5741 	 81.9133 	 
C 	 4.3301 	 -29.7485 	 82.0431 	 
H 	 3.77446 	 -30.5699 	 82.5391 	 
H 	 4.3224 	 -29.9538 	 80.9791 	 
H 	 5.36458 	 -29.6734 	 82.3702 	 
S 	 2.65319 	 -23.1574 	 86.4883 	 
C 	 2.08706 	 -21.527 	 86.3852 	 
C 	 1.18144 	 -21.4017 	 85.3917 	 
C 	 0.859069 	 -22.6488 	 84.7452 	 
C 	 1.59804 	 -23.774 	 85.2165 	 
H 	 0.697362 	 -20.4616 	 85.1202 	 
C 	 -0.106052 	 -22.6638 	 83.4691 	 
H 	 -1.12884 	 -22.6395 	 83.8154 	 
H 	 -0.0213764 	 -23.6828 	 83.0859 	 
C 	 0.155705 	 -21.6542 	 82.3241 	 
H 	 -0.00906199 	 -22.2388 	 81.384 	 
H 	 1.14223 	 -21.3246 	 82.2185 	 
C 	 -0.881559 	 -20.436 	 82.3332 	 
H 	 -0.961629 	 -19.9101 	 83.3097 	 
H 	 -1.81422 	 -20.8955 	 82.1067 	 
H 	 -0.660577 	 -19.6584 	 81.5858 	 
H 	 0.682091 	 -28.5458 	 84.3163 	 
H 	 2.37596 	 -20.7621 	 87.0362 	 
*
