! wB97X-D3 SP def2-SVP
%pal
nprocs 16
end

* xyz 0 1
S 	 22.2682 	 3.0913 	 74.2401 	 
C 	 22.8375 	 4.55708 	 74.9514 	 
C 	 22.7949 	 4.46656 	 76.3379 	 
C 	 22.1231 	 3.29236 	 76.745 	 
C 	 21.7181 	 2.42936 	 75.753 	 
H 	 21.9616 	 3.1124 	 77.7918 	 
C 	 23.4423 	 5.47608 	 77.2858 	 
H 	 23.7008 	 6.30802 	 76.6513 	 
H 	 24.3321 	 5.05311 	 77.7158 	 
C 	 22.5639 	 6.13856 	 78.3735 	 
H 	 21.794 	 6.74975 	 78.0283 	 
H 	 22.0638 	 5.40524 	 79.0765 	 
C 	 23.2475 	 7.20707 	 79.1809 	 
H 	 24.1421 	 6.84194 	 79.7806 	 
H 	 23.6325 	 8.08094 	 78.5731 	 
H 	 22.6277 	 7.57176 	 80.0001 	 
S 	 21.7671 	 -0.364365 	 75.4835 	 
C 	 20.4229 	 -1.30923 	 76.1353 	 
C 	 19.5194 	 -0.475415 	 76.6874 	 
C 	 19.7427 	 0.937593 	 76.4735 	 
C 	 20.9918 	 1.17424 	 75.873 	 
H 	 18.6477 	 -0.822036 	 77.2485 	 
C 	 18.8382 	 2.0208 	 77.0324 	 
H 	 19.4248 	 2.79351 	 77.4944 	 
H 	 18.2033 	 1.61731 	 77.8332 	 
C 	 17.8725 	 2.59997 	 75.9353 	 
H 	 17.234 	 1.79529 	 75.4836 	 
H 	 18.4934 	 2.9987 	 75.1532 	 
C 	 16.8109 	 3.57744 	 76.3998 	 
H 	 16.0557 	 3.27608 	 77.1024 	 
H 	 16.3705 	 3.9289 	 75.5437 	 
H 	 17.384 	 4.29481 	 76.9506 	 
H 	 23.119 	 5.3924 	 74.4134 	 
H 	 20.4312 	 -2.39777 	 76.0265 	 
*
