! wB97X-D3 SP def2-SVP
%pal
nprocs 16
end

* xyz 0 1
S 	 51.019 	 5.31311 	 82.8831 	 
C 	 50.0298 	 5.7376 	 84.214 	 
C 	 48.6772 	 5.43217 	 84.0434 	 
C 	 48.42 	 4.89779 	 82.7851 	 
C 	 49.5833 	 4.60196 	 82.1581 	 
H 	 47.4925 	 4.55337 	 82.3481 	 
C 	 47.5587 	 5.83608 	 85.0056 	 
H 	 46.9099 	 6.57132 	 84.4659 	 
H 	 47.9916 	 6.5203 	 85.7177 	 
C 	 46.6596 	 4.76335 	 85.5288 	 
H 	 45.833 	 5.12573 	 86.1456 	 
H 	 46.1637 	 4.36391 	 84.7049 	 
C 	 47.3462 	 3.67302 	 86.3892 	 
H 	 46.7266 	 2.72684 	 86.4019 	 
H 	 48.3707 	 3.52484 	 85.9467 	 
H 	 47.4982 	 4.04864 	 87.393 	 
S 	 50.5557 	 4.50624 	 79.5155 	 
C 	 50.022 	 3.25907 	 78.4858 	 
C 	 49.3685 	 2.27771 	 79.193 	 
C 	 49.1201 	 2.58318 	 80.5693 	 
C 	 49.6732 	 3.82685 	 80.9117 	 
H 	 49.0877 	 1.35555 	 78.6808 	 
C 	 48.3964 	 1.56997 	 81.4581 	 
H 	 47.5916 	 1.20053 	 80.8888 	 
H 	 48.1612 	 2.02815 	 82.4132 	 
C 	 49.2836 	 0.366932 	 81.8193 	 
H 	 50.248 	 0.62158 	 82.3547 	 
H 	 49.6228 	 0.0228226 	 80.8945 	 
C 	 48.4689 	 -0.832368 	 82.3406 	 
H 	 49.0719 	 -1.70139 	 82.4857 	 
H 	 47.8057 	 -1.02609 	 81.5193 	 
H 	 47.9527 	 -0.672039 	 83.2721 	 
H 	 50.3976 	 6.22431 	 85.1298 	 
H 	 50.4974 	 3.0945 	 77.5079 	 
*
