! wB97X-D3 SP def2-SVP
%pal
nprocs 16
end

* xyz 0 1
S 	 -42.666 	 33.1919 	 82.9199 	 
C 	 -44.2401 	 33.8303 	 82.2845 	 
C 	 -44.9413 	 32.8635 	 81.5715 	 
C 	 -44.1284 	 31.6886 	 81.4153 	 
C 	 -42.9125 	 31.6784 	 82.0403 	 
H 	 -44.3964 	 30.8077 	 80.7769 	 
C 	 -46.2327 	 33.0359 	 80.7378 	 
H 	 -46.2951 	 32.2241 	 80.0591 	 
H 	 -46.3733 	 33.9797 	 80.1792 	 
C 	 -47.5648 	 32.7688 	 81.4237 	 
H 	 -47.3992 	 31.6915 	 81.6868 	 
H 	 -47.6089 	 33.2311 	 82.4346 	 
C 	 -48.8184 	 33.0797 	 80.634 	 
H 	 -48.9913 	 32.4993 	 79.7049 	 
H 	 -49.727 	 32.931 	 81.2436 	 
H 	 -48.8131 	 34.0785 	 80.3469 	 
S 	 -40.9723 	 30.2709 	 80.4382 	 
C 	 -40.1992 	 28.867 	 81.2529 	 
C 	 -40.6508 	 28.6398 	 82.531 	 
C 	 -41.7553 	 29.4775 	 82.8573 	 
C 	 -41.8991 	 30.562 	 81.9493 	 
H 	 -40.2483 	 27.8107 	 83.0721 	 
C 	 -42.5649 	 29.3832 	 84.0917 	 
H 	 -43.2946 	 30.2339 	 84.1658 	 
H 	 -41.8813 	 29.5748 	 84.9222 	 
C 	 -43.2635 	 28.0082 	 84.102 	 
H 	 -43.5861 	 27.602 	 85.072 	 
H 	 -42.485 	 27.3205 	 83.7609 	 
C 	 -44.4598 	 27.7824 	 83.2046 	 
H 	 -44.1777 	 27.8835 	 82.1525 	 
H 	 -45.1963 	 28.5844 	 83.5195 	 
H 	 -44.7919 	 26.7787 	 83.2038 	 
H 	 -44.5877 	 34.8495 	 82.4847 	 
H 	 -39.6281 	 28.0782 	 80.8399 	 
*
