! wB97X-D3 SP def2-SVP
%pal
nprocs 16
end

* xyz 0 1
S 	 -59.5719 	 56.7189 	 126 	 
C 	 -60.6875 	 57.3761 	 127.182 	 
C 	 -61.9835 	 57.4731 	 126.678 	 
C 	 -61.9812 	 57.2033 	 125.277 	 
C 	 -60.8214 	 56.6549 	 124.782 	 
H 	 -62.8066 	 57.2045 	 124.577 	 
C 	 -63.1892 	 57.9826 	 127.395 	 
H 	 -62.9116 	 58.2057 	 128.405 	 
H 	 -63.9337 	 57.1706 	 127.555 	 
C 	 -64.0271 	 59.1502 	 126.86 	 
H 	 -63.2839 	 59.9265 	 126.669 	 
H 	 -64.3056 	 58.8602 	 125.813 	 
C 	 -65.2063 	 59.6644 	 127.77 	 
H 	 -65.6086 	 60.6165 	 127.414 	 
H 	 -66.0532 	 58.984 	 127.801 	 
H 	 -64.8838 	 59.9147 	 128.737 	 
S 	 -60.3567 	 57.3185 	 122.113 	 
C 	 -60.3376 	 56.0115 	 120.928 	 
C 	 -60.4939 	 54.7734 	 121.5 	 
C 	 -60.7525 	 54.8261 	 122.888 	 
C 	 -60.6988 	 56.1305 	 123.408 	 
H 	 -60.5532 	 53.8714 	 120.881 	 
C 	 -61.0559 	 53.533 	 123.545 	 
H 	 -60.9176 	 52.663 	 122.887 	 
H 	 -62.0742 	 53.6871 	 123.988 	 
C 	 -60.2673 	 53.2221 	 124.829 	 
H 	 -60.5795 	 53.9318 	 125.59 	 
H 	 -59.2196 	 53.4047 	 124.779 	 
C 	 -60.5441 	 51.7614 	 125.33 	 
H 	 -60.1659 	 51.6311 	 126.333 	 
H 	 -59.9961 	 51.0068 	 124.782 	 
H 	 -61.6374 	 51.5373 	 125.395 	 
H 	 -60.4562 	 57.5021 	 128.259 	 
H 	 -60.2984 	 56.2338 	 119.86 	 
*
