! wB97X-D3 SP def2-SVP
%pal
nprocs 16
end

* xyz 0 1
S 	 -72.0644 	 38.3734 	 114.622 	 
C 	 -72.7624 	 38.6675 	 116.149 	 
C 	 -72.0464 	 38.1273 	 117.221 	 
C 	 -70.8856 	 37.3867 	 116.758 	 
C 	 -70.7987 	 37.3679 	 115.354 	 
H 	 -70.2351 	 36.8099 	 117.349 	 
C 	 -72.4045 	 38.1737 	 118.713 	 
H 	 -73.233 	 37.443 	 118.873 	 
H 	 -72.9907 	 39.1157 	 118.826 	 
C 	 -71.3098 	 37.9127 	 119.8 	 
H 	 -71.0944 	 36.8618 	 119.896 	 
H 	 -70.381 	 38.3619 	 119.542 	 
C 	 -71.7465 	 38.3985 	 121.149 	 
H 	 -71.7978 	 39.5149 	 121.28 	 
H 	 -72.7552 	 37.9988 	 121.476 	 
H 	 -71.0789 	 38.0063 	 121.922 	 
S 	 -71.0137 	 35.5754 	 113.337 	 
C 	 -69.4433 	 35.0487 	 112.518 	 
C 	 -68.33 	 35.6027 	 113.16 	 
C 	 -68.6674 	 36.4617 	 114.246 	 
C 	 -70.0111 	 36.5333 	 114.463 	 
H 	 -67.3061 	 35.3223 	 112.821 	 
C 	 -67.5271 	 37.1532 	 114.981 	 
H 	 -66.6101 	 36.538 	 114.857 	 
H 	 -67.7618 	 37.2209 	 116.016 	 
C 	 -67.1632 	 38.5876 	 114.439 	 
H 	 -68.0498 	 39.3075 	 114.411 	 
H 	 -66.9101 	 38.4472 	 113.402 	 
C 	 -65.9907 	 39.1083 	 115.217 	 
H 	 -65.4023 	 39.8856 	 114.666 	 
H 	 -65.3161 	 38.3902 	 115.68 	 
H 	 -66.3297 	 39.6264 	 116.144 	 
H 	 -73.7223 	 39.2011 	 116.353 	 
H 	 -69.3777 	 34.2485 	 111.812 	 
*
