! wB97X-D3 SP def2-SVP
%pal
nprocs 16
end

* xyz 0 1
S 	 52.4969 	 18.0739 	 79.9873 	 
C 	 52.8289 	 19.07 	 81.3833 	 
C 	 51.6817 	 19.5643 	 81.9393 	 
C 	 50.5169 	 19.1473 	 81.3177 	 
C 	 50.7741 	 18.3943 	 80.1321 	 
H 	 49.4843 	 19.509 	 81.5267 	 
C 	 51.6904 	 20.6959 	 82.9637 	 
H 	 51.4341 	 21.6771 	 82.4178 	 
H 	 52.7466 	 20.7947 	 83.2279 	 
C 	 50.7837 	 20.4784 	 84.1755 	 
H 	 50.9903 	 21.4271 	 84.8061 	 
H 	 49.8201 	 20.4549 	 83.5996 	 
C 	 51.1091 	 19.2276 	 85.088 	 
H 	 50.254 	 18.8976 	 85.6428 	 
H 	 51.3898 	 18.3569 	 84.4571 	 
H 	 51.9383 	 19.5376 	 85.6688 	 
S 	 49.6373 	 16.0369 	 79.4431 	 
C 	 48.3027 	 16.0582 	 78.2759 	 
C 	 48.072 	 17.3314 	 77.8064 	 
C 	 48.8806 	 18.336 	 78.3559 	 
C 	 49.8455 	 17.7701 	 79.2523 	 
H 	 47.2073 	 17.5586 	 77.1834 	 
C 	 48.7943 	 19.811 	 77.9863 	 
H 	 48.4994 	 19.8983 	 76.9541 	 
H 	 49.8273 	 20.1635 	 78.0129 	 
C 	 47.8336 	 20.6337 	 78.8066 	 
H 	 48.1426 	 21.674 	 78.7525 	 
H 	 47.8531 	 20.4186 	 79.8667 	 
C 	 46.3388 	 20.4437 	 78.4384 	 
H 	 46.2113 	 20.8419 	 77.4476 	 
H 	 45.6194 	 20.9246 	 79.1348 	 
H 	 46.0994 	 19.4083 	 78.3331 	 
H 	 53.8648 	 19.349 	 81.7983 	 
H 	 47.6079 	 15.2381 	 77.981 	 
*
