! wB97X-D3 SP def2-SVP
%pal
nprocs 16
end

* xyz 0 1
S 	 12.7307 	 -12.9356 	 79.3767 	 
C 	 12.2581 	 -14.1086 	 80.6201 	 
C 	 11.0813 	 -14.747 	 80.2796 	 
C 	 10.5612 	 -14.2978 	 79.0047 	 
C 	 11.4224 	 -13.4094 	 78.3197 	 
H 	 9.54304 	 -14.5078 	 78.6017 	 
C 	 10.3564 	 -15.7734 	 81.1994 	 
H 	 9.5529 	 -15.2338 	 81.8161 	 
H 	 10.941 	 -16.2905 	 81.944 	 
C 	 9.48268 	 -16.7909 	 80.4866 	 
H 	 8.89625 	 -16.3047 	 79.7229 	 
H 	 10.1197 	 -17.4385 	 79.9846 	 
C 	 8.39824 	 -17.5491 	 81.2931 	 
H 	 7.65027 	 -16.9531 	 81.8011 	 
H 	 7.79707 	 -18.2981 	 80.7108 	 
H 	 8.74738 	 -18.0829 	 82.1748 	 
S 	 11.6543 	 -11.1395 	 76.8668 	 
C 	 10.8829 	 -11.04 	 75.321 	 
C 	 10.446 	 -12.2942 	 74.892 	 
C 	 10.5753 	 -13.3172 	 75.9168 	 
C 	 11.1536 	 -12.8131 	 77.0572 	 
H 	 10.16 	 -12.3599 	 73.8407 	 
C 	 10.2147 	 -14.7909 	 75.6983 	 
H 	 9.51408 	 -14.8566 	 74.8384 	 
H 	 9.72969 	 -15.2364 	 76.5302 	 
C 	 11.3654 	 -15.7446 	 75.3049 	 
H 	 12.1947 	 -15.5206 	 75.9259 	 
H 	 11.5551 	 -15.5699 	 74.2238 	 
C 	 10.9026 	 -17.2763 	 75.4402 	 
H 	 11.7856 	 -17.8644 	 75.0734 	 
H 	 10.0281 	 -17.5565 	 74.8173 	 
H 	 10.7218 	 -17.6432 	 76.4969 	 
H 	 12.8302 	 -14.1429 	 81.5556 	 
H 	 10.9653 	 -10.2663 	 74.6527 	 
*
