! wB97X-D3 SP def2-SVP
%pal
nprocs 16
end

* xyz 0 1
S 	 -54.7292 	 34.013 	 99.1874 	 
C 	 -56.1961 	 33.314 	 98.6761 	 
C 	 -56.024 	 32.0748 	 98.1062 	 
C 	 -54.6816 	 31.5721 	 98.2948 	 
C 	 -53.8432 	 32.5296 	 98.9162 	 
H 	 -54.2583 	 30.6383 	 97.9392 	 
C 	 -57.2077 	 31.1859 	 97.648 	 
H 	 -57.5161 	 31.3849 	 96.6624 	 
H 	 -58.0558 	 31.267 	 98.2467 	 
C 	 -56.8309 	 29.6833 	 97.7428 	 
H 	 -55.9869 	 29.4809 	 97.0389 	 
H 	 -56.4593 	 29.532 	 98.7485 	 
C 	 -58.2225 	 29.0082 	 97.4324 	 
H 	 -58.4814 	 28.976 	 96.3654 	 
H 	 -58.0456 	 27.9361 	 97.6538 	 
H 	 -59.0609 	 29.4428 	 98.0376 	 
S 	 -51.9607 	 31.5273 	 100.539 	 
C 	 -50.3268 	 32.1863 	 100.353 	 
C 	 -50.0732 	 32.7197 	 99.0857 	 
C 	 -51.3507 	 32.8409 	 98.4217 	 
C 	 -52.4594 	 32.3566 	 99.1052 	 
H 	 -49.0517 	 32.9218 	 98.784 	 
C 	 -51.3825 	 33.6327 	 97.15 	 
H 	 -50.3813 	 34.0506 	 97.0794 	 
H 	 -51.9828 	 34.462 	 97.2821 	 
C 	 -51.7738 	 32.9262 	 95.8524 	 
H 	 -52.7162 	 32.4954 	 96.0173 	 
H 	 -51.1025 	 32.1113 	 95.6642 	 
C 	 -51.7447 	 33.8119 	 94.5444 	 
H 	 -50.6902 	 34.0336 	 94.3564 	 
H 	 -52.3744 	 34.717 	 94.6343 	 
H 	 -52.0277 	 33.3558 	 93.6212 	 
H 	 -57.089 	 33.9087 	 98.8029 	 
H 	 -49.6558 	 31.9782 	 101.036 	 
*
