! wB97X-D3 SP def2-SVP
%pal
nprocs 16
end

* xyz 0 1
S 	 -114.35 	 47.923 	 134.893 	 
C 	 -113.983 	 47.9948 	 133.178 	 
C 	 -114.649 	 49.0866 	 132.543 	 
C 	 -115.309 	 49.9779 	 133.505 	 
C 	 -114.996 	 49.5842 	 134.822 	 
H 	 -115.775 	 50.8927 	 133.234 	 
C 	 -114.566 	 49.4337 	 131.083 	 
H 	 -113.491 	 49.7017 	 130.992 	 
H 	 -115.095 	 50.3762 	 130.855 	 
C 	 -114.897 	 48.3635 	 130.027 	 
H 	 -114.755 	 48.6711 	 129.05 	 
H 	 -114.119 	 47.622 	 130.11 	 
C 	 -116.281 	 47.7668 	 130.028 	 
H 	 -116.464 	 47.0532 	 129.224 	 
H 	 -116.553 	 47.2285 	 130.979 	 
H 	 -117.029 	 48.5197 	 129.826 	 
S 	 -116.179 	 49.5854 	 137.387 	 
C 	 -116.207 	 51.0195 	 138.37 	 
C 	 -115.862 	 52.1047 	 137.584 	 
C 	 -115.278 	 51.7357 	 136.317 	 
C 	 -115.35 	 50.3582 	 136.001 	 
H 	 -115.874 	 53.0969 	 137.957 	 
C 	 -114.774 	 52.7961 	 135.326 	 
H 	 -114.301 	 52.3451 	 134.447 	 
H 	 -113.909 	 53.2635 	 135.774 	 
C 	 -115.772 	 53.8298 	 134.914 	 
H 	 -116.2 	 54.3494 	 135.756 	 
H 	 -116.491 	 53.2223 	 134.427 	 
C 	 -115.25 	 54.7945 	 133.848 	 
H 	 -115.917 	 55.6469 	 133.656 	 
H 	 -115.13 	 54.133 	 132.997 	 
H 	 -114.312 	 55.2672 	 134.05 	 
H 	 -113.409 	 47.2138 	 132.692 	 
H 	 -116.791 	 51.1469 	 139.253 	 
*
