! wB97X-D3 SP def2-SVP
%pal
nprocs 16
end

* xyz 0 1
S 	 68.8869 	 24.162 	 70.9885 	 
C 	 68.3068 	 22.9199 	 72.0504 	 
C 	 68.5474 	 23.0884 	 73.3974 	 
C 	 69.2619 	 24.3334 	 73.5532 	 
C 	 69.4063 	 25.1073 	 72.3741 	 
H 	 69.5906 	 24.7148 	 74.5277 	 
C 	 68.1445 	 22.1429 	 74.5243 	 
H 	 67.019 	 22.1731 	 74.6338 	 
H 	 68.5489 	 22.505 	 75.4312 	 
C 	 68.1765 	 20.6093 	 74.304 	 
H 	 67.5605 	 20.2807 	 73.4323 	 
H 	 69.2212 	 20.3446 	 74.0328 	 
C 	 67.822 	 19.7111 	 75.492 	 
H 	 68.4207 	 19.9602 	 76.3768 	 
H 	 66.7939 	 19.8257 	 75.8163 	 
H 	 67.9976 	 18.7032 	 75.2556 	 
S 	 69.5723 	 27.8049 	 72.8356 	 
C 	 70.9143 	 28.7261 	 72.2637 	 
C 	 71.8316 	 27.8992 	 71.6748 	 
C 	 71.4579 	 26.55 	 71.5898 	 
C 	 70.2183 	 26.3062 	 72.1932 	 
H 	 72.7522 	 28.342 	 71.2864 	 
C 	 72.3645 	 25.5178 	 70.9632 	 
H 	 72.9985 	 26.0018 	 70.2647 	 
H 	 71.736 	 24.8848 	 70.3753 	 
C 	 73.1051 	 24.6426 	 71.9496 	 
H 	 72.4339 	 24.0927 	 72.6269 	 
H 	 73.648 	 25.2372 	 72.7288 	 
C 	 73.8634 	 23.5467 	 71.2445 	 
H 	 74.2134 	 22.923 	 72.0834 	 
H 	 74.6991 	 23.7234 	 70.605 	 
H 	 73.1911 	 22.9403 	 70.6745 	 
H 	 67.6119 	 22.1274 	 71.7391 	 
H 	 70.9195 	 29.8301 	 72.2097 	 
*
