! wB97X-D3 SP def2-SVP
%pal
nprocs 16
end

* xyz 0 1
S 	 -39.9415 	 56.4371 	 113.463 	 
C 	 -41.6216 	 56.8317 	 113.264 	 
C 	 -42.0841 	 56.4242 	 112.065 	 
C 	 -41.07 	 55.7311 	 111.277 	 
C 	 -39.8197 	 55.6049 	 111.888 	 
H 	 -41.0239 	 55.3075 	 110.27 	 
C 	 -43.4774 	 56.6813 	 111.627 	 
H 	 -43.8914 	 57.3759 	 112.311 	 
H 	 -44.0677 	 55.758 	 111.666 	 
C 	 -43.6704 	 57.3087 	 110.235 	 
H 	 -43.282 	 56.5439 	 109.626 	 
H 	 -44.7943 	 57.2359 	 110.036 	 
C 	 -42.958 	 58.656 	 109.899 	 
H 	 -43.5996 	 59.309 	 109.335 	 
H 	 -42.8502 	 59.2897 	 110.752 	 
H 	 -42.011 	 58.4843 	 109.424 	 
S 	 -37.2136 	 55.927 	 110.951 	 
C 	 -36.4184 	 54.506 	 110.424 	 
C 	 -37.0992 	 53.366 	 110.722 	 
C 	 -38.3377 	 53.6308 	 111.296 	 
C 	 -38.5958 	 54.9513 	 111.395 	 
H 	 -36.7595 	 52.3593 	 110.503 	 
C 	 -39.3119 	 52.4552 	 111.734 	 
H 	 -38.9678 	 51.4862 	 111.407 	 
H 	 -40.2541 	 52.4871 	 111.175 	 
C 	 -39.6929 	 52.3143 	 113.216 	 
H 	 -40.1823 	 53.2175 	 113.572 	 
H 	 -38.8011 	 52.3757 	 113.866 	 
C 	 -40.7131 	 51.1964 	 113.605 	 
H 	 -41.6521 	 51.4511 	 113.108 	 
H 	 -40.9467 	 51.2016 	 114.676 	 
H 	 -40.4029 	 50.1607 	 113.383 	 
H 	 -42.1967 	 57.4574 	 113.938 	 
H 	 -35.4218 	 54.4198 	 110.086 	 
*
