! wB97X-D3 SP def2-SVP
%pal
nprocs 16
end

* xyz 0 1
S 	 45.6201 	 25.7461 	 80.7467 	 
C 	 45.2998 	 26.0916 	 79.0802 	 
C 	 44.5509 	 25.0805 	 78.4496 	 
C 	 44.2758 	 24.0302 	 79.3847 	 
C 	 44.6821 	 24.2219 	 80.6785 	 
H 	 43.6773 	 23.1443 	 79.1875 	 
C 	 44.3675 	 24.9873 	 76.9413 	 
H 	 44.7178 	 24.0812 	 76.5619 	 
H 	 45.0712 	 25.7493 	 76.4971 	 
C 	 42.9553 	 25.2804 	 76.3393 	 
H 	 42.4745 	 26.0504 	 76.9797 	 
H 	 42.933 	 25.7396 	 75.4071 	 
C 	 41.9839 	 24.0913 	 76.3461 	 
H 	 40.9181 	 24.3165 	 76.238 	 
H 	 42.4039 	 23.4174 	 75.6955 	 
H 	 42.0095 	 23.6532 	 77.3803 	 
S 	 45.7364 	 23.672 	 83.2136 	 
C 	 45.2632 	 22.3168 	 84.2318 	 
C 	 44.2557 	 21.7258 	 83.5724 	 
C 	 43.8663 	 22.1907 	 82.2691 	 
C 	 44.6002 	 23.3295 	 81.887 	 
H 	 43.8819 	 20.7981 	 84.061 	 
C 	 42.7942 	 21.4707 	 81.4367 	 
H 	 43.3108 	 20.8492 	 80.7926 	 
H 	 42.2805 	 22.2862 	 80.9548 	 
C 	 41.7119 	 20.6194 	 82.1707 	 
H 	 40.9102 	 21.2388 	 82.6834 	 
H 	 42.1512 	 19.9651 	 82.9382 	 
C 	 40.9206 	 19.6797 	 81.2262 	 
H 	 40.4274 	 20.1775 	 80.4233 	 
H 	 40.1689 	 19.1137 	 81.7552 	 
H 	 41.5512 	 18.9739 	 80.7254 	 
H 	 45.6699 	 26.8927 	 78.4279 	 
H 	 45.5803 	 22.0282 	 85.1917 	 
*
