! wB97X-D3 SP def2-SVP
%pal
nprocs 16
end

* xyz 0 1
S 	 58.9698 	 -8.9189 	 88.7302 	 
C 	 59.1884 	 -7.17995 	 89.0107 	 
C 	 58.7691 	 -6.47882 	 87.8885 	 
C 	 58.0604 	 -7.31543 	 86.9432 	 
C 	 58.3514 	 -8.6714 	 87.1347 	 
H 	 57.7464 	 -6.93727 	 85.9694 	 
C 	 58.8402 	 -4.96753 	 87.77 	 
H 	 58.5915 	 -4.46794 	 88.7435 	 
H 	 57.8614 	 -4.7508 	 87.221 	 
C 	 60.0564 	 -4.38644 	 87.101 	 
H 	 60.1867 	 -3.41638 	 87.4692 	 
H 	 60.955 	 -4.88341 	 87.4751 	 
C 	 59.8883 	 -4.63851 	 85.6095 	 
H 	 60.7231 	 -4.09629 	 85.1329 	 
H 	 59.9673 	 -5.65432 	 85.2954 	 
H 	 59.0276 	 -4.14884 	 85.1654 	 
S 	 57.2081 	 -11.1897 	 87.2283 	 
C 	 57.1711 	 -12.1883 	 85.716 	 
C 	 57.7817 	 -11.5052 	 84.6756 	 
C 	 58.2217 	 -10.217 	 85.0231 	 
C 	 58.008 	 -9.84076 	 86.3348 	 
H 	 57.8679 	 -11.9579 	 83.7039 	 
C 	 58.9265 	 -9.27907 	 83.9719 	 
H 	 58.689 	 -8.25473 	 84.2034 	 
H 	 58.3289 	 -9.41173 	 83.0751 	 
C 	 60.4223 	 -9.45996 	 83.767 	 
H 	 60.5059 	 -10.5492 	 83.6656 	 
H 	 61.0739 	 -9.16205 	 84.6534 	 
C 	 61.0323 	 -8.99081 	 82.4225 	 
H 	 60.7023 	 -7.97631 	 82.2173 	 
H 	 60.5963 	 -9.53621 	 81.5774 	 
H 	 62.0906 	 -8.91566 	 82.3047 	 
H 	 59.7767 	 -6.73936 	 89.8234 	 
H 	 56.7706 	 -13.2328 	 85.5944 	 
*
