! wB97X-D3 SP def2-SVP
%pal
nprocs 16
end

* xyz 0 1
S 	 -89.5002 	 50.9564 	 132.127 	 
C 	 -88.6908 	 49.3683 	 132.393 	 
C 	 -87.3442 	 49.449 	 132.147 	 
C 	 -87.0208 	 50.6372 	 131.48 	 
C 	 -88.0911 	 51.515 	 131.426 	 
H 	 -85.9633 	 50.9385 	 131.09 	 
C 	 -86.3394 	 48.3974 	 132.421 	 
H 	 -85.4523 	 48.6797 	 131.933 	 
H 	 -86.7854 	 47.5353 	 131.988 	 
C 	 -85.9892 	 48.1919 	 133.936 	 
H 	 -86.852 	 47.9391 	 134.591 	 
H 	 -85.375 	 47.2409 	 133.984 	 
C 	 -85.1737 	 49.2791 	 134.539 	 
H 	 -85.0761 	 49.1591 	 135.643 	 
H 	 -84.1926 	 49.4265 	 134.13 	 
H 	 -85.7622 	 50.1617 	 134.494 	 
S 	 -87.0761 	 54.0922 	 131.5 	 
C 	 -87.5803 	 55.1544 	 130.285 	 
C 	 -88.6782 	 54.7181 	 129.537 	 
C 	 -88.9209 	 53.2996 	 129.744 	 
C 	 -88.1044 	 52.8155 	 130.806 	 
H 	 -89.0758 	 55.413 	 128.741 	 
C 	 -90.0161 	 52.5941 	 129.016 	 
H 	 -90.0594 	 51.6122 	 129.501 	 
H 	 -89.6078 	 52.4783 	 127.941 	 
C 	 -91.3877 	 53.2303 	 129.008 	 
H 	 -91.1836 	 54.3389 	 128.938 	 
H 	 -91.919 	 53.0977 	 129.856 	 
C 	 -92.3128 	 52.7601 	 127.838 	 
H 	 -93.3223 	 53.1897 	 127.874 	 
H 	 -92.5105 	 51.7114 	 127.762 	 
H 	 -92.0397 	 52.9967 	 126.832 	 
H 	 -89.0292 	 48.456 	 132.774 	 
H 	 -87.3519 	 56.1952 	 130.214 	 
*
