! wB97X-D3 SP def2-SVP
%pal
nprocs 16
end

* xyz 0 1
S 	 6.2769 	 -13.3103 	 64.667 	 
C 	 8.02636 	 -13.4531 	 64.9796 	 
C 	 8.48267 	 -12.5536 	 65.9262 	 
C 	 7.3702 	 -11.7015 	 66.3265 	 
C 	 6.11774 	 -12.2122 	 66.0188 	 
H 	 7.45771 	 -10.8058 	 66.9049 	 
C 	 9.92689 	 -12.3164 	 66.2785 	 
H 	 9.81024 	 -11.4536 	 66.8618 	 
H 	 10.3924 	 -11.8961 	 65.343 	 
C 	 10.7659 	 -13.4526 	 66.9703 	 
H 	 10.6507 	 -14.3836 	 66.4614 	 
H 	 11.8072 	 -13.1816 	 66.8896 	 
C 	 10.4091 	 -13.7043 	 68.4223 	 
H 	 10.4299 	 -12.7854 	 68.9316 	 
H 	 9.38872 	 -14.1152 	 68.4645 	 
H 	 11.0646 	 -14.4468 	 68.8961 	 
S 	 4.02568 	 -10.7473 	 64.8879 	 
C 	 2.6601 	 -10.2904 	 65.8608 	 
C 	 2.91713 	 -10.5951 	 67.1682 	 
C 	 4.16701 	 -11.2417 	 67.4245 	 
C 	 4.82983 	 -11.5603 	 66.2272 	 
H 	 2.21847 	 -10.2407 	 67.9367 	 
C 	 4.49264 	 -11.7232 	 68.8414 	 
H 	 3.90654 	 -11.1155 	 69.5846 	 
H 	 5.58781 	 -11.4455 	 69.0404 	 
C 	 4.05845 	 -13.2024 	 69.1686 	 
H 	 3.09969 	 -13.5072 	 68.8386 	 
H 	 3.99623 	 -13.2608 	 70.2119 	 
C 	 5.11789 	 -14.1288 	 68.7911 	 
H 	 6.14934 	 -13.7512 	 69.0441 	 
H 	 5.1398 	 -14.3403 	 67.7025 	 
H 	 5.07183 	 -15.0874 	 69.3367 	 
H 	 8.64118 	 -14.2034 	 64.4607 	 
H 	 1.83302 	 -9.7309 	 65.5507 	 
*
