! wB97X-D3 SP def2-SVP
%pal
nprocs 16
end

* xyz 0 1
S 	 -14.8268 	 -10.2586 	 83.5902 	 
C 	 -15.7957 	 -10.8477 	 84.9185 	 
C 	 -15.0053 	 -11.0476 	 86.0871 	 
C 	 -13.6379 	 -10.6947 	 85.8416 	 
C 	 -13.3608 	 -10.3363 	 84.5532 	 
H 	 -12.7895 	 -10.8283 	 86.5499 	 
C 	 -15.4083 	 -11.7669 	 87.3694 	 
H 	 -15.1872 	 -12.8409 	 87.0848 	 
H 	 -16.4356 	 -11.6725 	 87.5278 	 
C 	 -14.6602 	 -11.4161 	 88.6914 	 
H 	 -13.6243 	 -11.4082 	 88.5455 	 
H 	 -14.9297 	 -10.4493 	 89.1181 	 
C 	 -14.9047 	 -12.4232 	 89.8223 	 
H 	 -14.6604 	 -12.0022 	 90.8222 	 
H 	 -15.9584 	 -12.5458 	 89.8442 	 
H 	 -14.3245 	 -13.3634 	 89.8241 	 
S 	 -11.7507 	 -10.9037 	 82.4198 	 
C 	 -10.0708 	 -10.4915 	 82.4684 	 
C 	 -9.85674 	 -9.53837 	 83.4616 	 
C 	 -10.9593 	 -9.27839 	 84.3563 	 
C 	 -12.0789 	 -10.007 	 83.9262 	 
H 	 -8.88208 	 -9.17386 	 83.505 	 
C 	 -10.9481 	 -8.37513 	 85.5493 	 
H 	 -11.9481 	 -8.39333 	 86.0193 	 
H 	 -10.7165 	 -7.32275 	 85.2996 	 
C 	 -9.8475 	 -8.68369 	 86.6157 	 
H 	 -9.59599 	 -7.8054 	 87.1332 	 
H 	 -8.91141 	 -8.92001 	 86.1043 	 
C 	 -10.2988 	 -9.82635 	 87.5146 	 
H 	 -9.71743 	 -10.0156 	 88.3019 	 
H 	 -10.3994 	 -10.7666 	 86.9768 	 
H 	 -11.2871 	 -9.63957 	 87.9044 	 
H 	 -16.7237 	 -11.2203 	 84.8017 	 
H 	 -9.36078 	 -10.7754 	 81.7884 	 
*
