! wB97X-D3 SP def2-SVP
%pal
nprocs 16
end

* xyz 0 1
S 	 65.3253 	 -3.05673 	 88.6287 	 
C 	 64.0484 	 -2.72198 	 89.8163 	 
C 	 64.5712 	 -2.35971 	 91.0762 	 
C 	 66.0066 	 -2.38074 	 91.066 	 
C 	 66.5521 	 -2.67597 	 89.8359 	 
H 	 66.5887 	 -2.12855 	 91.8522 	 
C 	 63.6928 	 -1.95878 	 92.2806 	 
H 	 62.9635 	 -1.18969 	 92.0404 	 
H 	 64.2418 	 -1.62649 	 93.0969 	 
C 	 62.804 	 -3.06656 	 92.7395 	 
H 	 62.2323 	 -3.36545 	 91.9359 	 
H 	 63.3414 	 -3.94459 	 93.0915 	 
C 	 61.7248 	 -2.76328 	 93.7376 	 
H 	 60.8796 	 -2.15125 	 93.4364 	 
H 	 61.4587 	 -3.74405 	 94.1248 	 
H 	 62.2508 	 -2.26518 	 94.5563 	 
S 	 68.6247 	 -4.22662 	 88.7572 	 
C 	 70.2622 	 -3.60554 	 89.0296 	 
C 	 70.2916 	 -2.29576 	 89.4785 	 
C 	 68.9945 	 -1.84986 	 89.8082 	 
C 	 67.9829 	 -2.7515 	 89.5298 	 
H 	 71.192 	 -1.78351 	 89.583 	 
C 	 68.8541 	 -0.506187 	 90.434 	 
H 	 67.8411 	 -0.164668 	 90.3244 	 
H 	 69.3388 	 0.18015 	 89.7794 	 
C 	 69.4075 	 -0.326093 	 91.8273 	 
H 	 70.4567 	 -0.532488 	 91.7956 	 
H 	 68.9042 	 -0.946362 	 92.5215 	 
C 	 69.1928 	 1.05116 	 92.4402 	 
H 	 69.4523 	 1.86676 	 91.738 	 
H 	 69.6571 	 1.19026 	 93.4128 	 
H 	 68.1713 	 1.27737 	 92.6374 	 
H 	 63.0418 	 -2.88387 	 89.4646 	 
H 	 71.2105 	 -3.93544 	 88.6489 	 
*
