! wB97X-D3 SP def2-SVP
%pal
nprocs 16
end

* xyz 0 1
S 	 45.7914 	 13.9336 	 85.3642 	 
C 	 46.4036 	 14.7097 	 83.8894 	 
C 	 45.3474 	 15.2641 	 83.1424 	 
C 	 44.0487 	 14.917 	 83.6735 	 
C 	 44.1116 	 14.1104 	 84.7842 	 
H 	 43.1348 	 15.3399 	 83.3748 	 
C 	 45.4294 	 16.1296 	 81.922 	 
H 	 46.4976 	 16.1464 	 81.7135 	 
H 	 45.2631 	 17.1735 	 82.368 	 
C 	 44.4703 	 16.1222 	 80.732 	 
H 	 44.5728 	 15.162 	 80.3262 	 
H 	 43.4545 	 16.3312 	 81.1604 	 
C 	 44.988 	 17.0999 	 79.6567 	 
H 	 44.8644 	 18.1053 	 80.0776 	 
H 	 46.0512 	 16.8838 	 79.5202 	 
H 	 44.5505 	 16.9233 	 78.7198 	 
S 	 42.491 	 14.4632 	 86.9878 	 
C 	 41.0923 	 13.3996 	 87.1986 	 
C 	 40.991 	 12.4578 	 86.1783 	 
C 	 42.0535 	 12.6261 	 85.1674 	 
C 	 42.9876 	 13.5915 	 85.5143 	 
H 	 40.0915 	 11.9444 	 86.1536 	 
C 	 41.9532 	 11.8481 	 83.9079 	 
H 	 41.5343 	 10.8258 	 84.2665 	 
H 	 42.904 	 11.61 	 83.5569 	 
C 	 41.0009 	 12.5613 	 82.8727 	 
H 	 41.2604 	 13.6058 	 82.9045 	 
H 	 39.9294 	 12.4857 	 83.0471 	 
C 	 41.3305 	 12.126 	 81.4157 	 
H 	 40.7248 	 12.5463 	 80.6145 	 
H 	 41.3094 	 11.0774 	 81.303 	 
H 	 42.351 	 12.3836 	 81.2121 	 
H 	 47.5099 	 14.7862 	 83.7475 	 
H 	 40.3356 	 13.5241 	 87.9253 	 
*
