! wB97X-D3 SP def2-SVP
%pal
nprocs 16
end

* xyz 0 1
S 	 -46.9686 	 5.81314 	 87.7619 	 
C 	 -46.7542 	 6.57437 	 89.4061 	 
C 	 -47.8657 	 7.2793 	 89.7103 	 
C 	 -48.8067 	 7.45234 	 88.7123 	 
C 	 -48.5619 	 6.63947 	 87.604 	 
H 	 -49.742 	 8.01027 	 88.7106 	 
C 	 -48.2334 	 8.03787 	 90.9995 	 
H 	 -47.9674 	 7.36544 	 91.8803 	 
H 	 -49.2817 	 8.01183 	 91.1527 	 
C 	 -47.7906 	 9.47766 	 91.2498 	 
H 	 -48.2364 	 9.78806 	 92.1916 	 
H 	 -46.7017 	 9.46102 	 91.3746 	 
C 	 -48.1823 	 10.5454 	 90.2395 	 
H 	 -47.6082 	 11.4239 	 90.5104 	 
H 	 -47.9283 	 10.3346 	 89.1756 	 
H 	 -49.2467 	 10.731 	 90.2562 	 
S 	 -48.4384 	 7.13647 	 84.9875 	 
C 	 -49.9138 	 7.09966 	 83.9937 	 
C 	 -51.0203 	 6.92943 	 84.7947 	 
C 	 -50.7346 	 6.59709 	 86.127 	 
C 	 -49.3557 	 6.58495 	 86.3792 	 
H 	 -51.9665 	 6.95769 	 84.3641 	 
C 	 -51.8946 	 6.50027 	 87.142 	 
H 	 -51.4821 	 5.89774 	 87.9961 	 
H 	 -52.6229 	 5.75368 	 86.8655 	 
C 	 -52.5957 	 7.7734 	 87.5818 	 
H 	 -52.8499 	 8.2962 	 86.6478 	 
H 	 -51.9329 	 8.36588 	 88.2273 	 
C 	 -53.851 	 7.4186 	 88.421 	 
H 	 -53.6324 	 7.09946 	 89.4078 	 
H 	 -54.6231 	 6.74666 	 87.9342 	 
H 	 -54.4398 	 8.39981 	 88.5491 	 
H 	 -45.9449 	 6.32466 	 90.1114 	 
H 	 -49.9478 	 7.58961 	 83.0131 	 
*
