! wB97X-D3 SP def2-SVP
%pal
nprocs 16
end

* xyz 0 1
S 	 -13.3719 	 38.084 	 30.4904 	 
C 	 -15.1316 	 37.8801 	 30.4451 	 
C 	 -15.7175 	 38.7471 	 29.5474 	 
C 	 -14.7905 	 39.5988 	 28.9317 	 
C 	 -13.4407 	 39.3021 	 29.2293 	 
H 	 -15.0665 	 40.4228 	 28.221 	 
C 	 -17.276 	 38.8893 	 29.3113 	 
H 	 -17.4119 	 40.0019 	 29.362 	 
H 	 -17.8018 	 38.5679 	 30.2161 	 
C 	 -17.8654 	 38.4481 	 27.9705 	 
H 	 -18.8043 	 38.9963 	 27.9147 	 
H 	 -17.3022 	 38.6245 	 27.1253 	 
C 	 -18.0707 	 36.9073 	 27.7962 	 
H 	 -18.6626 	 36.5788 	 26.8796 	 
H 	 -17.0387 	 36.4479 	 27.6185 	 
H 	 -18.6016 	 36.3864 	 28.6411 	 
S 	 -11.764 	 39.7519 	 27.1604 	 
C 	 -10.4549 	 40.8708 	 27.3536 	 
C 	 -10.3543 	 41.2688 	 28.6341 	 
C 	 -11.4284 	 40.9161 	 29.4866 	 
C 	 -12.1925 	 39.9475 	 28.8412 	 
H 	 -9.5702 	 41.914 	 28.8921 	 
C 	 -11.5111 	 41.2939 	 30.9245 	 
H 	 -10.5999 	 41.151 	 31.4821 	 
H 	 -12.0979 	 40.6429 	 31.5128 	 
C 	 -12.1902 	 42.7006 	 31.239 	 
H 	 -12.402 	 42.7272 	 32.3677 	 
H 	 -13.2064 	 42.769 	 30.7646 	 
C 	 -11.4311 	 43.9663 	 30.7129 	 
H 	 -12.0323 	 44.8211 	 30.8301 	 
H 	 -11.2869 	 43.8171 	 29.67 	 
H 	 -10.4926 	 44.1037 	 31.2342 	 
H 	 -15.6059 	 37.1169 	 30.9951 	 
H 	 -9.79375 	 41.1438 	 26.5411 	 
*
