! wB97X-D3 SP def2-SVP
%pal
nprocs 16
end

* xyz 0 1
S 	 -57.5346 	 33.4403 	 99.5777 	 
C 	 -58.7211 	 33.1302 	 98.3602 	 
C 	 -58.3332 	 32.3049 	 97.3842 	 
C 	 -56.9952 	 31.8239 	 97.5872 	 
C 	 -56.332 	 32.4735 	 98.6524 	 
H 	 -56.5439 	 30.9895 	 96.9942 	 
C 	 -59.1325 	 31.9334 	 96.1992 	 
H 	 -59.5976 	 32.8816 	 95.7774 	 
H 	 -59.9793 	 31.3483 	 96.6286 	 
C 	 -58.4845 	 31.2056 	 95.0948 	 
H 	 -57.68 	 31.8339 	 94.7613 	 
H 	 -58.102 	 30.2383 	 95.4113 	 
C 	 -59.381 	 30.8597 	 93.9451 	 
H 	 -58.7296 	 30.2566 	 93.2802 	 
H 	 -60.3799 	 30.3943 	 94.2954 	 
H 	 -59.6759 	 31.83 	 93.4859 	 
S 	 -54.98 	 31.7487 	 100.851 	 
C 	 -53.2231 	 31.5051 	 100.753 	 
C 	 -52.7681 	 31.7948 	 99.4431 	 
C 	 -53.7819 	 32.2747 	 98.5151 	 
C 	 -55.0492 	 32.1823 	 99.1595 	 
H 	 -51.7654 	 31.7204 	 99.2003 	 
C 	 -53.5366 	 32.558 	 97.0725 	 
H 	 -54.4415 	 32.8816 	 96.6668 	 
H 	 -53.3947 	 31.5785 	 96.5561 	 
C 	 -52.4192 	 33.5788 	 96.7136 	 
H 	 -51.5724 	 33.3576 	 97.2863 	 
H 	 -52.9141 	 34.4699 	 97.1677 	 
C 	 -52.1532 	 33.8766 	 95.1984 	 
H 	 -53.0896 	 33.9806 	 94.7409 	 
H 	 -51.5075 	 33.1396 	 94.8009 	 
H 	 -51.6167 	 34.7911 	 95.1143 	 
H 	 -59.667 	 33.6501 	 98.4626 	 
H 	 -52.6952 	 31.1125 	 101.571 	 
*
