! wB97X-D3 SP def2-SVP
%pal
nprocs 16
end

* xyz 0 1
S 	 40.0419 	 14.725 	 82.6496 	 
C 	 38.5633 	 15.695 	 82.7551 	 
C 	 37.8827 	 15.4835 	 83.936 	 
C 	 38.4737 	 14.3978 	 84.6606 	 
C 	 39.6815 	 13.9336 	 84.142 	 
H 	 37.9331 	 14.0255 	 85.5689 	 
C 	 36.5353 	 15.8856 	 84.3176 	 
H 	 35.9427 	 15.0543 	 84.6298 	 
H 	 36.1791 	 16.287 	 83.3655 	 
C 	 36.3534 	 17.0363 	 85.4151 	 
H 	 37.1549 	 17.7222 	 85.377 	 
H 	 35.3803 	 17.6083 	 85.273 	 
C 	 36.3935 	 16.375 	 86.7643 	 
H 	 35.8259 	 16.9184 	 87.54 	 
H 	 35.9445 	 15.3867 	 86.6738 	 
H 	 37.3704 	 16.3768 	 87.1761 	 
S 	 41.0724 	 11.4705 	 83.7529 	 
C 	 41.9172 	 10.8692 	 85.1205 	 
C 	 41.8022 	 11.7211 	 86.1867 	 
C 	 41.0449 	 12.8623 	 85.9359 	 
C 	 40.5322 	 12.9116 	 84.6863 	 
H 	 42.2921 	 11.5442 	 87.1671 	 
C 	 40.839 	 13.9163 	 87.06 	 
H 	 40.5932 	 14.8952 	 86.6271 	 
H 	 41.8348 	 14.1657 	 87.5612 	 
C 	 39.8633 	 13.6194 	 88.1847 	 
H 	 38.838 	 13.4023 	 87.8815 	 
H 	 39.703 	 14.4695 	 88.8008 	 
C 	 40.4228 	 12.5077 	 89.166 	 
H 	 41.5081 	 12.7448 	 89.4756 	 
H 	 40.4412 	 11.5695 	 88.6546 	 
H 	 39.8744 	 12.4741 	 90.0324 	 
H 	 38.23 	 16.4207 	 81.9854 	 
H 	 42.6264 	 10.0559 	 85.1526 	 
*
