! wB97X-D3 SP def2-SVP
%pal
nprocs 16
end

* xyz 0 1
S 	 -11.893 	 -11.8138 	 89.2187 	 
C 	 -12.7075 	 -10.8283 	 88.0673 	 
C 	 -13.8507 	 -10.3076 	 88.5517 	 
C 	 -14.0478 	 -10.6966 	 89.9259 	 
C 	 -13.1057 	 -11.5631 	 90.4781 	 
H 	 -14.9335 	 -10.5898 	 90.5064 	 
C 	 -14.8273 	 -9.44953 	 87.7765 	 
H 	 -15.8467 	 -9.59129 	 88.1132 	 
H 	 -14.9096 	 -9.67385 	 86.7492 	 
C 	 -14.4397 	 -7.94478 	 87.7872 	 
H 	 -14.2019 	 -7.59021 	 88.8825 	 
H 	 -13.4881 	 -7.88776 	 87.2726 	 
C 	 -15.4139 	 -7.11218 	 87.0795 	 
H 	 -16.2505 	 -6.97107 	 87.7704 	 
H 	 -14.8887 	 -6.16862 	 86.8356 	 
H 	 -15.8211 	 -7.60674 	 86.1803 	 
S 	 -11.6597 	 -11.9014 	 92.7866 	 
C 	 -12.2882 	 -13.0362 	 93.944 	 
C 	 -13.4728 	 -13.6129 	 93.5848 	 
C 	 -13.9625 	 -13.1046 	 92.3552 	 
C 	 -13.0672 	 -12.2086 	 91.7751 	 
H 	 -13.9675 	 -14.403 	 94.1627 	 
C 	 -15.1711 	 -13.5725 	 91.6361 	 
H 	 -15.6553 	 -12.8087 	 91.0078 	 
H 	 -16.0153 	 -13.7622 	 92.3525 	 
C 	 -14.9515 	 -14.7093 	 90.6478 	 
H 	 -14.2319 	 -14.3943 	 89.871 	 
H 	 -15.8567 	 -14.9507 	 90.1764 	 
C 	 -14.4726 	 -15.8988 	 91.4199 	 
H 	 -13.5123 	 -15.5759 	 91.8671 	 
H 	 -14.2302 	 -16.7898 	 90.816 	 
H 	 -15.1333 	 -16.1952 	 92.2562 	 
H 	 -12.4052 	 -10.7107 	 87.0146 	 
H 	 -11.7774 	 -13.3264 	 94.8502 	 
*
