! wB97X-D3 SP def2-SVP
%pal
nprocs 16
end

* xyz 0 1
S 	 8.19025 	 18.3127 	 49.1923 	 
C 	 8.38263 	 16.6668 	 49.7552 	 
C 	 7.7077 	 16.4936 	 50.9292 	 
C 	 6.76201 	 17.5132 	 51.2239 	 
C 	 6.76952 	 18.4924 	 50.2036 	 
H 	 6.01683 	 17.5424 	 52.0361 	 
C 	 7.89779 	 15.2267 	 51.731 	 
H 	 7.22164 	 14.4564 	 51.2077 	 
H 	 7.59196 	 15.5115 	 52.7363 	 
C 	 9.38539 	 14.6563 	 51.7271 	 
H 	 9.83534 	 14.4235 	 50.7395 	 
H 	 10.0141 	 15.3993 	 52.2119 	 
C 	 9.46918 	 13.2954 	 52.4139 	 
H 	 10.4345 	 12.8257 	 52.2396 	 
H 	 9.39194 	 13.4619 	 53.5142 	 
H 	 8.71862 	 12.681 	 51.999 	 
S 	 6.52757 	 21.2452 	 49.7174 	 
C 	 5.00234 	 22.0136 	 49.7495 	 
C 	 3.96539 	 21.0871 	 49.8613 	 
C 	 4.46504 	 19.7655 	 50.0164 	 
C 	 5.8621 	 19.6515 	 49.9672 	 
H 	 2.92469 	 21.4036 	 49.8225 	 
C 	 3.48475 	 18.5495 	 50.0282 	 
H 	 3.97978 	 17.6454 	 50.4549 	 
H 	 3.1916 	 18.2252 	 49.0508 	 
C 	 2.16171 	 18.7152 	 50.8916 	 
H 	 1.5095 	 17.8373 	 50.7291 	 
H 	 1.52472 	 19.3269 	 50.3734 	 
C 	 2.20334 	 19.1049 	 52.4281 	 
H 	 2.65455 	 18.2187 	 52.8556 	 
H 	 1.21207 	 19.3366 	 52.8307 	 
H 	 2.93913 	 19.8868 	 52.7274 	 
H 	 9.01591 	 15.9373 	 49.3452 	 
H 	 4.89473 	 23.0118 	 49.5055 	 
*
