! wB97X-D3 SP def2-SVP
%pal
nprocs 16
end

* xyz 0 1
S 	 -92.0906 	 40.124 	 113.367 	 
C 	 -90.8337 	 38.9796 	 113.925 	 
C 	 -90.0448 	 39.5585 	 114.923 	 
C 	 -90.6974 	 40.7418 	 115.453 	 
C 	 -91.8442 	 41.1877 	 114.761 	 
H 	 -90.3389 	 41.1932 	 116.316 	 
C 	 -88.8081 	 39.0231 	 115.655 	 
H 	 -88.0133 	 39.1357 	 114.89 	 
H 	 -89.1133 	 37.9633 	 115.723 	 
C 	 -88.3364 	 39.7344 	 116.992 	 
H 	 -88.2898 	 40.7795 	 116.833 	 
H 	 -89.1696 	 39.7672 	 117.699 	 
C 	 -87.0119 	 39.1104 	 117.484 	 
H 	 -86.7528 	 39.523 	 118.437 	 
H 	 -87.1682 	 38.0231 	 117.604 	 
H 	 -86.1978 	 39.0335 	 116.756 	 
S 	 -93.2293 	 43.1698 	 113.573 	 
C 	 -93.5959 	 44.5812 	 114.51 	 
C 	 -93.5294 	 44.395 	 115.901 	 
C 	 -93.0718 	 43.0452 	 116.243 	 
C 	 -92.6656 	 42.4064 	 115.038 	 
H 	 -93.7852 	 45.1511 	 116.553 	 
C 	 -92.8238 	 42.6629 	 117.677 	 
H 	 -91.7453 	 42.7333 	 117.792 	 
H 	 -92.9784 	 41.6462 	 117.915 	 
C 	 -93.4259 	 43.4777 	 118.801 	 
H 	 -94.485 	 43.6092 	 118.726 	 
H 	 -92.9827 	 44.4813 	 118.771 	 
C 	 -93.0644 	 42.7659 	 120.175 	 
H 	 -93.5438 	 43.3066 	 120.96 	 
H 	 -91.9377 	 42.7256 	 120.253 	 
H 	 -93.4506 	 41.728 	 120.015 	 
H 	 -90.612 	 38.1211 	 113.427 	 
H 	 -94.0863 	 45.438 	 114.055 	 
*
