! wB97X-D3 SP def2-SVP
%pal
nprocs 16
end

* xyz 0 1
S 	 40.2683 	 30.9429 	 57.9044 	 
C 	 39.4773 	 31.7697 	 56.603 	 
C 	 38.0735 	 31.693 	 56.7376 	 
C 	 37.657 	 31.3634 	 58.0605 	 
C 	 38.7437 	 31.0439 	 58.8117 	 
H 	 36.6641 	 31.2789 	 58.3478 	 
C 	 37.1487 	 32.1158 	 55.6213 	 
H 	 36.5709 	 31.2267 	 55.3368 	 
H 	 37.7654 	 32.4042 	 54.7559 	 
C 	 36.1408 	 33.226 	 55.9962 	 
H 	 35.3254 	 32.7146 	 56.4956 	 
H 	 36.5803 	 33.9661 	 56.6803 	 
C 	 35.5226 	 34.0091 	 54.8448 	 
H 	 36.3202 	 34.6066 	 54.412 	 
H 	 35.1028 	 33.4408 	 54.011 	 
H 	 34.7587 	 34.6754 	 55.1873 	 
S 	 40.0234 	 31.0384 	 61.2392 	 
C 	 39.2226 	 30.1897 	 62.6415 	 
C 	 38.0469 	 29.6289 	 62.2577 	 
C 	 37.7774 	 29.6818 	 60.8983 	 
C 	 38.6496 	 30.5536 	 60.181 	 
H 	 37.3252 	 29.2308 	 63.012 	 
C 	 36.5882 	 29.0229 	 60.2405 	 
H 	 36.3876 	 28.0514 	 60.6191 	 
H 	 36.8337 	 28.8717 	 59.1774 	 
C 	 35.264 	 29.8653 	 60.3787 	 
H 	 35.5135 	 30.9731 	 60.1936 	 
H 	 35.0778 	 29.9753 	 61.436 	 
C 	 33.9617 	 29.5336 	 59.5048 	 
H 	 33.0422 	 30.1105 	 59.814 	 
H 	 33.799 	 28.4809 	 59.7726 	 
H 	 34.0649 	 29.5485 	 58.4151 	 
H 	 39.9715 	 32.1417 	 55.7401 	 
H 	 39.5315 	 30.2074 	 63.7008 	 
*
