! wB97X-D3 SP def2-SVP
%pal
nprocs 16
end

* xyz 0 1
S 	 -50.0187 	 65.2277 	 136.565 	 
C 	 -49.5734 	 63.6127 	 136.136 	 
C 	 -48.8625 	 63.0891 	 137.21 	 
C 	 -48.8157 	 63.9002 	 138.376 	 
C 	 -49.5571 	 65.0781 	 138.218 	 
H 	 -48.2597 	 63.7131 	 139.256 	 
C 	 -48.1864 	 61.7292 	 137.255 	 
H 	 -48.2546 	 61.223 	 136.289 	 
H 	 -48.7816 	 61.1188 	 137.876 	 
C 	 -46.6934 	 61.5919 	 137.672 	 
H 	 -46.132 	 61.845 	 136.749 	 
H 	 -46.3263 	 62.2343 	 138.474 	 
C 	 -46.3371 	 60.1454 	 138.207 	 
H 	 -46.5815 	 60.1051 	 139.25 	 
H 	 -46.9358 	 59.4653 	 137.649 	 
H 	 -45.2825 	 59.8727 	 138.157 	 
S 	 -49.394 	 67.8278 	 138.498 	 
C 	 -49.8177 	 68.5107 	 140.068 	 
C 	 -49.9857 	 67.5493 	 141.015 	 
C 	 -49.8509 	 66.2704 	 140.485 	 
C 	 -49.6861 	 66.1993 	 139.139 	 
H 	 -50.3169 	 67.8346 	 142.052 	 
C 	 -49.9866 	 65.0935 	 141.395 	 
H 	 -50.1151 	 65.503 	 142.414 	 
H 	 -49.1005 	 64.4527 	 141.583 	 
C 	 -51.1902 	 64.2262 	 141.076 	 
H 	 -51.0122 	 63.7034 	 140.203 	 
H 	 -52.0429 	 64.819 	 140.833 	 
C 	 -51.5356 	 63.2623 	 142.191 	 
H 	 -52.3586 	 63.5938 	 142.827 	 
H 	 -50.6501 	 63.1096 	 142.752 	 
H 	 -51.8653 	 62.3007 	 141.8 	 
H 	 -49.7672 	 62.96 	 135.307 	 
H 	 -49.9732 	 69.6068 	 140.241 	 
*
