! wB97X-D3 SP def2-SVP
%pal
nprocs 16
end

* xyz 0 1
S 	 -3.35375 	 -13.4229 	 86.1334 	 
C 	 -2.66195 	 -14.7389 	 87.0129 	 
C 	 -3.29503 	 -15.9361 	 86.7698 	 
C 	 -4.40974 	 -15.7624 	 85.96 	 
C 	 -4.61888 	 -14.4755 	 85.4532 	 
H 	 -5.08474 	 -16.6412 	 85.6935 	 
C 	 -2.83686 	 -17.3261 	 87.2533 	 
H 	 -1.78445 	 -17.3567 	 87.5078 	 
H 	 -2.94171 	 -17.9789 	 86.4493 	 
C 	 -3.85271 	 -18.0003 	 88.2888 	 
H 	 -3.87027 	 -17.3163 	 89.1773 	 
H 	 -4.82185 	 -17.9986 	 87.7722 	 
C 	 -3.45394 	 -19.4465 	 88.629 	 
H 	 -4.20434 	 -19.8413 	 89.3151 	 
H 	 -3.45232 	 -20.1109 	 87.7871 	 
H 	 -2.5151 	 -19.3594 	 89.1705 	 
S 	 -5.12147 	 -12.9633 	 83.2829 	 
C 	 -6.63963 	 -12.9829 	 82.4603 	 
C 	 -7.55568 	 -13.7529 	 83.1276 	 
C 	 -6.97654 	 -14.3611 	 84.3211 	 
C 	 -5.64435 	 -14.0215 	 84.5269 	 
H 	 -8.57698 	 -13.8256 	 82.6743 	 
C 	 -7.86093 	 -15.2376 	 85.1846 	 
H 	 -8.74746 	 -14.6268 	 85.3768 	 
H 	 -7.45935 	 -15.3589 	 86.1663 	 
C 	 -8.50022 	 -16.4092 	 84.4031 	 
H 	 -7.63836 	 -17.0723 	 84.3787 	 
H 	 -8.91911 	 -16.0969 	 83.4717 	 
C 	 -9.72774 	 -16.9728 	 85.1758 	 
H 	 -10.6082 	 -16.211 	 85.1158 	 
H 	 -9.30795 	 -17.1882 	 86.1792 	 
H 	 -10.0187 	 -17.8499 	 84.8413 	 
H 	 -1.76779 	 -14.6522 	 87.6437 	 
H 	 -6.94369 	 -12.3007 	 81.6373 	 
*
