! wB97X-D3 SP def2-SVP
%pal
nprocs 16
end

* xyz 0 1
S 	 51.4146 	 -1.73238 	 82.0923 	 
C 	 50.5206 	 -1.64523 	 83.5889 	 
C 	 51.3214 	 -1.22426 	 84.6629 	 
C 	 52.6918 	 -1.17167 	 84.2448 	 
C 	 52.8906 	 -1.56003 	 82.9155 	 
H 	 53.5443 	 -1.02354 	 84.8566 	 
C 	 50.8814 	 -1.15502 	 86.1206 	 
H 	 49.8514 	 -1.52249 	 86.2753 	 
H 	 50.7963 	 -0.0354314 	 86.3174 	 
C 	 51.8664 	 -1.88885 	 87.0587 	 
H 	 51.8495 	 -2.93341 	 86.8897 	 
H 	 52.8847 	 -1.68503 	 86.8461 	 
C 	 51.4309 	 -1.61581 	 88.5072 	 
H 	 51.7528 	 -0.670697 	 88.8885 	 
H 	 50.3481 	 -1.68052 	 88.7104 	 
H 	 51.8905 	 -2.38778 	 89.0151 	 
S 	 54.4611 	 -3.46853 	 81.7369 	 
C 	 56.1714 	 -3.18847 	 81.76 	 
C 	 56.502 	 -1.88116 	 81.9253 	 
C 	 55.4233 	 -1.09351 	 82.4677 	 
C 	 54.1979 	 -1.81047 	 82.3659 	 
H 	 57.5379 	 -1.60802 	 81.7325 	 
C 	 55.7163 	 0.383525 	 82.8526 	 
H 	 56.7866 	 0.630445 	 82.6794 	 
H 	 55.4944 	 0.580059 	 83.8989 	 
C 	 55.0071 	 1.54435 	 82.01 	 
H 	 53.9753 	 1.49128 	 81.9768 	 
H 	 55.2008 	 1.36732 	 80.9536 	 
C 	 55.452 	 2.98706 	 82.2768 	 
H 	 55.1042 	 3.60352 	 81.4621 	 
H 	 56.5859 	 3.0035 	 82.2904 	 
H 	 55.1971 	 3.39076 	 83.25 	 
H 	 49.4848 	 -1.77522 	 83.6102 	 
H 	 56.8219 	 -3.8963 	 81.2095 	 
*
