! wB97X-D3 SP def2-SVP
%pal
nprocs 16
end

* xyz 0 1
S 	 -100.864 	 54.8711 	 121.984 	 
C 	 -100.17 	 53.3662 	 121.323 	 
C 	 -101.014 	 52.8502 	 120.377 	 
C 	 -102.233 	 53.5829 	 120.232 	 
C 	 -102.358 	 54.6586 	 121.12 	 
H 	 -103.029 	 53.4438 	 119.52 	 
C 	 -100.855 	 51.5546 	 119.627 	 
H 	 -99.8471 	 51.4389 	 119.196 	 
H 	 -101.482 	 51.6068 	 118.767 	 
C 	 -101.1 	 50.335 	 120.599 	 
H 	 -100.665 	 50.6253 	 121.54 	 
H 	 -102.169 	 50.2382 	 120.928 	 
C 	 -100.426 	 48.9833 	 120.337 	 
H 	 -100.819 	 48.2038 	 121.01 	 
H 	 -100.694 	 48.5978 	 119.289 	 
H 	 -99.3303 	 49.1684 	 120.303 	 
S 	 -103.023 	 57.2584 	 121.636 	 
C 	 -104.701 	 57.7 	 121.636 	 
C 	 -105.568 	 56.6554 	 121.383 	 
C 	 -104.856 	 55.4097 	 121.091 	 
C 	 -103.466 	 55.6058 	 121.227 	 
H 	 -106.636 	 56.8292 	 121.322 	 
C 	 -105.649 	 54.1157 	 120.739 	 
H 	 -105.098 	 53.4726 	 119.985 	 
H 	 -106.496 	 54.5045 	 120.224 	 
C 	 -106.129 	 53.2399 	 121.984 	 
H 	 -105.293 	 53.0286 	 122.644 	 
H 	 -106.632 	 52.2636 	 121.65 	 
C 	 -107.094 	 53.9008 	 122.96 	 
H 	 -107.634 	 53.1283 	 123.566 	 
H 	 -107.845 	 54.5784 	 122.444 	 
H 	 -106.522 	 54.4403 	 123.704 	 
H 	 -99.2165 	 52.8442 	 121.576 	 
H 	 -105.117 	 58.7078 	 121.863 	 
*
