! wB97X-D3 SP def2-SVP
%pal
nprocs 16
end

* xyz 0 1
S 	 -14.012 	 -4.97751 	 84.9335 	 
C 	 -13.5929 	 -5.2846 	 86.643 	 
C 	 -14.5921 	 -6.07407 	 87.2391 	 
C 	 -15.5447 	 -6.5258 	 86.3295 	 
C 	 -15.4885 	 -5.92449 	 85.0751 	 
H 	 -16.3623 	 -7.18666 	 86.5611 	 
C 	 -14.4873 	 -6.57977 	 88.6392 	 
H 	 -15.2422 	 -6.21426 	 89.2694 	 
H 	 -13.7578 	 -6.09305 	 89.214 	 
C 	 -14.158 	 -8.09485 	 88.817 	 
H 	 -13.8006 	 -8.22102 	 89.8046 	 
H 	 -15.1415 	 -8.61472 	 88.6407 	 
C 	 -13.1333 	 -8.65847 	 87.8813 	 
H 	 -12.5978 	 -9.53166 	 88.3384 	 
H 	 -13.449 	 -9.07457 	 86.9559 	 
H 	 -12.4432 	 -7.83447 	 87.5517 	 
S 	 -17.5857 	 -5.17115 	 83.3491 	 
C 	 -18.051 	 -6.232 	 82.0207 	 
C 	 -17.3967 	 -7.44787 	 82.1914 	 
C 	 -16.461 	 -7.51833 	 83.2795 	 
C 	 -16.2649 	 -6.28871 	 83.8585 	 
H 	 -17.5323 	 -8.20452 	 81.4025 	 
C 	 -15.6193 	 -8.74562 	 83.618 	 
H 	 -16.2526 	 -9.68643 	 83.6594 	 
H 	 -15.2033 	 -8.58975 	 84.6205 	 
C 	 -14.4941 	 -9.01454 	 82.6257 	 
H 	 -14.167 	 -8.06571 	 82.3621 	 
H 	 -14.886 	 -9.43639 	 81.7316 	 
C 	 -13.338 	 -9.98437 	 83.1169 	 
H 	 -12.6235 	 -9.51922 	 83.7943 	 
H 	 -12.8203 	 -10.465 	 82.2061 	 
H 	 -13.6679 	 -10.9154 	 83.68 	 
H 	 -12.8432 	 -4.77105 	 87.1353 	 
H 	 -18.6218 	 -5.9517 	 81.1531 	 
*
