! wB97X-D3 SP def2-SVP
%pal
nprocs 16
end

* xyz 0 1
S 	 -39.1147 	 1.93892 	 99.9054 	 
C 	 -37.3728 	 1.90287 	 100.136 	 
C 	 -36.718 	 1.47694 	 98.9915 	 
C 	 -37.5336 	 1.54555 	 97.8933 	 
C 	 -38.8651 	 1.72141 	 98.1848 	 
H 	 -37.2386 	 1.48742 	 96.8874 	 
C 	 -35.239 	 1.2738 	 98.7869 	 
H 	 -35.0241 	 1.30936 	 97.6541 	 
H 	 -35.003 	 0.303941 	 99.2328 	 
C 	 -34.3041 	 2.32367 	 99.3174 	 
H 	 -34.2446 	 2.39576 	 100.405 	 
H 	 -33.2224 	 2.07422 	 99.2937 	 
C 	 -34.5606 	 3.73198 	 98.8482 	 
H 	 -35.472 	 4.19033 	 99.1972 	 
H 	 -33.6382 	 4.3053 	 99.0186 	 
H 	 -34.6761 	 3.59447 	 97.7984 	 
S 	 -40.6994 	 3.28564 	 96.907 	 
C 	 -41.8999 	 2.70555 	 95.7727 	 
C 	 -41.5438 	 1.3844 	 95.4588 	 
C 	 -40.4127 	 0.874061 	 96.1676 	 
C 	 -39.9869 	 1.69695 	 97.1929 	 
H 	 -42.042 	 0.880435 	 94.6379 	 
C 	 -39.9788 	 -0.548366 	 95.9919 	 
H 	 -38.9241 	 -0.822734 	 96.1491 	 
H 	 -40.1544 	 -0.766024 	 94.9237 	 
C 	 -40.827 	 -1.63851 	 96.6728 	 
H 	 -41.848 	 -1.42965 	 96.3063 	 
H 	 -40.73 	 -1.49188 	 97.7546 	 
C 	 -40.4323 	 -3.09187 	 96.499 	 
H 	 -40.1513 	 -3.44326 	 95.485 	 
H 	 -41.3023 	 -3.75137 	 96.9488 	 
H 	 -39.4877 	 -3.41827 	 97.0911 	 
H 	 -36.7793 	 2.01321 	 101.006 	 
H 	 -42.7768 	 3.31962 	 95.5544 	 
*
