! wB97X-D3 SP def2-SVP
%pal
nprocs 16
end

* xyz 0 1
S 	 -42.4719 	 27.7553 	 90.1265 	 
C 	 -44.1328 	 27.5366 	 90.5829 	 
C 	 -44.9948 	 28.3377 	 89.8092 	 
C 	 -44.1906 	 29.2005 	 88.975 	 
C 	 -42.815 	 29.0032 	 89.0416 	 
H 	 -44.5114 	 29.8819 	 88.2567 	 
C 	 -46.5139 	 28.3216 	 89.7246 	 
H 	 -46.9966 	 27.3299 	 89.8505 	 
H 	 -46.904 	 28.6127 	 88.7588 	 
C 	 -47.2843 	 29.2821 	 90.6071 	 
H 	 -48.2953 	 29.1565 	 90.411 	 
H 	 -47.2399 	 28.9895 	 91.71 	 
C 	 -46.8266 	 30.7601 	 90.3656 	 
H 	 -47.2102 	 31.4675 	 91.097 	 
H 	 -45.7252 	 30.8739 	 90.3045 	 
H 	 -47.2956 	 31.1269 	 89.4213 	 
S 	 -41.4524 	 31.4327 	 88.4975 	 
C 	 -40.604 	 31.4484 	 86.9139 	 
C 	 -40.4369 	 30.1457 	 86.4502 	 
C 	 -41.1455 	 29.1838 	 87.2591 	 
C 	 -41.8355 	 29.7119 	 88.2922 	 
H 	 -39.9363 	 29.8509 	 85.5599 	 
C 	 -41.2721 	 27.7065 	 86.8051 	 
H 	 -41.3157 	 27.6875 	 85.6838 	 
H 	 -42.2159 	 27.3265 	 87.249 	 
C 	 -40.1045 	 26.7625 	 87.2332 	 
H 	 -40.491 	 25.7391 	 87.064 	 
H 	 -39.8112 	 26.8784 	 88.3114 	 
C 	 -38.8101 	 26.7952 	 86.4048 	 
H 	 -38.2442 	 27.7485 	 86.5181 	 
H 	 -38.957 	 26.6583 	 85.3427 	 
H 	 -38.0519 	 26.0244 	 86.7017 	 
H 	 -44.5505 	 26.707 	 91.2585 	 
H 	 -40.2406 	 32.3399 	 86.4893 	 
*
