! wB97X-D3 SP def2-SVP
%pal
nprocs 16
end

* xyz 0 1
S 	 48.2814 	 4.87431 	 86.7777 	 
C 	 47.0082 	 4.49509 	 85.709 	 
C 	 46.6412 	 3.13494 	 85.8553 	 
C 	 47.2959 	 2.51758 	 86.9555 	 
C 	 48.2604 	 3.26337 	 87.5475 	 
H 	 47.0476 	 1.55909 	 87.3288 	 
C 	 45.5613 	 2.38946 	 85.0573 	 
H 	 44.7658 	 3.07232 	 85.0364 	 
H 	 45.283 	 1.51821 	 85.6123 	 
C 	 46.0774 	 2.07842 	 83.6481 	 
H 	 47.0157 	 1.55176 	 83.7513 	 
H 	 45.2917 	 1.4239 	 83.2068 	 
C 	 45.9641 	 3.2762 	 82.7101 	 
H 	 44.8725 	 3.53707 	 82.7087 	 
H 	 46.5513 	 4.13777 	 83.0596 	 
H 	 46.3056 	 2.97671 	 81.6424 	 
S 	 48.5506 	 3.96977 	 90.1845 	 
C 	 49.3451 	 2.86538 	 91.2811 	 
C 	 49.6242 	 1.66886 	 90.6915 	 
C 	 49.4576 	 1.75626 	 89.2462 	 
C 	 48.8657 	 2.91763 	 88.8038 	 
H 	 50.1743 	 0.871818 	 91.2188 	 
C 	 49.8711 	 0.630856 	 88.4222 	 
H 	 49.1129 	 0.35307 	 87.7265 	 
H 	 49.877 	 -0.228506 	 89.1646 	 
C 	 51.2476 	 0.693109 	 87.7375 	 
H 	 51.1809 	 1.32735 	 86.8276 	 
H 	 51.5173 	 -0.329934 	 87.5371 	 
C 	 52.3991 	 1.1126 	 88.6651 	 
H 	 52.3869 	 0.559198 	 89.6302 	 
H 	 52.4771 	 2.26031 	 88.8492 	 
H 	 53.3019 	 0.86493 	 88.23 	 
H 	 46.5534 	 5.13903 	 84.973 	 
H 	 49.4328 	 3.11814 	 92.3128 	 
*
