! wB97X-D3 SP def2-SVP
%pal
nprocs 16
end

* xyz 0 1
S 	 -0.580453 	 -4.87465 	 76.782 	 
C 	 -1.43067 	 -3.49235 	 77.5086 	 
C 	 -0.548481 	 -2.47592 	 77.8689 	 
C 	 0.810365 	 -2.93196 	 77.705 	 
C 	 0.966452 	 -4.14721 	 77.0864 	 
H 	 1.71869 	 -2.45813 	 78.0387 	 
C 	 -0.784204 	 -1.1536 	 78.5651 	 
H 	 -1.24466 	 -0.382277 	 77.9277 	 
H 	 0.255142 	 -0.742184 	 78.7542 	 
C 	 -1.57733 	 -1.12742 	 79.8487 	 
H 	 -1.72162 	 -0.0636701 	 80.1136 	 
H 	 -2.59532 	 -1.50935 	 79.5775 	 
C 	 -0.892013 	 -1.96622 	 81.0083 	 
H 	 -1.57536 	 -1.98347 	 81.8842 	 
H 	 -0.492794 	 -2.92012 	 80.666 	 
H 	 -0.0626792 	 -1.30718 	 81.2433 	 
S 	 2.11004 	 -6.57784 	 76.688 	 
C 	 3.71312 	 -6.79327 	 76.0493 	 
C 	 4.30107 	 -5.54416 	 75.8758 	 
C 	 3.47832 	 -4.40615 	 76.1885 	 
C 	 2.2051 	 -4.78497 	 76.5911 	 
H 	 5.30841 	 -5.50259 	 75.4619 	 
C 	 3.83772 	 -2.94071 	 75.9846 	 
H 	 2.97111 	 -2.26147 	 76.0835 	 
H 	 3.99406 	 -2.9148 	 74.86 	 
C 	 5.10625 	 -2.43937 	 76.6835 	 
H 	 6.01724 	 -2.75385 	 76.072 	 
H 	 5.28307 	 -2.99376 	 77.6042 	 
C 	 5.19316 	 -0.969901 	 76.9152 	 
H 	 4.45175 	 -0.787996 	 77.6306 	 
H 	 4.99331 	 -0.467394 	 76.0131 	 
H 	 6.11013 	 -0.634913 	 77.3145 	 
H 	 -2.51852 	 -3.53727 	 77.593 	 
H 	 4.15244 	 -7.63173 	 75.6786 	 
*
