! wB97X-D3 SP def2-SVP
%pal
nprocs 16
end

* xyz 0 1
S 	 -56.0364 	 38.0665 	 117.038 	 
C 	 -57.2048 	 37.4229 	 118.129 	 
C 	 -58.1427 	 36.7681 	 117.341 	 
C 	 -57.8846 	 36.8308 	 115.921 	 
C 	 -56.7604 	 37.5578 	 115.587 	 
H 	 -58.4887 	 36.2991 	 115.119 	 
C 	 -59.3284 	 35.887 	 117.77 	 
H 	 -60.0279 	 36.1322 	 116.882 	 
H 	 -59.68 	 36.2316 	 118.737 	 
C 	 -59.2106 	 34.3617 	 117.766 	 
H 	 -60.1626 	 33.8738 	 117.88 	 
H 	 -58.735 	 33.8783 	 116.926 	 
C 	 -58.3369 	 33.8813 	 118.923 	 
H 	 -58.6451 	 34.524 	 119.708 	 
H 	 -58.5076 	 32.8372 	 119.103 	 
H 	 -57.2556 	 34.0776 	 118.705 	 
S 	 -55.2884 	 39.2509 	 114.073 	 
C 	 -54.9177 	 38.8297 	 112.443 	 
C 	 -55.4906 	 37.5852 	 112.086 	 
C 	 -56.1435 	 36.934 	 113.189 	 
C 	 -56.1401 	 37.7452 	 114.31 	 
H 	 -55.4237 	 37.1402 	 111.062 	 
C 	 -56.8867 	 35.5822 	 112.937 	 
H 	 -57.3011 	 35.211 	 113.871 	 
H 	 -56.1261 	 34.8681 	 112.57 	 
C 	 -57.9742 	 35.5431 	 111.855 	 
H 	 -58.3183 	 34.4959 	 111.973 	 
H 	 -57.5064 	 35.5919 	 110.908 	 
C 	 -58.9445 	 36.6434 	 111.993 	 
H 	 -59.7971 	 36.4584 	 111.314 	 
H 	 -58.4628 	 37.6045 	 111.69 	 
H 	 -59.3484 	 36.5723 	 113.007 	 
H 	 -57.3007 	 37.6276 	 119.167 	 
H 	 -54.5528 	 39.4828 	 111.61 	 
*
