! wB97X-D3 SP def2-SVP
%pal
nprocs 16
end

* xyz 0 1
S 	 -2.12279 	 13.3924 	 85.4846 	 
C 	 -3.17718 	 12.9081 	 84.1359 	 
C 	 -2.43905 	 12.4293 	 83.1117 	 
C 	 -1.03577 	 12.3531 	 83.4057 	 
C 	 -0.674682 	 12.7581 	 84.6566 	 
H 	 -0.252338 	 12.1312 	 82.6947 	 
C 	 -2.9556 	 12.1852 	 81.6865 	 
H 	 -2.18758 	 12.404 	 80.9836 	 
H 	 -3.63283 	 13.0252 	 81.4431 	 
C 	 -3.6236 	 10.7967 	 81.584 	 
H 	 -2.90916 	 10.0958 	 81.919 	 
H 	 -4.58901 	 10.7139 	 82.1117 	 
C 	 -3.91267 	 10.3835 	 80.163 	 
H 	 -4.56072 	 11.1275 	 79.6507 	 
H 	 -3.05942 	 10.4467 	 79.5236 	 
H 	 -4.4134 	 9.35718 	 80.0662 	 
S 	 0.681357 	 12.2955 	 86.9372 	 
C 	 2.39577 	 12.6153 	 86.9137 	 
C 	 2.87397 	 13.086 	 85.7495 	 
C 	 1.88289 	 13.0646 	 84.7286 	 
C 	 0.59981 	 12.8776 	 85.2312 	 
H 	 3.90048 	 13.3043 	 85.5819 	 
C 	 2.24745 	 13.4065 	 83.3028 	 
H 	 3.08262 	 14.2361 	 83.4018 	 
H 	 1.38641 	 13.812 	 82.8119 	 
C 	 2.70766 	 12.1909 	 82.4429 	 
H 	 2.03171 	 11.3395 	 82.4271 	 
H 	 3.65888 	 11.8415 	 82.8215 	 
C 	 2.76751 	 12.5663 	 80.9632 	 
H 	 1.73987 	 12.7181 	 80.5894 	 
H 	 3.27389 	 11.8984 	 80.2077 	 
H 	 3.5029 	 13.4116 	 80.8985 	 
H 	 -4.20396 	 13.1987 	 84.151 	 
H 	 3.01296 	 12.4995 	 87.7813 	 
*
