! wB97X-D3 SP def2-SVP
%pal
nprocs 16
end

* xyz 0 1
S 	 35.2433 	 23.9653 	 45.5629 	 
C 	 35.7774 	 25.2059 	 46.6058 	 
C 	 36.5009 	 24.7537 	 47.7048 	 
C 	 36.783 	 23.3993 	 47.5185 	 
C 	 36.0258 	 22.7371 	 46.5328 	 
H 	 37.3527 	 22.7844 	 48.1766 	 
C 	 36.9163 	 25.5528 	 48.846 	 
H 	 37.2439 	 26.5343 	 48.4771 	 
H 	 37.8452 	 25.1197 	 49.167 	 
C 	 36.0019 	 25.8451 	 50.02 	 
H 	 35.1853 	 26.3737 	 49.5719 	 
H 	 35.7326 	 24.8862 	 50.3901 	 
C 	 36.6043 	 26.7252 	 51.2168 	 
H 	 35.7932 	 27.3317 	 51.5713 	 
H 	 36.9808 	 26.1496 	 52.0225 	 
H 	 37.4306 	 27.2838 	 50.7914 	 
S 	 35.8769 	 20.4813 	 44.8558 	 
C 	 35.136 	 19.0144 	 45.4929 	 
C 	 35.2313 	 18.9767 	 46.8696 	 
C 	 35.6494 	 20.2513 	 47.3668 	 
C 	 35.8339 	 21.2771 	 46.4192 	 
H 	 35.1106 	 17.9895 	 47.3529 	 
C 	 35.9007 	 20.3482 	 48.8395 	 
H 	 34.9614 	 19.8485 	 49.2139 	 
H 	 35.8473 	 21.3875 	 49.0484 	 
C 	 37.1916 	 19.8133 	 49.3977 	 
H 	 38.0867 	 20.1364 	 48.765 	 
H 	 37.1612 	 18.8148 	 49.2406 	 
C 	 37.3688 	 20.2208 	 50.8612 	 
H 	 38.3174 	 19.6632 	 51.031 	 
H 	 36.567 	 19.9818 	 51.5276 	 
H 	 37.5328 	 21.3203 	 50.9294 	 
H 	 35.532 	 26.2646 	 46.6343 	 
H 	 35.0436 	 18.1286 	 44.9203 	 
*
