! wB97X-D3 SP def2-SVP
%pal
nprocs 16
end

* xyz 0 1
S 	 7.25641 	 -20.3101 	 87.0825 	 
C 	 7.09923 	 -21.0804 	 88.5982 	 
C 	 6.64363 	 -20.2656 	 89.5665 	 
C 	 6.79503 	 -18.9123 	 89.1461 	 
C 	 7.09478 	 -18.7672 	 87.8823 	 
H 	 6.67685 	 -18.0164 	 89.7656 	 
C 	 6.28303 	 -20.7191 	 90.9223 	 
H 	 7.217 	 -20.5492 	 91.5233 	 
H 	 6.13384 	 -21.7928 	 90.9016 	 
C 	 4.98541 	 -20.0956 	 91.603 	 
H 	 5.12406 	 -20.391 	 92.6956 	 
H 	 4.93626 	 -19.0016 	 91.5572 	 
C 	 3.71073 	 -20.649 	 91.0376 	 
H 	 3.65603 	 -20.4828 	 90.01 	 
H 	 3.63093 	 -21.7234 	 91.2408 	 
H 	 2.93912 	 -20.0941 	 91.5462 	 
S 	 8.83033 	 -17.4724 	 86.1377 	 
C 	 8.47978 	 -15.7984 	 85.5783 	 
C 	 7.43266 	 -15.255 	 86.2613 	 
C 	 6.84275 	 -16.2184 	 87.1588 	 
C 	 7.42579 	 -17.4915 	 87.2124 	 
H 	 7.27353 	 -14.1837 	 86.094 	 
C 	 5.63639 	 -15.8193 	 87.8873 	 
H 	 5.40468 	 -16.6645 	 88.5441 	 
H 	 4.83681 	 -15.637 	 87.2493 	 
C 	 5.78277 	 -14.5224 	 88.6994 	 
H 	 5.45803 	 -13.7393 	 88.0612 	 
H 	 6.80794 	 -14.3569 	 88.9584 	 
C 	 4.91503 	 -14.7036 	 90.0052 	 
H 	 3.86477 	 -15.0232 	 89.7397 	 
H 	 4.84878 	 -13.7505 	 90.5237 	 
H 	 5.21438 	 -15.431 	 90.7045 	 
H 	 7.45068 	 -22.0992 	 88.8072 	 
H 	 9.05905 	 -15.2267 	 84.8127 	 
*
