! wB97X-D3 SP def2-SVP
%pal
nprocs 16
end

* xyz 0 1
S 	 68.3309 	 17.3485 	 73.5325 	 
C 	 69.7013 	 17.3781 	 72.3957 	 
C 	 70.596 	 18.337 	 72.8016 	 
C 	 70.2844 	 18.8961 	 74.0694 	 
C 	 69.0432 	 18.503 	 74.5799 	 
H 	 70.8898 	 19.6168 	 74.5013 	 
C 	 71.9277 	 18.6539 	 72.0733 	 
H 	 71.8283 	 18.117 	 71.1106 	 
H 	 72.7759 	 18.1849 	 72.5264 	 
C 	 72.3301 	 20.1359 	 71.9006 	 
H 	 72.5091 	 20.5679 	 72.8839 	 
H 	 73.3191 	 20.3198 	 71.5619 	 
C 	 71.2737 	 21.0543 	 71.3179 	 
H 	 70.8835 	 20.8011 	 70.3349 	 
H 	 70.3184 	 21.0545 	 71.9291 	 
H 	 71.6899 	 22.0749 	 71.3096 	 
S 	 66.8604 	 19.8758 	 75.5992 	 
C 	 66.9161 	 20.3435 	 77.2853 	 
C 	 67.8267 	 19.5592 	 77.9481 	 
C 	 68.7716 	 18.8693 	 77.1486 	 
C 	 68.4042 	 18.9547 	 75.7925 	 
H 	 67.848 	 19.6548 	 79.0312 	 
C 	 69.9438 	 18.0488 	 77.6172 	 
H 	 70.5268 	 17.7574 	 76.7284 	 
H 	 69.6935 	 17.084 	 78.0115 	 
C 	 70.8704 	 18.9237 	 78.4203 	 
H 	 70.4655 	 18.9989 	 79.4455 	 
H 	 70.8821 	 19.9885 	 78.1053 	 
C 	 72.314 	 18.3687 	 78.4539 	 
H 	 72.9198 	 18.3969 	 77.5516 	 
H 	 72.1845 	 17.2853 	 78.6186 	 
H 	 72.8857 	 18.8444 	 79.2693 	 
H 	 69.7659 	 16.8434 	 71.4912 	 
H 	 66.1408 	 20.8448 	 77.8001 	 
*
