! wB97X-D3 SP def2-SVP
%pal
nprocs 16
end

* xyz 0 1
S 	 -95.2082 	 51.9544 	 121.615 	 
C 	 -96.5584 	 51.0142 	 121.142 	 
C 	 -97.2417 	 50.3344 	 122.132 	 
C 	 -96.4748 	 50.467 	 123.33 	 
C 	 -95.2764 	 51.2642 	 123.227 	 
H 	 -96.8994 	 50.0348 	 124.197 	 
C 	 -98.5803 	 49.6606 	 122.066 	 
H 	 -98.5405 	 48.8555 	 122.791 	 
H 	 -98.7298 	 49.0484 	 121.224 	 
C 	 -99.7731 	 50.603 	 122.26 	 
H 	 -100.532 	 50.0107 	 122.758 	 
H 	 -99.4072 	 51.3535 	 122.932 	 
C 	 -100.356 	 51.1775 	 120.975 	 
H 	 -101.113 	 50.5005 	 120.515 	 
H 	 -100.785 	 52.0711 	 121.175 	 
H 	 -99.5305 	 51.381 	 120.318 	 
S 	 -92.5468 	 51.7187 	 123.396 	 
C 	 -91.7544 	 51.5817 	 124.88 	 
C 	 -92.6203 	 51.446 	 125.93 	 
C 	 -93.9495 	 51.2815 	 125.51 	 
C 	 -94.0878 	 51.3089 	 124.121 	 
H 	 -92.2666 	 51.2482 	 126.914 	 
C 	 -95.0566 	 50.846 	 126.524 	 
H 	 -96.0722 	 51.2719 	 126.125 	 
H 	 -94.7516 	 51.3206 	 127.414 	 
C 	 -95.1846 	 49.3669 	 126.79 	 
H 	 -94.172 	 48.9927 	 126.924 	 
H 	 -95.5948 	 48.8135 	 125.921 	 
C 	 -95.9715 	 48.8931 	 127.924 	 
H 	 -96.9989 	 49.2309 	 127.833 	 
H 	 -95.5527 	 49.353 	 128.802 	 
H 	 -95.7868 	 47.8718 	 128.177 	 
H 	 -96.9471 	 51.0935 	 120.119 	 
H 	 -90.678 	 51.481 	 125.002 	 
*
