! wB97X-D3 SP def2-SVP
%pal
nprocs 16
end

* xyz 0 1
S 	 15.3186 	 8.33276 	 88.6916 	 
C 	 16.4963 	 7.06868 	 88.4994 	 
C 	 15.8533 	 5.8735 	 88.1611 	 
C 	 14.449 	 5.99099 	 88.0492 	 
C 	 13.9677 	 7.16938 	 88.5003 	 
H 	 13.6822 	 5.28335 	 87.7314 	 
C 	 16.6481 	 4.61493 	 87.8493 	 
H 	 16.2931 	 4.22261 	 86.9198 	 
H 	 16.4775 	 3.85702 	 88.5577 	 
C 	 18.1739 	 4.87048 	 87.7038 	 
H 	 18.2999 	 5.44212 	 86.7906 	 
H 	 18.5761 	 5.51727 	 88.5074 	 
C 	 19.0584 	 3.53592 	 87.6661 	 
H 	 18.7238 	 2.93928 	 86.7611 	 
H 	 20.0783 	 3.86457 	 87.45 	 
H 	 19.0145 	 3.0411 	 88.6318 	 
S 	 11.8179 	 7.82979 	 86.8943 	 
C 	 10.2425 	 7.92792 	 87.4977 	 
C 	 10.2586 	 7.63086 	 88.8327 	 
C 	 11.5653 	 7.20963 	 89.3237 	 
C 	 12.5623 	 7.4967 	 88.4298 	 
H 	 9.26224 	 7.62783 	 89.3731 	 
C 	 11.8076 	 6.66731 	 90.7106 	 
H 	 11.9036 	 7.59473 	 91.3794 	 
H 	 12.8053 	 6.23981 	 90.6981 	 
C 	 10.7188 	 5.60053 	 91.1668 	 
H 	 10.3869 	 4.99869 	 90.2468 	 
H 	 9.88058 	 6.1714 	 91.4065 	 
C 	 11.0033 	 4.64742 	 92.3129 	 
H 	 11.8001 	 4.00292 	 92.1906 	 
H 	 10.0757 	 4.14221 	 92.5471 	 
H 	 11.2208 	 5.39248 	 93.0239 	 
H 	 17.5232 	 7.23891 	 88.6617 	 
H 	 9.33964 	 8.41868 	 87.0432 	 
*
