! wB97X-D3 SP def2-SVP
%pal
nprocs 16
end

* xyz 0 1
S 	 -88.9463 	 47.1767 	 127.158 	 
C 	 -89.8276 	 48.589 	 126.671 	 
C 	 -89.0215 	 49.67 	 126.655 	 
C 	 -87.6855 	 49.3858 	 127.191 	 
C 	 -87.4595 	 48.0576 	 127.438 	 
H 	 -86.9051 	 50.0798 	 127.447 	 
C 	 -89.508 	 51.0226 	 126.115 	 
H 	 -90.5738 	 50.9289 	 126.119 	 
H 	 -89.218 	 51.1657 	 125.127 	 
C 	 -89.2919 	 52.285 	 126.997 	 
H 	 -89.8641 	 52.2801 	 127.889 	 
H 	 -88.2237 	 52.3417 	 127.384 	 
C 	 -89.5329 	 53.6301 	 126.352 	 
H 	 -88.7999 	 53.7206 	 125.543 	 
H 	 -90.5279 	 53.7325 	 125.998 	 
H 	 -89.3026 	 54.4446 	 127.096 	 
S 	 -85.9135 	 45.9673 	 126.852 	 
C 	 -84.2233 	 45.8992 	 127.309 	 
C 	 -83.8951 	 46.9239 	 128.13 	 
C 	 -84.9923 	 47.8349 	 128.291 	 
C 	 -86.1775 	 47.475 	 127.672 	 
H 	 -82.9636 	 46.8474 	 128.614 	 
C 	 -84.8179 	 49.0998 	 129.04 	 
H 	 -85.7537 	 49.6606 	 129.21 	 
H 	 -84.2454 	 49.7074 	 128.399 	 
C 	 -83.9246 	 48.9226 	 130.29 	 
H 	 -83.6087 	 49.8723 	 130.782 	 
H 	 -83.0215 	 48.3627 	 130.05 	 
C 	 -84.6497 	 48.0218 	 131.365 	 
H 	 -85.7566 	 48.273 	 131.663 	 
H 	 -84.0471 	 47.9496 	 132.285 	 
H 	 -84.647 	 46.9635 	 131.017 	 
H 	 -90.8295 	 48.459 	 126.158 	 
H 	 -83.5907 	 45.0292 	 127.019 	 
*
