! wB97X-D3 SP def2-SVP
%pal
nprocs 16
end

* xyz 0 1
S 	 -10.5949 	 33.6397 	 35.0305 	 
C 	 -9.71413 	 33.8039 	 33.4715 	 
C 	 -9.32538 	 35.0965 	 33.2322 	 
C 	 -9.76182 	 35.9932 	 34.2706 	 
C 	 -10.3428 	 35.3378 	 35.3104 	 
H 	 -9.54258 	 36.9993 	 34.4139 	 
C 	 -8.3968 	 35.6823 	 32.2199 	 
H 	 -7.45135 	 35.3625 	 32.6264 	 
H 	 -8.56415 	 36.7813 	 32.2752 	 
C 	 -8.56571 	 35.2085 	 30.7546 	 
H 	 -8.46211 	 34.1393 	 30.8637 	 
H 	 -9.673 	 35.3016 	 30.4763 	 
C 	 -7.64029 	 35.7928 	 29.7191 	 
H 	 -6.65763 	 35.4257 	 29.7556 	 
H 	 -7.99848 	 35.5178 	 28.7311 	 
H 	 -7.55939 	 36.8834 	 29.7298 	 
S 	 -10.11 	 36.6039 	 37.6797 	 
C 	 -11.5964 	 37.3336 	 38.379 	 
C 	 -12.7499 	 36.9119 	 37.7543 	 
C 	 -12.4737 	 36.1381 	 36.5853 	 
C 	 -11.1223 	 35.9194 	 36.3731 	 
H 	 -13.6941 	 37.2784 	 38.0497 	 
C 	 -13.4757 	 35.5586 	 35.6262 	 
H 	 -14.2959 	 35.485 	 36.3615 	 
H 	 -13.3718 	 34.4926 	 35.3401 	 
C 	 -13.9326 	 36.45 	 34.5482 	 
H 	 -13.0359 	 36.5081 	 33.8762 	 
H 	 -14.1257 	 37.4201 	 34.853 	 
C 	 -15.2243 	 35.9652 	 33.809 	 
H 	 -15.1313 	 34.9362 	 33.3604 	 
H 	 -15.4684 	 36.6627 	 32.9989 	 
H 	 -16.1081 	 35.9588 	 34.4612 	 
H 	 -9.38173 	 32.9709 	 32.898 	 
H 	 -11.6774 	 37.9718 	 39.2068 	 
*
