! wB97X-D3 SP def2-SVP
%pal
nprocs 16
end

* xyz 0 1
S 	 -49.8089 	 37.8261 	 81.2478 	 
C 	 -49.3832 	 37.4925 	 79.6335 	 
C 	 -49.4119 	 38.665 	 78.8949 	 
C 	 -49.868 	 39.79 	 79.5717 	 
C 	 -50.2106 	 39.5041 	 80.888 	 
H 	 -49.9754 	 40.856 	 79.3564 	 
C 	 -49.0004 	 38.8463 	 77.4182 	 
H 	 -48.0205 	 39.0329 	 77.4071 	 
H 	 -49.58 	 39.6378 	 77.0046 	 
C 	 -49.3003 	 37.608 	 76.4752 	 
H 	 -49.157 	 37.9609 	 75.4787 	 
H 	 -48.6469 	 36.8254 	 76.6236 	 
C 	 -50.768 	 37.1214 	 76.4545 	 
H 	 -50.9583 	 36.8193 	 77.4902 	 
H 	 -51.4398 	 37.93 	 76.2931 	 
H 	 -51.0304 	 36.2559 	 75.8068 	 
S 	 -50.1016 	 40.0263 	 83.5892 	 
C 	 -51.1906 	 41.2237 	 84.2385 	 
C 	 -51.6062 	 42.1328 	 83.2337 	 
C 	 -51.3431 	 41.6156 	 81.9353 	 
C 	 -50.6396 	 40.4074 	 81.9573 	 
H 	 -52.1953 	 43.0175 	 83.4266 	 
C 	 -51.9934 	 42.3604 	 80.7438 	 
H 	 -51.1959 	 42.7071 	 80.0197 	 
H 	 -52.4529 	 43.357 	 81.154 	 
C 	 -53.0176 	 41.493 	 79.9796 	 
H 	 -52.4827 	 40.6771 	 79.4336 	 
H 	 -53.53 	 41.9515 	 79.1656 	 
C 	 -54.1379 	 41.0015 	 80.8577 	 
H 	 -54.4417 	 41.6504 	 81.5414 	 
H 	 -53.8057 	 40.1009 	 81.3901 	 
H 	 -55.0362 	 40.6217 	 80.3057 	 
H 	 -49.1441 	 36.4961 	 79.3097 	 
H 	 -51.2625 	 41.4584 	 85.3434 	 
*
