! wB97X-D3 SP def2-SVP
%pal
nprocs 16
end

* xyz 0 1
S 	 39.9156 	 25.5952 	 95.8708 	 
C 	 38.7078 	 26.5525 	 95.0281 	 
C 	 38.6842 	 26.293 	 93.6734 	 
C 	 39.494 	 25.1486 	 93.3468 	 
C 	 40.1039 	 24.5711 	 94.4469 	 
H 	 39.6904 	 24.7896 	 92.3342 	 
C 	 37.8528 	 27.0548 	 92.7115 	 
H 	 37.2147 	 27.7712 	 93.1748 	 
H 	 37.1764 	 26.3183 	 92.1905 	 
C 	 38.6295 	 27.8366 	 91.6864 	 
H 	 39.2571 	 27.0887 	 91.0446 	 
H 	 38.0353 	 28.4068 	 90.953 	 
C 	 39.5365 	 28.8063 	 92.3231 	 
H 	 40.162 	 29.2154 	 91.6194 	 
H 	 38.7945 	 29.5032 	 92.698 	 
H 	 40.1296 	 28.3518 	 93.1243 	 
S 	 40.7638 	 22.053 	 95.2403 	 
C 	 42.1405 	 21.2807 	 94.5666 	 
C 	 42.8769 	 22.1203 	 93.7681 	 
C 	 42.3636 	 23.4194 	 93.6665 	 
C 	 41.1673 	 23.5281 	 94.3888 	 
H 	 43.7269 	 21.6879 	 93.2781 	 
C 	 43.0671 	 24.529 	 92.9332 	 
H 	 42.4845 	 25.4741 	 92.751 	 
H 	 43.2496 	 24.1781 	 91.9553 	 
C 	 44.3818 	 25.0221 	 93.5442 	 
H 	 44.5461 	 25.979 	 93.0438 	 
H 	 45.2519 	 24.3792 	 93.4864 	 
C 	 44.2886 	 25.3192 	 95.0481 	 
H 	 44.3426 	 24.441 	 95.6443 	 
H 	 43.4594 	 25.9172 	 95.3099 	 
H 	 45.1604 	 25.89 	 95.2954 	 
H 	 38.093 	 27.2027 	 95.6436 	 
H 	 42.2739 	 20.191 	 94.6727 	 
*
