! wB97X-D3 SP def2-SVP
%pal
nprocs 16
end

* xyz 0 1
S 	 -4.65191 	 -13.7873 	 80.2265 	 
C 	 -3.55632 	 -12.4721 	 80.0504 	 
C 	 -4.12577 	 -11.2892 	 80.3384 	 
C 	 -5.48293 	 -11.4325 	 80.7211 	 
C 	 -5.95266 	 -12.7499 	 80.6107 	 
H 	 -6.07964 	 -10.6286 	 81.17 	 
C 	 -3.36007 	 -9.92626 	 80.4373 	 
H 	 -2.37709 	 -10.1295 	 80.7168 	 
H 	 -3.66427 	 -9.34405 	 81.322 	 
C 	 -3.40608 	 -9.02151 	 79.1952 	 
H 	 -2.69763 	 -8.16306 	 79.2818 	 
H 	 -2.87 	 -9.53593 	 78.4077 	 
C 	 -4.79649 	 -8.59125 	 78.7273 	 
H 	 -4.62317 	 -8.07548 	 77.7691 	 
H 	 -5.44471 	 -9.46704 	 78.5135 	 
H 	 -5.18635 	 -7.84035 	 79.502 	 
S 	 -8.68329 	 -12.3409 	 80.671 	 
C 	 -9.72437 	 -13.6389 	 81.234 	 
C 	 -8.96427 	 -14.5919 	 81.8968 	 
C 	 -7.54905 	 -14.4415 	 81.7407 	 
C 	 -7.25475 	 -13.2893 	 81.0444 	 
H 	 -9.42078 	 -15.3599 	 82.5362 	 
C 	 -6.63457 	 -15.445 	 82.4961 	 
H 	 -6.0145 	 -15.8266 	 81.6734 	 
H 	 -7.27589 	 -16.2068 	 82.9087 	 
C 	 -5.8029 	 -14.8508 	 83.6739 	 
H 	 -5.17773 	 -14.0314 	 83.2398 	 
H 	 -5.20651 	 -15.6588 	 84.0437 	 
C 	 -6.79735 	 -14.4072 	 84.8429 	 
H 	 -7.74017 	 -14.1266 	 84.3789 	 
H 	 -6.52399 	 -13.519 	 85.4464 	 
H 	 -7.23913 	 -15.1102 	 85.5293 	 
H 	 -2.55555 	 -12.4817 	 79.7297 	 
H 	 -10.7792 	 -13.7586 	 81.1959 	 
*
