! wB97X-D3 SP def2-SVP
%pal
nprocs 16
end

* xyz 0 1
S 	 -49.9809 	 7.27219 	 81.4145 	 
C 	 -48.7943 	 8.5719 	 81.3952 	 
C 	 -49.0171 	 9.44013 	 82.4484 	 
C 	 -50.0777 	 9.00975 	 83.323 	 
C 	 -50.7662 	 7.87134 	 82.889 	 
H 	 -50.3904 	 9.55304 	 84.2075 	 
C 	 -48.3068 	 10.7985 	 82.5537 	 
H 	 -48.9769 	 11.5219 	 82.2312 	 
H 	 -47.4878 	 10.8234 	 81.8568 	 
C 	 -47.731 	 11.2988 	 83.8914 	 
H 	 -47.4815 	 12.3723 	 83.8434 	 
H 	 -48.5178 	 11.1719 	 84.6933 	 
C 	 -46.518 	 10.4818 	 84.2425 	 
H 	 -45.7251 	 10.9332 	 83.7879 	 
H 	 -46.3568 	 10.5333 	 85.2777 	 
H 	 -46.7462 	 9.45739 	 83.9718 	 
S 	 -51.2786 	 5.52804 	 83.9854 	 
C 	 -52.9141 	 5.00606 	 84.4553 	 
C 	 -53.79 	 6.01368 	 84.1651 	 
C 	 -53.1805 	 7.23821 	 83.6951 	 
C 	 -51.8398 	 7.07451 	 83.4976 	 
H 	 -54.8887 	 5.91995 	 84.3516 	 
C 	 -54.0122 	 8.38377 	 83.1628 	 
H 	 -53.6506 	 9.45886 	 83.3419 	 
H 	 -54.9485 	 8.36849 	 83.6664 	 
C 	 -54.3226 	 8.30128 	 81.6523 	 
H 	 -54.7004 	 7.3514 	 81.3681 	 
H 	 -53.3234 	 8.50144 	 81.2745 	 
C 	 -55.2083 	 9.48769 	 81.1467 	 
H 	 -56.1838 	 9.52292 	 81.7631 	 
H 	 -55.533 	 9.35348 	 80.0966 	 
H 	 -54.6986 	 10.4952 	 81.1427 	 
H 	 -48.1904 	 8.90584 	 80.5656 	 
H 	 -53.212 	 4.03265 	 84.8002 	 
*
