! wB97X-D3 SP def2-SVP
%pal
nprocs 16
end

* xyz 0 1
S 	 -30.4513 	 54.429 	 112.563 	 
C 	 -31.7382 	 54.7083 	 111.395 	 
C 	 -31.8673 	 53.5938 	 110.569 	 
C 	 -30.9375 	 52.5675 	 110.935 	 
C 	 -29.954 	 52.8723 	 111.887 	 
H 	 -30.9697 	 51.5883 	 110.423 	 
C 	 -32.9193 	 53.4073 	 109.508 	 
H 	 -33.0539 	 52.3773 	 109.415 	 
H 	 -32.4853 	 53.5836 	 108.527 	 
C 	 -34.2107 	 54.1574 	 109.77 	 
H 	 -34.4641 	 54.0089 	 110.842 	 
H 	 -33.9936 	 55.2171 	 109.534 	 
C 	 -35.404 	 53.7138 	 108.916 	 
H 	 -35.7127 	 52.7416 	 109.318 	 
H 	 -36.2734 	 54.3504 	 108.898 	 
H 	 -35.1189 	 53.5496 	 107.897 	 
S 	 -28.6137 	 52.1452 	 114.151 	 
C 	 -27.4457 	 50.8707 	 114.156 	 
C 	 -27.1037 	 50.4496 	 112.82 	 
C 	 -27.9387 	 51.1555 	 111.86 	 
C 	 -28.8602 	 52.086 	 112.435 	 
H 	 -26.278 	 49.7304 	 112.695 	 
C 	 -27.874 	 50.8603 	 110.415 	 
H 	 -26.8204 	 50.9822 	 110.093 	 
H 	 -28.5276 	 51.5835 	 109.906 	 
C 	 -28.3421 	 49.4652 	 110.048 	 
H 	 -29.4144 	 49.3153 	 110.125 	 
H 	 -28.022 	 48.8007 	 110.904 	 
C 	 -27.6762 	 48.9133 	 108.795 	 
H 	 -27.7558 	 49.6228 	 107.929 	 
H 	 -28.1434 	 47.9797 	 108.396 	 
H 	 -26.6296 	 48.7922 	 108.905 	 
H 	 -32.4302 	 55.4855 	 111.393 	 
H 	 -27.0038 	 50.5386 	 115.092 	 
*
