! wB97X-D3 SP def2-SVP
%pal
nprocs 16
end

* xyz 0 1
S 	 -8.10652 	 63.45 	 48.7098 	 
C 	 -8.56829 	 63.723 	 50.4167 	 
C 	 -7.63613 	 64.4694 	 51.0831 	 
C 	 -6.47019 	 64.7214 	 50.2423 	 
C 	 -6.59594 	 64.1973 	 48.979 	 
H 	 -5.58208 	 65.339 	 50.4097 	 
C 	 -7.93764 	 65.1343 	 52.3961 	 
H 	 -9.03084 	 65.1606 	 52.6111 	 
H 	 -7.54434 	 66.1623 	 52.3343 	 
C 	 -7.18224 	 64.499 	 53.5581 	 
H 	 -7.13283 	 63.3696 	 53.4273 	 
H 	 -6.18848 	 64.8719 	 53.4701 	 
C 	 -7.59514 	 64.997 	 54.9453 	 
H 	 -6.8492 	 65.7267 	 55.2866 	 
H 	 -8.62994 	 65.4097 	 54.9516 	 
H 	 -7.61805 	 64.2524 	 55.7609 	 
S 	 -5.07918 	 62.5641 	 47.3799 	 
C 	 -3.70759 	 63.1545 	 46.5057 	 
C 	 -3.71529 	 64.5852 	 46.5999 	 
C 	 -4.7257 	 65.1153 	 47.4407 	 
C 	 -5.55819 	 64.13 	 47.9534 	 
H 	 -2.94679 	 65.0503 	 46.0046 	 
C 	 -4.73951 	 66.5775 	 47.8606 	 
H 	 -3.78296 	 66.9447 	 47.5865 	 
H 	 -4.70266 	 66.6874 	 48.9487 	 
C 	 -5.89587 	 67.4642 	 47.2389 	 
H 	 -6.81365 	 67.099 	 47.5451 	 
H 	 -5.87686 	 67.5037 	 46.1762 	 
C 	 -5.67746 	 68.8952 	 47.5714 	 
H 	 -6.3893 	 69.3894 	 46.8539 	 
H 	 -4.74855 	 69.4102 	 47.2423 	 
H 	 -6.09596 	 69.1079 	 48.5382 	 
H 	 -9.51932 	 63.531 	 50.7921 	 
H 	 -3.04844 	 62.6197 	 45.8418 	 
*
