! wB97X-D3 SP def2-SVP
%pal
nprocs 16
end

* xyz 0 1
S 	 -46.2445 	 61.5893 	 140.615 	 
C 	 -45.2619 	 61.0896 	 141.946 	 
C 	 -43.9109 	 60.8054 	 141.487 	 
C 	 -43.8128 	 61.0271 	 140.058 	 
C 	 -44.9735 	 61.4404 	 139.487 	 
H 	 -42.9434 	 60.9227 	 139.465 	 
C 	 -42.6993 	 60.6558 	 142.416 	 
H 	 -42.9601 	 59.9624 	 143.22 	 
H 	 -42.6501 	 61.6414 	 142.827 	 
C 	 -41.3808 	 60.2907 	 141.678 	 
H 	 -41.3053 	 59.2952 	 141.149 	 
H 	 -41.2008 	 61.0952 	 140.91 	 
C 	 -40.2729 	 60.3383 	 142.751 	 
H 	 -39.2688 	 60.5372 	 142.288 	 
H 	 -40.3624 	 61.0929 	 143.444 	 
H 	 -40.2286 	 59.315 	 143.133 	 
S 	 -46.761 	 61.646 	 137.373 	 
C 	 -46.2232 	 62.1828 	 135.814 	 
C 	 -44.9064 	 62.576 	 135.864 	 
C 	 -44.2808 	 62.3606 	 137.172 	 
C 	 -45.1176 	 61.7819 	 138.079 	 
H 	 -44.3744 	 62.8478 	 134.944 	 
C 	 -42.765 	 62.5649 	 137.388 	 
H 	 -42.4874 	 62.6336 	 138.395 	 
H 	 -42.5218 	 63.5186 	 136.877 	 
C 	 -41.9723 	 61.3635 	 136.948 	 
H 	 -42.1233 	 61.1467 	 135.919 	 
H 	 -42.227 	 60.4422 	 137.435 	 
C 	 -40.4405 	 61.5415 	 137.262 	 
H 	 -39.7236 	 60.7939 	 136.89 	 
H 	 -40.4671 	 61.5989 	 138.322 	 
H 	 -40.1158 	 62.5748 	 137.023 	 
H 	 -45.5788 	 61.064 	 142.987 	 
H 	 -46.8551 	 62.126 	 134.949 	 
*
