! wB97X-D3 SP def2-SVP
%pal
nprocs 16
end

* xyz 0 1
S 	 40.8735 	 18.1941 	 46.2208 	 
C 	 41.1323 	 16.873 	 47.2912 	 
C 	 42.4692 	 16.7918 	 47.5333 	 
C 	 43.2349 	 17.7749 	 46.9102 	 
C 	 42.5486 	 18.612 	 46.039 	 
H 	 44.3564 	 17.8411 	 46.9692 	 
C 	 43.1874 	 15.6494 	 48.27 	 
H 	 42.4594 	 14.9291 	 48.6548 	 
H 	 43.7181 	 15.9637 	 49.1695 	 
C 	 44.2282 	 14.9446 	 47.3019 	 
H 	 44.9692 	 15.715 	 47.0653 	 
H 	 44.7855 	 14.2298 	 47.8982 	 
C 	 43.5694 	 14.3937 	 46.0223 	 
H 	 44.2219 	 14.025 	 45.2869 	 
H 	 42.9431 	 13.5445 	 46.3979 	 
H 	 42.9051 	 15.1243 	 45.5494 	 
S 	 43.8503 	 20.9239 	 46.4378 	 
C 	 44.4835 	 21.8086 	 44.9885 	 
C 	 44.054 	 21.2504 	 43.8174 	 
C 	 43.2945 	 20.07 	 43.9983 	 
C 	 43.1496 	 19.7427 	 45.3421 	 
H 	 44.3837 	 21.7101 	 42.9176 	 
C 	 42.8565 	 19.3613 	 42.7708 	 
H 	 42.7284 	 20.1431 	 42.1125 	 
H 	 41.8674 	 18.8626 	 42.8863 	 
C 	 43.8912 	 18.4367 	 42.1542 	 
H 	 44.8463 	 19.0874 	 42.0632 	 
H 	 43.6501 	 18.0689 	 41.1656 	 
C 	 44.1987 	 17.3285 	 43.0526 	 
H 	 44.6526 	 17.7166 	 43.9234 	 
H 	 44.8938 	 16.6125 	 42.6887 	 
H 	 43.3173 	 16.7994 	 43.374 	 
H 	 40.37 	 16.1184 	 47.5707 	 
H 	 45.1787 	 22.6596 	 44.9725 	 
*
