! wB97X-D3 SP def2-SVP
%pal
nprocs 16
end

* xyz 0 1
S 	 -5.84973 	 -11.1839 	 81.6056 	 
C 	 -6.41845 	 -10.6906 	 80.019 	 
C 	 -7.60145 	 -10.0033 	 80.1896 	 
C 	 -7.97182 	 -9.88535 	 81.5763 	 
C 	 -7.15708 	 -10.5354 	 82.4805 	 
H 	 -8.85141 	 -9.41925 	 82.0018 	 
C 	 -8.5936 	 -9.53769 	 79.0903 	 
H 	 -9.60183 	 -9.79807 	 79.4315 	 
H 	 -8.35865 	 -10.0859 	 78.1822 	 
C 	 -8.47969 	 -8.05141 	 78.7997 	 
H 	 -9.37988 	 -7.87004 	 78.198 	 
H 	 -8.37359 	 -7.56827 	 79.766 	 
C 	 -7.22218 	 -7.7017 	 77.9392 	 
H 	 -6.34364 	 -8.23717 	 78.3417 	 
H 	 -7.49322 	 -8.03236 	 76.9357 	 
H 	 -7.06875 	 -6.62382 	 77.9521 	 
S 	 -5.89643 	 -10.3424 	 84.9252 	 
C 	 -6.72563 	 -10.7546 	 86.4011 	 
C 	 -7.99924 	 -11.1523 	 86.1044 	 
C 	 -8.37924 	 -11.0876 	 84.7535 	 
C 	 -7.32571 	 -10.6777 	 83.9239 	 
H 	 -8.71703 	 -11.4081 	 86.8725 	 
C 	 -9.80979 	 -11.3855 	 84.3927 	 
H 	 -9.95445 	 -12.4114 	 84.7972 	 
H 	 -9.883 	 -11.5262 	 83.3044 	 
C 	 -10.8607 	 -10.2079 	 84.8048 	 
H 	 -10.5421 	 -9.30663 	 84.3019 	 
H 	 -10.7977 	 -10.0104 	 85.8987 	 
C 	 -12.2428 	 -10.3032 	 84.305 	 
H 	 -12.266 	 -10.534 	 83.2972 	 
H 	 -12.7245 	 -9.36606 	 84.5239 	 
H 	 -12.7223 	 -11.0879 	 84.7605 	 
H 	 -6.0973 	 -10.9595 	 79.0254 	 
H 	 -6.25362 	 -10.6751 	 87.3628 	 
*
