! wB97X-D3 SP def2-SVP
%pal
nprocs 16
end

* xyz 0 1
S 	 -12.9097 	 65.8477 	 51.9514 	 
C 	 -13.7789 	 64.3436 	 52.3453 	 
C 	 -13.1959 	 63.6854 	 53.4426 	 
C 	 -12.134 	 64.4027 	 53.9336 	 
C 	 -11.8323 	 65.5537 	 53.3237 	 
H 	 -11.5095 	 64.048 	 54.6984 	 
C 	 -13.697 	 62.4843 	 54.1007 	 
H 	 -13.8608 	 61.8658 	 53.2375 	 
H 	 -14.6659 	 62.6294 	 54.489 	 
C 	 -12.8072 	 61.6398 	 55.0064 	 
H 	 -11.9132 	 61.2781 	 54.4669 	 
H 	 -12.5827 	 62.2416 	 55.7927 	 
C 	 -13.4085 	 60.3798 	 55.5378 	 
H 	 -12.7056 	 59.8222 	 56.2333 	 
H 	 -14.2928 	 60.6926 	 56.2164 	 
H 	 -13.6163 	 59.5979 	 54.8678 	 
S 	 -10.1738 	 66.4624 	 55.2902 	 
C 	 -8.79881 	 67.5095 	 54.9489 	 
C 	 -8.77046 	 67.8018 	 53.646 	 
C 	 -9.83619 	 67.203 	 52.8803 	 
C 	 -10.7091 	 66.413 	 53.6677 	 
H 	 -8.04356 	 68.5576 	 53.2043 	 
C 	 -9.8519 	 67.3405 	 51.3755 	 
H 	 -10.5512 	 66.5529 	 50.9957 	 
H 	 -8.91207 	 67.1402 	 50.7958 	 
C 	 -10.3474 	 68.6732 	 50.9479 	 
H 	 -9.56466 	 69.378 	 51.0929 	 
H 	 -11.1067 	 69.1185 	 51.6017 	 
C 	 -10.8181 	 68.5727 	 49.4916 	 
H 	 -10.8879 	 69.587 	 49.0388 	 
H 	 -11.7988 	 68.0868 	 49.4522 	 
H 	 -10.1874 	 67.9686 	 48.8649 	 
H 	 -14.6624 	 64.0124 	 51.7782 	 
H 	 -8.23908 	 67.9931 	 55.7528 	 
*
