! wB97X-D3 SP def2-SVP
%pal
nprocs 16
end

* xyz 0 1
S 	 -35.3743 	 49.8108 	 102.523 	 
C 	 -33.9655 	 50.4745 	 103.368 	 
C 	 -34.3108 	 51.3843 	 104.33 	 
C 	 -35.6997 	 51.7628 	 104.257 	 
C 	 -36.4671 	 50.9819 	 103.367 	 
H 	 -36.0222 	 52.651 	 104.802 	 
C 	 -33.3497 	 52.1746 	 105.167 	 
H 	 -32.378 	 51.5934 	 105.403 	 
H 	 -33.8688 	 52.2843 	 106.107 	 
C 	 -33.1982 	 53.623 	 104.723 	 
H 	 -34.1894 	 54.0396 	 104.406 	 
H 	 -32.7535 	 54.3167 	 105.511 	 
C 	 -32.2241 	 53.703 	 103.532 	 
H 	 -32.1666 	 54.7332 	 103.167 	 
H 	 -31.2124 	 53.4712 	 103.961 	 
H 	 -32.5411 	 53.1603 	 102.596 	 
S 	 -38.2987 	 51.3302 	 101.363 	 
C 	 -39.9316 	 51.4229 	 101.693 	 
C 	 -40.2069 	 51.1009 	 103.014 	 
C 	 -39.0192 	 50.9625 	 103.825 	 
C 	 -37.8991 	 51.1184 	 103.098 	 
H 	 -41.274 	 51.0625 	 103.175 	 
C 	 -38.9822 	 50.6954 	 105.322 	 
H 	 -38.0051 	 50.4035 	 105.668 	 
H 	 -39.581 	 49.7699 	 105.33 	 
C 	 -39.6008 	 51.7693 	 106.155 	 
H 	 -40.6214 	 51.9845 	 105.85 	 
H 	 -39.098 	 52.7456 	 106.123 	 
C 	 -39.5037 	 51.3607 	 107.556 	 
H 	 -38.5267 	 51.0231 	 107.792 	 
H 	 -40.2069 	 50.4672 	 107.687 	 
H 	 -39.7123 	 52.2177 	 108.166 	 
H 	 -32.9226 	 50.1548 	 103.174 	 
H 	 -40.6529 	 51.6014 	 100.979 	 
*
