! wB97X-D3 SP def2-SVP
%pal
nprocs 16
end

* xyz 0 1
S 	 -70.3383 	 38.4337 	 125.09 	 
C 	 -70.8926 	 39.9517 	 125.648 	 
C 	 -70.1531 	 40.3731 	 126.794 	 
C 	 -69.266 	 39.3438 	 127.278 	 
C 	 -69.2265 	 38.2506 	 126.432 	 
H 	 -68.622 	 39.5236 	 128.129 	 
C 	 -70.3299 	 41.7566 	 127.41 	 
H 	 -71.3634 	 41.8772 	 127.555 	 
H 	 -70.0261 	 42.4884 	 126.706 	 
C 	 -69.4685 	 42.0273 	 128.674 	 
H 	 -69.3854 	 41.1222 	 129.242 	 
H 	 -68.4511 	 42.2907 	 128.453 	 
C 	 -70.0876 	 43.1332 	 129.54 	 
H 	 -71.0976 	 42.8113 	 129.782 	 
H 	 -69.5451 	 43.3358 	 130.494 	 
H 	 -70.1294 	 44.0773 	 128.943 	 
S 	 -69.2551 	 35.6193 	 126.212 	 
C 	 -67.761 	 34.7846 	 126.599 	 
C 	 -66.8563 	 35.5459 	 127.35 	 
C 	 -67.2311 	 36.9216 	 127.285 	 
C 	 -68.4616 	 37.0913 	 126.568 	 
H 	 -65.9576 	 35.096 	 127.844 	 
C 	 -66.3162 	 38.0051 	 127.934 	 
H 	 -65.4363 	 37.44 	 128.294 	 
H 	 -66.8339 	 38.3594 	 128.833 	 
C 	 -65.9873 	 39.2622 	 127.09 	 
H 	 -66.8166 	 39.8232 	 126.705 	 
H 	 -65.5638 	 38.8513 	 126.157 	 
C 	 -64.9845 	 40.2137 	 127.764 	 
H 	 -64.0329 	 39.775 	 128.169 	 
H 	 -65.4846 	 40.6109 	 128.661 	 
H 	 -64.8072 	 41.0586 	 127.228 	 
H 	 -71.6114 	 40.6155 	 125.139 	 
H 	 -67.7371 	 33.6969 	 126.587 	 
*
