! wB97X-D3 SP def2-SVP
%pal
nprocs 16
end

* xyz 0 1
S 	 -91.7656 	 60.7071 	 123.088 	 
C 	 -92.1532 	 59.4875 	 121.932 	 
C 	 -92.6304 	 58.3607 	 122.561 	 
C 	 -92.7162 	 58.4344 	 123.973 	 
C 	 -92.2628 	 59.6845 	 124.485 	 
H 	 -93.1968 	 57.6745 	 124.646 	 
C 	 -93.2406 	 57.2079 	 121.86 	 
H 	 -94.3 	 57.1729 	 122.104 	 
H 	 -92.8844 	 56.2921 	 122.316 	 
C 	 -93.031 	 57.0825 	 120.412 	 
H 	 -93.7723 	 57.6408 	 119.72 	 
H 	 -92.0406 	 57.4267 	 120.118 	 
C 	 -93.1335 	 55.6418 	 119.922 	 
H 	 -92.7538 	 55.5958 	 118.903 	 
H 	 -92.4363 	 54.9096 	 120.372 	 
H 	 -94.0622 	 55.1255 	 119.937 	 
S 	 -93.6414 	 61.5985 	 126.029 	 
C 	 -93.5639 	 61.3363 	 127.871 	 
C 	 -92.6781 	 60.3445 	 128.188 	 
C 	 -92.0596 	 59.7224 	 127.09 	 
C 	 -92.4969 	 60.21 	 125.842 	 
H 	 -92.5506 	 60.1567 	 129.3 	 
C 	 -91.0577 	 58.578 	 127.21 	 
H 	 -91.4291 	 57.7946 	 126.495 	 
H 	 -91.0917 	 58.1305 	 128.231 	 
C 	 -89.6055 	 58.9702 	 126.731 	 
H 	 -89.2535 	 59.8612 	 127.314 	 
H 	 -89.7444 	 59.3325 	 125.703 	 
C 	 -88.623 	 57.771 	 126.839 	 
H 	 -88.8924 	 57.0318 	 126.062 	 
H 	 -88.6276 	 57.3526 	 127.862 	 
H 	 -87.5973 	 58.081 	 126.609 	 
H 	 -92.0902 	 59.4533 	 120.843 	 
H 	 -94.168 	 61.7038 	 128.634 	 
*
