! wB97X-D3 SP def2-SVP
%pal
nprocs 16
end

* xyz 0 1
S 	 -39.1175 	 26.5075 	 91.5781 	 
C 	 -38.8965 	 24.7262 	 91.7624 	 
C 	 -39.0575 	 24.0869 	 90.5627 	 
C 	 -39.5045 	 24.957 	 89.5195 	 
C 	 -39.7213 	 26.2278 	 89.9381 	 
H 	 -40.0374 	 24.6441 	 88.6467 	 
C 	 -39.005 	 22.5531 	 90.2983 	 
H 	 -38.3627 	 21.9791 	 90.9696 	 
H 	 -38.5604 	 22.3604 	 89.3563 	 
C 	 -40.354 	 21.7747 	 90.4358 	 
H 	 -40.1065 	 20.6977 	 90.3075 	 
H 	 -40.8752 	 21.8056 	 91.3928 	 
C 	 -41.3874 	 22.1528 	 89.3546 	 
H 	 -41.5594 	 23.1855 	 89.3423 	 
H 	 -41.0056 	 21.8565 	 88.3491 	 
H 	 -42.4097 	 21.6659 	 89.4306 	 
S 	 -41.8335 	 27.8695 	 90.4136 	 
C 	 -42.886 	 28.2825 	 89.1158 	 
C 	 -42.3641 	 27.9879 	 87.8771 	 
C 	 -41.1 	 27.2391 	 87.8832 	 
C 	 -40.6923 	 27.1241 	 89.252 	 
H 	 -42.8052 	 28.2046 	 86.9361 	 
C 	 -40.5574 	 26.6605 	 86.6273 	 
H 	 -41.2437 	 26.7535 	 85.8314 	 
H 	 -40.4261 	 25.5788 	 86.8163 	 
C 	 -39.329 	 27.2219 	 86.0079 	 
H 	 -39.0774 	 26.7003 	 85.1219 	 
H 	 -38.5151 	 27.1905 	 86.7319 	 
C 	 -39.4226 	 28.665 	 85.5849 	 
H 	 -38.4981 	 28.9024 	 85.0817 	 
H 	 -39.4822 	 29.329 	 86.4752 	 
H 	 -40.2893 	 28.7518 	 84.8894 	 
H 	 -38.5822 	 24.1553 	 92.6842 	 
H 	 -43.7004 	 29.0694 	 89.2919 	 
*
