! wB97X-D3 SP def2-SVP
%pal
nprocs 16
end

* xyz 0 1
S 	 42.3427 	 12.012 	 83.9359 	 
C 	 42.6934 	 10.529 	 84.6603 	 
C 	 43.7994 	 10.6138 	 85.4308 	 
C 	 44.368 	 11.9405 	 85.4374 	 
C 	 43.7311 	 12.8352 	 84.5734 	 
H 	 45.2829 	 12.2986 	 85.8252 	 
C 	 44.4518 	 9.42388 	 86.0887 	 
H 	 45.3563 	 9.21199 	 85.5171 	 
H 	 43.8633 	 8.5267 	 85.9859 	 
C 	 44.9498 	 9.63202 	 87.5749 	 
H 	 45.53 	 8.88475 	 87.9702 	 
H 	 45.3708 	 10.583 	 87.7759 	 
C 	 43.7163 	 9.5987 	 88.476 	 
H 	 42.8906 	 9.00948 	 88.0524 	 
H 	 43.8374 	 9.4014 	 89.5426 	 
H 	 43.32 	 10.6259 	 88.5428 	 
S 	 43.651 	 14.7971 	 82.6229 	 
C 	 44.1537 	 16.3655 	 82.9483 	 
C 	 44.6676 	 16.4814 	 84.257 	 
C 	 44.5789 	 15.315 	 85.0191 	 
C 	 44.0578 	 14.2424 	 84.2667 	 
H 	 45.1501 	 17.3891 	 84.5097 	 
C 	 45.0759 	 15.2963 	 86.4988 	 
H 	 45.8482 	 16.1598 	 86.544 	 
H 	 45.6231 	 14.2852 	 86.6484 	 
C 	 44.1036 	 15.7057 	 87.5713 	 
H 	 43.3484 	 16.438 	 87.1732 	 
H 	 44.6205 	 16.0692 	 88.5518 	 
C 	 43.2148 	 14.4923 	 88.0969 	 
H 	 43.8656 	 13.9615 	 88.8349 	 
H 	 42.9142 	 13.7864 	 87.3485 	 
H 	 42.3281 	 14.6937 	 88.6759 	 
H 	 42.1031 	 9.70483 	 84.3818 	 
H 	 44.1927 	 17.201 	 82.1973 	 
*
