! wB97X-D3 SP def2-SVP
%pal
nprocs 16
end

* xyz 0 1
S 	 -56.1032 	 17.4493 	 87.9377 	 
C 	 -54.6794 	 17.4551 	 86.9771 	 
C 	 -54.5419 	 18.613 	 86.2631 	 
C 	 -55.7046 	 19.4922 	 86.5329 	 
C 	 -56.7069 	 18.9283 	 87.3001 	 
H 	 -55.8957 	 20.4511 	 86.108 	 
C 	 -53.3822 	 18.994 	 85.3314 	 
H 	 -52.6457 	 18.2033 	 85.6386 	 
H 	 -52.9679 	 19.9318 	 85.7419 	 
C 	 -53.6851 	 18.9927 	 83.8595 	 
H 	 -52.8192 	 18.8403 	 83.2571 	 
H 	 -54.4107 	 18.1854 	 83.5797 	 
C 	 -54.3465 	 20.1786 	 83.343 	 
H 	 -55.3326 	 20.2125 	 83.7547 	 
H 	 -53.9417 	 21.1753 	 83.4888 	 
H 	 -54.4662 	 19.9712 	 82.2508 	 
S 	 -58.6061 	 20.1047 	 85.9733 	 
C 	 -60.2576 	 20.1849 	 86.6655 	 
C 	 -60.2456 	 19.8346 	 88.05 	 
C 	 -58.9728 	 19.391 	 88.4763 	 
C 	 -58.0617 	 19.5057 	 87.4818 	 
H 	 -61.1801 	 19.7671 	 88.6559 	 
C 	 -58.7143 	 18.8681 	 89.8653 	 
H 	 -57.9622 	 17.9936 	 89.8178 	 
H 	 -59.5804 	 18.4071 	 90.3024 	 
C 	 -58.0959 	 19.8801 	 90.8546 	 
H 	 -58.9103 	 20.5844 	 91.1473 	 
H 	 -57.3435 	 20.4653 	 90.3411 	 
C 	 -57.415 	 19.1627 	 92.0397 	 
H 	 -57.0085 	 19.8222 	 92.8238 	 
H 	 -56.5303 	 18.5919 	 91.6698 	 
H 	 -58.0484 	 18.5035 	 92.6158 	 
H 	 -53.9116 	 16.7351 	 86.901 	 
H 	 -61.0828 	 20.4815 	 85.9223 	 
*
