! wB97X-D3 SP def2-SVP
%pal
nprocs 16
end

* xyz 0 1
S 	 -14.1145 	 40.6474 	 30.6102 	 
C 	 -15.0409 	 39.9695 	 31.9381 	 
C 	 -15.6469 	 38.8194 	 31.5183 	 
C 	 -15.3072 	 38.4008 	 30.203 	 
C 	 -14.4734 	 39.2895 	 29.5927 	 
H 	 -15.5077 	 37.5002 	 29.7492 	 
C 	 -16.4791 	 37.8963 	 32.3885 	 
H 	 -16.6719 	 38.5136 	 33.2618 	 
H 	 -15.784 	 37.0494 	 32.6643 	 
C 	 -17.906 	 37.5519 	 31.9587 	 
H 	 -17.8387 	 36.8376 	 31.05 	 
H 	 -18.3366 	 36.9928 	 32.8444 	 
C 	 -18.8453 	 38.7815 	 31.7397 	 
H 	 -18.3808 	 39.4211 	 30.9336 	 
H 	 -19.8486 	 38.6354 	 31.3311 	 
H 	 -18.9909 	 39.4682 	 32.5894 	 
S 	 -12.9823 	 37.6622 	 28.0781 	 
C 	 -12.2497 	 38.1982 	 26.6275 	 
C 	 -12.8952 	 39.3343 	 26.253 	 
C 	 -13.8305 	 39.9212 	 27.1726 	 
C 	 -13.8517 	 39.1105 	 28.317 	 
H 	 -12.5713 	 39.7435 	 25.3158 	 
C 	 -14.5485 	 41.1662 	 26.9763 	 
H 	 -14.1197 	 41.75 	 26.1853 	 
H 	 -14.4741 	 41.7803 	 27.857 	 
C 	 -16.058 	 40.8693 	 26.6239 	 
H 	 -16.684 	 41.7535 	 26.4829 	 
H 	 -16.5626 	 40.3061 	 27.322 	 
C 	 -16.0795 	 40.2145 	 25.22 	 
H 	 -15.6072 	 39.1906 	 25.1122 	 
H 	 -15.482 	 40.9322 	 24.6428 	 
H 	 -17.0149 	 40.2763 	 24.7035 	 
H 	 -15.2109 	 40.5393 	 32.8385 	 
H 	 -11.4366 	 37.7137 	 26.0981 	 
*
