! wB97X-D3 SP def2-SVP
%pal
nprocs 16
end

* xyz 0 1
S 	 -43.203 	 24.5508 	 87.5512 	 
C 	 -44.8579 	 24.5995 	 88.2599 	 
C 	 -45.3978 	 23.2879 	 88.3584 	 
C 	 -44.5354 	 22.3057 	 87.8629 	 
C 	 -43.3269 	 22.7873 	 87.308 	 
H 	 -44.7391 	 21.2527 	 87.7609 	 
C 	 -46.6577 	 22.9982 	 89.0999 	 
H 	 -47.4232 	 22.4909 	 88.5236 	 
H 	 -47.077 	 23.9882 	 89.3231 	 
C 	 -46.4551 	 22.3607 	 90.5548 	 
H 	 -47.4152 	 21.9634 	 90.897 	 
H 	 -45.704 	 21.5856 	 90.5779 	 
C 	 -46.1233 	 23.4356 	 91.6435 	 
H 	 -46.235 	 23.1053 	 92.6759 	 
H 	 -45.1321 	 23.935 	 91.5105 	 
H 	 -46.985 	 24.1797 	 91.5312 	 
S 	 -41.4352 	 23.0709 	 85.3347 	 
C 	 -40.2883 	 21.7513 	 85.0201 	 
C 	 -40.5105 	 20.6969 	 85.8156 	 
C 	 -41.4843 	 20.9807 	 86.8012 	 
C 	 -42.2412 	 22.124 	 86.5446 	 
H 	 -39.9198 	 19.7702 	 85.7645 	 
C 	 -41.7616 	 19.9825 	 87.9441 	 
H 	 -42.2484 	 20.5695 	 88.727 	 
H 	 -40.8013 	 19.7125 	 88.3576 	 
C 	 -42.4558 	 18.6585 	 87.5435 	 
H 	 -41.718 	 18.2804 	 86.8483 	 
H 	 -43.2693 	 18.9593 	 86.9003 	 
C 	 -42.8614 	 17.7933 	 88.7174 	 
H 	 -43.082 	 18.3803 	 89.5671 	 
H 	 -42.0688 	 17.1663 	 89.0693 	 
H 	 -43.7136 	 17.2294 	 88.2597 	 
H 	 -45.3147 	 25.499 	 88.4693 	 
H 	 -39.6393 	 21.7585 	 84.1472 	 
*
