! wB97X-D3 SP def2-SVP
%pal
nprocs 16
end

* xyz 0 1
S 	 54.4581 	 14.2426 	 76.7102 	 
C 	 55.6531 	 15.1874 	 75.8503 	 
C 	 56.8888 	 14.6478 	 75.9276 	 
C 	 56.9675 	 13.4842 	 76.7519 	 
C 	 55.7467 	 13.0782 	 77.2086 	 
H 	 57.8563 	 12.9105 	 77.0843 	 
C 	 58.0512 	 15.0098 	 75.0083 	 
H 	 57.9351 	 15.8918 	 74.3866 	 
H 	 58.0142 	 14.3062 	 74.1595 	 
C 	 59.439 	 14.9328 	 75.589 	 
H 	 59.697 	 13.887 	 75.6884 	 
H 	 60.211 	 15.4632 	 74.9896 	 
C 	 59.482 	 15.6883 	 76.8784 	 
H 	 59.11 	 15.1674 	 77.7138 	 
H 	 60.5228 	 15.8912 	 77.137 	 
H 	 59.0675 	 16.6569 	 76.9056 	 
S 	 54.4892 	 12.1236 	 79.6444 	 
C 	 54.5947 	 10.4847 	 80.0375 	 
C 	 55.3417 	 9.79729 	 79.1536 	 
C 	 55.9319 	 10.6177 	 78.1174 	 
C 	 55.3789 	 11.936 	 78.0896 	 
H 	 55.6024 	 8.73325 	 79.264 	 
C 	 56.8696 	 10.0089 	 77.1595 	 
H 	 57.3782 	 9.15435 	 77.6293 	 
H 	 57.6364 	 10.7632 	 77.0258 	 
C 	 56.2699 	 9.48231 	 75.8681 	 
H 	 55.7963 	 10.3255 	 75.3635 	 
H 	 55.5244 	 8.73289 	 76.1343 	 
C 	 57.3041 	 8.80199 	 75.0452 	 
H 	 57.975 	 9.48021 	 74.5201 	 
H 	 56.882 	 8.07059 	 74.3088 	 
H 	 57.8931 	 8.10857 	 75.6052 	 
H 	 55.3266 	 15.86 	 75.0616 	 
H 	 54.1559 	 10.0387 	 80.8797 	 
*
