! wB97X-D3 SP def2-SVP
%pal
nprocs 16
end

* xyz 0 1
S 	 -74.9897 	 53.327 	 124.013 	 
C 	 -74.1818 	 54.9005 	 124.066 	 
C 	 -74.8486 	 55.8713 	 123.47 	 
C 	 -76.0872 	 55.3778 	 122.883 	 
C 	 -76.3007 	 54.0246 	 123.073 	 
H 	 -76.7696 	 55.9524 	 122.294 	 
C 	 -74.5107 	 57.3792 	 123.411 	 
H 	 -74.9056 	 57.9207 	 122.521 	 
H 	 -73.434 	 57.5276 	 123.414 	 
C 	 -75.0417 	 58.0975 	 124.659 	 
H 	 -76.1675 	 57.8745 	 124.71 	 
H 	 -74.8143 	 57.6589 	 125.573 	 
C 	 -74.763 	 59.5994 	 124.659 	 
H 	 -74.9872 	 60.024 	 125.646 	 
H 	 -73.6977 	 59.6925 	 124.481 	 
H 	 -75.3091 	 60.1593 	 123.874 	 
S 	 -77.0541 	 51.8741 	 121.546 	 
C 	 -78.7985 	 51.4137 	 121.467 	 
C 	 -79.5543 	 52.3786 	 122.123 	 
C 	 -78.7393 	 53.3701 	 122.784 	 
C 	 -77.4175 	 53.2704 	 122.573 	 
H 	 -80.631 	 52.2778 	 122.163 	 
C 	 -79.4239 	 54.4333 	 123.673 	 
H 	 -80.414 	 54.6501 	 123.497 	 
H 	 -78.8743 	 55.4342 	 123.445 	 
C 	 -79.3927 	 54.1217 	 125.215 	 
H 	 -78.4519 	 53.7751 	 125.505 	 
H 	 -80.1584 	 53.2917 	 125.318 	 
C 	 -79.8349 	 55.2399 	 126.071 	 
H 	 -79.0441 	 55.9734 	 126.089 	 
H 	 -79.819 	 54.922 	 127.117 	 
H 	 -80.8173 	 55.6205 	 125.837 	 
H 	 -73.3898 	 55.058 	 124.708 	 
H 	 -79.153 	 50.463 	 121.057 	 
*
