! wB97X-D3 SP def2-SVP
%pal
nprocs 16
end

* xyz 0 1
S 	 -53.4126 	 44.3106 	 106.223 	 
C 	 -52.1913 	 45.4301 	 105.63 	 
C 	 -51.8177 	 46.3489 	 106.575 	 
C 	 -52.5486 	 46.1676 	 107.776 	 
C 	 -53.3256 	 45.0163 	 107.817 	 
H 	 -52.436 	 46.9056 	 108.582 	 
C 	 -50.8848 	 47.5841 	 106.297 	 
H 	 -50.3308 	 47.2557 	 105.424 	 
H 	 -50.2917 	 47.6922 	 107.188 	 
C 	 -51.5814 	 48.8914 	 106.095 	 
H 	 -52.4429 	 48.7289 	 105.509 	 
H 	 -51.9139 	 49.3332 	 107.032 	 
C 	 -50.7165 	 49.8843 	 105.39 	 
H 	 -51.383 	 50.5169 	 104.739 	 
H 	 -49.9761 	 50.5223 	 105.974 	 
H 	 -50.1616 	 49.334 	 104.621 	 
S 	 -55.8447 	 44.5105 	 108.772 	 
C 	 -56.1411 	 44.3508 	 110.421 	 
C 	 -54.943 	 44.0178 	 111.075 	 
C 	 -53.8037 	 44.1848 	 110.26 	 
C 	 -54.1137 	 44.5499 	 108.961 	 
H 	 -55.0552 	 43.7766 	 112.1 	 
C 	 -52.4148 	 44.0502 	 110.904 	 
H 	 -52.5533 	 43.7618 	 111.913 	 
H 	 -51.985 	 45.0772 	 110.906 	 
C 	 -51.4629 	 43.1133 	 110.204 	 
H 	 -51.4527 	 43.309 	 109.197 	 
H 	 -51.7887 	 42.0497 	 110.42 	 
C 	 -50.0089 	 43.2706 	 110.665 	 
H 	 -49.4636 	 42.4829 	 110.21 	 
H 	 -49.9577 	 43.2059 	 111.719 	 
H 	 -49.6128 	 44.257 	 110.334 	 
H 	 -51.8361 	 45.4174 	 104.632 	 
H 	 -57.1408 	 44.3015 	 110.776 	 
*
