! wB97X-D3 SP def2-SVP
%pal
nprocs 16
end

* xyz 0 1
S 	 -33.5056 	 62.3535 	 110.032 	 
C 	 -34.6099 	 62.9098 	 111.27 	 
C 	 -34.4064 	 64.1984 	 111.639 	 
C 	 -33.2194 	 64.6981 	 111.05 	 
C 	 -32.712 	 63.9218 	 110.045 	 
H 	 -32.7194 	 65.642 	 111.128 	 
C 	 -35.1852 	 64.9514 	 112.629 	 
H 	 -34.5589 	 65.122 	 113.486 	 
H 	 -35.8556 	 64.2594 	 113.027 	 
C 	 -35.9041 	 66.2705 	 112.241 	 
H 	 -36.3782 	 66.7531 	 113.085 	 
H 	 -35.1769 	 66.9494 	 111.827 	 
C 	 -37.0468 	 66.1481 	 111.204 	 
H 	 -36.7948 	 65.9481 	 110.134 	 
H 	 -37.8693 	 65.4836 	 111.545 	 
H 	 -37.4078 	 67.1758 	 111.136 	 
S 	 -30.2354 	 62.8383 	 109.026 	 
C 	 -29.4752 	 63.9257 	 107.862 	 
C 	 -30.0292 	 65.1738 	 107.73 	 
C 	 -31.185 	 65.3502 	 108.576 	 
C 	 -31.4645 	 64.1995 	 109.327 	 
H 	 -29.597 	 65.8446 	 107.024 	 
C 	 -32.0477 	 66.5483 	 108.456 	 
H 	 -33.0026 	 66.4129 	 108.894 	 
H 	 -32.1938 	 66.7951 	 107.367 	 
C 	 -31.3913 	 67.8172 	 109.004 	 
H 	 -32.0847 	 68.6607 	 108.881 	 
H 	 -30.5419 	 68.0637 	 108.437 	 
C 	 -30.9554 	 67.7353 	 110.55 	 
H 	 -30.4415 	 66.7709 	 110.677 	 
H 	 -31.8433 	 67.8396 	 111.233 	 
H 	 -30.2639 	 68.5547 	 110.938 	 
H 	 -35.4114 	 62.2983 	 111.659 	 
H 	 -28.7237 	 63.5291 	 107.166 	 
*
