! wB97X-D3 SP def2-SVP
%pal
nprocs 16
end

* xyz 0 1
S 	 0.984612 	 -27.3427 	 84.8048 	 
C 	 1.951 	 -28.6184 	 84.0865 	 
C 	 3.23692 	 -28.1197 	 83.9539 	 
C 	 3.42346 	 -26.7394 	 84.469 	 
C 	 2.22741 	 -26.0803 	 84.7464 	 
H 	 4.35674 	 -26.2295 	 84.5399 	 
C 	 4.52104 	 -28.8689 	 83.5223 	 
H 	 4.28054 	 -29.7841 	 83.0395 	 
H 	 5.0735 	 -29.2171 	 84.4228 	 
C 	 5.52618 	 -28.1152 	 82.5993 	 
H 	 5.0883 	 -27.588 	 81.7304 	 
H 	 6.09011 	 -27.3719 	 83.1127 	 
C 	 6.59115 	 -29.1789 	 82.1549 	 
H 	 6.22611 	 -29.996 	 81.5424 	 
H 	 7.40012 	 -28.683 	 81.6201 	 
H 	 7.16 	 -29.594 	 82.989 	 
S 	 3.28343 	 -23.9448 	 86.0407 	 
C 	 2.40479 	 -22.439 	 86.0344 	 
C 	 1.2165 	 -22.5026 	 85.4 	 
C 	 0.914277 	 -23.8108 	 84.9259 	 
C 	 1.98539 	 -24.6939 	 85.1379 	 
H 	 0.624127 	 -21.6454 	 85.1391 	 
C 	 -0.325239 	 -24.0314 	 84.0872 	 
H 	 -0.999701 	 -23.2407 	 84.2447 	 
H 	 -0.957316 	 -24.852 	 84.3964 	 
C 	 -0.0200606 	 -24.2504 	 82.5704 	 
H 	 -1.03135 	 -24.3826 	 82.1401 	 
H 	 0.467594 	 -25.2023 	 82.4879 	 
C 	 0.777372 	 -23.1519 	 81.9062 	 
H 	 1.69939 	 -22.9317 	 82.3155 	 
H 	 0.146317 	 -22.2734 	 81.9144 	 
H 	 1.011 	 -23.2886 	 80.8603 	 
H 	 1.59808 	 -29.5861 	 83.7274 	 
H 	 2.92057 	 -21.5324 	 86.2427 	 
*
