! wB97X-D3 SP def2-SVP
%pal
nprocs 16
end

* xyz 0 1
S 	 -60.8571 	 35.1869 	 134.413 	 
C 	 -59.2704 	 34.5392 	 133.986 	 
C 	 -58.438 	 35.6067 	 133.652 	 
C 	 -59.1289 	 36.8799 	 133.588 	 
C 	 -60.3994 	 36.8188 	 133.946 	 
H 	 -58.7043 	 37.7732 	 133.314 	 
C 	 -56.925 	 35.4184 	 133.331 	 
H 	 -56.6013 	 34.3627 	 133.3 	 
H 	 -56.4129 	 36.0244 	 134.117 	 
C 	 -56.4239 	 35.9976 	 131.979 	 
H 	 -56.8379 	 35.4309 	 131.21 	 
H 	 -56.8997 	 36.9888 	 131.728 	 
C 	 -54.9598 	 36.1434 	 131.854 	 
H 	 -54.77 	 36.9844 	 132.549 	 
H 	 -54.396 	 35.2844 	 132.19 	 
H 	 -54.5302 	 36.4063 	 130.897 	 
S 	 -62.1378 	 38.2403 	 135.556 	 
C 	 -62.9566 	 39.5676 	 134.854 	 
C 	 -62.6411 	 39.8287 	 133.549 	 
C 	 -61.7098 	 38.8536 	 133.042 	 
C 	 -61.3146 	 37.9657 	 134.015 	 
H 	 -63.0408 	 40.6142 	 132.965 	 
C 	 -61.3038 	 38.773 	 131.6 	 
H 	 -60.1977 	 38.7527 	 131.613 	 
H 	 -61.701 	 39.6912 	 131.098 	 
C 	 -61.9097 	 37.5995 	 130.898 	 
H 	 -62.9844 	 37.6329 	 131.286 	 
H 	 -61.4477 	 36.6816 	 131.273 	 
C 	 -61.8473 	 37.6872 	 129.376 	 
H 	 -60.7368 	 37.7565 	 128.993 	 
H 	 -62.3983 	 38.464 	 128.872 	 
H 	 -62.3355 	 36.7562 	 129.163 	 
H 	 -58.8895 	 33.5641 	 134.015 	 
H 	 -63.6325 	 40.1979 	 135.38 	 
*
