! wB97X-D3 SP def2-SVP
%pal
nprocs 16
end

* xyz 0 1
S 	 -32.5519 	 42.5484 	 94.8306 	 
C 	 -34.2182 	 42.2597 	 95.2728 	 
C 	 -34.5367 	 42.8065 	 96.5588 	 
C 	 -33.4269 	 43.5215 	 97.0355 	 
C 	 -32.3682 	 43.5944 	 96.1932 	 
H 	 -33.4744 	 43.9985 	 98.039 	 
C 	 -35.9505 	 42.7294 	 97.213 	 
H 	 -36.699 	 42.3298 	 96.4859 	 
H 	 -36.1738 	 43.8164 	 97.482 	 
C 	 -36.0251 	 42.0789 	 98.6374 	 
H 	 -35.509 	 41.0893 	 98.7418 	 
H 	 -35.5023 	 42.8364 	 99.2446 	 
C 	 -37.5274 	 41.8988 	 99.0737 	 
H 	 -37.4414 	 41.607 	 100.133 	 
H 	 -38.1703 	 42.7916 	 98.942 	 
H 	 -37.9854 	 41.0416 	 98.5689 	 
S 	 -29.6094 	 43.3023 	 96.1478 	 
C 	 -28.6112 	 44.6709 	 96.6282 	 
C 	 -29.3441 	 45.7577 	 97.0623 	 
C 	 -30.7772 	 45.4972 	 96.9664 	 
C 	 -31.0646 	 44.2316 	 96.4588 	 
H 	 -28.829 	 46.6334 	 97.5466 	 
C 	 -31.7694 	 46.5528 	 97.4794 	 
H 	 -31.1295 	 47.3015 	 97.798 	 
H 	 -32.3125 	 46.1358 	 98.3736 	 
C 	 -32.8319 	 47.1974 	 96.4763 	 
H 	 -33.3038 	 48.0554 	 96.9338 	 
H 	 -33.5719 	 46.4729 	 96.3266 	 
C 	 -32.2271 	 47.6727 	 95.1393 	 
H 	 -31.853 	 46.8682 	 94.5168 	 
H 	 -31.3973 	 48.3418 	 95.3397 	 
H 	 -32.8597 	 48.1982 	 94.547 	 
H 	 -34.9139 	 41.6574 	 94.7994 	 
H 	 -27.5757 	 44.6142 	 96.7317 	 
*
