! wB97X-D3 SP def2-SVP
%pal
nprocs 16
end

* xyz 0 1
S 	 -31.4701 	 34.258 	 39.7143 	 
C 	 -31.1292 	 35.163 	 38.2454 	 
C 	 -30.5582 	 36.3653 	 38.7155 	 
C 	 -30.3272 	 36.5256 	 40.0929 	 
C 	 -30.6128 	 35.4101 	 40.81 	 
H 	 -29.8624 	 37.3184 	 40.6045 	 
C 	 -30.0523 	 37.4401 	 37.756 	 
H 	 -30.7183 	 38.3362 	 37.7548 	 
H 	 -30.2118 	 36.9357 	 36.7809 	 
C 	 -28.5375 	 37.935 	 37.9564 	 
H 	 -28.2311 	 38.6553 	 37.2014 	 
H 	 -28.511 	 38.5324 	 38.8779 	 
C 	 -27.4164 	 36.8289 	 37.9329 	 
H 	 -26.9791 	 36.766 	 36.9239 	 
H 	 -26.5419 	 37.1087 	 38.5344 	 
H 	 -27.6004 	 35.8084 	 38.3174 	 
S 	 -30.5256 	 33.4085 	 42.5608 	 
C 	 -29.8499 	 33.5341 	 44.1434 	 
C 	 -29.3499 	 34.773 	 44.4155 	 
C 	 -29.5099 	 35.6578 	 43.3103 	 
C 	 -30.1274 	 35.0507 	 42.1916 	 
H 	 -28.9083 	 35.0193 	 45.3384 	 
C 	 -29.0853 	 37.0612 	 43.2975 	 
H 	 -29.4134 	 37.4248 	 44.2528 	 
H 	 -29.7877 	 37.6936 	 42.6895 	 
C 	 -27.5668 	 37.3493 	 43.0215 	 
H 	 -26.9278 	 36.8082 	 43.7491 	 
H 	 -27.4602 	 38.4063 	 43.0265 	 
C 	 -26.9707 	 37.0585 	 41.6175 	 
H 	 -25.9442 	 37.3524 	 41.4259 	 
H 	 -27.5634 	 37.5561 	 40.8489 	 
H 	 -27.1632 	 36.0146 	 41.4012 	 
H 	 -31.4372 	 34.9412 	 37.2382 	 
H 	 -29.7762 	 32.6875 	 44.8214 	 
*
