! wB97X-D3 SP def2-SVP
%pal
nprocs 16
end

* xyz 0 1
S 	 2.37299 	 16.5125 	 85.9011 	 
C 	 0.979714 	 16.6188 	 84.8876 	 
C 	 -0.113238 	 16.2991 	 85.6264 	 
C 	 0.149247 	 15.9112 	 86.9806 	 
C 	 1.52165 	 15.8998 	 87.276 	 
H 	 -0.639 	 15.6285 	 87.7087 	 
C 	 -1.57072 	 16.267 	 85.0981 	 
H 	 -2.22073 	 15.8643 	 85.9021 	 
H 	 -1.60026 	 15.6317 	 84.2652 	 
C 	 -2.08544 	 17.6343 	 84.6072 	 
H 	 -1.40113 	 18.0515 	 83.8995 	 
H 	 -3.02592 	 17.5869 	 84.0857 	 
C 	 -2.12179 	 18.6714 	 85.6657 	 
H 	 -2.28517 	 19.544 	 85.0716 	 
H 	 -2.98044 	 18.6496 	 86.3112 	 
H 	 -1.20491 	 18.74 	 86.2805 	 
S 	 2.66602 	 16.8586 	 89.5854 	 
C 	 3.05594 	 15.7742 	 90.9305 	 
C 	 2.41224 	 14.5503 	 90.6843 	 
C 	 1.91648 	 14.434 	 89.3627 	 
C 	 2.09937 	 15.5931 	 88.5589 	 
H 	 2.42357 	 13.6964 	 91.4093 	 
C 	 1.10924 	 13.2078 	 88.9133 	 
H 	 0.117054 	 13.4828 	 88.6798 	 
H 	 1.04436 	 12.5062 	 89.8269 	 
C 	 1.75785 	 12.3394 	 87.8219 	 
H 	 1.89195 	 12.9348 	 86.9695 	 
H 	 0.987996 	 11.6844 	 87.6037 	 
C 	 3.0632 	 11.6137 	 88.2457 	 
H 	 3.08774 	 10.6255 	 87.7211 	 
H 	 3.03385 	 11.3711 	 89.3012 	 
H 	 4.01224 	 12.1391 	 88.0002 	 
H 	 1.04487 	 16.8776 	 83.8881 	 
H 	 3.67798 	 15.9056 	 91.7288 	 
*
