! wB97X-D3 SP def2-SVP
%pal
nprocs 16
end

* xyz 0 1
S 	 -3.25908 	 -15.1544 	 84.8164 	 
C 	 -3.53913 	 -16.4234 	 85.9913 	 
C 	 -3.46977 	 -16.014 	 87.2963 	 
C 	 -3.23767 	 -14.5929 	 87.3366 	 
C 	 -3.11066 	 -13.9516 	 86.1027 	 
H 	 -3.33831 	 -13.9707 	 88.1629 	 
C 	 -3.76999 	 -16.9041 	 88.528 	 
H 	 -3.27818 	 -16.4109 	 89.3983 	 
H 	 -3.20455 	 -17.8222 	 88.3046 	 
C 	 -5.16967 	 -17.367 	 88.807 	 
H 	 -5.82062 	 -16.6498 	 89.221 	 
H 	 -5.65757 	 -17.5523 	 87.8626 	 
C 	 -5.13565 	 -18.6815 	 89.5323 	 
H 	 -5.49479 	 -18.4445 	 90.5578 	 
H 	 -5.93836 	 -19.421 	 89.2349 	 
H 	 -4.15801 	 -19.1834 	 89.6351 	 
S 	 -1.51417 	 -11.9224 	 85.406 	 
C 	 -2.12071 	 -10.3064 	 85.4419 	 
C 	 -3.43198 	 -10.2131 	 85.7682 	 
C 	 -3.95279 	 -11.5182 	 86.0841 	 
C 	 -3.08268 	 -12.5085 	 85.8743 	 
H 	 -3.91592 	 -9.25493 	 85.785 	 
C 	 -5.42461 	 -11.7448 	 86.5417 	 
H 	 -5.75471 	 -10.8299 	 86.9146 	 
H 	 -5.2722 	 -12.3398 	 87.4291 	 
C 	 -6.40526 	 -12.4499 	 85.5449 	 
H 	 -6.00731 	 -13.3373 	 85.1467 	 
H 	 -6.53526 	 -11.6749 	 84.7284 	 
C 	 -7.74325 	 -12.6995 	 86.2792 	 
H 	 -8.50042 	 -12.9933 	 85.5137 	 
H 	 -8.20285 	 -11.8404 	 86.7459 	 
H 	 -7.71053 	 -13.481 	 87.0612 	 
H 	 -3.92138 	 -17.3872 	 85.6431 	 
H 	 -1.51266 	 -9.44706 	 85.1709 	 
*
