! wB97X-D3 SP def2-SVP
%pal
nprocs 16
end

* xyz 0 1
S 	 37.7653 	 17.9541 	 74.7015 	 
C 	 36.2608 	 17.1129 	 75.0023 	 
C 	 36.2749 	 16.5099 	 76.2466 	 
C 	 37.4116 	 16.8637 	 76.9965 	 
C 	 38.2888 	 17.6747 	 76.3268 	 
H 	 37.5942 	 16.5235 	 77.9889 	 
C 	 35.2041 	 15.5051 	 76.8267 	 
H 	 34.6102 	 15.9212 	 77.6199 	 
H 	 35.7983 	 14.705 	 77.2794 	 
C 	 34.2137 	 14.7804 	 75.8408 	 
H 	 33.6924 	 15.4729 	 75.2151 	 
H 	 34.8344 	 14.1248 	 75.2378 	 
C 	 33.1828 	 13.8747 	 76.6093 	 
H 	 33.7915 	 13.0252 	 77.0759 	 
H 	 32.6676 	 14.4264 	 77.3775 	 
H 	 32.5251 	 13.4411 	 75.8873 	 
S 	 40.965 	 17.7845 	 75.5942 	 
C 	 42.0969 	 18.5249 	 76.5936 	 
C 	 41.5242 	 18.9139 	 77.8291 	 
C 	 40.1205 	 18.6331 	 77.9248 	 
C 	 39.6428 	 18.1199 	 76.6973 	 
H 	 42.0896 	 19.2286 	 78.7014 	 
C 	 39.2559 	 19.0375 	 79.1303 	 
H 	 39.7951 	 18.8778 	 80.0626 	 
H 	 38.5538 	 18.2532 	 79.2186 	 
C 	 38.675 	 20.4499 	 79.0766 	 
H 	 38.3024 	 20.7136 	 78.1158 	 
H 	 39.4889 	 21.1738 	 79.212 	 
C 	 37.6093 	 20.6254 	 80.1764 	 
H 	 36.794 	 19.864 	 80.1214 	 
H 	 37.023 	 21.5253 	 80.0273 	 
H 	 38.041 	 20.5802 	 81.1906 	 
H 	 35.5015 	 16.7954 	 74.2653 	 
H 	 43.1339 	 18.4146 	 76.4349 	 
*
