! wB97X-D3 SP def2-SVP
%pal
nprocs 16
end

* xyz 0 1
S 	 9.47788 	 -7.96335 	 63.8349 	 
C 	 7.83543 	 -7.49808 	 63.9148 	 
C 	 7.19984 	 -7.98782 	 65.0605 	 
C 	 8.02209 	 -8.97314 	 65.7123 	 
C 	 9.29269 	 -9.08873 	 65.1473 	 
H 	 7.81227 	 -9.55563 	 66.5514 	 
C 	 5.7209 	 -7.82136 	 65.3471 	 
H 	 5.15806 	 -8.34807 	 64.5012 	 
H 	 5.28783 	 -6.74628 	 65.2742 	 
C 	 5.31177 	 -8.32803 	 66.7533 	 
H 	 4.20304 	 -8.31755 	 66.7628 	 
H 	 5.57193 	 -9.37492 	 66.9246 	 
C 	 5.80593 	 -7.32368 	 67.856 	 
H 	 5.49427 	 -7.64764 	 68.8006 	 
H 	 6.93923 	 -7.24927 	 67.7983 	 
H 	 5.35187 	 -6.33132 	 67.6351 	 
S 	 12.0858 	 -9.44565 	 65.4291 	 
C 	 12.7816 	 -10.7998 	 66.2841 	 
C 	 11.686 	 -11.6651 	 66.6174 	 
C 	 10.3644 	 -11.2793 	 66.1467 	 
C 	 10.4318 	 -10.0258 	 65.4904 	 
H 	 11.9426 	 -12.5758 	 67.1501 	 
C 	 9.10967 	 -12.0929 	 66.5307 	 
H 	 8.22898 	 -11.6775 	 66.0541 	 
H 	 8.8601 	 -12.0507 	 67.5905 	 
C 	 9.18207 	 -13.5853 	 66.1497 	 
H 	 8.34801 	 -14.0989 	 66.5194 	 
H 	 10.0789 	 -14.0507 	 66.5494 	 
C 	 9.03421 	 -13.8384 	 64.6023 	 
H 	 8.04291 	 -13.5103 	 64.3008 	 
H 	 9.14883 	 -14.9469 	 64.4797 	 
H 	 9.73475 	 -13.3465 	 63.9166 	 
H 	 7.31915 	 -6.76664 	 63.2431 	 
H 	 13.8362 	 -11.0242 	 66.5947 	 
*
