! wB97X-D3 SP def2-SVP
%pal
nprocs 16
end

* xyz 0 1
S 	 -26.0558 	 -8.56859 	 91.2743 	 
C 	 -27.0132 	 -9.90608 	 90.7674 	 
C 	 -26.6151 	 -10.3632 	 89.5432 	 
C 	 -25.4726 	 -9.73287 	 88.9862 	 
C 	 -25.0936 	 -8.67171 	 89.8216 	 
H 	 -25.1269 	 -9.93083 	 88.0196 	 
C 	 -27.2317 	 -11.5587 	 88.8151 	 
H 	 -27.2806 	 -11.5037 	 87.7126 	 
H 	 -28.263 	 -11.6661 	 89.0993 	 
C 	 -26.6698 	 -12.9588 	 89.2243 	 
H 	 -26.69 	 -12.9464 	 90.3054 	 
H 	 -27.3702 	 -13.7983 	 88.964 	 
C 	 -25.1867 	 -13.1451 	 88.7286 	 
H 	 -25.1779 	 -13.2159 	 87.646 	 
H 	 -24.508 	 -12.3612 	 89.0803 	 
H 	 -24.7682 	 -14.1177 	 89.1196 	 
S 	 -23.2721 	 -6.8771 	 90.8207 	 
C 	 -22.4009 	 -5.98918 	 89.6026 	 
C 	 -22.8518 	 -6.21482 	 88.284 	 
C 	 -23.8755 	 -7.1963 	 88.1791 	 
C 	 -24.1689 	 -7.60671 	 89.492 	 
H 	 -22.3973 	 -5.66904 	 87.4725 	 
C 	 -24.7067 	 -7.335 	 86.9036 	 
H 	 -25.3952 	 -8.11939 	 86.8838 	 
H 	 -24.0679 	 -7.63354 	 86.0708 	 
C 	 -25.3536 	 -6.06497 	 86.3763 	 
H 	 -24.6312 	 -5.27226 	 86.3983 	 
H 	 -26.0924 	 -5.63709 	 87.1043 	 
C 	 -25.8926 	 -6.10876 	 84.9781 	 
H 	 -26.1937 	 -5.15038 	 84.5416 	 
H 	 -26.7278 	 -6.8245 	 84.9023 	 
H 	 -25.2119 	 -6.51487 	 84.2993 	 
H 	 -27.9893 	 -10.0964 	 91.1542 	 
H 	 -21.6807 	 -5.25087 	 89.8134 	 
*
