! wB97X-D3 SP def2-SVP
%pal
nprocs 16
end

* xyz 0 1
S 	 65.9164 	 17.4955 	 73.0984 	 
C 	 66.9233 	 16.6571 	 71.9231 	 
C 	 68.104 	 16.2353 	 72.545 	 
C 	 68.1946 	 16.6679 	 73.9267 	 
C 	 67.1015 	 17.4048 	 74.3597 	 
H 	 69.0005 	 16.4812 	 74.6758 	 
C 	 69.1465 	 15.3707 	 71.8781 	 
H 	 68.7599 	 15.0064 	 70.9117 	 
H 	 69.3561 	 14.5096 	 72.5246 	 
C 	 70.4885 	 16.0839 	 71.7763 	 
H 	 70.8485 	 16.5906 	 72.6848 	 
H 	 71.1002 	 15.2251 	 71.7108 	 
C 	 70.6229 	 16.8616 	 70.4599 	 
H 	 71.647 	 17.1604 	 70.2954 	 
H 	 70.2377 	 16.2237 	 69.6495 	 
H 	 69.9745 	 17.6802 	 70.4718 	 
S 	 65.3998 	 18.8766 	 75.8879 	 
C 	 65.8247 	 19.3046 	 77.5392 	 
C 	 66.8859 	 18.6038 	 78.0215 	 
C 	 67.5616 	 17.9053 	 76.9424 	 
C 	 66.8413 	 17.958 	 75.7273 	 
H 	 67.309 	 18.6788 	 79.026 	 
C 	 68.9115 	 17.1762 	 77.2423 	 
H 	 69.2162 	 17.6013 	 78.1973 	 
H 	 69.6279 	 17.5721 	 76.4425 	 
C 	 68.7597 	 15.6239 	 77.4143 	 
H 	 67.8704 	 15.1988 	 76.8915 	 
H 	 68.7228 	 15.3344 	 78.4766 	 
C 	 69.9404 	 14.8765 	 76.8304 	 
H 	 69.9748 	 13.8419 	 77.1747 	 
H 	 70.8919 	 15.2735 	 76.8945 	 
H 	 69.7962 	 14.7448 	 75.7502 	 
H 	 66.6751 	 16.3996 	 70.8452 	 
H 	 65.1211 	 19.8384 	 78.232 	 
*
