! wB97X-D3 SP def2-SVP
%pal
nprocs 16
end

* xyz 0 1
S 	 9.99667 	 -9.03466 	 70.65 	 
C 	 8.42564 	 -8.29167 	 70.7303 	 
C 	 8.31392 	 -7.36379 	 69.7223 	 
C 	 9.39105 	 -7.40565 	 68.7712 	 
C 	 10.3992 	 -8.2021 	 69.1808 	 
H 	 9.56577 	 -6.76335 	 67.9353 	 
C 	 7.05486 	 -6.55624 	 69.5363 	 
H 	 6.35038 	 -7.09459 	 70.1445 	 
H 	 6.74464 	 -6.49477 	 68.5594 	 
C 	 7.17528 	 -5.15793 	 70.1016 	 
H 	 7.37953 	 -5.33657 	 71.1836 	 
H 	 8.05282 	 -4.6203 	 69.685 	 
C 	 5.92108 	 -4.23363 	 69.9073 	 
H 	 6.0361 	 -3.28633 	 70.4266 	 
H 	 5.68281 	 -4.11239 	 68.8619 	 
H 	 5.00687 	 -4.6678 	 70.4069 	 
S 	 12.1135 	 -10.272 	 68.4534 	 
C 	 13.3834 	 -10.0904 	 67.3213 	 
C 	 13.3901 	 -8.75357 	 66.8853 	 
C 	 12.4123 	 -7.86483 	 67.5035 	 
C 	 11.6339 	 -8.54626 	 68.4428 	 
H 	 14.1361 	 -8.41033 	 66.1267 	 
C 	 12.2993 	 -6.36624 	 67.167 	 
H 	 11.3877 	 -6.14997 	 66.661 	 
H 	 12.9721 	 -5.96973 	 66.3875 	 
C 	 12.5785 	 -5.46928 	 68.3338 	 
H 	 13.5834 	 -5.49927 	 68.7111 	 
H 	 11.9262 	 -5.64663 	 69.2599 	 
C 	 12.4028 	 -3.95053 	 68.1585 	 
H 	 12.7648 	 -3.58016 	 67.2144 	 
H 	 12.7648 	 -3.3101 	 69.0561 	 
H 	 11.3746 	 -3.71836 	 68.1787 	 
H 	 7.6957 	 -8.54528 	 71.4945 	 
H 	 13.8978 	 -10.9172 	 66.8537 	 
*
