! wB97X-D3 SP def2-SVP
%pal
nprocs 16
end

* xyz 0 1
S 	 -61.3338 	 36.5767 	 118.036 	 
C 	 -60.2488 	 36.0613 	 119.229 	 
C 	 -59.3849 	 37.1089 	 119.629 	 
C 	 -59.5388 	 38.1821 	 118.706 	 
C 	 -60.4718 	 38.0101 	 117.714 	 
H 	 -58.9481 	 39.1034 	 118.717 	 
C 	 -58.3557 	 36.9587 	 120.767 	 
H 	 -57.4656 	 37.4321 	 120.339 	 
H 	 -58.114 	 35.9088 	 120.729 	 
C 	 -58.8767 	 37.2438 	 122.163 	 
H 	 -58.0212 	 37.0269 	 122.956 	 
H 	 -58.9706 	 38.3372 	 121.971 	 
C 	 -60.2818 	 36.6564 	 122.494 	 
H 	 -60.7308 	 37.2174 	 123.294 	 
H 	 -61.0585 	 36.6934 	 121.741 	 
H 	 -60.2045 	 35.6514 	 122.927 	 
S 	 -59.4446 	 39.6281 	 115.788 	 
C 	 -60.4946 	 40.4457 	 114.706 	 
C 	 -61.825 	 40.3014 	 115.076 	 
C 	 -62.0054 	 39.4604 	 116.269 	 
C 	 -60.8128 	 39.0067 	 116.75 	 
H 	 -62.5799 	 40.8185 	 114.497 	 
C 	 -63.4533 	 39.1106 	 116.663 	 
H 	 -63.5918 	 38.0649 	 116.735 	 
H 	 -64.1538 	 39.3605 	 115.85 	 
C 	 -64.0111 	 39.9133 	 117.851 	 
H 	 -65.1171 	 39.792 	 117.811 	 
H 	 -63.7122 	 40.9441 	 117.583 	 
C 	 -63.5095 	 39.4751 	 119.263 	 
H 	 -62.5817 	 39.9818 	 119.663 	 
H 	 -63.5275 	 38.3957 	 119.454 	 
H 	 -64.2661 	 39.9038 	 119.936 	 
H 	 -60.3044 	 35.124 	 119.725 	 
H 	 -60.2205 	 40.8701 	 113.72 	 
*
