! wB97X-D3 SP def2-SVP
%pal
nprocs 16
end

* xyz 0 1
S 	 9.5499 	 20.6172 	 41.7125 	 
C 	 9.6636 	 19.3915 	 42.8893 	 
C 	 9.81777 	 19.9456 	 44.1509 	 
C 	 9.89184 	 21.4046 	 44.1155 	 
C 	 9.70092 	 21.9181 	 42.8533 	 
H 	 9.99326 	 22.0299 	 45.0305 	 
C 	 9.94162 	 19.0894 	 45.3725 	 
H 	 9.29001 	 18.1743 	 45.3032 	 
H 	 9.33578 	 19.4141 	 46.2326 	 
C 	 11.4353 	 18.663 	 45.7197 	 
H 	 12.1388 	 19.4797 	 45.7487 	 
H 	 11.4062 	 18.3251 	 46.7397 	 
C 	 11.953 	 17.5014 	 44.7985 	 
H 	 12.2345 	 17.8849 	 43.7977 	 
H 	 12.8049 	 16.989 	 45.29 	 
H 	 11.1302 	 16.8195 	 44.73 	 
S 	 8.61771 	 24.3746 	 43.581 	 
C 	 9.0683 	 25.787 	 42.6614 	 
C 	 9.63257 	 25.4398 	 41.4626 	 
C 	 9.96727 	 24.0689 	 41.4062 	 
C 	 9.48151 	 23.31 	 42.4655 	 
H 	 9.88979 	 26.214 	 40.7473 	 
C 	 10.9191 	 23.5367 	 40.3455 	 
H 	 11.1906 	 22.5098 	 40.4589 	 
H 	 11.8338 	 24.2128 	 40.28 	 
C 	 10.312 	 23.5112 	 38.9183 	 
H 	 10.158 	 24.5492 	 38.66 	 
H 	 9.33738 	 23.0271 	 38.9791 	 
C 	 11.157 	 22.7388 	 37.8106 	 
H 	 11.0185 	 21.614 	 37.9039 	 
H 	 12.1721 	 22.9785 	 37.8847 	 
H 	 10.886 	 23.038 	 36.7551 	 
H 	 9.39753 	 18.408 	 42.7273 	 
H 	 8.86943 	 26.7883 	 42.9696 	 
*
