! wB97X-D3 SP def2-SVP
%pal
nprocs 16
end

* xyz 0 1
S 	 -41.1987 	 50.6773 	 103.015 	 
C 	 -40.0262 	 49.5912 	 103.849 	 
C 	 -38.7369 	 50.0361 	 103.675 	 
C 	 -38.7047 	 51.3024 	 102.979 	 
C 	 -39.9013 	 51.7022 	 102.454 	 
H 	 -37.789 	 51.9069 	 102.646 	 
C 	 -37.5204 	 49.2274 	 104.035 	 
H 	 -37.5055 	 48.9617 	 105.061 	 
H 	 -36.548 	 49.6529 	 103.737 	 
C 	 -37.5618 	 47.86 	 103.348 	 
H 	 -36.5679 	 47.418 	 103.666 	 
H 	 -38.3073 	 47.1656 	 103.678 	 
C 	 -37.5032 	 47.9163 	 101.901 	 
H 	 -37.3595 	 46.9426 	 101.525 	 
H 	 -38.4201 	 48.2158 	 101.32 	 
H 	 -36.6166 	 48.4578 	 101.596 	 
S 	 -40.8194 	 54.2792 	 102.6 	 
C 	 -40.8384 	 55.2947 	 101.221 	 
C 	 -40.424 	 54.6257 	 100.065 	 
C 	 -40.0898 	 53.2211 	 100.373 	 
C 	 -40.1094 	 52.9265 	 101.744 	 
H 	 -40.4014 	 55.0838 	 99.0751 	 
C 	 -39.6345 	 52.3624 	 99.2147 	 
H 	 -39.4966 	 52.9677 	 98.3252 	 
H 	 -40.4798 	 51.727 	 99.003 	 
C 	 -38.3949 	 51.4307 	 99.4458 	 
H 	 -38.5292 	 50.8115 	 100.326 	 
H 	 -37.5394 	 51.9625 	 99.8509 	 
C 	 -37.9778 	 50.7098 	 98.213 	 
H 	 -37.9076 	 51.3944 	 97.342 	 
H 	 -38.7482 	 49.9617 	 98.0714 	 
H 	 -37.0629 	 50.1476 	 98.4232 	 
H 	 -40.3005 	 48.7027 	 104.276 	 
H 	 -41.0281 	 56.3355 	 101.197 	 
*
