! wB97X-D3 SP def2-SVP
%pal
nprocs 16
end

* xyz 0 1
S 	 1.00007 	 -13.3921 	 69.097 	 
C 	 2.20917 	 -13.8442 	 67.9215 	 
C 	 2.83553 	 -15.0038 	 68.298 	 
C 	 2.52936 	 -15.4082 	 69.6355 	 
C 	 1.71091 	 -14.5008 	 70.2662 	 
H 	 2.85913 	 -16.3561 	 70.0438 	 
C 	 3.66245 	 -15.9495 	 67.445 	 
H 	 4.19711 	 -16.6662 	 68.0809 	 
H 	 4.47668 	 -15.4597 	 66.9407 	 
C 	 2.90996 	 -16.7784 	 66.4399 	 
H 	 2.09059 	 -17.2651 	 66.9879 	 
H 	 2.23936 	 -16.2244 	 65.7325 	 
C 	 3.76321 	 -17.9011 	 65.7533 	 
H 	 4.5114 	 -17.5486 	 65.0608 	 
H 	 4.50361 	 -18.2714 	 66.4275 	 
H 	 3.21656 	 -18.7014 	 65.2489 	 
S 	 -0.609999 	 -14.0339 	 71.6782 	 
C 	 -0.575728 	 -14.1453 	 73.4226 	 
C 	 0.7005 	 -14.3733 	 73.9134 	 
C 	 1.70865 	 -14.4834 	 72.8466 	 
C 	 1.09854 	 -14.4224 	 71.5853 	 
H 	 0.870142 	 -14.4494 	 74.9919 	 
C 	 3.11647 	 -14.7881 	 73.1192 	 
H 	 3.28963 	 -15.8031 	 72.9586 	 
H 	 3.16819 	 -14.4975 	 74.2385 	 
C 	 4.20583 	 -13.9203 	 72.4334 	 
H 	 3.88141 	 -12.9078 	 72.6586 	 
H 	 4.20739 	 -14.0049 	 71.3305 	 
C 	 5.63474 	 -14.1707 	 72.8931 	 
H 	 5.97027 	 -15.1941 	 72.6747 	 
H 	 5.81848 	 -13.9802 	 73.9779 	 
H 	 6.35443 	 -13.5238 	 72.4131 	 
H 	 2.23817 	 -13.3972 	 66.9064 	 
H 	 -1.40765 	 -14.2891 	 74.0787 	 
*
