! wB97X-D3 SP def2-SVP
%pal
nprocs 16
end

* xyz 0 1
S 	 -76.1242 	 50.7508 	 137.205 	 
C 	 -74.6294 	 50.1183 	 137.973 	 
C 	 -73.5217 	 50.7672 	 137.392 	 
C 	 -73.836 	 51.6717 	 136.334 	 
C 	 -75.2303 	 51.896 	 136.233 	 
H 	 -73.2757 	 52.1817 	 135.57 	 
C 	 -72.0818 	 50.6952 	 137.864 	 
H 	 -72.0208 	 49.6931 	 138.402 	 
H 	 -72.0283 	 51.5363 	 138.672 	 
C 	 -70.9608 	 50.8189 	 136.816 	 
H 	 -71.068 	 51.7383 	 136.208 	 
H 	 -70.0246 	 51.0558 	 137.369 	 
C 	 -70.9763 	 49.518 	 135.899 	 
H 	 -70.3464 	 49.6628 	 135.057 	 
H 	 -70.7613 	 48.6312 	 136.35 	 
H 	 -71.904 	 49.3923 	 135.354 	 
S 	 -77.1092 	 51.9217 	 134.194 	 
C 	 -77.345 	 53.3287 	 133.265 	 
C 	 -76.5454 	 54.3035 	 133.667 	 
C 	 -75.5867 	 54.0082 	 134.668 	 
C 	 -75.9045 	 52.7118 	 135.216 	 
H 	 -76.6793 	 55.2178 	 133.068 	 
C 	 -74.6136 	 54.9873 	 135.348 	 
H 	 -73.9909 	 55.2858 	 134.532 	 
H 	 -73.9615 	 54.4605 	 136.052 	 
C 	 -75.3496 	 56.1874 	 135.908 	 
H 	 -76.0371 	 55.8437 	 136.614 	 
H 	 -75.8712 	 56.8011 	 135.115 	 
C 	 -74.4112 	 57.0915 	 136.654 	 
H 	 -74.8715 	 57.5032 	 137.544 	 
H 	 -74.0033 	 57.8895 	 136.033 	 
H 	 -73.6057 	 56.5617 	 137.047 	 
H 	 -74.4334 	 49.5475 	 138.825 	 
H 	 -78.1566 	 53.4858 	 132.642 	 
*
