! wB97X-D3 SP def2-SVP
%pal
nprocs 16
end

* xyz 0 1
S 	 -12.9896 	 33.7762 	 39.0307 	 
C 	 -12.8367 	 35.4064 	 39.691 	 
C 	 -13.3515 	 36.3643 	 38.8818 	 
C 	 -13.7079 	 35.7666 	 37.5892 	 
C 	 -13.7531 	 34.4022 	 37.5433 	 
H 	 -13.9763 	 36.252 	 36.6903 	 
C 	 -13.0999 	 37.8613 	 39.0937 	 
H 	 -12.3495 	 38.2206 	 38.4046 	 
H 	 -12.8128 	 38.001 	 40.0788 	 
C 	 -14.2943 	 38.8167 	 38.769 	 
H 	 -15.2453 	 38.4311 	 39.1956 	 
H 	 -14.202 	 39.7027 	 39.3789 	 
C 	 -14.5015 	 39.0951 	 37.2846 	 
H 	 -13.6529 	 39.5145 	 36.7356 	 
H 	 -14.9567 	 38.3117 	 36.6788 	 
H 	 -15.2135 	 39.9369 	 37.1427 	 
S 	 -12.7482 	 32.4229 	 35.9038 	 
C 	 -13.6457 	 31.8986 	 34.4858 	 
C 	 -14.5983 	 32.8239 	 34.2521 	 
C 	 -14.9124 	 33.7055 	 35.2948 	 
C 	 -13.9739 	 33.5901 	 36.3519 	 
H 	 -15.1537 	 32.6597 	 33.3282 	 
C 	 -16.0468 	 34.7031 	 35.1592 	 
H 	 -16.141 	 35.247 	 36.1384 	 
H 	 -16.9078 	 34.1309 	 35.0654 	 
C 	 -15.8687 	 35.7437 	 34.068 	 
H 	 -15.7192 	 35.0973 	 33.241 	 
H 	 -14.9925 	 36.3163 	 34.165 	 
C 	 -17.032 	 36.7242 	 33.961 	 
H 	 -17.3177 	 37.145 	 34.9077 	 
H 	 -17.8322 	 36.2244 	 33.4742 	 
H 	 -16.8649 	 37.5889 	 33.338 	 
H 	 -12.4177 	 35.5987 	 40.6416 	 
H 	 -13.3602 	 31.1077 	 33.7942 	 
*
