! wB97X-D3 SP def2-SVP
%pal
nprocs 16
end

* xyz 0 1
S 	 6.75014 	 -10.8771 	 61.9763 	 
C 	 7.00595 	 -9.55761 	 63.1235 	 
C 	 6.26398 	 -9.7955 	 64.2762 	 
C 	 5.35054 	 -10.896 	 64.184 	 
C 	 5.53821 	 -11.6455 	 63.091 	 
H 	 4.74582 	 -11.277 	 65.0325 	 
C 	 6.45619 	 -8.96408 	 65.5635 	 
H 	 5.55176 	 -8.91844 	 66.1775 	 
H 	 6.67396 	 -7.91679 	 65.3961 	 
C 	 7.52233 	 -9.43305 	 66.4712 	 
H 	 8.42569 	 -9.44645 	 65.9113 	 
H 	 7.57899 	 -8.66256 	 67.2446 	 
C 	 7.22051 	 -10.8554 	 67.0723 	 
H 	 6.18516 	 -11.0145 	 67.3409 	 
H 	 7.47819 	 -11.5502 	 66.2599 	 
H 	 7.85509 	 -10.984 	 67.9328 	 
S 	 6.34278 	 -14.333 	 63.1024 	 
C 	 5.27167 	 -15.5777 	 62.6957 	 
C 	 3.96469 	 -15.0953 	 62.6572 	 
C 	 3.8402 	 -13.6437 	 62.7932 	 
C 	 5.10282 	 -13.0728 	 62.9011 	 
H 	 3.13786 	 -15.7372 	 62.5482 	 
C 	 2.60018 	 -12.811 	 62.9253 	 
H 	 2.91782 	 -11.8893 	 62.4616 	 
H 	 2.547 	 -12.5386 	 63.954 	 
C 	 1.37934 	 -13.4088 	 62.2511 	 
H 	 1.24288 	 -14.4528 	 62.4662 	 
H 	 1.50614 	 -13.3244 	 61.2064 	 
C 	 0.0648971 	 -12.7863 	 62.5599 	 
H 	 -0.0258854 	 -12.5954 	 63.6099 	 
H 	 -0.815783 	 -13.3567 	 62.2636 	 
H 	 -0.0269372 	 -11.7962 	 62.1268 	 
H 	 7.77125 	 -8.79923 	 63.0557 	 
H 	 5.5964 	 -16.5672 	 62.5158 	 
*
