! wB97X-D3 SP def2-SVP
%pal
nprocs 16
end

* xyz 0 1
S 	 1.02265 	 80.9031 	 48.0915 	 
C 	 1.39218 	 80.0731 	 49.6152 	 
C 	 1.63866 	 78.7484 	 49.4795 	 
C 	 1.10231 	 78.2189 	 48.2675 	 
C 	 0.734434 	 79.2716 	 47.3871 	 
H 	 1.15287 	 77.1996 	 47.8313 	 
C 	 2.04077 	 77.773 	 50.601 	 
H 	 1.26144 	 77.3561 	 51.1782 	 
H 	 2.45867 	 78.4447 	 51.3778 	 
C 	 3.03025 	 76.6274 	 50.2192 	 
H 	 3.02036 	 75.9598 	 51.0256 	 
H 	 2.52714 	 76.0482 	 49.3639 	 
C 	 4.56323 	 76.9277 	 49.7543 	 
H 	 4.59775 	 77.7461 	 49.0085 	 
H 	 5.234 	 77.2386 	 50.5496 	 
H 	 5.03935 	 76.1433 	 49.1361 	 
S 	 -1.29284 	 78.6193 	 45.672 	 
C 	 -1.04186 	 78.5208 	 43.9082 	 
C 	 0.249642 	 78.8725 	 43.6133 	 
C 	 1.09765 	 79.2729 	 44.7713 	 
C 	 0.412454 	 79.0522 	 45.9581 	 
H 	 0.446255 	 78.9449 	 42.5005 	 
C 	 2.43222 	 79.8612 	 44.5431 	 
H 	 2.8392 	 80.4991 	 45.3311 	 
H 	 2.19179 	 80.4668 	 43.6418 	 
C 	 3.55482 	 78.8832 	 44.1678 	 
H 	 4.54616 	 79.4211 	 44.3316 	 
H 	 3.5061 	 78.5953 	 43.0881 	 
C 	 3.55913 	 77.703 	 45.1094 	 
H 	 2.7129 	 77.0061 	 45.1981 	 
H 	 3.73131 	 78.0651 	 46.1136 	 
H 	 4.45001 	 77.0394 	 44.8531 	 
H 	 1.43981 	 80.601 	 50.5847 	 
H 	 -1.67369 	 78.0225 	 43.2111 	 
*
