! wB97X-D3 SP def2-SVP
%pal
nprocs 16
end

* xyz 0 1
S 	 38.3873 	 16.9608 	 65.2528 	 
C 	 37.9126 	 18.0237 	 66.5492 	 
C 	 39.0918 	 18.4364 	 67.1585 	 
C 	 40.2632 	 17.7319 	 66.8132 	 
C 	 40.0656 	 16.9049 	 65.6984 	 
H 	 41.1232 	 17.819 	 67.4353 	 
C 	 39.0891 	 19.3048 	 68.4475 	 
H 	 39.7098 	 20.1726 	 68.0224 	 
H 	 39.6677 	 18.7749 	 69.2111 	 
C 	 37.7705 	 19.8164 	 69.0675 	 
H 	 37.0857 	 20.2481 	 68.3718 	 
H 	 37.2119 	 19.0047 	 69.4979 	 
C 	 38.0064 	 20.7001 	 70.2198 	 
H 	 38.834 	 20.3177 	 70.8412 	 
H 	 38.4186 	 21.5949 	 69.8156 	 
H 	 37.1628 	 20.8362 	 70.8783 	 
S 	 41.8308 	 16.5937 	 63.599 	 
C 	 42.5927 	 14.9658 	 63.3227 	 
C 	 42.202 	 14.0707 	 64.2612 	 
C 	 41.4048 	 14.7119 	 65.327 	 
C 	 41.022 	 16.0523 	 65.0456 	 
H 	 42.6158 	 13.0354 	 64.2211 	 
C 	 40.5856 	 13.8824 	 66.3153 	 
H 	 39.9798 	 14.5781 	 66.9556 	 
H 	 41.2586 	 13.3974 	 67.0833 	 
C 	 39.791 	 12.7838 	 65.7018 	 
H 	 39.1043 	 12.3866 	 66.4507 	 
H 	 40.4115 	 11.9622 	 65.4898 	 
C 	 38.837 	 13.2434 	 64.6221 	 
H 	 38.108 	 13.9515 	 65.0089 	 
H 	 38.2695 	 12.4565 	 64.1768 	 
H 	 39.2895 	 13.7895 	 63.8368 	 
H 	 36.9863 	 18.4911 	 66.7243 	 
H 	 42.9736 	 14.5861 	 62.4072 	 
*
