! wB97X-D3 SP def2-SVP
%pal
nprocs 16
end

* xyz 0 1
S 	 -35.6672 	 72.3089 	 166.339 	 
C 	 -35.9331 	 72.9956 	 164.769 	 
C 	 -36.9541 	 73.9886 	 164.838 	 
C 	 -37.6234 	 73.9951 	 166.099 	 
C 	 -37.1444 	 73.087 	 166.981 	 
H 	 -38.4168 	 74.6003 	 166.466 	 
C 	 -37.3227 	 74.9544 	 163.738 	 
H 	 -38.1153 	 75.6393 	 164.027 	 
H 	 -37.7843 	 74.259 	 163.044 	 
C 	 -36.1896 	 75.7866 	 163.07 	 
H 	 -35.8191 	 76.5499 	 163.803 	 
H 	 -35.3191 	 75.1714 	 162.75 	 
C 	 -36.7159 	 76.6152 	 161.815 	 
H 	 -35.7955 	 77.1396 	 161.335 	 
H 	 -37.1643 	 76.0898 	 160.991 	 
H 	 -37.3454 	 77.3955 	 162.087 	 
S 	 -35.8521 	 73.4188 	 169.361 	 
C 	 -36.753 	 73.2467 	 170.852 	 
C 	 -38.0183 	 72.8247 	 170.685 	 
C 	 -38.4124 	 72.7721 	 169.307 	 
C 	 -37.3751 	 73.0349 	 168.421 	 
H 	 -38.6551 	 72.6942 	 171.524 	 
C 	 -39.8621 	 72.4538 	 168.788 	 
H 	 -40.2394 	 71.6383 	 169.414 	 
H 	 -39.7781 	 71.8737 	 167.91 	 
C 	 -40.6888 	 73.7408 	 168.559 	 
H 	 -41.6768 	 73.5497 	 168.226 	 
H 	 -40.1113 	 74.1613 	 167.669 	 
C 	 -40.6795 	 74.8484 	 169.595 	 
H 	 -39.747 	 75.4279 	 169.529 	 
H 	 -40.6562 	 74.4638 	 170.627 	 
H 	 -41.5237 	 75.4031 	 169.387 	 
H 	 -35.1801 	 73.1637 	 163.989 	 
H 	 -36.4418 	 73.5293 	 171.834 	 
*
