! wB97X-D3 SP def2-SVP
%pal
nprocs 16
end

* xyz 0 1
S 	 -37.5536 	 54.1146 	 98.5328 	 
C 	 -36.9525 	 52.9049 	 99.6779 	 
C 	 -36.8727 	 51.6592 	 99.0768 	 
C 	 -37.54 	 51.6991 	 97.8208 	 
C 	 -38.0174 	 52.9414 	 97.3647 	 
H 	 -37.6433 	 50.8503 	 97.1769 	 
C 	 -36.1882 	 50.401 	 99.5861 	 
H 	 -35.1588 	 50.4138 	 99.1791 	 
H 	 -36.5156 	 49.5739 	 98.9922 	 
C 	 -36.4574 	 50.0377 	 101.106 	 
H 	 -36.0495 	 49.0388 	 101.202 	 
H 	 -35.8013 	 50.5621 	 101.868 	 
C 	 -37.9605 	 50.2089 	 101.487 	 
H 	 -38.6447 	 49.597 	 100.834 	 
H 	 -38.1542 	 49.8381 	 102.497 	 
H 	 -38.1897 	 51.2553 	 101.32 	 
S 	 -38.1282 	 52.2392 	 94.7333 	 
C 	 -39.3194 	 52.9489 	 93.6641 	 
C 	 -40.0983 	 53.8093 	 94.4569 	 
C 	 -39.742 	 54.0148 	 95.8267 	 
C 	 -38.7202 	 53.1787 	 96.1226 	 
H 	 -40.9695 	 54.227 	 93.9905 	 
C 	 -40.5125 	 54.9021 	 96.7901 	 
H 	 -41.1292 	 55.6045 	 96.1794 	 
H 	 -39.8436 	 55.5241 	 97.3983 	 
C 	 -41.5804 	 54.2044 	 97.6162 	 
H 	 -42.3154 	 54.9567 	 98.0358 	 
H 	 -41.1249 	 53.5587 	 98.3517 	 
C 	 -42.4312 	 53.2607 	 96.8219 	 
H 	 -43.106 	 53.8942 	 96.1945 	 
H 	 -42.9949 	 52.7146 	 97.5577 	 
H 	 -41.8818 	 52.5154 	 96.2746 	 
H 	 -36.4767 	 53.0135 	 100.674 	 
H 	 -39.5492 	 52.7387 	 92.6073 	 
*
