! wB97X-D3 SP def2-SVP
%pal
nprocs 16
end

* xyz 0 1
S 	 29.2789 	 16.1095 	 70.3506 	 
C 	 28.681 	 14.7387 	 71.2651 	 
C 	 29.6223 	 14.1537 	 72.0168 	 
C 	 30.835 	 14.844 	 71.9659 	 
C 	 30.8034 	 15.9685 	 71.1465 	 
H 	 31.6491 	 14.6146 	 72.6685 	 
C 	 29.4168 	 13.019 	 73.0035 	 
H 	 30.2821 	 12.3404 	 73.0786 	 
H 	 28.6968 	 12.3578 	 72.4876 	 
C 	 28.981 	 13.5401 	 74.4103 	 
H 	 29.826 	 14.1666 	 74.6986 	 
H 	 28.108 	 14.1763 	 74.2642 	 
C 	 28.821 	 12.5208 	 75.4583 	 
H 	 29.4848 	 11.6942 	 75.3237 	 
H 	 29.083 	 12.9677 	 76.3769 	 
H 	 27.8816 	 12.0097 	 75.484 	 
S 	 31.8193 	 18.1218 	 69.6702 	 
C 	 33.4501 	 18.7022 	 69.9389 	 
C 	 33.8165 	 18.2103 	 71.2094 	 
C 	 32.8938 	 17.3396 	 71.8515 	 
C 	 31.7793 	 17.0635 	 71.1064 	 
H 	 34.7743 	 18.5471 	 71.627 	 
C 	 33.309 	 16.597 	 73.145 	 
H 	 32.4515 	 16.3119 	 73.659 	 
H 	 33.8888 	 17.2551 	 73.8687 	 
C 	 34.2253 	 15.3902 	 73.0543 	 
H 	 35.1167 	 15.7314 	 72.5789 	 
H 	 33.8999 	 14.7105 	 72.2652 	 
C 	 34.4275 	 14.6848 	 74.4333 	 
H 	 33.4329 	 14.3032 	 74.7153 	 
H 	 34.8088 	 15.2705 	 75.3406 	 
H 	 35.1573 	 13.8879 	 74.3336 	 
H 	 27.6912 	 14.3341 	 71.1809 	 
H 	 33.9179 	 19.4481 	 69.2168 	 
*
