! wB97X-D3 SP def2-SVP
%pal
nprocs 16
end

* xyz 0 1
S 	 -44.2751 	 34.7384 	 80.1648 	 
C 	 -43.6778 	 36.0342 	 79.1373 	 
C 	 -42.9118 	 35.4902 	 78.1387 	 
C 	 -42.7288 	 34.0665 	 78.3041 	 
C 	 -43.2989 	 33.5024 	 79.4736 	 
H 	 -42.0959 	 33.5125 	 77.6467 	 
C 	 -42.2075 	 36.2219 	 77.0483 	 
H 	 -41.1384 	 36.1543 	 77.1994 	 
H 	 -42.408 	 37.3298 	 77.1415 	 
C 	 -42.3924 	 35.7124 	 75.5949 	 
H 	 -41.6543 	 36.2555 	 74.9847 	 
H 	 -42.175 	 34.6155 	 75.4845 	 
C 	 -43.6976 	 36.053 	 74.9096 	 
H 	 -43.7103 	 35.7003 	 73.9149 	 
H 	 -44.5295 	 35.6165 	 75.4953 	 
H 	 -43.7119 	 37.1622 	 74.8498 	 
S 	 -44.6559 	 31.1725 	 79.7861 	 
C 	 -43.7995 	 29.7858 	 80.3589 	 
C 	 -42.4526 	 29.972 	 80.3458 	 
C 	 -42.0818 	 31.3274 	 80.0704 	 
C 	 -43.197 	 32.1231 	 79.8598 	 
H 	 -41.8955 	 29.116 	 80.6313 	 
C 	 -40.644 	 31.8349 	 80.29 	 
H 	 -40.2165 	 31.1558 	 81.0496 	 
H 	 -40.6032 	 32.8214 	 80.6629 	 
C 	 -39.8325 	 31.7434 	 78.9984 	 
H 	 -40.3284 	 32.2668 	 78.2306 	 
H 	 -39.7915 	 30.6643 	 78.6716 	 
C 	 -38.4482 	 32.3971 	 79.0835 	 
H 	 -38.352 	 33.1997 	 79.7511 	 
H 	 -38.1459 	 32.8572 	 78.0744 	 
H 	 -37.6691 	 31.6829 	 79.2214 	 
H 	 -43.9568 	 37.1347 	 79.2019 	 
H 	 -44.2455 	 28.7744 	 80.548 	 
*
