! wB97X-D3 SP def2-SVP
%pal
nprocs 16
end

* xyz 0 1
S 	 59.0674 	 16.4738 	 54.3552 	 
C 	 58.199 	 17.9928 	 54.6236 	 
C 	 56.9961 	 17.781 	 55.1928 	 
C 	 56.8332 	 16.4109 	 55.5334 	 
C 	 57.8966 	 15.5791 	 55.2881 	 
H 	 55.8729 	 16.0928 	 56.0146 	 
C 	 56.0627 	 18.8545 	 55.7473 	 
H 	 55.0111 	 18.426 	 55.8581 	 
H 	 55.992 	 19.6752 	 55.114 	 
C 	 56.6194 	 19.3952 	 57.131 	 
H 	 56.6525 	 18.5803 	 57.8703 	 
H 	 57.7065 	 19.6582 	 57.1017 	 
C 	 55.7936 	 20.6081 	 57.7327 	 
H 	 56.2824 	 21.0453 	 58.6279 	 
H 	 55.5781 	 21.4371 	 57.0004 	 
H 	 54.8334 	 20.2592 	 58.0292 	 
S 	 58.9133 	 13.4042 	 56.5235 	 
C 	 58.4113 	 11.8286 	 56.053 	 
C 	 57.5123 	 11.8678 	 55.0182 	 
C 	 57.1366 	 13.1873 	 54.6211 	 
C 	 57.8565 	 14.1377 	 55.3615 	 
H 	 57.2865 	 10.8429 	 54.7423 	 
C 	 56.0893 	 13.4005 	 53.5581 	 
H 	 56.3026 	 12.7417 	 52.8017 	 
H 	 56.2367 	 14.4391 	 53.0903 	 
C 	 54.5849 	 13.2994 	 53.9586 	 
H 	 54.4356 	 14.0555 	 54.6277 	 
H 	 54.546 	 12.3746 	 54.4857 	 
C 	 53.5595 	 13.2989 	 52.7914 	 
H 	 53.7609 	 12.5519 	 51.9968 	 
H 	 53.5908 	 14.3037 	 52.2641 	 
H 	 52.5809 	 13.0525 	 53.1377 	 
H 	 58.5985 	 18.9378 	 54.2602 	 
H 	 58.9549 	 10.9424 	 56.431 	 
*
