! wB97X-D3 SP def2-SVP
%pal
nprocs 16
end

* xyz 0 1
S 	 -23.3475 	 50.7106 	 64.8292 	 
C 	 -22.829 	 49.1168 	 64.2206 	 
C 	 -22.3404 	 48.381 	 65.302 	 
C 	 -22.3309 	 49.1865 	 66.4783 	 
C 	 -22.7283 	 50.5167 	 66.4364 	 
H 	 -21.9625 	 48.8099 	 67.4402 	 
C 	 -21.7452 	 46.9578 	 65.3715 	 
H 	 -20.6866 	 47.0088 	 65.6436 	 
H 	 -21.7978 	 46.586 	 64.3309 	 
C 	 -22.5514 	 45.9372 	 66.2204 	 
H 	 -22.0241 	 44.9938 	 66.4254 	 
H 	 -22.6427 	 46.3749 	 67.2615 	 
C 	 -23.9602 	 45.6604 	 65.5455 	 
H 	 -24.4998 	 46.5303 	 65.4733 	 
H 	 -23.9264 	 45.3103 	 64.5186 	 
H 	 -24.5153 	 44.9384 	 66.1493 	 
S 	 -23.6568 	 52.9727 	 66.9713 	 
C 	 -23.7529 	 53.601 	 68.6065 	 
C 	 -23.1721 	 52.7161 	 69.4686 	 
C 	 -22.5451 	 51.5252 	 68.8677 	 
C 	 -22.8589 	 51.4741 	 67.4995 	 
H 	 -23.0478 	 52.9499 	 70.5466 	 
C 	 -21.6503 	 50.4316 	 69.5553 	 
H 	 -20.9615 	 50.9245 	 70.2669 	 
H 	 -21.0447 	 50.1604 	 68.697 	 
C 	 -22.3929 	 49.2042 	 70.1153 	 
H 	 -23.0812 	 48.7921 	 69.3734 	 
H 	 -22.9794 	 49.4773 	 71.0081 	 
C 	 -21.4076 	 48.0766 	 70.5274 	 
H 	 -21.1197 	 47.6244 	 69.6111 	 
H 	 -21.7411 	 47.2409 	 71.2252 	 
H 	 -20.5081 	 48.5185 	 70.9766 	 
H 	 -22.8694 	 48.8066 	 63.1982 	 
H 	 -24.4013 	 54.4847 	 68.8656 	 
*
