! wB97X-D3 SP def2-SVP
%pal
nprocs 16
end

* xyz 0 1
S 	 3.52761 	 -17.8787 	 83.8855 	 
C 	 3.15054 	 -19.1323 	 85.1091 	 
C 	 2.04288 	 -18.7036 	 85.8133 	 
C 	 1.68679 	 -17.3527 	 85.5786 	 
C 	 2.52928 	 -16.6572 	 84.7291 	 
H 	 0.855097 	 -16.867 	 85.9761 	 
C 	 1.15686 	 -19.663 	 86.6752 	 
H 	 1.24105 	 -20.6389 	 86.2741 	 
H 	 0.1169 	 -19.2864 	 86.6662 	 
C 	 1.761 	 -19.8248 	 88.1171 	 
H 	 2.82325 	 -20.0401 	 88.1085 	 
H 	 1.66877 	 -18.8449 	 88.569 	 
C 	 1.08139 	 -20.7293 	 89.1883 	 
H 	 1.59734 	 -20.6206 	 90.1814 	 
H 	 0.100649 	 -20.3431 	 89.3496 	 
H 	 1.12961 	 -21.7827 	 88.9524 	 
S 	 2.2368 	 -15.2494 	 82.5273 	 
C 	 2.22936 	 -13.4866 	 82.5724 	 
C 	 2.34008 	 -12.9627 	 83.7939 	 
C 	 2.35482 	 -14.0311 	 84.7915 	 
C 	 2.43436 	 -15.3135 	 84.2008 	 
H 	 2.47765 	 -11.9695 	 83.9914 	 
C 	 2.64061 	 -13.6928 	 86.3071 	 
H 	 2.30588 	 -14.5524 	 86.8793 	 
H 	 1.92208 	 -12.8862 	 86.6255 	 
C 	 4.11646 	 -13.3613 	 86.6543 	 
H 	 4.53693 	 -12.638 	 85.9048 	 
H 	 4.59413 	 -14.3343 	 86.4551 	 
C 	 4.46358 	 -12.9478 	 88.1104 	 
H 	 3.84796 	 -12.0818 	 88.2797 	 
H 	 5.52505 	 -12.6585 	 88.3307 	 
H 	 4.27384 	 -13.7381 	 88.8816 	 
H 	 3.47833 	 -20.1502 	 85.0321 	 
H 	 2.18498 	 -12.8214 	 81.6738 	 
*
