! wB97X-D3 SP def2-SVP
%pal
nprocs 16
end

* xyz 0 1
S 	 -31.6525 	 60.7133 	 107.59 	 
C 	 -31.3308 	 61.8459 	 108.816 	 
C 	 -30.6286 	 62.8839 	 108.279 	 
C 	 -30.3681 	 62.8137 	 106.868 	 
C 	 -30.9511 	 61.6863 	 106.371 	 
H 	 -29.8583 	 63.5187 	 106.257 	 
C 	 -30.1926 	 64.0249 	 109.156 	 
H 	 -30.5189 	 63.8379 	 110.199 	 
H 	 -30.7634 	 64.9542 	 108.793 	 
C 	 -28.8152 	 64.4437 	 109.266 	 
H 	 -28.5083 	 65.1009 	 108.51 	 
H 	 -28.6955 	 65.1285 	 110.047 	 
C 	 -27.8975 	 63.2778 	 109.475 	 
H 	 -27.9251 	 62.6761 	 108.549 	 
H 	 -26.8623 	 63.5893 	 109.707 	 
H 	 -28.2539 	 62.5233 	 110.206 	 
S 	 -32.9107 	 61.0597 	 104.585 	 
C 	 -32.5217 	 60.883 	 102.861 	 
C 	 -31.1747 	 61.1372 	 102.618 	 
C 	 -30.3909 	 61.4374 	 103.82 	 
C 	 -31.2161 	 61.3756 	 104.972 	 
H 	 -30.853 	 61.1238 	 101.598 	 
C 	 -28.845 	 61.6923 	 103.64 	 
H 	 -28.6036 	 60.9901 	 102.854 	 
H 	 -28.2957 	 61.362 	 104.525 	 
C 	 -28.4992 	 63.168 	 103.229 	 
H 	 -29.3309 	 63.8384 	 103.512 	 
H 	 -28.3379 	 63.207 	 102.155 	 
C 	 -27.2137 	 63.749 	 103.826 	 
H 	 -26.3291 	 63.2595 	 103.567 	 
H 	 -27.2683 	 63.6266 	 104.855 	 
H 	 -27.1961 	 64.8253 	 103.581 	 
H 	 -31.5203 	 61.6434 	 109.816 	 
H 	 -33.2303 	 60.5505 	 102.146 	 
*
